MODEL 1
REMARK VINA RESULT:      -7.7      0.000      0.000
REMARK SMILES CCc1n[nH]c(C(=O)N[C@@]2(C(=O)OCCOCCOCCOCCOC(=O)c3ccc(-c4c5nc(c(-c6ccccc6)c6ccc([nH]6)c(-c6ccccc6)c6nc(c(-c7ccccc7)c7ccc4[nH]7)C=C6)C=C5)cc3)CCCC[C@H]2C)n1
REMARK SMILES IDX 18 1 17 2 16 3 15 4 14 5 13 6 11 7 12 8 10 9 76 10 80 11
REMARK SMILES IDX 77 12 79 13 81 14 78 15 9 16 7 17 8 18 6 20 3 21 4 22 82 23
REMARK SMILES IDX 5 24 2 26 1 27 19 28 20 29 21 30 22 31 23 32 24 33 25 34
REMARK SMILES IDX 26 35 27 36 28 37 29 38 75 39 30 40 74 41 31 42 32 43 33 44
REMARK SMILES IDX 68 45 34 46 73 47 67 48 69 49 35 50 72 51 66 52 65 53 36 55
REMARK SMILES IDX 58 56 43 57 57 58 44 59 47 60 56 61 70 62 45 63 46 64 55 66
REMARK SMILES IDX 71 67 48 68 37 69 38 70 42 71 39 72 41 73 40 74 59 75 60 76
REMARK SMILES IDX 64 77 61 78 63 79 62 80 49 81 50 82 54 83 51 84 53 85 52 86
REMARK H PARENT 9 19 5 25 69 54 47 65
REMARK Flexibility Score: inf
ROOT
ATOM      1  C   UNL A   1      32.691  37.057  31.756  1.00  0.00     0.188 C 
ENDROOT
BRANCH   1   2
ATOM      2  C   UNL A   1      34.000  37.277  32.513  1.00  0.00     0.188 C 
BRANCH   2   3
ATOM      3  O   UNL A   1      34.402  36.375  33.544  1.00  0.00    -0.376 OA
BRANCH   3   4
ATOM      4  C   UNL A   1      35.158  35.223  33.219  1.00  0.00     0.202 C 
BRANCH   4   5
ATOM      5  C   UNL A   1      34.758  33.959  33.991  1.00  0.00     0.261 C 
BRANCH   5   6
ATOM      6  O   UNL A   1      35.796  32.995  34.251  1.00  0.00    -0.461 OA
BRANCH   6   7
ATOM      7  C   UNL A   1      36.665  33.227  35.283  1.00  0.00     0.332 C 
ATOM      8  O   UNL A   1      36.347  33.740  36.352  1.00  0.00    -0.249 OA
BRANCH   7   9
ATOM      9  C   UNL A   1      38.170  32.869  34.905  1.00  0.00     0.141 C 
ATOM     10  C   UNL A   1      38.868  33.230  36.228  1.00  0.00     0.041 C 
ATOM     11  C   UNL A   1      38.736  33.672  33.692  1.00  0.00     0.023 C 
ATOM     12  C   UNL A   1      40.354  33.439  36.194  1.00  0.00     0.003 C 
ATOM     13  C   UNL A   1      40.264  33.690  33.626  1.00  0.00     0.006 C 
ATOM     14  C   UNL A   1      38.216  33.204  32.316  1.00  0.00     0.011 C 
ATOM     15  C   UNL A   1      40.904  34.107  34.940  1.00  0.00     0.000 C 
BRANCH   9  16
ATOM     16  N   UNL A   1      38.064  31.418  34.562  1.00  0.00    -0.333 N 
ATOM     17  C   UNL A   1      38.837  30.296  34.446  1.00  0.00     0.289 C 
ATOM     18  O   UNL A   1      38.262  29.307  33.978  1.00  0.00    -0.266 OA
ATOM     19  H   UNL A   1      37.129  31.196  34.349  1.00  0.00     0.165 HD
BRANCH  17  20
ATOM     20  C   UNL A   1      40.181  30.179  34.944  1.00  0.00     0.214 A 
ATOM     21  C   UNL A   1      42.262  30.281  35.345  1.00  0.00     0.151 A 
ATOM     22  N   UNL A   1      41.745  29.984  36.543  1.00  0.00    -0.158 NA
ATOM     23  N   UNL A   1      41.336  30.316  34.329  1.00  0.00    -0.207 NA
ATOM     24  N   UNL A   1      40.440  29.853  36.245  1.00  0.00    -0.255 N 
ATOM     25  H   UNL A   1      39.755  29.557  36.887  1.00  0.00     0.192 HD
BRANCH  21  26
ATOM     26  C   UNL A   1      43.701  30.631  35.150  1.00  0.00     0.076 C 
ATOM     27  C   UNL A   1      44.347  29.966  33.936  1.00  0.00     0.012 C 
ENDBRANCH  21  26
ENDBRANCH  17  20
ENDBRANCH   9  16
ENDBRANCH   7   9
ENDBRANCH   6   7
ENDBRANCH   5   6
ENDBRANCH   4   5
ENDBRANCH   3   4
ENDBRANCH   2   3
ENDBRANCH   1   2
BRANCH   1  28
ATOM     28  O   UNL A   1      32.806  36.932  30.361  1.00  0.00    -0.377 OA
BRANCH  28  29
ATOM     29  C   UNL A   1      33.287  35.678  29.938  1.00  0.00     0.188 C 
BRANCH  29  30
ATOM     30  C   UNL A   1      34.353  35.735  28.835  1.00  0.00     0.188 C 
BRANCH  30  31
ATOM     31  O   UNL A   1      34.373  34.788  27.777  1.00  0.00    -0.376 OA
BRANCH  31  32
ATOM     32  C   UNL A   1      33.966  33.435  27.846  1.00  0.00     0.202 C 
BRANCH  32  33
ATOM     33  C   UNL A   1      34.030  32.549  29.096  1.00  0.00     0.261 C 
BRANCH  33  34
ATOM     34  O   UNL A   1      34.965  31.477  29.073  1.00  0.00    -0.460 OA
BRANCH  34  35
ATOM     35  C   UNL A   1      35.668  31.321  30.223  1.00  0.00     0.338 C 
ATOM     36  O   UNL A   1      35.296  31.546  31.352  1.00  0.00    -0.246 OA
BRANCH  35  37
ATOM     37  C   UNL A   1      36.932  30.635  29.895  1.00  0.00     0.060 A 
ATOM     38  C   UNL A   1      37.552  29.871  30.892  1.00  0.00     0.016 A 
ATOM     39  C   UNL A   1      37.501  30.761  28.628  1.00  0.00     0.016 A 
ATOM     40  C   UNL A   1      38.761  29.238  30.631  1.00  0.00     0.010 A 
ATOM     41  C   UNL A   1      38.737  30.166  28.381  1.00  0.00     0.010 A 
ATOM     42  C   UNL A   1      39.382  29.434  29.394  1.00  0.00    -0.014 A 
BRANCH  42  43
ATOM     43  C   UNL A   1      40.808  29.086  29.245  1.00  0.00     0.031 A 
ATOM     44  C   UNL A   1      41.142  27.695  28.791  1.00  0.00     0.074 A 
ATOM     45  C   UNL A   1      41.773  29.985  29.492  1.00  0.00     0.049 A 
ATOM     46  N   UNL A   1      42.308  27.123  28.657  1.00  0.00    -0.248 NA
ATOM     47  C   UNL A   1      39.999  26.828  28.447  1.00  0.00     0.031 C 
ATOM     48  C   UNL A   1      41.558  31.381  29.871  1.00  0.00     0.029 A 
ATOM     49  N   UNL A   1      43.136  29.845  29.466  1.00  0.00    -0.354 N 
ATOM     50  C   UNL A   1      42.041  25.830  28.226  1.00  0.00     0.074 A 
ATOM     51  C   UNL A   1      40.605  25.690  28.146  1.00  0.00     0.031 C 
ATOM     52  C   UNL A   1      42.754  31.965  30.061  1.00  0.00     0.029 A 
ATOM     53  C   UNL A   1      43.809  30.975  29.855  1.00  0.00     0.049 A 
ATOM     54  H   UNL A   1      43.588  29.013  29.195  1.00  0.00     0.167 HD
ATOM     55  C   UNL A   1      42.917  24.845  27.922  1.00  0.00     0.031 A 
ATOM     56  C   UNL A   1      45.127  31.169  30.049  1.00  0.00     0.031 A 
ATOM     57  C   UNL A   1      44.343  24.987  28.032  1.00  0.00     0.049 A 
ATOM     58  C   UNL A   1      46.078  30.026  29.804  1.00  0.00     0.074 A 
ATOM     59  C   UNL A   1      45.326  24.056  27.748  1.00  0.00     0.029 A 
ATOM     60  N   UNL A   1      44.987  26.134  28.470  1.00  0.00    -0.354 N 
ATOM     61  N   UNL A   1      45.821  28.812  29.379  1.00  0.00    -0.248 NA
ATOM     62  C   UNL A   1      47.502  30.284  30.060  1.00  0.00     0.031 C 
ATOM     63  C   UNL A   1      46.562  24.619  28.080  1.00  0.00     0.029 A 
ATOM     64  C   UNL A   1      46.353  25.925  28.498  1.00  0.00     0.049 A 
ATOM     65  H   UNL A   1      44.537  26.973  28.724  1.00  0.00     0.167 HD
ATOM     66  C   UNL A   1      47.052  28.174  29.284  1.00  0.00     0.074 A 
ATOM     67  C   UNL A   1      48.055  29.140  29.684  1.00  0.00     0.031 C 
ATOM     68  C   UNL A   1      47.332  26.904  28.896  1.00  0.00     0.031 A 
BRANCH  55  69
ATOM     69  C   UNL A   1      42.349  23.522  27.497  1.00  0.00    -0.014 A 
ATOM     70  C   UNL A   1      42.200  23.188  26.141  1.00  0.00     0.009 A 
ATOM     71  C   UNL A   1      41.969  22.586  28.471  1.00  0.00     0.009 A 
ATOM     72  C   UNL A   1      41.649  21.959  25.772  1.00  0.00     0.001 A 
ATOM     73  C   UNL A   1      41.448  21.345  28.099  1.00  0.00     0.001 A 
ATOM     74  C   UNL A   1      41.279  21.037  26.750  1.00  0.00     0.000 A 
ENDBRANCH  55  69
BRANCH  56  75
ATOM     75  C   UNL A   1      45.627  32.487  30.527  1.00  0.00    -0.014 A 
ATOM     76  C   UNL A   1      45.736  32.758  31.898  1.00  0.00     0.009 A 
ATOM     77  C   UNL A   1      45.979  33.489  29.609  1.00  0.00     0.009 A 
ATOM     78  C   UNL A   1      46.156  34.014  32.341  1.00  0.00     0.001 A 
ATOM     79  C   UNL A   1      46.431  34.733  30.054  1.00  0.00     0.001 A 
ATOM     80  C   UNL A   1      46.509  34.999  31.419  1.00  0.00     0.000 A 
ENDBRANCH  56  75
BRANCH  68  81
ATOM     81  C   UNL A   1      48.779  26.501  28.839  1.00  0.00    -0.014 A 
ATOM     82  C   UNL A   1      49.420  25.907  29.936  1.00  0.00     0.009 A 
ATOM     83  C   UNL A   1      49.493  26.664  27.639  1.00  0.00     0.009 A 
ATOM     84  C   UNL A   1      50.758  25.514  29.843  1.00  0.00     0.001 A 
ATOM     85  C   UNL A   1      50.818  26.240  27.538  1.00  0.00     0.001 A 
ATOM     86  C   UNL A   1      51.452  25.674  28.643  1.00  0.00     0.000 A 
ENDBRANCH  68  81
ENDBRANCH  42  43
ENDBRANCH  35  37
ENDBRANCH  34  35
ENDBRANCH  33  34
ENDBRANCH  32  33
ENDBRANCH  31  32
ENDBRANCH  30  31
ENDBRANCH  29  30
ENDBRANCH  28  29
ENDBRANCH   1  28
TORSDOF 23
ENDMDL
MODEL 2
REMARK VINA RESULT:      -7.2      5.842     12.114
REMARK SMILES CCc1n[nH]c(C(=O)N[C@@]2(C(=O)OCCOCCOCCOCCOC(=O)c3ccc(-c4c5nc(c(-c6ccccc6)c6ccc([nH]6)c(-c6ccccc6)c6nc(c(-c7ccccc7)c7ccc4[nH]7)C=C6)C=C5)cc3)CCCC[C@H]2C)n1
REMARK SMILES IDX 18 1 17 2 16 3 15 4 14 5 13 6 11 7 12 8 10 9 76 10 80 11
REMARK SMILES IDX 77 12 79 13 81 14 78 15 9 16 7 17 8 18 6 20 3 21 4 22 82 23
REMARK SMILES IDX 5 24 2 26 1 27 19 28 20 29 21 30 22 31 23 32 24 33 25 34
REMARK SMILES IDX 26 35 27 36 28 37 29 38 75 39 30 40 74 41 31 42 32 43 33 44
REMARK SMILES IDX 68 45 34 46 73 47 67 48 69 49 35 50 72 51 66 52 65 53 36 55
REMARK SMILES IDX 58 56 43 57 57 58 44 59 47 60 56 61 70 62 45 63 46 64 55 66
REMARK SMILES IDX 71 67 48 68 37 69 38 70 42 71 39 72 41 73 40 74 59 75 60 76
REMARK SMILES IDX 64 77 61 78 63 79 62 80 49 81 50 82 54 83 51 84 53 85 52 86
REMARK H PARENT 9 19 5 25 69 54 47 65
REMARK Flexibility Score: inf
ROOT
ATOM      1  C   UNL A   1      36.145  30.172  28.381  1.00  0.00     0.188 C 
ENDROOT
BRANCH   1   2
ATOM      2  C   UNL A   1      35.297  29.626  27.233  1.00  0.00     0.188 C 
BRANCH   2   3
ATOM      3  O   UNL A   1      34.029  30.206  26.928  1.00  0.00    -0.376 OA
BRANCH   3   4
ATOM      4  C   UNL A   1      32.851  29.675  27.509  1.00  0.00     0.202 C 
BRANCH   4   5
ATOM      5  C   UNL A   1      31.938  28.929  26.528  1.00  0.00     0.261 C 
BRANCH   5   6
ATOM      6  O   UNL A   1      31.882  27.495  26.648  1.00  0.00    -0.461 OA
BRANCH   6   7
ATOM      7  C   UNL A   1      32.843  26.746  26.024  1.00  0.00     0.332 C 
ATOM      8  O   UNL A   1      34.047  26.981  26.080  1.00  0.00    -0.249 OA
BRANCH   7   9
ATOM      9  C   UNL A   1      32.224  25.598  25.110  1.00  0.00     0.141 C 
ATOM     10  C   UNL A   1      33.511  24.855  24.710  1.00  0.00     0.041 C 
ATOM     11  C   UNL A   1      31.427  26.120  23.875  1.00  0.00     0.023 C 
ATOM     12  C   UNL A   1      33.445  23.945  23.519  1.00  0.00     0.003 C 
ATOM     13  C   UNL A   1      31.246  25.074  22.773  1.00  0.00     0.006 C 
ATOM     14  C   UNL A   1      30.032  26.690  24.207  1.00  0.00     0.011 C 
ATOM     15  C   UNL A   1      32.554  24.410  22.374  1.00  0.00     0.000 C 
BRANCH   9  16
ATOM     16  N   UNL A   1      31.305  24.906  26.066  1.00  0.00    -0.333 N 
ATOM     17  C   UNL A   1      31.073  23.675  26.611  1.00  0.00     0.289 C 
ATOM     18  O   UNL A   1      30.046  23.587  27.294  1.00  0.00    -0.266 OA
ATOM     19  H   UNL A   1      30.650  25.551  26.419  1.00  0.00     0.165 HD
BRANCH  17  20
ATOM     20  C   UNL A   1      31.989  22.569  26.544  1.00  0.00     0.214 A 
ATOM     21  C   UNL A   1      33.308  20.995  26.006  1.00  0.00     0.151 A 
ATOM     22  N   UNL A   1      33.728  21.327  27.232  1.00  0.00    -0.158 NA
ATOM     23  N   UNL A   1      32.187  21.678  25.596  1.00  0.00    -0.207 NA
ATOM     24  N   UNL A   1      32.832  22.269  27.576  1.00  0.00    -0.255 N 
ATOM     25  H   UNL A   1      32.790  22.692  28.464  1.00  0.00     0.192 HD
BRANCH  21  26
ATOM     26  C   UNL A   1      34.045  20.037  25.130  1.00  0.00     0.076 C 
ATOM     27  C   UNL A   1      35.536  20.337  24.991  1.00  0.00     0.012 C 
ENDBRANCH  21  26
ENDBRANCH  17  20
ENDBRANCH   9  16
ENDBRANCH   7   9
ENDBRANCH   6   7
ENDBRANCH   5   6
ENDBRANCH   4   5
ENDBRANCH   3   4
ENDBRANCH   2   3
ENDBRANCH   1   2
BRANCH   1  28
ATOM     28  O   UNL A   1      37.511  30.347  28.101  1.00  0.00    -0.377 OA
BRANCH  28  29
ATOM     29  C   UNL A   1      38.263  30.812  29.197  1.00  0.00     0.188 C 
BRANCH  29  30
ATOM     30  C   UNL A   1      37.481  31.677  30.195  1.00  0.00     0.188 C 
BRANCH  30  31
ATOM     31  O   UNL A   1      37.340  33.077  30.006  1.00  0.00    -0.376 OA
BRANCH  31  32
ATOM     32  C   UNL A   1      36.128  33.794  29.869  1.00  0.00     0.202 C 
BRANCH  32  33
ATOM     33  C   UNL A   1      34.751  33.313  30.343  1.00  0.00     0.261 C 
BRANCH  33  34
ATOM     34  O   UNL A   1      34.728  32.451  31.474  1.00  0.00    -0.460 OA
BRANCH  34  35
ATOM     35  C   UNL A   1      34.489  33.078  32.653  1.00  0.00     0.338 C 
ATOM     36  O   UNL A   1      33.424  33.455  33.086  1.00  0.00    -0.246 OA
BRANCH  35  37
ATOM     37  C   UNL A   1      35.737  33.064  33.439  1.00  0.00     0.060 A 
ATOM     38  C   UNL A   1      36.396  31.840  33.619  1.00  0.00     0.016 A 
ATOM     39  C   UNL A   1      36.237  34.239  34.002  1.00  0.00     0.016 A 
ATOM     40  C   UNL A   1      37.555  31.781  34.381  1.00  0.00     0.010 A 
ATOM     41  C   UNL A   1      37.373  34.172  34.805  1.00  0.00     0.010 A 
ATOM     42  C   UNL A   1      38.011  32.937  35.022  1.00  0.00    -0.014 A 
BRANCH  42  43
ATOM     43  C   UNL A   1      38.999  32.810  36.111  1.00  0.00     0.031 A 
ATOM     44  C   UNL A   1      40.445  32.679  35.728  1.00  0.00     0.074 A 
ATOM     45  C   UNL A   1      38.621  32.826  37.398  1.00  0.00     0.049 A 
ATOM     46  N   UNL A   1      41.489  32.479  36.486  1.00  0.00    -0.248 NA
ATOM     47  C   UNL A   1      40.751  32.781  34.289  1.00  0.00     0.031 C 
ATOM     48  C   UNL A   1      37.255  33.016  37.882  1.00  0.00     0.029 A 
ATOM     49  N   UNL A   1      39.367  32.668  38.538  1.00  0.00    -0.354 N 
ATOM     50  C   UNL A   1      42.572  32.421  35.619  1.00  0.00     0.074 A 
ATOM     51  C   UNL A   1      42.059  32.578  34.277  1.00  0.00     0.031 C 
ATOM     52  C   UNL A   1      37.258  32.946  39.224  1.00  0.00     0.029 A 
ATOM     53  C   UNL A   1      38.616  32.667  39.686  1.00  0.00     0.049 A 
ATOM     54  H   UNL A   1      40.346  32.566  38.532  1.00  0.00     0.167 HD
ATOM     55  C   UNL A   1      43.881  32.250  35.916  1.00  0.00     0.031 A 
ATOM     56  C   UNL A   1      38.989  32.436  40.959  1.00  0.00     0.031 A 
ATOM     57  C   UNL A   1      44.376  32.067  37.252  1.00  0.00     0.049 A 
ATOM     58  C   UNL A   1      40.438  32.146  41.255  1.00  0.00     0.074 A 
ATOM     59  C   UNL A   1      45.683  31.889  37.670  1.00  0.00     0.029 A 
ATOM     60  N   UNL A   1      43.580  32.029  38.387  1.00  0.00    -0.354 N 
ATOM     61  N   UNL A   1      41.460  32.110  40.433  1.00  0.00    -0.248 NA
ATOM     62  C   UNL A   1      40.784  31.871  42.656  1.00  0.00     0.031 C 
ATOM     63  C   UNL A   1      45.669  31.675  39.051  1.00  0.00     0.029 A 
ATOM     64  C   UNL A   1      44.363  31.797  39.503  1.00  0.00     0.049 A 
ATOM     65  H   UNL A   1      42.603  32.150  38.396  1.00  0.00     0.167 HD
ATOM     66  C   UNL A   1      42.573  31.843  41.222  1.00  0.00     0.074 A 
ATOM     67  C   UNL A   1      42.101  31.739  42.588  1.00  0.00     0.031 C 
ATOM     68  C   UNL A   1      43.871  31.701  40.853  1.00  0.00     0.031 A 
BRANCH  55  69
ATOM     69  C   UNL A   1      44.850  32.203  34.769  1.00  0.00    -0.014 A 
ATOM     70  C   UNL A   1      45.175  30.995  34.130  1.00  0.00     0.009 A 
ATOM     71  C   UNL A   1      45.438  33.392  34.310  1.00  0.00     0.009 A 
ATOM     72  C   UNL A   1      46.095  30.976  33.080  1.00  0.00     0.001 A 
ATOM     73  C   UNL A   1      46.333  33.374  33.239  1.00  0.00     0.001 A 
ATOM     74  C   UNL A   1      46.668  32.165  32.632  1.00  0.00     0.000 A 
ENDBRANCH  55  69
BRANCH  56  75
ATOM     75  C   UNL A   1      37.975  32.439  42.048  1.00  0.00    -0.014 A 
ATOM     76  C   UNL A   1      37.643  33.628  42.714  1.00  0.00     0.009 A 
ATOM     77  C   UNL A   1      37.349  31.245  42.441  1.00  0.00     0.009 A 
ATOM     78  C   UNL A   1      36.729  33.617  43.770  1.00  0.00     0.001 A 
ATOM     79  C   UNL A   1      36.411  31.242  43.475  1.00  0.00     0.001 A 
ATOM     80  C   UNL A   1      36.109  32.425  44.146  1.00  0.00     0.000 A 
ENDBRANCH  56  75
BRANCH  68  81
ATOM     81  C   UNL A   1      44.879  31.467  41.944  1.00  0.00    -0.014 A 
ATOM     82  C   UNL A   1      45.488  32.532  42.622  1.00  0.00     0.009 A 
ATOM     83  C   UNL A   1      45.174  30.151  42.337  1.00  0.00     0.009 A 
ATOM     84  C   UNL A   1      46.398  32.284  43.652  1.00  0.00     0.001 A 
ATOM     85  C   UNL A   1      46.058  29.906  43.389  1.00  0.00     0.001 A 
ATOM     86  C   UNL A   1      46.676  30.972  44.039  1.00  0.00     0.000 A 
ENDBRANCH  68  81
ENDBRANCH  42  43
ENDBRANCH  35  37
ENDBRANCH  34  35
ENDBRANCH  33  34
ENDBRANCH  32  33
ENDBRANCH  31  32
ENDBRANCH  30  31
ENDBRANCH  29  30
ENDBRANCH  28  29
ENDBRANCH   1  28
TORSDOF 23
ENDMDL
MODEL 3
REMARK VINA RESULT:      -7.1      4.435      9.768
REMARK SMILES CCc1n[nH]c(C(=O)N[C@@]2(C(=O)OCCOCCOCCOCCOC(=O)c3ccc(-c4c5nc(c(-c6ccccc6)c6ccc([nH]6)c(-c6ccccc6)c6nc(c(-c7ccccc7)c7ccc4[nH]7)C=C6)C=C5)cc3)CCCC[C@H]2C)n1
REMARK SMILES IDX 18 1 17 2 16 3 15 4 14 5 13 6 11 7 12 8 10 9 76 10 80 11
REMARK SMILES IDX 77 12 79 13 81 14 78 15 9 16 7 17 8 18 6 20 3 21 4 22 82 23
REMARK SMILES IDX 5 24 2 26 1 27 19 28 20 29 21 30 22 31 23 32 24 33 25 34
REMARK SMILES IDX 26 35 27 36 28 37 29 38 75 39 30 40 74 41 31 42 32 43 33 44
REMARK SMILES IDX 68 45 34 46 73 47 67 48 69 49 35 50 72 51 66 52 65 53 36 55
REMARK SMILES IDX 58 56 43 57 57 58 44 59 47 60 56 61 70 62 45 63 46 64 55 66
REMARK SMILES IDX 71 67 48 68 37 69 38 70 42 71 39 72 41 73 40 74 59 75 60 76
REMARK SMILES IDX 64 77 61 78 63 79 62 80 49 81 50 82 54 83 51 84 53 85 52 86
REMARK H PARENT 9 19 5 25 69 54 47 65
REMARK Flexibility Score: inf
ROOT
ATOM      1  C   UNL A   1      33.190  29.231  27.202  1.00  0.00     0.188 C 
ENDROOT
BRANCH   1   2
ATOM      2  C   UNL A   1      33.838  28.480  26.040  1.00  0.00     0.188 C 
BRANCH   2   3
ATOM      3  O   UNL A   1      33.033  27.822  25.062  1.00  0.00    -0.376 OA
BRANCH   3   4
ATOM      4  C   UNL A   1      32.428  26.578  25.367  1.00  0.00     0.202 C 
BRANCH   4   5
ATOM      5  C   UNL A   1      33.374  25.549  25.999  1.00  0.00     0.261 C 
BRANCH   5   6
ATOM      6  O   UNL A   1      33.920  24.540  25.128  1.00  0.00    -0.461 OA
BRANCH   6   7
ATOM      7  C   UNL A   1      34.115  23.280  25.625  1.00  0.00     0.332 C 
ATOM      8  O   UNL A   1      34.421  23.035  26.788  1.00  0.00    -0.249 OA
BRANCH   7   9
ATOM      9  C   UNL A   1      34.020  22.158  24.498  1.00  0.00     0.141 C 
ATOM     10  C   UNL A   1      32.589  22.410  23.992  1.00  0.00     0.041 C 
ATOM     11  C   UNL A   1      34.221  20.702  25.022  1.00  0.00     0.023 C 
ATOM     12  C   UNL A   1      31.927  21.316  23.208  1.00  0.00     0.003 C 
ATOM     13  C   UNL A   1      33.676  19.628  24.079  1.00  0.00     0.006 C 
ATOM     14  C   UNL A   1      35.684  20.335  25.349  1.00  0.00     0.011 C 
ATOM     15  C   UNL A   1      32.241  19.893  23.653  1.00  0.00     0.000 C 
BRANCH   9  16
ATOM     16  N   UNL A   1      35.144  22.541  23.587  1.00  0.00    -0.333 N 
ATOM     17  C   UNL A   1      36.419  23.030  23.625  1.00  0.00     0.289 C 
ATOM     18  O   UNL A   1      36.907  23.311  22.524  1.00  0.00    -0.266 OA
ATOM     19  H   UNL A   1      34.877  22.390  22.652  1.00  0.00     0.165 HD
BRANCH  17  20
ATOM     20  C   UNL A   1      37.229  23.104  24.811  1.00  0.00     0.214 A 
ATOM     21  C   UNL A   1      38.704  22.960  26.329  1.00  0.00     0.151 A 
ATOM     22  N   UNL A   1      38.092  24.113  26.621  1.00  0.00    -0.158 NA
ATOM     23  N   UNL A   1      38.137  22.277  25.280  1.00  0.00    -0.207 NA
ATOM     24  N   UNL A   1      37.119  24.142  25.693  1.00  0.00    -0.255 N 
ATOM     25  H   UNL A   1      36.413  24.827  25.655  1.00  0.00     0.192 HD
BRANCH  21  26
ATOM     26  C   UNL A   1      39.946  22.506  27.023  1.00  0.00     0.076 C 
ATOM     27  C   UNL A   1      40.724  23.626  27.711  1.00  0.00     0.012 C 
ENDBRANCH  21  26
ENDBRANCH  17  20
ENDBRANCH   9  16
ENDBRANCH   7   9
ENDBRANCH   6   7
ENDBRANCH   5   6
ENDBRANCH   4   5
ENDBRANCH   3   4
ENDBRANCH   2   3
ENDBRANCH   1   2
BRANCH   1  28
ATOM     28  O   UNL A   1      32.400  30.338  26.849  1.00  0.00    -0.377 OA
BRANCH  28  29
ATOM     29  C   UNL A   1      32.830  31.552  27.420  1.00  0.00     0.188 C 
BRANCH  29  30
ATOM     30  C   UNL A   1      34.338  31.636  27.693  1.00  0.00     0.188 C 
BRANCH  30  31
ATOM     31  O   UNL A   1      34.910  32.764  28.338  1.00  0.00    -0.376 OA
BRANCH  31  32
ATOM     32  C   UNL A   1      34.458  33.375  29.531  1.00  0.00     0.202 C 
BRANCH  32  33
ATOM     33  C   UNL A   1      33.427  34.508  29.615  1.00  0.00     0.261 C 
BRANCH  33  34
ATOM     34  O   UNL A   1      33.647  35.501  30.609  1.00  0.00    -0.460 OA
BRANCH  34  35
ATOM     35  C   UNL A   1      33.300  35.124  31.866  1.00  0.00     0.338 C 
ATOM     36  O   UNL A   1      32.189  35.082  32.344  1.00  0.00    -0.246 OA
BRANCH  35  37
ATOM     37  C   UNL A   1      34.500  34.576  32.525  1.00  0.00     0.060 A 
ATOM     38  C   UNL A   1      35.687  35.319  32.470  1.00  0.00     0.016 A 
ATOM     39  C   UNL A   1      34.455  33.341  33.172  1.00  0.00     0.016 A 
ATOM     40  C   UNL A   1      36.846  34.819  33.050  1.00  0.00     0.010 A 
ATOM     41  C   UNL A   1      35.628  32.818  33.712  1.00  0.00     0.010 A 
ATOM     42  C   UNL A   1      36.830  33.543  33.620  1.00  0.00    -0.014 A 
BRANCH  42  43
ATOM     43  C   UNL A   1      38.112  32.864  33.893  1.00  0.00     0.031 A 
ATOM     44  C   UNL A   1      38.602  31.869  32.882  1.00  0.00     0.074 A 
ATOM     45  C   UNL A   1      38.822  33.137  34.998  1.00  0.00     0.049 A 
ATOM     46  N   UNL A   1      39.650  31.091  32.924  1.00  0.00    -0.248 NA
ATOM     47  C   UNL A   1      37.793  31.730  31.656  1.00  0.00     0.031 C 
ATOM     48  C   UNL A   1      38.472  34.133  36.010  1.00  0.00     0.029 A 
ATOM     49  N   UNL A   1      39.990  32.583  35.455  1.00  0.00    -0.354 N 
ATOM     50  C   UNL A   1      39.620  30.364  31.741  1.00  0.00     0.074 A 
ATOM     51  C   UNL A   1      38.440  30.770  31.014  1.00  0.00     0.031 C 
ATOM     52  C   UNL A   1      39.400  34.106  36.981  1.00  0.00     0.029 A 
ATOM     53  C   UNL A   1      40.381  33.067  36.677  1.00  0.00     0.049 A 
ATOM     54  H   UNL A   1      40.497  31.904  34.954  1.00  0.00     0.167 HD
ATOM     55  C   UNL A   1      40.502  29.436  31.300  1.00  0.00     0.031 A 
ATOM     56  C   UNL A   1      41.403  32.685  37.468  1.00  0.00     0.031 A 
ATOM     57  C   UNL A   1      41.658  29.020  32.045  1.00  0.00     0.049 A 
ATOM     58  C   UNL A   1      42.313  31.578  37.002  1.00  0.00     0.074 A 
ATOM     59  C   UNL A   1      42.620  28.090  31.694  1.00  0.00     0.029 A 
ATOM     60  N   UNL A   1      42.000  29.501  33.300  1.00  0.00    -0.354 N 
ATOM     61  N   UNL A   1      42.291  30.906  35.875  1.00  0.00    -0.248 NA
ATOM     62  C   UNL A   1      43.393  31.181  37.916  1.00  0.00     0.031 C 
ATOM     63  C   UNL A   1      43.508  27.962  32.766  1.00  0.00     0.029 A 
ATOM     64  C   UNL A   1      43.141  28.865  33.753  1.00  0.00     0.049 A 
ATOM     65  H   UNL A   1      41.504  30.194  33.793  1.00  0.00     0.167 HD
ATOM     66  C   UNL A   1      43.372  30.034  35.930  1.00  0.00     0.074 A 
ATOM     67  C   UNL A   1      44.034  30.271  37.196  1.00  0.00     0.031 C 
ATOM     68  C   UNL A   1      43.784  29.121  35.016  1.00  0.00     0.031 A 
BRANCH  55  69
ATOM     69  C   UNL A   1      40.213  28.782  29.980  1.00  0.00    -0.014 A 
ATOM     70  C   UNL A   1      39.536  27.554  29.900  1.00  0.00     0.009 A 
ATOM     71  C   UNL A   1      40.615  29.412  28.792  1.00  0.00     0.009 A 
ATOM     72  C   UNL A   1      39.300  26.955  28.661  1.00  0.00     0.001 A 
ATOM     73  C   UNL A   1      40.349  28.827  27.553  1.00  0.00     0.001 A 
ATOM     74  C   UNL A   1      39.701  27.595  27.489  1.00  0.00     0.000 A 
ENDBRANCH  55  69
BRANCH  56  75
ATOM     75  C   UNL A   1      41.606  33.331  38.792  1.00  0.00    -0.014 A 
ATOM     76  C   UNL A   1      40.741  33.061  39.862  1.00  0.00     0.009 A 
ATOM     77  C   UNL A   1      42.658  34.241  38.986  1.00  0.00     0.009 A 
ATOM     78  C   UNL A   1      40.905  33.710  41.088  1.00  0.00     0.001 A 
ATOM     79  C   UNL A   1      42.840  34.864  40.222  1.00  0.00     0.001 A 
ATOM     80  C   UNL A   1      41.957  34.606  41.269  1.00  0.00     0.000 A 
ENDBRANCH  56  75
BRANCH  68  81
ATOM     81  C   UNL A   1      45.034  28.345  35.327  1.00  0.00    -0.014 A 
ATOM     82  C   UNL A   1      44.984  27.101  35.973  1.00  0.00     0.009 A 
ATOM     83  C   UNL A   1      46.278  28.846  34.908  1.00  0.00     0.009 A 
ATOM     84  C   UNL A   1      46.160  26.389  36.221  1.00  0.00     0.001 A 
ATOM     85  C   UNL A   1      47.447  28.116  35.126  1.00  0.00     0.001 A 
ATOM     86  C   UNL A   1      47.388  26.893  35.791  1.00  0.00     0.000 A 
ENDBRANCH  68  81
ENDBRANCH  42  43
ENDBRANCH  35  37
ENDBRANCH  34  35
ENDBRANCH  33  34
ENDBRANCH  32  33
ENDBRANCH  31  32
ENDBRANCH  30  31
ENDBRANCH  29  30
ENDBRANCH  28  29
ENDBRANCH   1  28
TORSDOF 23
ENDMDL
