MODEL 1
REMARK VINA RESULT:      -9.2      0.000      0.000
REMARK SMILES CC(C)CSc1cc2c(cc1Cl)C=C(C(=O)OCCOCCOCCOCCOC(=O)c1ccc(-c3c4nc(c(-c5ccccc5)c5ccc([nH]5)c(-c5ccccc5)c5nc(c(-c6ccccc6)c6ccc3[nH]6)C=C5)C=C4)cc1)[C@@H](C(F)(F)F)O2
REMARK SMILES IDX 22 1 21 2 20 3 19 4 18 5 17 6 15 7 16 8 14 9 6 10 7 11 11 12
REMARK SMILES IDX 8 13 10 14 12 15 9 16 85 17 13 18 80 19 5 20 4 21 2 22 1 23
REMARK SMILES IDX 3 24 81 25 82 26 83 27 84 28 23 29 24 30 25 31 26 32 27 33
REMARK SMILES IDX 28 34 29 35 30 36 31 37 32 38 33 39 79 40 34 41 78 42 35 43
REMARK SMILES IDX 36 44 37 45 72 46 38 47 77 48 71 49 73 50 39 51 76 52 70 53
REMARK SMILES IDX 69 54 40 56 62 57 47 58 61 59 48 60 51 61 60 62 74 63 49 64
REMARK SMILES IDX 50 65 59 67 75 68 52 69 41 70 42 71 46 72 43 73 45 74 44 75
REMARK SMILES IDX 63 76 64 77 68 78 65 79 67 80 66 81 53 82 54 83 58 84 55 85
REMARK SMILES IDX 57 86 56 87
REMARK H PARENT 73 55 51 66
REMARK Flexibility Score: inf
ROOT
ATOM      1  C   UNL A   1      32.980  27.051  26.151  1.00  0.00     0.188 C 
ENDROOT
BRANCH   1   2
ATOM      2  C   UNL A   1      32.486  25.621  26.438  1.00  0.00     0.188 C 
BRANCH   2   3
ATOM      3  O   UNL A   1      31.071  25.540  26.610  1.00  0.00    -0.376 OA
BRANCH   3   4
ATOM      4  C   UNL A   1      30.450  24.309  26.257  1.00  0.00     0.202 C 
BRANCH   4   5
ATOM      5  C   UNL A   1      31.214  23.027  26.618  1.00  0.00     0.261 C 
BRANCH   5   6
ATOM      6  O   UNL A   1      31.193  22.009  25.603  1.00  0.00    -0.460 OA
BRANCH   6   7
ATOM      7  C   UNL A   1      31.925  22.219  24.492  1.00  0.00     0.338 C 
ATOM      8  O   UNL A   1      31.549  22.720  23.449  1.00  0.00    -0.246 OA
BRANCH   7   9
ATOM      9  C   UNL A   1      33.329  21.905  24.823  1.00  0.00     0.087 C 
ATOM     10  C   UNL A   1      38.252  22.131  25.870  1.00  0.00     0.030 A 
ATOM     11  C   UNL A   1      37.340  21.095  25.585  1.00  0.00     0.063 A 
ATOM     12  C   UNL A   1      37.729  23.418  26.072  1.00  0.00     0.055 A 
ATOM     13  C   UNL A   1      35.983  21.355  25.379  1.00  0.00     0.129 A 
ATOM     14  C   UNL A   1      36.383  23.690  25.781  1.00  0.00     0.033 A 
ATOM     15  Cl  UNL A   1      38.635  24.736  26.723  1.00  0.00    -0.083 Cl
ATOM     16  C   UNL A   1      35.522  22.666  25.388  1.00  0.00     0.019 A 
ATOM     17  O   UNL A   1      35.179  20.282  25.113  1.00  0.00    -0.475 OA
ATOM     18  C   UNL A   1      34.165  22.946  24.946  1.00  0.00     0.027 C 
ATOM     19  C   UNL A   1      33.733  20.490  25.151  1.00  0.00     0.316 C 
BRANCH  10  20
ATOM     20  S   UNL A   1      39.962  21.600  25.935  1.00  0.00    -0.124 SA
BRANCH  20  21
ATOM     21  C   UNL A   1      40.659  22.231  27.513  1.00  0.00     0.078 C 
BRANCH  21  22
ATOM     22  C   UNL A   1      42.181  22.197  27.766  1.00  0.00    -0.007 C 
ATOM     23  C   UNL A   1      42.650  22.749  29.110  1.00  0.00     0.008 C 
ATOM     24  C   UNL A   1      42.651  20.737  27.652  1.00  0.00     0.008 C 
ENDBRANCH  21  22
ENDBRANCH  20  21
ENDBRANCH  10  20
BRANCH  19  25
ATOM     25  C   UNL A   1      33.106  19.435  24.224  1.00  0.00     0.430 C 
ATOM     26  F   UNL A   1      32.006  18.882  24.794  1.00  0.00    -0.167 F 
ATOM     27  F   UNL A   1      32.703  19.950  23.042  1.00  0.00    -0.167 F 
ATOM     28  F   UNL A   1      33.970  18.432  23.953  1.00  0.00    -0.167 F 
ENDBRANCH  19  25
ENDBRANCH   7   9
ENDBRANCH   6   7
ENDBRANCH   5   6
ENDBRANCH   4   5
ENDBRANCH   3   4
ENDBRANCH   2   3
ENDBRANCH   1   2
BRANCH   1  29
ATOM     29  O   UNL A   1      33.430  27.224  24.817  1.00  0.00    -0.377 OA
BRANCH  29  30
ATOM     30  C   UNL A   1      32.486  27.011  23.769  1.00  0.00     0.188 C 
BRANCH  30  31
ATOM     31  C   UNL A   1      31.106  27.708  23.756  1.00  0.00     0.188 C 
BRANCH  31  32
ATOM     32  O   UNL A   1      31.177  29.126  23.630  1.00  0.00    -0.376 OA
BRANCH  32  33
ATOM     33  C   UNL A   1      30.962  29.881  24.816  1.00  0.00     0.202 C 
BRANCH  33  34
ATOM     34  C   UNL A   1      32.256  30.409  25.446  1.00  0.00     0.261 C 
BRANCH  34  35
ATOM     35  O   UNL A   1      32.154  30.760  26.835  1.00  0.00    -0.460 OA
BRANCH  35  36
ATOM     36  C   UNL A   1      32.706  31.928  27.231  1.00  0.00     0.338 C 
ATOM     37  O   UNL A   1      32.177  33.023  27.269  1.00  0.00    -0.246 OA
BRANCH  36  38
ATOM     38  C   UNL A   1      34.023  31.604  27.820  1.00  0.00     0.060 A 
ATOM     39  C   UNL A   1      34.962  32.614  28.049  1.00  0.00     0.016 A 
ATOM     40  C   UNL A   1      34.337  30.266  28.090  1.00  0.00     0.016 A 
ATOM     41  C   UNL A   1      36.211  32.286  28.576  1.00  0.00     0.010 A 
ATOM     42  C   UNL A   1      35.593  29.939  28.602  1.00  0.00     0.010 A 
ATOM     43  C   UNL A   1      36.529  30.950  28.871  1.00  0.00    -0.014 A 
BRANCH  43  44
ATOM     44  C   UNL A   1      37.751  30.635  29.646  1.00  0.00     0.031 A 
ATOM     45  C   UNL A   1      37.966  31.133  31.041  1.00  0.00     0.074 A 
ATOM     46  C   UNL A   1      38.689  29.884  29.040  1.00  0.00     0.049 A 
ATOM     47  N   UNL A   1      38.973  30.894  31.842  1.00  0.00    -0.248 NA
ATOM     48  C   UNL A   1      36.930  32.004  31.612  1.00  0.00     0.031 C 
ATOM     49  C   UNL A   1      38.577  29.344  27.682  1.00  0.00     0.029 A 
ATOM     50  N   UNL A   1      39.912  29.444  29.477  1.00  0.00    -0.354 N 
ATOM     51  C   UNL A   1      38.686  31.565  33.023  1.00  0.00     0.074 A 
ATOM     52  C   UNL A   1      37.428  32.254  32.819  1.00  0.00     0.031 C 
ATOM     53  C   UNL A   1      39.681  28.638  27.402  1.00  0.00     0.029 A 
ATOM     54  C   UNL A   1      40.590  28.699  28.543  1.00  0.00     0.049 A 
ATOM     55  H   UNL A   1      40.269  29.642  30.372  1.00  0.00     0.167 HD
ATOM     56  C   UNL A   1      39.408  31.588  34.169  1.00  0.00     0.031 A 
ATOM     57  C   UNL A   1      41.809  28.130  28.591  1.00  0.00     0.031 A 
ATOM     58  C   UNL A   1      40.672  30.919  34.348  1.00  0.00     0.049 A 
ATOM     59  C   UNL A   1      42.621  28.239  29.848  1.00  0.00     0.074 A 
ATOM     60  C   UNL A   1      41.449  30.850  35.493  1.00  0.00     0.029 A 
ATOM     61  N   UNL A   1      41.353  30.221  33.362  1.00  0.00    -0.354 N 
ATOM     62  N   UNL A   1      42.302  28.814  30.981  1.00  0.00    -0.248 NA
ATOM     63  C   UNL A   1      43.951  27.616  29.840  1.00  0.00     0.031 C 
ATOM     64  C   UNL A   1      42.631  30.178  35.179  1.00  0.00     0.029 A 
ATOM     65  C   UNL A   1      42.560  29.760  33.861  1.00  0.00     0.049 A 
ATOM     66  H   UNL A   1      41.027  30.076  32.445  1.00  0.00     0.167 HD
ATOM     67  C   UNL A   1      43.380  28.602  31.830  1.00  0.00     0.074 A 
ATOM     68  C   UNL A   1      44.358  27.838  31.084  1.00  0.00     0.031 C 
ATOM     69  C   UNL A   1      43.534  29.004  33.114  1.00  0.00     0.031 A 
BRANCH  56  70
ATOM     70  C   UNL A   1      38.864  32.355  35.344  1.00  0.00    -0.014 A 
ATOM     71  C   UNL A   1      39.154  33.723  35.482  1.00  0.00     0.009 A 
ATOM     72  C   UNL A   1      38.195  31.694  36.386  1.00  0.00     0.009 A 
ATOM     73  C   UNL A   1      38.804  34.408  36.648  1.00  0.00     0.001 A 
ATOM     74  C   UNL A   1      37.824  32.390  37.540  1.00  0.00     0.001 A 
ATOM     75  C   UNL A   1      38.138  33.742  37.675  1.00  0.00     0.000 A 
ENDBRANCH  56  70
BRANCH  57  76
ATOM     76  C   UNL A   1      42.302  27.384  27.405  1.00  0.00    -0.014 A 
ATOM     77  C   UNL A   1      42.884  28.066  26.324  1.00  0.00     0.009 A 
ATOM     78  C   UNL A   1      42.121  25.996  27.314  1.00  0.00     0.009 A 
ATOM     79  C   UNL A   1      43.247  27.379  25.165  1.00  0.00     0.001 A 
ATOM     80  C   UNL A   1      42.513  25.307  26.165  1.00  0.00     0.001 A 
ATOM     81  C   UNL A   1      43.065  26.000  25.088  1.00  0.00     0.000 A 
ENDBRANCH  57  76
BRANCH  69  82
ATOM     82  C   UNL A   1      44.804  28.629  33.826  1.00  0.00    -0.014 A 
ATOM     83  C   UNL A   1      45.982  29.352  33.574  1.00  0.00     0.009 A 
ATOM     84  C   UNL A   1      44.868  27.486  34.637  1.00  0.00     0.009 A 
ATOM     85  C   UNL A   1      47.203  28.922  34.096  1.00  0.00     0.001 A 
ATOM     86  C   UNL A   1      46.087  27.075  35.180  1.00  0.00     0.001 A 
ATOM     87  C   UNL A   1      47.254  27.784  34.898  1.00  0.00     0.000 A 
ENDBRANCH  69  82
ENDBRANCH  43  44
ENDBRANCH  36  38
ENDBRANCH  35  36
ENDBRANCH  34  35
ENDBRANCH  33  34
ENDBRANCH  32  33
ENDBRANCH  31  32
ENDBRANCH  30  31
ENDBRANCH  29  30
ENDBRANCH   1  29
TORSDOF 24
ENDMDL
MODEL 2
REMARK VINA RESULT:      -9.2      0.564      5.581
REMARK SMILES CC(C)CSc1cc2c(cc1Cl)C=C(C(=O)OCCOCCOCCOCCOC(=O)c1ccc(-c3c4nc(c(-c5ccccc5)c5ccc([nH]5)c(-c5ccccc5)c5nc(c(-c6ccccc6)c6ccc3[nH]6)C=C5)C=C4)cc1)[C@@H](C(F)(F)F)O2
REMARK SMILES IDX 22 1 21 2 20 3 19 4 18 5 17 6 15 7 16 8 14 9 6 10 7 11 11 12
REMARK SMILES IDX 8 13 10 14 12 15 9 16 85 17 13 18 80 19 5 20 4 21 2 22 1 23
REMARK SMILES IDX 3 24 81 25 82 26 83 27 84 28 23 29 24 30 25 31 26 32 27 33
REMARK SMILES IDX 28 34 29 35 30 36 31 37 32 38 33 39 79 40 34 41 78 42 35 43
REMARK SMILES IDX 36 44 37 45 72 46 38 47 77 48 71 49 73 50 39 51 76 52 70 53
REMARK SMILES IDX 69 54 40 56 62 57 47 58 61 59 48 60 51 61 60 62 74 63 49 64
REMARK SMILES IDX 50 65 59 67 75 68 52 69 41 70 42 71 46 72 43 73 45 74 44 75
REMARK SMILES IDX 63 76 64 77 68 78 65 79 67 80 66 81 53 82 54 83 58 84 55 85
REMARK SMILES IDX 57 86 56 87
REMARK H PARENT 73 55 51 66
REMARK Flexibility Score: inf
ROOT
ATOM      1  C   UNL A   1      33.029  26.705  25.975  1.00  0.00     0.188 C 
ENDROOT
BRANCH   1   2
ATOM      2  C   UNL A   1      32.405  25.386  26.468  1.00  0.00     0.188 C 
BRANCH   2   3
ATOM      3  O   UNL A   1      30.979  25.418  26.500  1.00  0.00    -0.376 OA
BRANCH   3   4
ATOM      4  C   UNL A   1      30.301  24.213  26.159  1.00  0.00     0.202 C 
BRANCH   4   5
ATOM      5  C   UNL A   1      30.999  22.901  26.542  1.00  0.00     0.261 C 
BRANCH   5   6
ATOM      6  O   UNL A   1      31.103  21.942  25.476  1.00  0.00    -0.460 OA
BRANCH   6   7
ATOM      7  C   UNL A   1      31.843  22.278  24.402  1.00  0.00     0.338 C 
ATOM      8  O   UNL A   1      31.477  22.906  23.425  1.00  0.00    -0.246 OA
BRANCH   7   9
ATOM      9  C   UNL A   1      33.242  21.913  24.698  1.00  0.00     0.087 C 
ATOM     10  C   UNL A   1      38.190  21.960  25.646  1.00  0.00     0.030 A 
ATOM     11  C   UNL A   1      37.238  20.960  25.364  1.00  0.00     0.063 A 
ATOM     12  C   UNL A   1      37.715  23.260  25.879  1.00  0.00     0.055 A 
ATOM     13  C   UNL A   1      35.887  21.267  25.191  1.00  0.00     0.129 A 
ATOM     14  C   UNL A   1      36.373  23.581  25.621  1.00  0.00     0.033 A 
ATOM     15  Cl  UNL A   1      38.676  24.537  26.533  1.00  0.00    -0.083 Cl
ATOM     16  C   UNL A   1      35.470  22.592  25.229  1.00  0.00     0.019 A 
ATOM     17  O   UNL A   1      35.043  20.226  24.925  1.00  0.00    -0.475 OA
ATOM     18  C   UNL A   1      34.114  22.924  24.821  1.00  0.00     0.027 C 
ATOM     19  C   UNL A   1      33.606  20.480  24.995  1.00  0.00     0.316 C 
BRANCH  10  20
ATOM     20  S   UNL A   1      39.883  21.373  25.667  1.00  0.00    -0.124 SA
BRANCH  20  21
ATOM     21  C   UNL A   1      40.575  21.792  27.317  1.00  0.00     0.078 C 
BRANCH  21  22
ATOM     22  C   UNL A   1      42.094  21.706  27.573  1.00  0.00    -0.007 C 
ATOM     23  C   UNL A   1      42.590  22.325  28.878  1.00  0.00     0.008 C 
ATOM     24  C   UNL A   1      42.497  20.222  27.559  1.00  0.00     0.008 C 
ENDBRANCH  21  22
ENDBRANCH  20  21
ENDBRANCH  10  20
BRANCH  19  25
ATOM     25  C   UNL A   1      32.925  19.462  24.065  1.00  0.00     0.430 C 
ATOM     26  F   UNL A   1      33.749  18.416  23.806  1.00  0.00    -0.167 F 
ATOM     27  F   UNL A   1      31.801  18.937  24.598  1.00  0.00    -0.167 F 
ATOM     28  F   UNL A   1      32.588  20.017  22.879  1.00  0.00    -0.167 F 
ENDBRANCH  19  25
ENDBRANCH   7   9
ENDBRANCH   6   7
ENDBRANCH   5   6
ENDBRANCH   4   5
ENDBRANCH   3   4
ENDBRANCH   2   3
ENDBRANCH   1   2
BRANCH   1  29
ATOM     29  O   UNL A   1      33.516  26.625  24.646  1.00  0.00    -0.377 OA
BRANCH  29  30
ATOM     30  C   UNL A   1      32.570  26.761  23.586  1.00  0.00     0.188 C 
BRANCH  30  31
ATOM     31  C   UNL A   1      31.215  27.477  23.786  1.00  0.00     0.188 C 
BRANCH  31  32
ATOM     32  O   UNL A   1      31.290  28.896  23.671  1.00  0.00    -0.376 OA
BRANCH  32  33
ATOM     33  C   UNL A   1      31.113  29.641  24.870  1.00  0.00     0.202 C 
BRANCH  33  34
ATOM     34  C   UNL A   1      32.427  30.159  25.466  1.00  0.00     0.261 C 
BRANCH  34  35
ATOM     35  O   UNL A   1      32.361  30.524  26.853  1.00  0.00    -0.460 OA
BRANCH  35  36
ATOM     36  C   UNL A   1      32.990  31.656  27.237  1.00  0.00     0.338 C 
ATOM     37  O   UNL A   1      32.524  32.779  27.297  1.00  0.00    -0.246 OA
BRANCH  36  38
ATOM     38  C   UNL A   1      34.304  31.256  27.782  1.00  0.00     0.060 A 
ATOM     39  C   UNL A   1      35.312  32.207  27.966  1.00  0.00     0.016 A 
ATOM     40  C   UNL A   1      34.543  29.903  28.055  1.00  0.00     0.016 A 
ATOM     41  C   UNL A   1      36.556  31.805  28.453  1.00  0.00     0.010 A 
ATOM     42  C   UNL A   1      35.794  29.502  28.527  1.00  0.00     0.010 A 
ATOM     43  C   UNL A   1      36.800  30.454  28.751  1.00  0.00    -0.014 A 
BRANCH  43  44
ATOM     44  C   UNL A   1      38.028  30.070  29.485  1.00  0.00     0.031 A 
ATOM     45  C   UNL A   1      39.099  29.226  28.867  1.00  0.00     0.074 A 
ATOM     46  C   UNL A   1      38.147  30.498  30.755  1.00  0.00     0.049 A 
ATOM     47  N   UNL A   1      40.241  28.854  29.388  1.00  0.00    -0.248 NA
ATOM     48  C   UNL A   1      38.869  28.738  27.501  1.00  0.00     0.031 C 
ATOM     49  C   UNL A   1      37.161  31.329  31.451  1.00  0.00     0.029 A 
ATOM     50  N   UNL A   1      39.136  30.301  31.683  1.00  0.00    -0.354 N 
ATOM     51  C   UNL A   1      40.879  28.106  28.409  1.00  0.00     0.074 A 
ATOM     52  C   UNL A   1      39.979  28.044  27.275  1.00  0.00     0.031 C 
ATOM     53  C   UNL A   1      37.600  31.578  32.692  1.00  0.00     0.029 A 
ATOM     54  C   UNL A   1      38.879  30.902  32.891  1.00  0.00     0.049 A 
ATOM     55  H   UNL A   1      39.951  29.780  31.502  1.00  0.00     0.167 HD
ATOM     56  C   UNL A   1      42.108  27.539  28.458  1.00  0.00     0.031 A 
ATOM     57  C   UNL A   1      39.587  30.909  34.036  1.00  0.00     0.031 A 
ATOM     58  C   UNL A   1      42.982  27.586  29.603  1.00  0.00     0.049 A 
ATOM     59  C   UNL A   1      40.910  30.204  34.086  1.00  0.00     0.074 A 
ATOM     60  C   UNL A   1      44.265  27.078  29.723  1.00  0.00     0.029 A 
ATOM     61  N   UNL A   1      42.664  28.156  30.826  1.00  0.00    -0.354 N 
ATOM     62  N   UNL A   1      41.533  29.564  33.127  1.00  0.00    -0.248 NA
ATOM     63  C   UNL A   1      41.633  30.226  35.365  1.00  0.00     0.031 C 
ATOM     64  C   UNL A   1      44.692  27.273  31.037  1.00  0.00     0.029 A 
ATOM     65  C   UNL A   1      43.708  27.971  31.717  1.00  0.00     0.049 A 
ATOM     66  H   UNL A   1      41.822  28.623  31.031  1.00  0.00     0.167 HD
ATOM     67  C   UNL A   1      42.731  29.129  33.677  1.00  0.00     0.074 A 
ATOM     68  C   UNL A   1      42.752  29.585  35.052  1.00  0.00     0.031 C 
ATOM     69  C   UNL A   1      43.723  28.421  33.086  1.00  0.00     0.031 A 
BRANCH  56  70
ATOM     70  C   UNL A   1      42.610  26.810  27.241  1.00  0.00    -0.014 A 
ATOM     71  C   UNL A   1      42.207  25.485  27.002  1.00  0.00     0.009 A 
ATOM     72  C   UNL A   1      43.594  27.379  26.417  1.00  0.00     0.009 A 
ATOM     73  C   UNL A   1      42.794  24.738  25.978  1.00  0.00     0.001 A 
ATOM     74  C   UNL A   1      44.160  26.637  25.377  1.00  0.00     0.001 A 
ATOM     75  C   UNL A   1      43.768  25.315  25.165  1.00  0.00     0.000 A 
ENDBRANCH  56  70
BRANCH  57  76
ATOM     76  C   UNL A   1      39.049  31.643  35.210  1.00  0.00    -0.014 A 
ATOM     77  C   UNL A   1      39.445  32.966  35.467  1.00  0.00     0.009 A 
ATOM     78  C   UNL A   1      38.200  30.999  36.122  1.00  0.00     0.009 A 
ATOM     79  C   UNL A   1      39.027  33.619  36.628  1.00  0.00     0.001 A 
ATOM     80  C   UNL A   1      37.759  31.665  37.267  1.00  0.00     0.001 A 
ATOM     81  C   UNL A   1      38.181  32.969  37.524  1.00  0.00     0.000 A 
ENDBRANCH  57  76
BRANCH  69  82
ATOM     82  C   UNL A   1      44.938  28.085  33.906  1.00  0.00    -0.014 A 
ATOM     83  C   UNL A   1      46.118  28.827  33.737  1.00  0.00     0.009 A 
ATOM     84  C   UNL A   1      44.957  26.957  34.740  1.00  0.00     0.009 A 
ATOM     85  C   UNL A   1      47.301  28.431  34.364  1.00  0.00     0.001 A 
ATOM     86  C   UNL A   1      46.135  26.581  35.389  1.00  0.00     0.001 A 
ATOM     87  C   UNL A   1      47.308  27.309  35.189  1.00  0.00     0.000 A 
ENDBRANCH  69  82
ENDBRANCH  43  44
ENDBRANCH  36  38
ENDBRANCH  35  36
ENDBRANCH  34  35
ENDBRANCH  33  34
ENDBRANCH  32  33
ENDBRANCH  31  32
ENDBRANCH  30  31
ENDBRANCH  29  30
ENDBRANCH   1  29
TORSDOF 24
ENDMDL
MODEL 3
REMARK VINA RESULT:      -9.0      1.209      5.795
REMARK SMILES CC(C)CSc1cc2c(cc1Cl)C=C(C(=O)OCCOCCOCCOCCOC(=O)c1ccc(-c3c4nc(c(-c5ccccc5)c5ccc([nH]5)c(-c5ccccc5)c5nc(c(-c6ccccc6)c6ccc3[nH]6)C=C5)C=C4)cc1)[C@@H](C(F)(F)F)O2
REMARK SMILES IDX 22 1 21 2 20 3 19 4 18 5 17 6 15 7 16 8 14 9 6 10 7 11 11 12
REMARK SMILES IDX 8 13 10 14 12 15 9 16 85 17 13 18 80 19 5 20 4 21 2 22 1 23
REMARK SMILES IDX 3 24 81 25 82 26 83 27 84 28 23 29 24 30 25 31 26 32 27 33
REMARK SMILES IDX 28 34 29 35 30 36 31 37 32 38 33 39 79 40 34 41 78 42 35 43
REMARK SMILES IDX 36 44 37 45 72 46 38 47 77 48 71 49 73 50 39 51 76 52 70 53
REMARK SMILES IDX 69 54 40 56 62 57 47 58 61 59 48 60 51 61 60 62 74 63 49 64
REMARK SMILES IDX 50 65 59 67 75 68 52 69 41 70 42 71 46 72 43 73 45 74 44 75
REMARK SMILES IDX 63 76 64 77 68 78 65 79 67 80 66 81 53 82 54 83 58 84 55 85
REMARK SMILES IDX 57 86 56 87
REMARK H PARENT 73 55 51 66
REMARK Flexibility Score: inf
ROOT
ATOM      1  C   UNL A   1      33.371  26.715  24.384  1.00  0.00     0.188 C 
ENDROOT
BRANCH   1   2
ATOM      2  C   UNL A   1      33.821  26.166  23.018  1.00  0.00     0.188 C 
BRANCH   2   3
ATOM      3  O   UNL A   1      33.047  25.050  22.579  1.00  0.00    -0.376 OA
BRANCH   3   4
ATOM      4  C   UNL A   1      31.632  25.165  22.687  1.00  0.00     0.202 C 
BRANCH   4   5
ATOM      5  C   UNL A   1      30.902  24.012  23.390  1.00  0.00     0.261 C 
BRANCH   5   6
ATOM      6  O   UNL A   1      31.652  22.789  23.475  1.00  0.00    -0.460 OA
BRANCH   6   7
ATOM      7  C   UNL A   1      31.706  22.171  24.671  1.00  0.00     0.338 C 
ATOM      8  O   UNL A   1      30.766  21.816  25.357  1.00  0.00    -0.246 OA
BRANCH   7   9
ATOM      9  C   UNL A   1      33.119  21.825  24.926  1.00  0.00     0.087 C 
ATOM     10  C   UNL A   1      38.079  21.943  25.799  1.00  0.00     0.030 A 
ATOM     11  C   UNL A   1      37.147  20.936  25.477  1.00  0.00     0.063 A 
ATOM     12  C   UNL A   1      37.577  23.216  26.109  1.00  0.00     0.055 A 
ATOM     13  C   UNL A   1      35.786  21.219  25.342  1.00  0.00     0.129 A 
ATOM     14  C   UNL A   1      36.224  23.517  25.890  1.00  0.00     0.033 A 
ATOM     15  Cl  UNL A   1      38.519  24.479  26.816  1.00  0.00    -0.083 Cl
ATOM     16  C   UNL A   1      35.338  22.529  25.459  1.00  0.00     0.019 A 
ATOM     17  O   UNL A   1      34.963  20.173  25.032  1.00  0.00    -0.475 OA
ATOM     18  C   UNL A   1      33.969  22.849  25.089  1.00  0.00     0.027 C 
ATOM     19  C   UNL A   1      33.521  20.388  25.139  1.00  0.00     0.316 C 
BRANCH  10  20
ATOM     20  S   UNL A   1      39.786  21.397  25.762  1.00  0.00    -0.124 SA
BRANCH  20  21
ATOM     21  C   UNL A   1      40.573  21.993  27.311  1.00  0.00     0.078 C 
BRANCH  21  22
ATOM     22  C   UNL A   1      42.102  21.900  27.499  1.00  0.00    -0.007 C 
ATOM     23  C   UNL A   1      42.951  22.413  26.338  1.00  0.00     0.008 C 
ATOM     24  C   UNL A   1      42.477  22.695  28.761  1.00  0.00     0.008 C 
ENDBRANCH  21  22
ENDBRANCH  20  21
ENDBRANCH  10  20
BRANCH  19  25
ATOM     25  C   UNL A   1      32.850  19.404  24.165  1.00  0.00     0.430 C 
ATOM     26  F   UNL A   1      32.268  20.065  23.134  1.00  0.00    -0.167 F 
ATOM     27  F   UNL A   1      33.724  18.534  23.615  1.00  0.00    -0.167 F 
ATOM     28  F   UNL A   1      31.887  18.677  24.776  1.00  0.00    -0.167 F 
ENDBRANCH  19  25
ENDBRANCH   7   9
ENDBRANCH   6   7
ENDBRANCH   5   6
ENDBRANCH   4   5
ENDBRANCH   3   4
ENDBRANCH   2   3
ENDBRANCH   1   2
BRANCH   1  29
ATOM     29  O   UNL A   1      33.249  28.128  24.400  1.00  0.00    -0.377 OA
BRANCH  29  30
ATOM     30  C   UNL A   1      33.126  28.766  25.670  1.00  0.00     0.188 C 
BRANCH  30  31
ATOM     31  C   UNL A   1      31.781  29.343  26.170  1.00  0.00     0.188 C 
BRANCH  31  32
ATOM     32  O   UNL A   1      31.703  30.765  26.099  1.00  0.00    -0.376 OA
BRANCH  32  33
ATOM     33  C   UNL A   1      32.605  31.492  26.924  1.00  0.00     0.202 C 
BRANCH  33  34
ATOM     34  C   UNL A   1      32.146  32.925  27.215  1.00  0.00     0.261 C 
BRANCH  34  35
ATOM     35  O   UNL A   1      33.207  33.878  27.391  1.00  0.00    -0.460 OA
BRANCH  35  36
ATOM     36  C   UNL A   1      33.491  34.278  28.649  1.00  0.00     0.338 C 
ATOM     37  O   UNL A   1      32.832  35.015  29.359  1.00  0.00    -0.246 OA
BRANCH  36  38
ATOM     38  C   UNL A   1      34.655  33.487  29.102  1.00  0.00     0.060 A 
ATOM     39  C   UNL A   1      35.949  33.855  28.725  1.00  0.00     0.016 A 
ATOM     40  C   UNL A   1      34.437  32.333  29.864  1.00  0.00     0.016 A 
ATOM     41  C   UNL A   1      37.033  33.079  29.135  1.00  0.00     0.010 A 
ATOM     42  C   UNL A   1      35.522  31.549  30.261  1.00  0.00     0.010 A 
ATOM     43  C   UNL A   1      36.828  31.931  29.919  1.00  0.00    -0.014 A 
BRANCH  43  44
ATOM     44  C   UNL A   1      37.983  31.250  30.548  1.00  0.00     0.031 A 
ATOM     45  C   UNL A   1      38.872  30.315  29.790  1.00  0.00     0.074 A 
ATOM     46  C   UNL A   1      38.206  31.492  31.853  1.00  0.00     0.049 A 
ATOM     47  N   UNL A   1      39.940  29.687  30.213  1.00  0.00    -0.248 NA
ATOM     48  C   UNL A   1      38.527  30.046  28.387  1.00  0.00     0.031 C 
ATOM     49  C   UNL A   1      37.401  32.391  32.684  1.00  0.00     0.029 A 
ATOM     50  N   UNL A   1      39.164  31.012  32.708  1.00  0.00    -0.354 N 
ATOM     51  C   UNL A   1      40.412  28.965  29.126  1.00  0.00     0.074 A 
ATOM     52  C   UNL A   1      39.490  29.201  28.033  1.00  0.00     0.031 C 
ATOM     53  C   UNL A   1      37.905  32.405  33.926  1.00  0.00     0.029 A 
ATOM     54  C   UNL A   1      39.046  31.496  33.988  1.00  0.00     0.049 A 
ATOM     55  H   UNL A   1      39.868  30.383  32.431  1.00  0.00     0.167 HD
ATOM     56  C   UNL A   1      41.520  28.189  29.054  1.00  0.00     0.031 A 
ATOM     57  C   UNL A   1      39.769  31.238  35.094  1.00  0.00     0.031 A 
ATOM     58  C   UNL A   1      42.414  27.942  30.158  1.00  0.00     0.049 A 
ATOM     59  C   UNL A   1      40.945  30.311  35.003  1.00  0.00     0.074 A 
ATOM     60  C   UNL A   1      43.587  27.207  30.161  1.00  0.00     0.029 A 
ATOM     61  N   UNL A   1      42.230  28.405  31.452  1.00  0.00    -0.354 N 
ATOM     62  N   UNL A   1      41.422  29.695  33.949  1.00  0.00    -0.248 NA
ATOM     63  C   UNL A   1      41.689  30.050  36.242  1.00  0.00     0.031 C 
ATOM     64  C   UNL A   1      44.071  27.160  31.469  1.00  0.00     0.029 A 
ATOM     65  C   UNL A   1      43.244  27.931  32.269  1.00  0.00     0.049 A 
ATOM     66  H   UNL A   1      41.490  28.983  31.747  1.00  0.00     0.167 HD
ATOM     67  C   UNL A   1      42.535  28.993  34.392  1.00  0.00     0.074 A 
ATOM     68  C   UNL A   1      42.668  29.266  35.808  1.00  0.00     0.031 C 
ATOM     69  C   UNL A   1      43.370  28.200  33.679  1.00  0.00     0.031 A 
BRANCH  56  70
ATOM     70  C   UNL A   1      41.856  27.539  27.740  1.00  0.00    -0.014 A 
ATOM     71  C   UNL A   1      42.576  28.255  26.768  1.00  0.00     0.009 A 
ATOM     72  C   UNL A   1      41.335  26.279  27.407  1.00  0.00     0.009 A 
ATOM     73  C   UNL A   1      42.748  27.733  25.484  1.00  0.00     0.001 A 
ATOM     74  C   UNL A   1      41.531  25.749  26.129  1.00  0.00     0.001 A 
ATOM     75  C   UNL A   1      42.227  26.480  25.166  1.00  0.00     0.000 A 
ENDBRANCH  56  70
BRANCH  57  76
ATOM     76  C   UNL A   1      39.398  31.905  36.368  1.00  0.00    -0.014 A 
ATOM     77  C   UNL A   1      38.193  31.585  37.016  1.00  0.00     0.009 A 
ATOM     78  C   UNL A   1      40.206  32.920  36.900  1.00  0.00     0.009 A 
ATOM     79  C   UNL A   1      37.791  32.287  38.153  1.00  0.00     0.001 A 
ATOM     80  C   UNL A   1      39.815  33.601  38.055  1.00  0.00     0.001 A 
ATOM     81  C   UNL A   1      38.604  33.292  38.673  1.00  0.00     0.000 A 
ENDBRANCH  57  76
BRANCH  69  82
ATOM     82  C   UNL A   1      44.523  27.558  34.399  1.00  0.00    -0.014 A 
ATOM     83  C   UNL A   1      44.386  26.258  34.912  1.00  0.00     0.009 A 
ATOM     84  C   UNL A   1      45.689  28.283  34.688  1.00  0.00     0.009 A 
ATOM     85  C   UNL A   1      45.380  25.706  35.722  1.00  0.00     0.001 A 
ATOM     86  C   UNL A   1      46.694  27.718  35.476  1.00  0.00     0.001 A 
ATOM     87  C   UNL A   1      46.532  26.437  36.003  1.00  0.00     0.000 A 
ENDBRANCH  69  82
ENDBRANCH  43  44
ENDBRANCH  36  38
ENDBRANCH  35  36
ENDBRANCH  34  35
ENDBRANCH  33  34
ENDBRANCH  32  33
ENDBRANCH  31  32
ENDBRANCH  30  31
ENDBRANCH  29  30
ENDBRANCH   1  29
TORSDOF 24
ENDMDL
