MODEL 1
REMARK VINA RESULT:      -8.7      0.000      0.000
REMARK SMILES CC(C)C[C@@H](CNC(=O)[C@@H]1CCOC1)C(=O)OCCOCCOCCOCCOC(=O)c1ccc(-c2c3nc(c(-c4ccccc4)c4ccc([nH]4)c(-c4ccccc4)c4nc(c(-c5ccccc5)c5ccc2[nH]5)C=C4)C=C3)cc1
REMARK SMILES IDX 22 1 21 2 20 3 19 4 18 5 17 6 15 7 16 8 5 9 4 10 2 11 1 12
REMARK SMILES IDX 3 13 6 14 7 15 8 16 9 18 10 19 11 20 14 21 12 22 13 23 23 24
REMARK SMILES IDX 24 25 25 26 26 27 27 28 28 29 29 30 30 31 31 32 32 33 33 34
REMARK SMILES IDX 79 35 34 36 78 37 35 38 36 39 37 40 72 41 38 42 77 43 71 44
REMARK SMILES IDX 73 45 39 46 76 47 70 48 69 49 40 51 62 52 47 53 61 54 48 55
REMARK SMILES IDX 51 56 60 57 74 58 49 59 50 60 59 62 75 63 52 64 41 65 42 66
REMARK SMILES IDX 46 67 43 68 45 69 44 70 63 71 64 72 68 73 65 74 67 75 66 76
REMARK SMILES IDX 53 77 54 78 58 79 55 80 57 81 56 82
REMARK H PARENT 7 17 73 50 51 61
REMARK Flexibility Score: inf
ROOT
ATOM      1  C   UNL A   1      33.988  27.565  25.891  1.00  0.00     0.188 C 
ENDROOT
BRANCH   1   2
ATOM      2  C   UNL A   1      33.050  26.442  26.352  1.00  0.00     0.188 C 
BRANCH   2   3
ATOM      3  O   UNL A   1      31.682  26.706  26.582  1.00  0.00    -0.376 OA
BRANCH   3   4
ATOM      4  C   UNL A   1      30.655  26.197  25.748  1.00  0.00     0.202 C 
BRANCH   4   5
ATOM      5  C   UNL A   1      30.199  24.733  25.713  1.00  0.00     0.261 C 
BRANCH   5   6
ATOM      6  O   UNL A   1      30.668  23.856  24.669  1.00  0.00    -0.463 OA
BRANCH   6   7
ATOM      7  C   UNL A   1      31.143  22.664  25.097  1.00  0.00     0.310 C 
ATOM      8  O   UNL A   1      30.600  21.981  25.961  1.00  0.00    -0.252 OA
BRANCH   7   9
ATOM      9  C   UNL A   1      32.469  22.219  24.511  1.00  0.00     0.118 C 
BRANCH   9  10
ATOM     10  C   UNL A   1      32.542  21.064  23.491  1.00  0.00     0.020 C 
BRANCH  10  11
ATOM     11  C   UNL A   1      32.716  19.659  24.148  1.00  0.00    -0.017 C 
ATOM     12  C   UNL A   1      32.374  18.491  23.212  1.00  0.00     0.007 C 
ATOM     13  C   UNL A   1      34.151  19.464  24.650  1.00  0.00     0.007 C 
ENDBRANCH  10  11
ENDBRANCH   9  10
BRANCH   9  14
ATOM     14  C   UNL A   1      33.225  23.475  24.079  1.00  0.00     0.131 C 
BRANCH  14  15
ATOM     15  N   UNL A   1      34.394  23.200  23.266  1.00  0.00    -0.355 N 
ATOM     16  C   UNL A   1      35.667  22.863  23.589  1.00  0.00     0.225 C 
ATOM     17  H   UNL A   1      34.233  23.270  22.297  1.00  0.00     0.163 HD
ATOM     18  O   UNL A   1      36.467  22.802  22.648  1.00  0.00    -0.275 OA
BRANCH  16  19
ATOM     19  C   UNL A   1      36.171  22.599  25.006  1.00  0.00     0.106 C 
ATOM     20  C   UNL A   1      36.385  23.780  25.921  1.00  0.00     0.044 C 
ATOM     21  C   UNL A   1      37.466  21.832  25.053  1.00  0.00     0.173 C 
ATOM     22  C   UNL A   1      37.873  23.807  26.217  1.00  0.00     0.161 C 
ATOM     23  O   UNL A   1      38.477  22.683  25.586  1.00  0.00    -0.381 OA
ENDBRANCH  16  19
ENDBRANCH  14  15
ENDBRANCH   9  14
ENDBRANCH   7   9
ENDBRANCH   6   7
ENDBRANCH   5   6
ENDBRANCH   4   5
ENDBRANCH   3   4
ENDBRANCH   2   3
ENDBRANCH   1   2
BRANCH   1  24
ATOM     24  O   UNL A   1      33.565  28.332  24.781  1.00  0.00    -0.377 OA
BRANCH  24  25
ATOM     25  C   UNL A   1      33.021  29.631  24.989  1.00  0.00     0.188 C 
BRANCH  25  26
ATOM     26  C   UNL A   1      31.495  29.838  25.022  1.00  0.00     0.188 C 
BRANCH  26  27
ATOM     27  O   UNL A   1      31.063  30.899  25.857  1.00  0.00    -0.376 OA
BRANCH  27  28
ATOM     28  C   UNL A   1      32.018  31.556  26.675  1.00  0.00     0.202 C 
BRANCH  28  29
ATOM     29  C   UNL A   1      31.757  33.026  27.043  1.00  0.00     0.261 C 
BRANCH  29  30
ATOM     30  O   UNL A   1      32.918  33.856  27.232  1.00  0.00    -0.460 OA
BRANCH  30  31
ATOM     31  C   UNL A   1      33.340  34.084  28.494  1.00  0.00     0.338 C 
ATOM     32  O   UNL A   1      32.755  34.687  29.369  1.00  0.00    -0.246 OA
BRANCH  31  33
ATOM     33  C   UNL A   1      34.568  33.289  28.714  1.00  0.00     0.060 A 
ATOM     34  C   UNL A   1      34.441  31.994  29.235  1.00  0.00     0.016 A 
ATOM     35  C   UNL A   1      35.831  33.821  28.443  1.00  0.00     0.016 A 
ATOM     36  C   UNL A   1      35.578  31.249  29.536  1.00  0.00     0.010 A 
ATOM     37  C   UNL A   1      36.973  33.081  28.768  1.00  0.00     0.010 A 
ATOM     38  C   UNL A   1      36.849  31.810  29.355  1.00  0.00    -0.014 A 
BRANCH  38  39
ATOM     39  C   UNL A   1      38.018  31.139  29.974  1.00  0.00     0.031 A 
ATOM     40  C   UNL A   1      38.326  31.419  31.421  1.00  0.00     0.074 A 
ATOM     41  C   UNL A   1      38.743  30.235  29.291  1.00  0.00     0.049 A 
ATOM     42  N   UNL A   1      39.268  30.921  32.181  1.00  0.00    -0.248 NA
ATOM     43  C   UNL A   1      37.449  32.385  32.104  1.00  0.00     0.031 C 
ATOM     44  C   UNL A   1      38.515  29.838  27.903  1.00  0.00     0.029 A 
ATOM     45  N   UNL A   1      39.819  29.478  29.686  1.00  0.00    -0.354 N 
ATOM     46  C   UNL A   1      39.091  31.506  33.429  1.00  0.00     0.074 A 
ATOM     47  C   UNL A   1      37.980  32.425  33.317  1.00  0.00     0.031 C 
ATOM     48  C   UNL A   1      39.427  28.910  27.560  1.00  0.00     0.029 A 
ATOM     49  C   UNL A   1      40.318  28.670  28.694  1.00  0.00     0.049 A 
ATOM     50  H   UNL A   1      40.196  29.512  30.595  1.00  0.00     0.167 HD
ATOM     51  C   UNL A   1      39.783  31.290  34.573  1.00  0.00     0.031 A 
ATOM     52  C   UNL A   1      41.382  27.845  28.698  1.00  0.00     0.031 A 
ATOM     53  C   UNL A   1      40.901  30.393  34.685  1.00  0.00     0.049 A 
ATOM     54  C   UNL A   1      42.190  27.691  29.961  1.00  0.00     0.074 A 
ATOM     55  C   UNL A   1      41.674  30.112  35.798  1.00  0.00     0.029 A 
ATOM     56  N   UNL A   1      41.410  29.634  33.643  1.00  0.00    -0.354 N 
ATOM     57  N   UNL A   1      42.001  28.236  31.140  1.00  0.00    -0.248 NA
ATOM     58  C   UNL A   1      43.352  26.793  29.895  1.00  0.00     0.031 C 
ATOM     59  C   UNL A   1      42.687  29.226  35.415  1.00  0.00     0.029 A 
ATOM     60  C   UNL A   1      42.503  28.904  34.080  1.00  0.00     0.049 A 
ATOM     61  H   UNL A   1      41.049  29.616  32.727  1.00  0.00     0.167 HD
ATOM     62  C   UNL A   1      43.003  27.727  31.958  1.00  0.00     0.074 A 
ATOM     63  C   UNL A   1      43.776  26.808  31.150  1.00  0.00     0.031 C 
ATOM     64  C   UNL A   1      43.266  27.999  33.261  1.00  0.00     0.031 A 
BRANCH  51  65
ATOM     65  C   UNL A   1      39.362  32.059  35.795  1.00  0.00    -0.014 A 
ATOM     66  C   UNL A   1      39.965  33.283  36.129  1.00  0.00     0.009 A 
ATOM     67  C   UNL A   1      38.316  31.577  36.597  1.00  0.00     0.009 A 
ATOM     68  C   UNL A   1      39.543  33.995  37.253  1.00  0.00     0.001 A 
ATOM     69  C   UNL A   1      37.878  32.305  37.704  1.00  0.00     0.001 A 
ATOM     70  C   UNL A   1      38.496  33.510  38.035  1.00  0.00     0.000 A 
ENDBRANCH  51  65
BRANCH  52  71
ATOM     71  C   UNL A   1      41.780  27.122  27.460  1.00  0.00    -0.014 A 
ATOM     72  C   UNL A   1      41.449  25.771  27.270  1.00  0.00     0.009 A 
ATOM     73  C   UNL A   1      42.547  27.773  26.479  1.00  0.00     0.009 A 
ATOM     74  C   UNL A   1      41.912  25.079  26.147  1.00  0.00     0.001 A 
ATOM     75  C   UNL A   1      42.977  27.089  25.341  1.00  0.00     0.001 A 
ATOM     76  C   UNL A   1      42.672  25.740  25.182  1.00  0.00     0.000 A 
ENDBRANCH  52  71
BRANCH  64  77
ATOM     77  C   UNL A   1      44.417  27.265  33.895  1.00  0.00    -0.014 A 
ATOM     78  C   UNL A   1      44.239  26.015  34.510  1.00  0.00     0.009 A 
ATOM     79  C   UNL A   1      45.702  27.830  33.868  1.00  0.00     0.009 A 
ATOM     80  C   UNL A   1      45.314  25.373  35.131  1.00  0.00     0.001 A 
ATOM     81  C   UNL A   1      46.781  27.169  34.456  1.00  0.00     0.001 A 
ATOM     82  C   UNL A   1      46.582  25.950  35.101  1.00  0.00     0.000 A 
ENDBRANCH  64  77
ENDBRANCH  38  39
ENDBRANCH  31  33
ENDBRANCH  30  31
ENDBRANCH  29  30
ENDBRANCH  28  29
ENDBRANCH  27  28
ENDBRANCH  26  27
ENDBRANCH  25  26
ENDBRANCH  24  25
ENDBRANCH   1  24
TORSDOF 25
ENDMDL
MODEL 2
REMARK VINA RESULT:      -8.5      3.818      6.963
REMARK SMILES CC(C)C[C@@H](CNC(=O)[C@@H]1CCOC1)C(=O)OCCOCCOCCOCCOC(=O)c1ccc(-c2c3nc(c(-c4ccccc4)c4ccc([nH]4)c(-c4ccccc4)c4nc(c(-c5ccccc5)c5ccc2[nH]5)C=C4)C=C3)cc1
REMARK SMILES IDX 22 1 21 2 20 3 19 4 18 5 17 6 15 7 16 8 5 9 4 10 2 11 1 12
REMARK SMILES IDX 3 13 6 14 7 15 8 16 9 18 10 19 11 20 14 21 12 22 13 23 23 24
REMARK SMILES IDX 24 25 25 26 26 27 27 28 28 29 29 30 30 31 31 32 32 33 33 34
REMARK SMILES IDX 79 35 34 36 78 37 35 38 36 39 37 40 72 41 38 42 77 43 71 44
REMARK SMILES IDX 73 45 39 46 76 47 70 48 69 49 40 51 62 52 47 53 61 54 48 55
REMARK SMILES IDX 51 56 60 57 74 58 49 59 50 60 59 62 75 63 52 64 41 65 42 66
REMARK SMILES IDX 46 67 43 68 45 69 44 70 63 71 64 72 68 73 65 74 67 75 66 76
REMARK SMILES IDX 53 77 54 78 58 79 55 80 57 81 56 82
REMARK H PARENT 7 17 73 50 51 61
REMARK Flexibility Score: inf
ROOT
ATOM      1  C   UNL A   1      34.683  31.882  28.867  1.00  0.00     0.188 C 
ENDROOT
BRANCH   1   2
ATOM      2  C   UNL A   1      34.458  31.298  27.466  1.00  0.00     0.188 C 
BRANCH   2   3
ATOM      3  O   UNL A   1      34.655  29.920  27.228  1.00  0.00    -0.376 OA
BRANCH   3   4
ATOM      4  C   UNL A   1      33.792  29.156  26.403  1.00  0.00     0.202 C 
BRANCH   4   5
ATOM      5  C   UNL A   1      33.814  27.627  26.292  1.00  0.00     0.261 C 
BRANCH   5   6
ATOM      6  O   UNL A   1      32.694  26.930  25.710  1.00  0.00    -0.463 OA
BRANCH   6   7
ATOM      7  C   UNL A   1      33.001  26.137  24.657  1.00  0.00     0.310 C 
ATOM      8  O   UNL A   1      34.142  25.777  24.381  1.00  0.00    -0.252 OA
BRANCH   7   9
ATOM      9  C   UNL A   1      31.852  25.762  23.741  1.00  0.00     0.118 C 
BRANCH   9  10
ATOM     10  C   UNL A   1      30.667  24.917  24.254  1.00  0.00     0.020 C 
BRANCH  10  11
ATOM     11  C   UNL A   1      30.984  23.393  24.357  1.00  0.00    -0.017 C 
ATOM     12  C   UNL A   1      31.764  22.841  23.156  1.00  0.00     0.007 C 
ATOM     13  C   UNL A   1      31.784  23.086  25.627  1.00  0.00     0.007 C 
ENDBRANCH  10  11
ENDBRANCH   9  10
BRANCH   9  14
ATOM     14  C   UNL A   1      31.432  27.025  22.990  1.00  0.00     0.131 C 
BRANCH  14  15
ATOM     15  N   UNL A   1      31.249  28.179  23.849  1.00  0.00    -0.355 N 
ATOM     16  C   UNL A   1      30.460  29.277  23.741  1.00  0.00     0.225 C 
ATOM     17  H   UNL A   1      31.801  28.163  24.664  1.00  0.00     0.163 HD
ATOM     18  O   UNL A   1      30.620  30.146  24.606  1.00  0.00    -0.275 OA
BRANCH  16  19
ATOM     19  C   UNL A   1      29.442  29.518  22.629  1.00  0.00     0.106 C 
ATOM     20  C   UNL A   1      29.135  30.942  22.236  1.00  0.00     0.044 C 
ATOM     21  C   UNL A   1      28.098  28.891  22.895  1.00  0.00     0.173 C 
ATOM     22  C   UNL A   1      27.672  31.158  22.577  1.00  0.00     0.161 C 
ATOM     23  O   UNL A   1      27.139  29.932  23.065  1.00  0.00    -0.381 OA
ENDBRANCH  16  19
ENDBRANCH  14  15
ENDBRANCH   9  14
ENDBRANCH   7   9
ENDBRANCH   6   7
ENDBRANCH   5   6
ENDBRANCH   4   5
ENDBRANCH   3   4
ENDBRANCH   2   3
ENDBRANCH   1   2
BRANCH   1  24
ATOM     24  O   UNL A   1      34.720  33.293  28.969  1.00  0.00    -0.377 OA
BRANCH  24  25
ATOM     25  C   UNL A   1      33.592  33.991  29.485  1.00  0.00     0.188 C 
BRANCH  25  26
ATOM     26  C   UNL A   1      33.787  35.201  30.418  1.00  0.00     0.188 C 
BRANCH  26  27
ATOM     27  O   UNL A   1      33.225  35.044  31.710  1.00  0.00    -0.376 OA
BRANCH  27  28
ATOM     28  C   UNL A   1      34.090  34.784  32.804  1.00  0.00     0.202 C 
BRANCH  28  29
ATOM     29  C   UNL A   1      34.189  33.336  33.312  1.00  0.00     0.261 C 
BRANCH  29  30
ATOM     30  O   UNL A   1      35.184  32.504  32.687  1.00  0.00    -0.460 OA
BRANCH  30  31
ATOM     31  C   UNL A   1      36.349  32.306  33.340  1.00  0.00     0.338 C 
ATOM     32  O   UNL A   1      36.594  32.551  34.502  1.00  0.00    -0.246 OA
BRANCH  31  33
ATOM     33  C   UNL A   1      37.245  31.536  32.448  1.00  0.00     0.060 A 
ATOM     34  C   UNL A   1      38.280  30.790  33.026  1.00  0.00     0.016 A 
ATOM     35  C   UNL A   1      37.088  31.572  31.061  1.00  0.00     0.016 A 
ATOM     36  C   UNL A   1      39.195  30.123  32.216  1.00  0.00     0.010 A 
ATOM     37  C   UNL A   1      38.021  30.921  30.247  1.00  0.00     0.010 A 
ATOM     38  C   UNL A   1      39.102  30.230  30.822  1.00  0.00    -0.014 A 
BRANCH  38  39
ATOM     39  C   UNL A   1      40.252  29.789  29.996  1.00  0.00     0.031 A 
ATOM     40  C   UNL A   1      41.379  30.759  29.757  1.00  0.00     0.074 A 
ATOM     41  C   UNL A   1      40.335  28.528  29.535  1.00  0.00     0.049 A 
ATOM     42  N   UNL A   1      42.500  30.585  29.103  1.00  0.00    -0.248 NA
ATOM     43  C   UNL A   1      41.226  32.102  30.341  1.00  0.00     0.031 C 
ATOM     44  C   UNL A   1      39.336  27.482  29.741  1.00  0.00     0.029 A 
ATOM     45  N   UNL A   1      41.321  27.914  28.802  1.00  0.00    -0.354 N 
ATOM     46  C   UNL A   1      43.185  31.790  29.204  1.00  0.00     0.074 A 
ATOM     47  C   UNL A   1      42.340  32.700  29.946  1.00  0.00     0.031 C 
ATOM     48  C   UNL A   1      39.759  26.353  29.145  1.00  0.00     0.029 A 
ATOM     49  C   UNL A   1      41.043  26.606  28.493  1.00  0.00     0.049 A 
ATOM     50  H   UNL A   1      42.148  28.370  28.525  1.00  0.00     0.167 HD
ATOM     51  C   UNL A   1      44.414  32.110  28.734  1.00  0.00     0.031 A 
ATOM     52  C   UNL A   1      41.739  25.720  27.755  1.00  0.00     0.031 A 
ATOM     53  C   UNL A   1      45.248  31.215  27.977  1.00  0.00     0.049 A 
ATOM     54  C   UNL A   1      43.064  26.132  27.166  1.00  0.00     0.074 A 
ATOM     55  C   UNL A   1      46.505  31.449  27.448  1.00  0.00     0.029 A 
ATOM     56  N   UNL A   1      44.906  29.916  27.639  1.00  0.00    -0.354 N 
ATOM     57  N   UNL A   1      43.709  27.268  27.285  1.00  0.00    -0.248 NA
ATOM     58  C   UNL A   1      43.764  25.128  26.352  1.00  0.00     0.031 C 
ATOM     59  C   UNL A   1      46.900  30.309  26.739  1.00  0.00     0.029 A 
ATOM     60  C   UNL A   1      45.918  29.343  26.886  1.00  0.00     0.049 A 
ATOM     61  H   UNL A   1      44.069  29.465  27.896  1.00  0.00     0.167 HD
ATOM     62  C   UNL A   1      44.897  27.105  26.583  1.00  0.00     0.074 A 
ATOM     63  C   UNL A   1      44.898  25.752  26.070  1.00  0.00     0.031 C 
ATOM     64  C   UNL A   1      45.899  27.996  26.376  1.00  0.00     0.031 A 
BRANCH  51  65
ATOM     65  C   UNL A   1      44.921  33.500  29.003  1.00  0.00    -0.014 A 
ATOM     66  C   UNL A   1      44.567  34.577  28.174  1.00  0.00     0.009 A 
ATOM     67  C   UNL A   1      45.722  33.743  30.129  1.00  0.00     0.009 A 
ATOM     68  C   UNL A   1      45.027  35.865  28.455  1.00  0.00     0.001 A 
ATOM     69  C   UNL A   1      46.157  35.037  30.423  1.00  0.00     0.001 A 
ATOM     70  C   UNL A   1      45.814  36.095  29.583  1.00  0.00     0.000 A 
ENDBRANCH  51  65
BRANCH  52  71
ATOM     71  C   UNL A   1      41.189  24.363  27.490  1.00  0.00    -0.014 A 
ATOM     72  C   UNL A   1      40.099  24.177  26.625  1.00  0.00     0.009 A 
ATOM     73  C   UNL A   1      41.724  23.244  28.150  1.00  0.00     0.009 A 
ATOM     74  C   UNL A   1      39.532  22.910  26.461  1.00  0.00     0.001 A 
ATOM     75  C   UNL A   1      41.179  21.974  27.956  1.00  0.00     0.001 A 
ATOM     76  C   UNL A   1      40.074  21.810  27.123  1.00  0.00     0.000 A 
ENDBRANCH  52  71
BRANCH  64  77
ATOM     77  C   UNL A   1      47.089  27.518  25.588  1.00  0.00    -0.014 A 
ATOM     78  C   UNL A   1      48.180  26.895  26.215  1.00  0.00     0.009 A 
ATOM     79  C   UNL A   1      47.114  27.686  24.194  1.00  0.00     0.009 A 
ATOM     80  C   UNL A   1      49.293  26.499  25.469  1.00  0.00     0.001 A 
ATOM     81  C   UNL A   1      48.211  27.257  23.447  1.00  0.00     0.001 A 
ATOM     82  C   UNL A   1      49.305  26.678  24.086  1.00  0.00     0.000 A 
ENDBRANCH  64  77
ENDBRANCH  38  39
ENDBRANCH  31  33
ENDBRANCH  30  31
ENDBRANCH  29  30
ENDBRANCH  28  29
ENDBRANCH  27  28
ENDBRANCH  26  27
ENDBRANCH  25  26
ENDBRANCH  24  25
ENDBRANCH   1  24
TORSDOF 25
ENDMDL
MODEL 3
REMARK VINA RESULT:      -8.5      3.707      9.025
REMARK SMILES CC(C)C[C@@H](CNC(=O)[C@@H]1CCOC1)C(=O)OCCOCCOCCOCCOC(=O)c1ccc(-c2c3nc(c(-c4ccccc4)c4ccc([nH]4)c(-c4ccccc4)c4nc(c(-c5ccccc5)c5ccc2[nH]5)C=C4)C=C3)cc1
REMARK SMILES IDX 22 1 21 2 20 3 19 4 18 5 17 6 15 7 16 8 5 9 4 10 2 11 1 12
REMARK SMILES IDX 3 13 6 14 7 15 8 16 9 18 10 19 11 20 14 21 12 22 13 23 23 24
REMARK SMILES IDX 24 25 25 26 26 27 27 28 28 29 29 30 30 31 31 32 32 33 33 34
REMARK SMILES IDX 79 35 34 36 78 37 35 38 36 39 37 40 72 41 38 42 77 43 71 44
REMARK SMILES IDX 73 45 39 46 76 47 70 48 69 49 40 51 62 52 47 53 61 54 48 55
REMARK SMILES IDX 51 56 60 57 74 58 49 59 50 60 59 62 75 63 52 64 41 65 42 66
REMARK SMILES IDX 46 67 43 68 45 69 44 70 63 71 64 72 68 73 65 74 67 75 66 76
REMARK SMILES IDX 53 77 54 78 58 79 55 80 57 81 56 82
REMARK H PARENT 7 17 73 50 51 61
REMARK Flexibility Score: inf
ROOT
ATOM      1  C   UNL A   1      33.108  20.643  25.797  1.00  0.00     0.188 C 
ENDROOT
BRANCH   1   2
ATOM      2  C   UNL A   1      31.943  21.206  24.973  1.00  0.00     0.188 C 
BRANCH   2   3
ATOM      3  O   UNL A   1      31.126  22.230  25.501  1.00  0.00    -0.376 OA
BRANCH   3   4
ATOM      4  C   UNL A   1      31.623  23.230  26.375  1.00  0.00     0.202 C 
BRANCH   4   5
ATOM      5  C   UNL A   1      30.837  24.465  26.830  1.00  0.00     0.261 C 
BRANCH   5   6
ATOM      6  O   UNL A   1      30.480  25.486  25.877  1.00  0.00    -0.463 OA
BRANCH   6   7
ATOM      7  C   UNL A   1      30.987  26.712  26.139  1.00  0.00     0.310 C 
ATOM      8  O   UNL A   1      31.031  27.209  27.262  1.00  0.00    -0.252 OA
BRANCH   7   9
ATOM      9  C   UNL A   1      31.440  27.523  24.941  1.00  0.00     0.118 C 
BRANCH   9  10
ATOM     10  C   UNL A   1      30.941  28.966  24.719  1.00  0.00     0.020 C 
BRANCH  10  11
ATOM     11  C   UNL A   1      29.938  29.104  23.531  1.00  0.00    -0.017 C 
ATOM     12  C   UNL A   1      30.611  29.419  22.187  1.00  0.00     0.007 C 
ATOM     13  C   UNL A   1      29.111  27.826  23.363  1.00  0.00     0.007 C 
ENDBRANCH  10  11
ENDBRANCH   9  10
BRANCH   9  14
ATOM     14  C   UNL A   1      32.957  27.370  24.830  1.00  0.00     0.131 C 
BRANCH  14  15
ATOM     15  N   UNL A   1      33.518  27.978  23.639  1.00  0.00    -0.355 N 
ATOM     16  C   UNL A   1      33.716  27.504  22.384  1.00  0.00     0.225 C 
ATOM     17  H   UNL A   1      33.809  28.910  23.765  1.00  0.00     0.163 HD
ATOM     18  O   UNL A   1      34.328  28.254  21.613  1.00  0.00    -0.275 OA
BRANCH  16  19
ATOM     19  C   UNL A   1      33.278  26.129  21.887  1.00  0.00     0.106 C 
ATOM     20  C   UNL A   1      31.802  25.866  21.720  1.00  0.00     0.044 C 
ATOM     21  C   UNL A   1      33.780  24.992  22.737  1.00  0.00     0.173 C 
ATOM     22  C   UNL A   1      31.463  24.770  22.713  1.00  0.00     0.161 C 
ATOM     23  O   UNL A   1      32.663  24.366  23.363  1.00  0.00    -0.381 OA
ENDBRANCH  16  19
ENDBRANCH  14  15
ENDBRANCH   9  14
ENDBRANCH   7   9
ENDBRANCH   6   7
ENDBRANCH   5   6
ENDBRANCH   4   5
ENDBRANCH   3   4
ENDBRANCH   2   3
ENDBRANCH   1   2
BRANCH   1  24
ATOM     24  O   UNL A   1      34.340  20.473  25.122  1.00  0.00    -0.377 OA
BRANCH  24  25
ATOM     25  C   UNL A   1      34.953  21.587  24.483  1.00  0.00     0.188 C 
BRANCH  25  26
ATOM     26  C   UNL A   1      36.338  22.081  24.941  1.00  0.00     0.188 C 
BRANCH  26  27
ATOM     27  O   UNL A   1      37.426  21.309  24.462  1.00  0.00    -0.376 OA
BRANCH  27  28
ATOM     28  C   UNL A   1      37.511  19.942  24.836  1.00  0.00     0.202 C 
BRANCH  28  29
ATOM     29  C   UNL A   1      38.888  19.397  25.248  1.00  0.00     0.261 C 
BRANCH  29  30
ATOM     30  O   UNL A   1      39.680  20.238  26.108  1.00  0.00    -0.460 OA
BRANCH  30  31
ATOM     31  C   UNL A   1      41.011  20.025  26.155  1.00  0.00     0.338 C 
ATOM     32  O   UNL A   1      41.624  19.081  25.703  1.00  0.00    -0.246 OA
BRANCH  31  33
ATOM     33  C   UNL A   1      41.650  21.253  26.680  1.00  0.00     0.060 A 
ATOM     34  C   UNL A   1      41.663  21.458  28.066  1.00  0.00     0.016 A 
ATOM     35  C   UNL A   1      42.200  22.205  25.819  1.00  0.00     0.016 A 
ATOM     36  C   UNL A   1      42.178  22.640  28.591  1.00  0.00     0.010 A 
ATOM     37  C   UNL A   1      42.695  23.403  26.346  1.00  0.00     0.010 A 
ATOM     38  C   UNL A   1      42.645  23.642  27.730  1.00  0.00    -0.014 A 
BRANCH  38  39
ATOM     39  C   UNL A   1      42.884  24.998  28.279  1.00  0.00     0.031 A 
ATOM     40  C   UNL A   1      44.296  25.400  28.612  1.00  0.00     0.074 A 
ATOM     41  C   UNL A   1      41.881  25.886  28.403  1.00  0.00     0.049 A 
ATOM     42  N   UNL A   1      44.750  26.541  29.065  1.00  0.00    -0.248 NA
ATOM     43  C   UNL A   1      45.337  24.381  28.399  1.00  0.00     0.031 C 
ATOM     44  C   UNL A   1      40.481  25.636  28.067  1.00  0.00     0.029 A 
ATOM     45  N   UNL A   1      41.897  27.188  28.840  1.00  0.00    -0.354 N 
ATOM     46  C   UNL A   1      46.125  26.379  29.182  1.00  0.00     0.074 A 
ATOM     47  C   UNL A   1      46.429  25.020  28.793  1.00  0.00     0.031 C 
ATOM     48  C   UNL A   1      39.769  26.751  28.313  1.00  0.00     0.029 A 
ATOM     49  C   UNL A   1      40.658  27.780  28.849  1.00  0.00     0.049 A 
ATOM     50  H   UNL A   1      42.718  27.652  29.120  1.00  0.00     0.167 HD
ATOM     51  C   UNL A   1      47.057  27.283  29.567  1.00  0.00     0.031 A 
ATOM     52  C   UNL A   1      40.284  29.007  29.260  1.00  0.00     0.031 A 
ATOM     53  C   UNL A   1      46.758  28.629  29.976  1.00  0.00     0.049 A 
ATOM     54  C   UNL A   1      41.331  29.964  29.769  1.00  0.00     0.074 A 
ATOM     55  C   UNL A   1      47.631  29.618  30.392  1.00  0.00     0.029 A 
ATOM     56  N   UNL A   1      45.484  29.173  30.023  1.00  0.00    -0.354 N 
ATOM     57  N   UNL A   1      42.631  29.804  29.857  1.00  0.00    -0.248 NA
ATOM     58  C   UNL A   1      40.857  31.280  30.223  1.00  0.00     0.031 C 
ATOM     59  C   UNL A   1      46.879  30.744  30.748  1.00  0.00     0.029 A 
ATOM     60  C   UNL A   1      45.545  30.477  30.487  1.00  0.00     0.049 A 
ATOM     61  H   UNL A   1      44.658  28.703  29.765  1.00  0.00     0.167 HD
ATOM     62  C   UNL A   1      43.128  31.005  30.350  1.00  0.00     0.074 A 
ATOM     63  C   UNL A   1      41.996  31.892  30.512  1.00  0.00     0.031 C 
ATOM     64  C   UNL A   1      44.407  31.344  30.649  1.00  0.00     0.031 A 
BRANCH  51  65
ATOM     65  C   UNL A   1      48.493  26.835  29.588  1.00  0.00    -0.014 A 
ATOM     66  C   UNL A   1      49.034  26.180  30.706  1.00  0.00     0.009 A 
ATOM     67  C   UNL A   1      49.300  27.027  28.457  1.00  0.00     0.009 A 
ATOM     68  C   UNL A   1      50.362  25.749  30.698  1.00  0.00     0.001 A 
ATOM     69  C   UNL A   1      50.619  26.570  28.441  1.00  0.00     0.001 A 
ATOM     70  C   UNL A   1      51.150  25.937  29.563  1.00  0.00     0.000 A 
ENDBRANCH  51  65
BRANCH  52  71
ATOM     71  C   UNL A   1      38.849  29.402  29.247  1.00  0.00    -0.014 A 
ATOM     72  C   UNL A   1      37.988  29.040  30.294  1.00  0.00     0.009 A 
ATOM     73  C   UNL A   1      38.320  30.101  28.149  1.00  0.00     0.009 A 
ATOM     74  C   UNL A   1      36.623  29.333  30.223  1.00  0.00     0.001 A 
ATOM     75  C   UNL A   1      36.963  30.425  28.098  1.00  0.00     0.001 A 
ATOM     76  C   UNL A   1      36.113  30.028  29.127  1.00  0.00     0.000 A 
ENDBRANCH  52  71
BRANCH  64  77
ATOM     77  C   UNL A   1      44.646  32.744  31.148  1.00  0.00    -0.014 A 
ATOM     78  C   UNL A   1      44.903  33.803  30.262  1.00  0.00     0.009 A 
ATOM     79  C   UNL A   1      44.603  33.008  32.526  1.00  0.00     0.009 A 
ATOM     80  C   UNL A   1      45.165  35.086  30.751  1.00  0.00     0.001 A 
ATOM     81  C   UNL A   1      44.829  34.297  33.009  1.00  0.00     0.001 A 
ATOM     82  C   UNL A   1      45.125  35.331  32.123  1.00  0.00     0.000 A 
ENDBRANCH  64  77
ENDBRANCH  38  39
ENDBRANCH  31  33
ENDBRANCH  30  31
ENDBRANCH  29  30
ENDBRANCH  28  29
ENDBRANCH  27  28
ENDBRANCH  26  27
ENDBRANCH  25  26
ENDBRANCH  24  25
ENDBRANCH   1  24
TORSDOF 25
ENDMDL
