MODEL 1
REMARK VINA RESULT:      -9.6      0.000      0.000
REMARK SMILES CC[C@@H](C(=O)OCCOCCOCCOCCOC(=O)c1ccc(-c2c3nc(c(-c4ccccc4)c4ccc([nH]4)c(-c4ccccc4)c4nc(c(-c5ccccc5)c5ccc2[nH]5)C=C4)C=C3)cc1)[N@@H+]1CCc2ccc(N)cc2C1
REMARK SMILES IDX 12 1 11 2 10 3 9 4 8 5 7 6 6 7 4 8 5 9 3 10 2 11 1 12 69 13
REMARK SMILES IDX 70 14 79 15 71 17 78 18 72 19 77 20 73 21 75 22 74 23 76 24
REMARK SMILES IDX 13 27 14 28 15 29 16 30 17 31 18 32 19 33 20 34 21 35 22 36
REMARK SMILES IDX 68 37 23 38 67 39 24 40 25 41 26 42 61 43 27 44 66 45 60 46
REMARK SMILES IDX 62 47 28 48 65 49 59 50 58 51 29 53 51 54 36 55 50 56 37 57
REMARK SMILES IDX 40 58 49 59 63 60 38 61 39 62 48 64 64 65 41 66 30 67 31 68
REMARK SMILES IDX 35 69 32 70 34 71 33 72 52 73 53 74 57 75 54 76 56 77 55 78
REMARK SMILES IDX 42 79 43 80 47 81 44 82 46 83 45 84
REMARK H PARENT 69 16 76 25 76 26 62 52 40 63
REMARK Flexibility Score: inf
ROOT
ATOM      1  O   UNL A   1      33.309  29.150  24.048  1.00  0.00    -0.377 OA
ENDROOT
BRANCH   1   2
ATOM      2  C   UNL A   1      32.399  28.536  23.113  1.00  0.00     0.188 C 
BRANCH   2   3
ATOM      3  C   UNL A   1      30.864  28.803  23.248  1.00  0.00     0.188 C 
BRANCH   3   4
ATOM      4  O   UNL A   1      30.153  28.095  24.310  1.00  0.00    -0.376 OA
BRANCH   4   5
ATOM      5  C   UNL A   1      30.394  26.655  24.235  1.00  0.00     0.202 C 
BRANCH   5   6
ATOM      6  C   UNL A   1      30.537  25.845  25.590  1.00  0.00     0.261 C 
BRANCH   6   7
ATOM      7  O   UNL A   1      31.871  25.273  25.816  1.00  0.00    -0.459 OA
BRANCH   7   8
ATOM      8  C   UNL A   1      32.073  24.087  26.480  1.00  0.00     0.364 C 
ATOM      9  O   UNL A   1      31.336  23.727  27.393  1.00  0.00    -0.245 OA
BRANCH   8  10
ATOM     10  C   UNL A   1      33.274  23.146  25.866  1.00  0.00     0.295 C 
BRANCH  10  11
ATOM     11  C   UNL A   1      34.697  23.252  26.478  1.00  0.00     0.074 C 
ATOM     12  C   UNL A   1      35.684  24.230  25.859  1.00  0.00     0.011 C 
ENDBRANCH  10  11
BRANCH  10  13
ATOM     13  N   UNL A   1      33.196  23.004  24.339  1.00  0.00    -0.319 N 
ATOM     14  C   UNL A   1      31.885  22.760  23.612  1.00  0.00     0.268 C 
ATOM     15  C   UNL A   1      34.057  21.920  23.929  1.00  0.00     0.300 C 
ATOM     16  H   UNL A   1      33.448  23.955  24.068  1.00  0.00     0.349 HD
ATOM     17  C   UNL A   1      31.879  21.531  22.521  1.00  0.00     0.097 C 
ATOM     18  C   UNL A   1      33.342  20.627  24.187  1.00  0.00     0.012 A 
ATOM     19  C   UNL A   1      32.471  20.303  23.180  1.00  0.00    -0.033 A 
ATOM     20  C   UNL A   1      33.186  19.904  25.367  1.00  0.00     0.035 A 
ATOM     21  C   UNL A   1      32.196  18.965  23.018  1.00  0.00     0.006 A 
ATOM     22  C   UNL A   1      32.740  18.613  25.357  1.00  0.00     0.032 A 
ATOM     23  C   UNL A   1      32.427  18.115  24.116  1.00  0.00     0.026 A 
BRANCH  22  24
ATOM     24  N   UNL A   1      32.810  17.833  26.497  1.00  0.00    -0.399 N 
ATOM     25  H   UNL A   1      33.483  17.116  26.562  1.00  0.00     0.156 HD
ATOM     26  H   UNL A   1      32.189  17.994  27.243  1.00  0.00     0.156 HD
ENDBRANCH  22  24
ENDBRANCH  10  13
ENDBRANCH   8  10
ENDBRANCH   7   8
ENDBRANCH   6   7
ENDBRANCH   5   6
ENDBRANCH   4   5
ENDBRANCH   3   4
ENDBRANCH   2   3
ENDBRANCH   1   2
BRANCH   1  27
ATOM     27  C   UNL A   1      33.521  28.468  25.283  1.00  0.00     0.188 C 
BRANCH  27  28
ATOM     28  C   UNL A   1      32.665  28.991  26.473  1.00  0.00     0.188 C 
BRANCH  28  29
ATOM     29  O   UNL A   1      32.718  30.333  26.950  1.00  0.00    -0.376 OA
BRANCH  29  30
ATOM     30  C   UNL A   1      31.618  31.205  26.776  1.00  0.00     0.202 C 
BRANCH  30  31
ATOM     31  C   UNL A   1      31.839  32.690  27.089  1.00  0.00     0.261 C 
BRANCH  31  32
ATOM     32  O   UNL A   1      33.194  33.001  27.461  1.00  0.00    -0.460 OA
BRANCH  32  33
ATOM     33  C   UNL A   1      33.316  33.990  28.362  1.00  0.00     0.338 C 
ATOM     34  O   UNL A   1      32.523  34.899  28.606  1.00  0.00    -0.246 OA
BRANCH  33  35
ATOM     35  C   UNL A   1      34.550  33.818  29.128  1.00  0.00     0.060 A 
ATOM     36  C   UNL A   1      35.753  34.178  28.513  1.00  0.00     0.016 A 
ATOM     37  C   UNL A   1      34.538  33.132  30.347  1.00  0.00     0.016 A 
ATOM     38  C   UNL A   1      36.959  33.791  29.085  1.00  0.00     0.010 A 
ATOM     39  C   UNL A   1      35.750  32.734  30.915  1.00  0.00     0.010 A 
ATOM     40  C   UNL A   1      36.958  33.015  30.253  1.00  0.00    -0.014 A 
BRANCH  40  41
ATOM     41  C   UNL A   1      38.198  32.298  30.622  1.00  0.00     0.031 A 
ATOM     42  C   UNL A   1      39.063  32.884  31.704  1.00  0.00     0.074 A 
ATOM     43  C   UNL A   1      38.516  31.126  30.050  1.00  0.00     0.049 A 
ATOM     44  N   UNL A   1      40.154  32.406  32.243  1.00  0.00    -0.248 NA
ATOM     45  C   UNL A   1      38.633  34.179  32.260  1.00  0.00     0.031 C 
ATOM     46  C   UNL A   1      37.734  30.443  29.022  1.00  0.00     0.029 A 
ATOM     47  N   UNL A   1      39.589  30.301  30.266  1.00  0.00    -0.354 N 
ATOM     48  C   UNL A   1      40.530  33.331  33.211  1.00  0.00     0.074 A 
ATOM     49  C   UNL A   1      39.570  34.411  33.166  1.00  0.00     0.031 C 
ATOM     50  C   UNL A   1      38.359  29.300  28.690  1.00  0.00     0.029 A 
ATOM     51  C   UNL A   1      39.588  29.183  29.471  1.00  0.00     0.049 A 
ATOM     52  H   UNL A   1      40.293  30.494  30.926  1.00  0.00     0.167 HD
ATOM     53  C   UNL A   1      41.578  33.283  34.066  1.00  0.00     0.031 A 
ATOM     54  C   UNL A   1      40.487  28.185  29.385  1.00  0.00     0.031 A 
ATOM     55  C   UNL A   1      42.557  32.234  34.082  1.00  0.00     0.049 A 
ATOM     56  C   UNL A   1      41.692  28.198  30.286  1.00  0.00     0.074 A 
ATOM     57  C   UNL A   1      43.668  32.100  34.895  1.00  0.00     0.029 A 
ATOM     58  N   UNL A   1      42.546  31.143  33.229  1.00  0.00    -0.354 N 
ATOM     59  N   UNL A   1      42.017  29.061  31.219  1.00  0.00    -0.248 NA
ATOM     60  C   UNL A   1      42.647  27.091  30.129  1.00  0.00     0.031 C 
ATOM     61  C   UNL A   1      44.354  30.944  34.504  1.00  0.00     0.029 A 
ATOM     62  C   UNL A   1      43.645  30.339  33.478  1.00  0.00     0.049 A 
ATOM     63  H   UNL A   1      41.860  30.965  32.546  1.00  0.00     0.167 HD
ATOM     64  C   UNL A   1      43.199  28.589  31.776  1.00  0.00     0.074 A 
ATOM     65  C   UNL A   1      43.527  27.359  31.083  1.00  0.00     0.031 C 
ATOM     66  C   UNL A   1      43.947  29.122  32.773  1.00  0.00     0.031 A 
BRANCH  53  67
ATOM     67  C   UNL A   1      41.724  34.428  35.026  1.00  0.00    -0.014 A 
ATOM     68  C   UNL A   1      42.458  35.573  34.678  1.00  0.00     0.009 A 
ATOM     69  C   UNL A   1      41.126  34.359  36.293  1.00  0.00     0.009 A 
ATOM     70  C   UNL A   1      42.617  36.615  35.595  1.00  0.00     0.001 A 
ATOM     71  C   UNL A   1      41.270  35.412  37.200  1.00  0.00     0.001 A 
ATOM     72  C   UNL A   1      42.022  36.533  36.854  1.00  0.00     0.000 A 
ENDBRANCH  53  67
BRANCH  54  73
ATOM     73  C   UNL A   1      40.288  27.089  28.403  1.00  0.00    -0.014 A 
ATOM     74  C   UNL A   1      40.830  27.177  27.112  1.00  0.00     0.009 A 
ATOM     75  C   UNL A   1      39.538  25.955  28.752  1.00  0.00     0.009 A 
ATOM     76  C   UNL A   1      40.605  26.159  26.182  1.00  0.00     0.001 A 
ATOM     77  C   UNL A   1      39.333  24.929  27.827  1.00  0.00     0.001 A 
ATOM     78  C   UNL A   1      39.860  25.036  26.541  1.00  0.00     0.000 A 
ENDBRANCH  54  73
BRANCH  66  79
ATOM     79  C   UNL A   1      45.171  28.361  33.191  1.00  0.00    -0.014 A 
ATOM     80  C   UNL A   1      46.423  28.630  32.617  1.00  0.00     0.009 A 
ATOM     81  C   UNL A   1      45.075  27.393  34.202  1.00  0.00     0.009 A 
ATOM     82  C   UNL A   1      47.552  27.920  33.029  1.00  0.00     0.001 A 
ATOM     83  C   UNL A   1      46.209  26.701  34.627  1.00  0.00     0.001 A 
ATOM     84  C   UNL A   1      47.445  26.960  34.036  1.00  0.00     0.000 A 
ENDBRANCH  66  79
ENDBRANCH  40  41
ENDBRANCH  33  35
ENDBRANCH  32  33
ENDBRANCH  31  32
ENDBRANCH  30  31
ENDBRANCH  29  30
ENDBRANCH  28  29
ENDBRANCH  27  28
ENDBRANCH   1  27
TORSDOF 23
ENDMDL
MODEL 2
REMARK VINA RESULT:      -9.1      3.788      8.891
REMARK SMILES CC[C@@H](C(=O)OCCOCCOCCOCCOC(=O)c1ccc(-c2c3nc(c(-c4ccccc4)c4ccc([nH]4)c(-c4ccccc4)c4nc(c(-c5ccccc5)c5ccc2[nH]5)C=C4)C=C3)cc1)[N@@H+]1CCc2ccc(N)cc2C1
REMARK SMILES IDX 12 1 11 2 10 3 9 4 8 5 7 6 6 7 4 8 5 9 3 10 2 11 1 12 69 13
REMARK SMILES IDX 70 14 79 15 71 17 78 18 72 19 77 20 73 21 75 22 74 23 76 24
REMARK SMILES IDX 13 27 14 28 15 29 16 30 17 31 18 32 19 33 20 34 21 35 22 36
REMARK SMILES IDX 68 37 23 38 67 39 24 40 25 41 26 42 61 43 27 44 66 45 60 46
REMARK SMILES IDX 62 47 28 48 65 49 59 50 58 51 29 53 51 54 36 55 50 56 37 57
REMARK SMILES IDX 40 58 49 59 63 60 38 61 39 62 48 64 64 65 41 66 30 67 31 68
REMARK SMILES IDX 35 69 32 70 34 71 33 72 52 73 53 74 57 75 54 76 56 77 55 78
REMARK SMILES IDX 42 79 43 80 47 81 44 82 46 83 45 84
REMARK H PARENT 69 16 76 25 76 26 62 52 40 63
REMARK Flexibility Score: inf
ROOT
ATOM      1  O   UNL A   1      40.839  20.209  27.545  1.00  0.00    -0.377 OA
ENDROOT
BRANCH   1   2
ATOM      2  C   UNL A   1      40.040  20.574  26.401  1.00  0.00     0.188 C 
BRANCH   2   3
ATOM      3  C   UNL A   1      39.879  22.084  26.028  1.00  0.00     0.188 C 
BRANCH   3   4
ATOM      4  O   UNL A   1      39.347  22.975  27.058  1.00  0.00    -0.376 OA
BRANCH   4   5
ATOM      5  C   UNL A   1      38.224  23.758  26.547  1.00  0.00     0.202 C 
BRANCH   5   6
ATOM      6  C   UNL A   1      37.397  23.178  25.326  1.00  0.00     0.261 C 
BRANCH   6   7
ATOM      7  O   UNL A   1      36.267  24.018  24.906  1.00  0.00    -0.459 OA
BRANCH   7   8
ATOM      8  C   UNL A   1      35.280  23.574  24.059  1.00  0.00     0.364 C 
ATOM      9  O   UNL A   1      35.497  23.367  22.869  1.00  0.00    -0.245 OA
BRANCH   8  10
ATOM     10  C   UNL A   1      33.851  23.215  24.790  1.00  0.00     0.295 C 
BRANCH  10  11
ATOM     11  C   UNL A   1      32.756  22.476  23.974  1.00  0.00     0.074 C 
ATOM     12  C   UNL A   1      32.205  21.166  24.515  1.00  0.00     0.011 C 
ENDBRANCH  10  11
BRANCH  10  13
ATOM     13  N   UNL A   1      33.366  24.330  25.729  1.00  0.00    -0.319 N 
ATOM     14  C   UNL A   1      31.908  24.476  26.130  1.00  0.00     0.268 C 
ATOM     15  C   UNL A   1      33.724  25.606  25.156  1.00  0.00     0.300 C 
ATOM     16  H   UNL A   1      33.826  24.036  26.590  1.00  0.00     0.349 HD
ATOM     17  C   UNL A   1      31.260  25.977  25.972  1.00  0.00     0.097 C 
ATOM     18  C   UNL A   1      32.730  25.938  24.083  1.00  0.00     0.012 A 
ATOM     19  C   UNL A   1      31.585  26.496  24.588  1.00  0.00    -0.033 A 
ATOM     20  C   UNL A   1      32.649  25.499  22.764  1.00  0.00     0.035 A 
ATOM     21  C   UNL A   1      30.880  27.317  23.738  1.00  0.00     0.006 A 
ATOM     22  C   UNL A   1      31.838  26.119  21.856  1.00  0.00     0.032 A 
ATOM     23  C   UNL A   1      31.096  27.161  22.356  1.00  0.00     0.026 A 
BRANCH  22  24
ATOM     24  N   UNL A   1      31.938  25.830  20.508  1.00  0.00    -0.399 N 
ATOM     25  H   UNL A   1      31.147  25.916  19.926  1.00  0.00     0.156 HD
ATOM     26  H   UNL A   1      32.798  25.538  20.128  1.00  0.00     0.156 HD
ENDBRANCH  22  24
ENDBRANCH  10  13
ENDBRANCH   8  10
ENDBRANCH   7   8
ENDBRANCH   6   7
ENDBRANCH   5   6
ENDBRANCH   4   5
ENDBRANCH   3   4
ENDBRANCH   2   3
ENDBRANCH   1   2
BRANCH   1  27
ATOM     27  C   UNL A   1      42.134  19.670  27.281  1.00  0.00     0.188 C 
BRANCH  27  28
ATOM     28  C   UNL A   1      42.483  19.520  25.772  1.00  0.00     0.188 C 
BRANCH  28  29
ATOM     29  O   UNL A   1      43.393  20.375  25.086  1.00  0.00    -0.376 OA
BRANCH  29  30
ATOM     30  C   UNL A   1      43.705  21.657  25.597  1.00  0.00     0.202 C 
BRANCH  30  31
ATOM     31  C   UNL A   1      44.085  22.746  24.586  1.00  0.00     0.261 C 
BRANCH  31  32
ATOM     32  O   UNL A   1      43.257  23.919  24.671  1.00  0.00    -0.460 OA
BRANCH  32  33
ATOM     33  C   UNL A   1      43.902  25.035  25.051  1.00  0.00     0.338 C 
ATOM     34  O   UNL A   1      45.042  25.393  24.756  1.00  0.00    -0.246 OA
BRANCH  33  35
ATOM     35  C   UNL A   1      43.015  25.876  25.855  1.00  0.00     0.060 A 
ATOM     36  C   UNL A   1      43.381  27.210  26.045  1.00  0.00     0.016 A 
ATOM     37  C   UNL A   1      41.953  25.307  26.567  1.00  0.00     0.016 A 
ATOM     38  C   UNL A   1      42.725  27.972  27.007  1.00  0.00     0.010 A 
ATOM     39  C   UNL A   1      41.303  26.069  27.540  1.00  0.00     0.010 A 
ATOM     40  C   UNL A   1      41.728  27.384  27.798  1.00  0.00    -0.014 A 
BRANCH  40  41
ATOM     41  C   UNL A   1      41.326  28.069  29.046  1.00  0.00     0.031 A 
ATOM     42  C   UNL A   1      40.088  28.924  29.019  1.00  0.00     0.074 A 
ATOM     43  C   UNL A   1      42.010  27.890  30.186  1.00  0.00     0.049 A 
ATOM     44  N   UNL A   1      39.502  29.565  29.997  1.00  0.00    -0.248 NA
ATOM     45  C   UNL A   1      39.415  29.067  27.715  1.00  0.00     0.031 C 
ATOM     46  C   UNL A   1      43.198  27.053  30.340  1.00  0.00     0.029 A 
ATOM     47  N   UNL A   1      41.791  28.404  31.437  1.00  0.00    -0.354 N 
ATOM     48  C   UNL A   1      38.386  30.171  29.432  1.00  0.00     0.074 A 
ATOM     49  C   UNL A   1      38.391  29.847  28.022  1.00  0.00     0.031 C 
ATOM     50  C   UNL A   1      43.609  27.116  31.619  1.00  0.00     0.029 A 
ATOM     51  C   UNL A   1      42.721  28.007  32.363  1.00  0.00     0.049 A 
ATOM     52  H   UNL A   1      41.039  29.002  31.650  1.00  0.00     0.167 HD
ATOM     53  C   UNL A   1      37.436  30.925  30.032  1.00  0.00     0.031 A 
ATOM     54  C   UNL A   1      42.842  28.337  33.662  1.00  0.00     0.031 A 
ATOM     55  C   UNL A   1      37.453  31.285  31.422  1.00  0.00     0.049 A 
ATOM     56  C   UNL A   1      41.822  29.248  34.289  1.00  0.00     0.074 A 
ATOM     57  C   UNL A   1      36.550  32.059  32.126  1.00  0.00     0.029 A 
ATOM     58  N   UNL A   1      38.440  30.901  32.315  1.00  0.00    -0.354 N 
ATOM     59  N   UNL A   1      40.753  29.786  33.751  1.00  0.00    -0.248 NA
ATOM     60  C   UNL A   1      42.020  29.587  35.706  1.00  0.00     0.031 C 
ATOM     61  C   UNL A   1      37.014  32.179  33.441  1.00  0.00     0.029 A 
ATOM     62  C   UNL A   1      38.182  31.442  33.562  1.00  0.00     0.049 A 
ATOM     63  H   UNL A   1      39.211  30.329  32.096  1.00  0.00     0.167 HD
ATOM     64  C   UNL A   1      40.138  30.507  34.768  1.00  0.00     0.074 A 
ATOM     65  C   UNL A   1      40.949  30.327  35.957  1.00  0.00     0.031 C 
ATOM     66  C   UNL A   1      39.005  31.248  34.726  1.00  0.00     0.031 A 
BRANCH  53  67
ATOM     67  C   UNL A   1      36.323  31.434  29.164  1.00  0.00    -0.014 A 
ATOM     68  C   UNL A   1      35.295  30.581  28.732  1.00  0.00     0.009 A 
ATOM     69  C   UNL A   1      36.305  32.780  28.768  1.00  0.00     0.009 A 
ATOM     70  C   UNL A   1      34.286  31.061  27.893  1.00  0.00     0.001 A 
ATOM     71  C   UNL A   1      35.284  33.260  27.945  1.00  0.00     0.001 A 
ATOM     72  C   UNL A   1      34.282  32.399  27.502  1.00  0.00     0.000 A 
ENDBRANCH  53  67
BRANCH  54  73
ATOM     73  C   UNL A   1      43.976  27.808  34.461  1.00  0.00    -0.014 A 
ATOM     74  C   UNL A   1      43.790  26.736  35.347  1.00  0.00     0.009 A 
ATOM     75  C   UNL A   1      45.249  28.388  34.351  1.00  0.00     0.009 A 
ATOM     76  C   UNL A   1      44.854  26.270  36.123  1.00  0.00     0.001 A 
ATOM     77  C   UNL A   1      46.315  27.906  35.113  1.00  0.00     0.001 A 
ATOM     78  C   UNL A   1      46.114  26.853  36.004  1.00  0.00     0.000 A 
ENDBRANCH  54  73
BRANCH  66  79
ATOM     79  C   UNL A   1      38.561  31.892  36.008  1.00  0.00    -0.014 A 
ATOM     80  C   UNL A   1      38.693  33.274  36.208  1.00  0.00     0.009 A 
ATOM     81  C   UNL A   1      37.966  31.109  37.009  1.00  0.00     0.009 A 
ATOM     82  C   UNL A   1      38.262  33.856  37.402  1.00  0.00     0.001 A 
ATOM     83  C   UNL A   1      37.516  31.696  38.191  1.00  0.00     0.001 A 
ATOM     84  C   UNL A   1      37.671  33.067  38.390  1.00  0.00     0.000 A 
ENDBRANCH  66  79
ENDBRANCH  40  41
ENDBRANCH  33  35
ENDBRANCH  32  33
ENDBRANCH  31  32
ENDBRANCH  30  31
ENDBRANCH  29  30
ENDBRANCH  28  29
ENDBRANCH  27  28
ENDBRANCH   1  27
TORSDOF 23
ENDMDL
MODEL 3
REMARK VINA RESULT:      -9.1      3.725      8.610
REMARK SMILES CC[C@@H](C(=O)OCCOCCOCCOCCOC(=O)c1ccc(-c2c3nc(c(-c4ccccc4)c4ccc([nH]4)c(-c4ccccc4)c4nc(c(-c5ccccc5)c5ccc2[nH]5)C=C4)C=C3)cc1)[N@@H+]1CCc2ccc(N)cc2C1
REMARK SMILES IDX 12 1 11 2 10 3 9 4 8 5 7 6 6 7 4 8 5 9 3 10 2 11 1 12 69 13
REMARK SMILES IDX 70 14 79 15 71 17 78 18 72 19 77 20 73 21 75 22 74 23 76 24
REMARK SMILES IDX 13 27 14 28 15 29 16 30 17 31 18 32 19 33 20 34 21 35 22 36
REMARK SMILES IDX 68 37 23 38 67 39 24 40 25 41 26 42 61 43 27 44 66 45 60 46
REMARK SMILES IDX 62 47 28 48 65 49 59 50 58 51 29 53 51 54 36 55 50 56 37 57
REMARK SMILES IDX 40 58 49 59 63 60 38 61 39 62 48 64 64 65 41 66 30 67 31 68
REMARK SMILES IDX 35 69 32 70 34 71 33 72 52 73 53 74 57 75 54 76 56 77 55 78
REMARK SMILES IDX 42 79 43 80 47 81 44 82 46 83 45 84
REMARK H PARENT 69 16 76 25 76 26 62 52 40 63
REMARK Flexibility Score: inf
ROOT
ATOM      1  O   UNL A   1      41.079  21.050  27.441  1.00  0.00    -0.377 OA
ENDROOT
BRANCH   1   2
ATOM      2  C   UNL A   1      40.107  21.186  26.384  1.00  0.00     0.188 C 
BRANCH   2   3
ATOM      3  C   UNL A   1      39.120  22.399  26.400  1.00  0.00     0.188 C 
BRANCH   3   4
ATOM      4  O   UNL A   1      38.032  22.388  25.424  1.00  0.00    -0.376 OA
BRANCH   4   5
ATOM      5  C   UNL A   1      37.457  21.051  25.293  1.00  0.00     0.202 C 
BRANCH   5   6
ATOM      6  C   UNL A   1      35.893  20.923  25.067  1.00  0.00     0.261 C 
BRANCH   6   7
ATOM      7  O   UNL A   1      35.140  22.156  25.334  1.00  0.00    -0.459 OA
BRANCH   7   8
ATOM      8  C   UNL A   1      34.216  22.264  26.346  1.00  0.00     0.364 C 
ATOM      9  O   UNL A   1      34.327  21.627  27.388  1.00  0.00    -0.245 OA
BRANCH   8  10
ATOM     10  C   UNL A   1      33.055  23.403  26.104  1.00  0.00     0.295 C 
BRANCH  10  11
ATOM     11  C   UNL A   1      31.728  23.304  26.904  1.00  0.00     0.074 C 
ATOM     12  C   UNL A   1      30.543  22.597  26.265  1.00  0.00     0.011 C 
ENDBRANCH  10  11
BRANCH  10  13
ATOM     13  N   UNL A   1      32.933  23.825  24.632  1.00  0.00    -0.319 N 
ATOM     14  C   UNL A   1      34.128  24.299  23.823  1.00  0.00     0.268 C 
ATOM     15  C   UNL A   1      31.969  24.896  24.534  1.00  0.00     0.300 C 
ATOM     16  H   UNL A   1      32.702  22.923  24.216  1.00  0.00     0.349 HD
ATOM     17  C   UNL A   1      33.930  25.702  22.991  1.00  0.00     0.097 C 
ATOM     18  C   UNL A   1      32.638  26.173  24.951  1.00  0.00     0.012 A 
ATOM     19  C   UNL A   1      33.358  26.740  23.932  1.00  0.00    -0.033 A 
ATOM     20  C   UNL A   1      32.900  26.678  26.221  1.00  0.00     0.035 A 
ATOM     21  C   UNL A   1      33.536  28.103  23.997  1.00  0.00     0.006 A 
ATOM     22  C   UNL A   1      33.270  27.981  26.407  1.00  0.00     0.032 A 
ATOM     23  C   UNL A   1      33.397  28.718  25.255  1.00  0.00     0.026 A 
BRANCH  22  24
ATOM     24  N   UNL A   1      33.299  28.533  27.674  1.00  0.00    -0.399 N 
ATOM     25  H   UNL A   1      34.115  28.462  28.223  1.00  0.00     0.156 HD
ATOM     26  H   UNL A   1      32.506  28.995  28.029  1.00  0.00     0.156 HD
ENDBRANCH  22  24
ENDBRANCH  10  13
ENDBRANCH   8  10
ENDBRANCH   7   8
ENDBRANCH   6   7
ENDBRANCH   5   6
ENDBRANCH   4   5
ENDBRANCH   3   4
ENDBRANCH   2   3
ENDBRANCH   1   2
BRANCH   1  27
ATOM     27  C   UNL A   1      42.152  20.138  27.216  1.00  0.00     0.188 C 
BRANCH  27  28
ATOM     28  C   UNL A   1      42.315  19.672  25.740  1.00  0.00     0.188 C 
BRANCH  28  29
ATOM     29  O   UNL A   1      43.471  19.944  24.952  1.00  0.00    -0.376 OA
BRANCH  29  30
ATOM     30  C   UNL A   1      44.342  21.006  25.290  1.00  0.00     0.202 C 
BRANCH  30  31
ATOM     31  C   UNL A   1      44.260  22.282  24.443  1.00  0.00     0.261 C 
BRANCH  31  32
ATOM     32  O   UNL A   1      43.427  23.301  25.023  1.00  0.00    -0.460 OA
BRANCH  32  33
ATOM     33  C   UNL A   1      44.007  24.508  25.130  1.00  0.00     0.338 C 
ATOM     34  O   UNL A   1      45.092  24.873  24.676  1.00  0.00    -0.246 OA
BRANCH  33  35
ATOM     35  C   UNL A   1      43.117  25.430  25.834  1.00  0.00     0.060 A 
ATOM     36  C   UNL A   1      43.559  26.742  26.024  1.00  0.00     0.016 A 
ATOM     37  C   UNL A   1      41.962  24.957  26.466  1.00  0.00     0.016 A 
ATOM     38  C   UNL A   1      42.880  27.575  26.906  1.00  0.00     0.010 A 
ATOM     39  C   UNL A   1      41.288  25.790  27.360  1.00  0.00     0.010 A 
ATOM     40  C   UNL A   1      41.781  27.080  27.623  1.00  0.00    -0.014 A 
BRANCH  40  41
ATOM     41  C   UNL A   1      41.324  27.828  28.814  1.00  0.00     0.031 A 
ATOM     42  C   UNL A   1      42.091  27.656  30.097  1.00  0.00     0.074 A 
ATOM     43  C   UNL A   1      40.291  28.681  28.743  1.00  0.00     0.049 A 
ATOM     44  N   UNL A   1      41.924  28.254  31.249  1.00  0.00    -0.248 NA
ATOM     45  C   UNL A   1      43.202  26.689  30.075  1.00  0.00     0.031 C 
ATOM     46  C   UNL A   1      39.501  28.958  27.545  1.00  0.00     0.029 A 
ATOM     47  N   UNL A   1      39.734  29.476  29.710  1.00  0.00    -0.354 N 
ATOM     48  C   UNL A   1      42.917  27.748  32.080  1.00  0.00     0.074 A 
ATOM     49  C   UNL A   1      43.663  26.775  31.313  1.00  0.00     0.031 C 
ATOM     50  C   UNL A   1      38.552  29.861  27.851  1.00  0.00     0.029 A 
ATOM     51  C   UNL A   1      38.664  30.210  29.266  1.00  0.00     0.049 A 
ATOM     52  H   UNL A   1      40.070  29.517  30.634  1.00  0.00     0.167 HD
ATOM     53  C   UNL A   1      43.190  28.069  33.367  1.00  0.00     0.031 A 
ATOM     54  C   UNL A   1      37.863  31.060  29.935  1.00  0.00     0.031 A 
ATOM     55  C   UNL A   1      42.423  29.001  34.144  1.00  0.00     0.049 A 
ATOM     56  C   UNL A   1      38.131  31.335  31.389  1.00  0.00     0.074 A 
ATOM     57  C   UNL A   1      42.602  29.383  35.460  1.00  0.00     0.029 A 
ATOM     58  N   UNL A   1      41.316  29.687  33.670  1.00  0.00    -0.354 N 
ATOM     59  N   UNL A   1      39.093  30.875  32.154  1.00  0.00    -0.248 NA
ATOM     60  C   UNL A   1      37.208  32.256  32.069  1.00  0.00     0.031 C 
ATOM     61  C   UNL A   1      41.575  30.273  35.797  1.00  0.00     0.029 A 
ATOM     62  C   UNL A   1      40.785  30.475  34.676  1.00  0.00     0.049 A 
ATOM     63  H   UNL A   1      40.959  29.624  32.755  1.00  0.00     0.167 HD
ATOM     64  C   UNL A   1      38.907  31.469  33.396  1.00  0.00     0.074 A 
ATOM     65  C   UNL A   1      37.746  32.330  33.279  1.00  0.00     0.031 C 
ATOM     66  C   UNL A   1      39.630  31.320  34.532  1.00  0.00     0.031 A 
BRANCH  53  67
ATOM     67  C   UNL A   1      44.349  27.367  34.011  1.00  0.00    -0.014 A 
ATOM     68  C   UNL A   1      45.632  27.936  34.006  1.00  0.00     0.009 A 
ATOM     69  C   UNL A   1      44.158  26.120  34.625  1.00  0.00     0.009 A 
ATOM     70  C   UNL A   1      46.709  27.254  34.576  1.00  0.00     0.001 A 
ATOM     71  C   UNL A   1      45.234  25.450  35.212  1.00  0.00     0.001 A 
ATOM     72  C   UNL A   1      46.508  26.013  35.179  1.00  0.00     0.000 A 
ENDBRANCH  53  67
BRANCH  54  73
ATOM     73  C   UNL A   1      36.724  31.710  29.239  1.00  0.00    -0.014 A 
ATOM     74  C   UNL A   1      35.518  31.021  29.039  1.00  0.00     0.009 A 
ATOM     75  C   UNL A   1      36.847  33.022  28.757  1.00  0.00     0.009 A 
ATOM     76  C   UNL A   1      34.465  31.627  28.350  1.00  0.00     0.001 A 
ATOM     77  C   UNL A   1      35.785  33.633  28.087  1.00  0.00     0.001 A 
ATOM     78  C   UNL A   1      34.599  32.932  27.877  1.00  0.00     0.000 A 
ENDBRANCH  54  73
BRANCH  66  79
ATOM     79  C   UNL A   1      39.205  32.127  35.724  1.00  0.00    -0.014 A 
ATOM     80  C   UNL A   1      39.712  33.416  35.945  1.00  0.00     0.009 A 
ATOM     81  C   UNL A   1      38.252  31.605  36.613  1.00  0.00     0.009 A 
ATOM     82  C   UNL A   1      39.294  34.157  37.053  1.00  0.00     0.001 A 
ATOM     83  C   UNL A   1      37.820  32.356  37.706  1.00  0.00     0.001 A 
ATOM     84  C   UNL A   1      38.345  33.628  37.929  1.00  0.00     0.000 A 
ENDBRANCH  66  79
ENDBRANCH  40  41
ENDBRANCH  33  35
ENDBRANCH  32  33
ENDBRANCH  31  32
ENDBRANCH  30  31
ENDBRANCH  29  30
ENDBRANCH  28  29
ENDBRANCH  27  28
ENDBRANCH   1  27
TORSDOF 23
ENDMDL
