MODEL 1
REMARK VINA RESULT:      -8.5      0.000      0.000
REMARK SMILES CSCC[C@@H](C(=O)OCCOCCOCCOCCOC(=O)c1ccc(-c2c3nc(c(-c4ccccc4)c4ccc([nH]4)c(-c4ccccc4)c4nc(c(-c5ccccc5)c5ccc2[nH]5)C=C4)C=C3)cc1)N1C(=O)/C(=C/c2ccccc2F)SC1=S
REMARK SMILES IDX 13 1 12 2 11 3 10 4 9 5 8 6 6 7 7 8 5 9 4 10 3 11 2 12 1 13
REMARK SMILES IDX 71 14 72 15 84 16 73 17 74 18 83 19 85 20 75 21 76 22 77 23
REMARK SMILES IDX 81 24 78 25 80 26 82 27 79 28 14 29 15 30 16 31 17 32 18 33
REMARK SMILES IDX 19 34 20 35 21 36 22 37 23 38 24 39 70 40 25 41 69 42 26 43
REMARK SMILES IDX 27 44 28 45 63 46 29 47 68 48 62 49 64 50 30 51 67 52 61 53
REMARK SMILES IDX 60 54 31 56 53 57 38 58 52 59 39 60 42 61 51 62 65 63 40 64
REMARK SMILES IDX 41 65 50 67 66 68 43 69 32 70 33 71 37 72 34 73 36 74 35 75
REMARK SMILES IDX 54 76 55 77 59 78 56 79 58 80 57 81 44 82 45 83 49 84 46 85
REMARK SMILES IDX 48 86 47 87
REMARK H PARENT 64 55 42 66
REMARK Flexibility Score: inf
ROOT
ATOM      1  C   UNL A   1      37.022  31.287  28.011  1.00  0.00     0.188 C 
ENDROOT
BRANCH   1   2
ATOM      2  C   UNL A   1      36.114  30.106  27.625  1.00  0.00     0.188 C 
BRANCH   2   3
ATOM      3  O   UNL A   1      34.805  30.195  28.159  1.00  0.00    -0.376 OA
BRANCH   3   4
ATOM      4  C   UNL A   1      33.737  30.237  27.232  1.00  0.00     0.202 C 
BRANCH   4   5
ATOM      5  C   UNL A   1      33.624  29.067  26.242  1.00  0.00     0.261 C 
BRANCH   5   6
ATOM      6  O   UNL A   1      33.319  29.394  24.870  1.00  0.00    -0.462 OA
BRANCH   6   7
ATOM      7  C   UNL A   1      32.036  29.285  24.465  1.00  0.00     0.329 C 
ATOM      8  O   UNL A   1      31.125  29.911  24.999  1.00  0.00    -0.250 OA
BRANCH   7   9
ATOM      9  C   UNL A   1      31.823  28.302  23.275  1.00  0.00     0.202 C 
BRANCH   9  10
ATOM     10  C   UNL A   1      30.532  28.334  22.431  1.00  0.00     0.048 C 
BRANCH  10  11
ATOM     11  C   UNL A   1      30.034  29.652  21.831  1.00  0.00     0.072 C 
BRANCH  11  12
ATOM     12  S   UNL A   1      28.259  29.969  22.042  1.00  0.00    -0.165 SA
ATOM     13  C   UNL A   1      28.083  31.509  21.116  1.00  0.00     0.085 C 
ENDBRANCH  11  12
ENDBRANCH  10  11
ENDBRANCH   9  10
BRANCH   9  14
ATOM     14  N   UNL A   1      32.227  26.958  23.810  1.00  0.00    -0.278 N 
ATOM     15  C   UNL A   1      33.276  26.332  23.135  1.00  0.00     0.266 C 
ATOM     16  C   UNL A   1      31.806  26.289  24.945  1.00  0.00     0.149 C 
ATOM     17  O   UNL A   1      33.741  26.671  22.054  1.00  0.00    -0.268 OA
ATOM     18  C   UNL A   1      33.738  25.136  23.880  1.00  0.00     0.081 C 
ATOM     19  S   UNL A   1      33.018  25.111  25.429  1.00  0.00    -0.054 SA
ATOM     20  S   UNL A   1      30.389  26.357  25.815  1.00  0.00    -0.052 S 
ATOM     21  C   UNL A   1      34.542  24.215  23.336  1.00  0.00     0.032 C 
BRANCH  21  22
ATOM     22  C   UNL A   1      34.906  22.940  23.969  1.00  0.00     0.012 A 
ATOM     23  C   UNL A   1      34.002  21.874  23.941  1.00  0.00     0.011 A 
ATOM     24  C   UNL A   1      36.125  22.773  24.642  1.00  0.00     0.130 A 
ATOM     25  C   UNL A   1      34.329  20.662  24.558  1.00  0.00     0.001 A 
ATOM     26  C   UNL A   1      36.459  21.565  25.243  1.00  0.00     0.040 A 
ATOM     27  F   UNL A   1      36.998  23.789  24.731  1.00  0.00    -0.206 F 
ATOM     28  C   UNL A   1      35.557  20.506  25.203  1.00  0.00     0.003 A 
ENDBRANCH  21  22
ENDBRANCH   9  14
ENDBRANCH   7   9
ENDBRANCH   6   7
ENDBRANCH   5   6
ENDBRANCH   4   5
ENDBRANCH   3   4
ENDBRANCH   2   3
ENDBRANCH   1   2
BRANCH   1  29
ATOM     29  O   UNL A   1      36.791  32.077  29.166  1.00  0.00    -0.377 OA
BRANCH  29  30
ATOM     30  C   UNL A   1      36.168  33.339  29.018  1.00  0.00     0.188 C 
BRANCH  30  31
ATOM     31  C   UNL A   1      34.869  33.629  29.798  1.00  0.00     0.188 C 
BRANCH  31  32
ATOM     32  O   UNL A   1      34.649  32.793  30.925  1.00  0.00    -0.376 OA
BRANCH  32  33
ATOM     33  C   UNL A   1      35.606  32.848  31.972  1.00  0.00     0.202 C 
BRANCH  33  34
ATOM     34  C   UNL A   1      35.864  31.535  32.725  1.00  0.00     0.261 C 
BRANCH  34  35
ATOM     35  O   UNL A   1      37.207  31.342  33.195  1.00  0.00    -0.460 OA
BRANCH  35  36
ATOM     36  C   UNL A   1      37.886  30.268  32.738  1.00  0.00     0.338 C 
ATOM     37  O   UNL A   1      37.555  29.098  32.790  1.00  0.00    -0.246 OA
BRANCH  36  38
ATOM     38  C   UNL A   1      39.034  30.789  31.974  1.00  0.00     0.060 A 
ATOM     39  C   UNL A   1      39.907  31.700  32.585  1.00  0.00     0.016 A 
ATOM     40  C   UNL A   1      39.282  30.321  30.683  1.00  0.00     0.016 A 
ATOM     41  C   UNL A   1      41.050  32.127  31.910  1.00  0.00     0.010 A 
ATOM     42  C   UNL A   1      40.402  30.781  29.992  1.00  0.00     0.010 A 
ATOM     43  C   UNL A   1      41.286  31.691  30.600  1.00  0.00    -0.014 A 
BRANCH  43  44
ATOM     44  C   UNL A   1      42.358  32.309  29.790  1.00  0.00     0.031 A 
ATOM     45  C   UNL A   1      43.612  31.517  29.560  1.00  0.00     0.074 A 
ATOM     46  C   UNL A   1      42.236  33.556  29.303  1.00  0.00     0.049 A 
ATOM     47  N   UNL A   1      44.730  31.884  28.989  1.00  0.00    -0.248 NA
ATOM     48  C   UNL A   1      43.608  30.126  30.044  1.00  0.00     0.031 C 
ATOM     49  C   UNL A   1      41.050  34.403  29.423  1.00  0.00     0.029 A 
ATOM     50  N   UNL A   1      43.140  34.336  28.626  1.00  0.00    -0.354 N 
ATOM     51  C   UNL A   1      45.566  30.778  29.063  1.00  0.00     0.074 A 
ATOM     52  C   UNL A   1      44.833  29.729  29.736  1.00  0.00     0.031 C 
ATOM     53  C   UNL A   1      41.312  35.598  28.864  1.00  0.00     0.029 A 
ATOM     54  C   UNL A   1      42.694  35.613  28.389  1.00  0.00     0.049 A 
ATOM     55  H   UNL A   1      44.024  34.010  28.338  1.00  0.00     0.167 HD
ATOM     56  C   UNL A   1      46.836  30.655  28.618  1.00  0.00     0.031 A 
ATOM     57  C   UNL A   1      43.346  36.682  27.887  1.00  0.00     0.031 A 
ATOM     58  C   UNL A   1      47.567  31.705  27.963  1.00  0.00     0.049 A 
ATOM     59  C   UNL A   1      44.793  36.539  27.482  1.00  0.00     0.074 A 
ATOM     60  C   UNL A   1      48.846  31.663  27.440  1.00  0.00     0.029 A 
ATOM     61  N   UNL A   1      47.090  32.990  27.763  1.00  0.00    -0.354 N 
ATOM     62  N   UNL A   1      45.557  35.472  27.499  1.00  0.00    -0.248 NA
ATOM     63  C   UNL A   1      45.470  37.750  26.993  1.00  0.00     0.031 C 
ATOM     64  C   UNL A   1      49.171  32.944  26.989  1.00  0.00     0.029 A 
ATOM     65  C   UNL A   1      48.069  33.764  27.169  1.00  0.00     0.049 A 
ATOM     66  H   UNL A   1      46.189  33.304  28.007  1.00  0.00     0.167 HD
ATOM     67  C   UNL A   1      46.790  35.879  27.004  1.00  0.00     0.074 A 
ATOM     68  C   UNL A   1      46.669  37.283  26.673  1.00  0.00     0.031 C 
ATOM     69  C   UNL A   1      47.927  35.159  26.843  1.00  0.00     0.031 A 
BRANCH  56  70
ATOM     70  C   UNL A   1      47.543  29.355  28.868  1.00  0.00    -0.014 A 
ATOM     71  C   UNL A   1      47.515  28.313  27.931  1.00  0.00     0.009 A 
ATOM     72  C   UNL A   1      48.308  29.203  30.036  1.00  0.00     0.009 A 
ATOM     73  C   UNL A   1      48.229  27.136  28.166  1.00  0.00     0.001 A 
ATOM     74  C   UNL A   1      49.040  28.037  30.257  1.00  0.00     0.001 A 
ATOM     75  C   UNL A   1      48.997  27.002  29.324  1.00  0.00     0.000 A 
ENDBRANCH  56  70
BRANCH  57  76
ATOM     76  C   UNL A   1      42.676  38.008  27.802  1.00  0.00    -0.014 A 
ATOM     77  C   UNL A   1      42.006  38.406  26.634  1.00  0.00     0.009 A 
ATOM     78  C   UNL A   1      42.759  38.914  28.873  1.00  0.00     0.009 A 
ATOM     79  C   UNL A   1      41.471  39.693  26.526  1.00  0.00     0.001 A 
ATOM     80  C   UNL A   1      42.193  40.187  28.775  1.00  0.00     0.001 A 
ATOM     81  C   UNL A   1      41.563  40.581  27.596  1.00  0.00     0.000 A 
ENDBRANCH  57  76
BRANCH  69  82
ATOM     82  C   UNL A   1      49.120  35.861  26.258  1.00  0.00    -0.014 A 
ATOM     83  C   UNL A   1      50.050  36.519  27.078  1.00  0.00     0.009 A 
ATOM     84  C   UNL A   1      49.355  35.801  24.875  1.00  0.00     0.009 A 
ATOM     85  C   UNL A   1      51.177  37.126  26.519  1.00  0.00     0.001 A 
ATOM     86  C   UNL A   1      50.498  36.381  24.324  1.00  0.00     0.001 A 
ATOM     87  C   UNL A   1      51.404  37.050  25.146  1.00  0.00     0.000 A 
ENDBRANCH  69  82
ENDBRANCH  43  44
ENDBRANCH  36  38
ENDBRANCH  35  36
ENDBRANCH  34  35
ENDBRANCH  33  34
ENDBRANCH  32  33
ENDBRANCH  31  32
ENDBRANCH  30  31
ENDBRANCH  29  30
ENDBRANCH   1  29
TORSDOF 25
ENDMDL
MODEL 2
REMARK VINA RESULT:      -8.1      3.306      6.732
REMARK SMILES CSCC[C@@H](C(=O)OCCOCCOCCOCCOC(=O)c1ccc(-c2c3nc(c(-c4ccccc4)c4ccc([nH]4)c(-c4ccccc4)c4nc(c(-c5ccccc5)c5ccc2[nH]5)C=C4)C=C3)cc1)N1C(=O)/C(=C/c2ccccc2F)SC1=S
REMARK SMILES IDX 13 1 12 2 11 3 10 4 9 5 8 6 6 7 7 8 5 9 4 10 3 11 2 12 1 13
REMARK SMILES IDX 71 14 72 15 84 16 73 17 74 18 83 19 85 20 75 21 76 22 77 23
REMARK SMILES IDX 81 24 78 25 80 26 82 27 79 28 14 29 15 30 16 31 17 32 18 33
REMARK SMILES IDX 19 34 20 35 21 36 22 37 23 38 24 39 70 40 25 41 69 42 26 43
REMARK SMILES IDX 27 44 28 45 63 46 29 47 68 48 62 49 64 50 30 51 67 52 61 53
REMARK SMILES IDX 60 54 31 56 53 57 38 58 52 59 39 60 42 61 51 62 65 63 40 64
REMARK SMILES IDX 41 65 50 67 66 68 43 69 32 70 33 71 37 72 34 73 36 74 35 75
REMARK SMILES IDX 54 76 55 77 59 78 56 79 58 80 57 81 44 82 45 83 49 84 46 85
REMARK SMILES IDX 48 86 47 87
REMARK H PARENT 64 55 42 66
REMARK Flexibility Score: inf
ROOT
ATOM      1  C   UNL A   1      35.902  29.807  29.032  1.00  0.00     0.188 C 
ENDROOT
BRANCH   1   2
ATOM      2  C   UNL A   1      35.326  29.735  27.607  1.00  0.00     0.188 C 
BRANCH   2   3
ATOM      3  O   UNL A   1      33.932  29.972  27.542  1.00  0.00    -0.376 OA
BRANCH   3   4
ATOM      4  C   UNL A   1      33.195  29.207  26.608  1.00  0.00     0.202 C 
BRANCH   4   5
ATOM      5  C   UNL A   1      32.854  27.761  27.003  1.00  0.00     0.261 C 
BRANCH   5   6
ATOM      6  O   UNL A   1      33.018  26.747  25.989  1.00  0.00    -0.462 OA
BRANCH   6   7
ATOM      7  C   UNL A   1      32.069  25.791  25.893  1.00  0.00     0.329 C 
ATOM      8  O   UNL A   1      31.544  25.287  26.882  1.00  0.00    -0.250 OA
BRANCH   7   9
ATOM      9  C   UNL A   1      31.713  25.391  24.431  1.00  0.00     0.202 C 
BRANCH   9  10
ATOM     10  C   UNL A   1      32.603  24.420  23.627  1.00  0.00     0.048 C 
BRANCH  10  11
ATOM     11  C   UNL A   1      32.673  22.939  24.011  1.00  0.00     0.072 C 
BRANCH  11  12
ATOM     12  S   UNL A   1      33.901  22.535  25.285  1.00  0.00    -0.165 SA
ATOM     13  C   UNL A   1      35.245  23.646  24.816  1.00  0.00     0.085 C 
ENDBRANCH  11  12
ENDBRANCH  10  11
ENDBRANCH   9  10
BRANCH   9  14
ATOM     14  N   UNL A   1      31.368  26.685  23.750  1.00  0.00    -0.278 N 
ATOM     15  C   UNL A   1      30.041  27.097  23.878  1.00  0.00     0.266 C 
ATOM     16  C   UNL A   1      32.186  27.601  23.114  1.00  0.00     0.149 C 
ATOM     17  O   UNL A   1      29.114  26.420  24.301  1.00  0.00    -0.268 OA
ATOM     18  C   UNL A   1      29.873  28.481  23.372  1.00  0.00     0.081 C 
ATOM     19  S   UNL A   1      31.406  29.175  23.077  1.00  0.00    -0.054 SA
ATOM     20  S   UNL A   1      33.657  27.438  22.353  1.00  0.00    -0.052 S 
ATOM     21  C   UNL A   1      28.671  29.021  23.136  1.00  0.00     0.032 C 
BRANCH  21  22
ATOM     22  C   UNL A   1      28.447  30.322  22.494  1.00  0.00     0.012 A 
ATOM     23  C   UNL A   1      28.031  30.371  21.160  1.00  0.00     0.011 A 
ATOM     24  C   UNL A   1      28.681  31.528  23.171  1.00  0.00     0.130 A 
ATOM     25  C   UNL A   1      27.835  31.604  20.531  1.00  0.00     0.001 A 
ATOM     26  C   UNL A   1      28.472  32.757  22.553  1.00  0.00     0.040 A 
ATOM     27  F   UNL A   1      29.127  31.523  24.437  1.00  0.00    -0.206 F 
ATOM     28  C   UNL A   1      28.050  32.795  21.228  1.00  0.00     0.003 A 
ENDBRANCH  21  22
ENDBRANCH   9  14
ENDBRANCH   7   9
ENDBRANCH   6   7
ENDBRANCH   5   6
ENDBRANCH   4   5
ENDBRANCH   3   4
ENDBRANCH   2   3
ENDBRANCH   1   2
BRANCH   1  29
ATOM     29  O   UNL A   1      35.883  31.001  29.799  1.00  0.00    -0.377 OA
BRANCH  29  30
ATOM     30  C   UNL A   1      35.656  32.233  29.140  1.00  0.00     0.188 C 
BRANCH  30  31
ATOM     31  C   UNL A   1      34.596  33.200  29.704  1.00  0.00     0.188 C 
BRANCH  31  32
ATOM     32  O   UNL A   1      34.677  33.425  31.104  1.00  0.00    -0.376 OA
BRANCH  32  33
ATOM     33  C   UNL A   1      35.813  34.128  31.584  1.00  0.00     0.202 C 
BRANCH  33  34
ATOM     34  C   UNL A   1      35.778  34.547  33.061  1.00  0.00     0.261 C 
BRANCH  34  35
ATOM     35  O   UNL A   1      37.034  34.489  33.754  1.00  0.00    -0.460 OA
BRANCH  35  36
ATOM     36  C   UNL A   1      37.280  33.407  34.523  1.00  0.00     0.338 C 
ATOM     37  O   UNL A   1      36.633  33.003  35.472  1.00  0.00    -0.246 OA
BRANCH  36  38
ATOM     38  C   UNL A   1      38.384  32.673  33.879  1.00  0.00     0.060 A 
ATOM     39  C   UNL A   1      39.707  33.006  34.199  1.00  0.00     0.016 A 
ATOM     40  C   UNL A   1      38.105  31.611  33.017  1.00  0.00     0.016 A 
ATOM     41  C   UNL A   1      40.760  32.258  33.673  1.00  0.00     0.010 A 
ATOM     42  C   UNL A   1      39.159  30.891  32.457  1.00  0.00     0.010 A 
ATOM     43  C   UNL A   1      40.490  31.215  32.777  1.00  0.00    -0.014 A 
BRANCH  43  44
ATOM     44  C   UNL A   1      41.592  30.567  32.034  1.00  0.00     0.031 A 
ATOM     45  C   UNL A   1      42.170  29.301  32.595  1.00  0.00     0.074 A 
ATOM     46  C   UNL A   1      42.091  31.110  30.910  1.00  0.00     0.049 A 
ATOM     47  N   UNL A   1      43.210  28.617  32.194  1.00  0.00    -0.248 NA
ATOM     48  C   UNL A   1      41.488  28.731  33.770  1.00  0.00     0.031 C 
ATOM     49  C   UNL A   1      41.583  32.309  30.247  1.00  0.00     0.029 A 
ATOM     50  N   UNL A   1      43.161  30.726  30.140  1.00  0.00    -0.354 N 
ATOM     51  C   UNL A   1      43.317  27.550  33.077  1.00  0.00     0.074 A 
ATOM     52  C   UNL A   1      42.244  27.677  34.036  1.00  0.00     0.031 C 
ATOM     53  C   UNL A   1      42.363  32.581  29.184  1.00  0.00     0.029 A 
ATOM     54  C   UNL A   1      43.446  31.602  29.121  1.00  0.00     0.049 A 
ATOM     55  H   UNL A   1      43.675  29.902  30.303  1.00  0.00     0.167 HD
ATOM     56  C   UNL A   1      44.238  26.561  33.090  1.00  0.00     0.031 A 
ATOM     57  C   UNL A   1      44.488  31.630  28.266  1.00  0.00     0.031 A 
ATOM     58  C   UNL A   1      45.313  26.447  32.143  1.00  0.00     0.049 A 
ATOM     59  C   UNL A   1      45.551  30.562  28.363  1.00  0.00     0.074 A 
ATOM     60  C   UNL A   1      46.273  25.455  32.051  1.00  0.00     0.029 A 
ATOM     61  N   UNL A   1      45.581  27.365  31.142  1.00  0.00    -0.354 N 
ATOM     62  N   UNL A   1      45.611  29.524  29.162  1.00  0.00    -0.248 NA
ATOM     63  C   UNL A   1      46.692  30.675  27.442  1.00  0.00     0.031 C 
ATOM     64  C   UNL A   1      47.166  25.813  31.039  1.00  0.00     0.029 A 
ATOM     65  C   UNL A   1      46.722  26.989  30.457  1.00  0.00     0.049 A 
ATOM     66  H   UNL A   1      45.040  28.164  30.946  1.00  0.00     0.167 HD
ATOM     67  C   UNL A   1      46.779  28.851  28.824  1.00  0.00     0.074 A 
ATOM     68  C   UNL A   1      47.387  29.583  27.734  1.00  0.00     0.031 C 
ATOM     69  C   UNL A   1      47.309  27.729  29.371  1.00  0.00     0.031 A 
BRANCH  56  70
ATOM     70  C   UNL A   1      44.159  25.545  34.192  1.00  0.00    -0.014 A 
ATOM     71  C   UNL A   1      43.748  24.227  33.948  1.00  0.00     0.009 A 
ATOM     72  C   UNL A   1      44.572  25.904  35.486  1.00  0.00     0.009 A 
ATOM     73  C   UNL A   1      43.739  23.291  34.984  1.00  0.00     0.001 A 
ATOM     74  C   UNL A   1      44.586  24.960  36.512  1.00  0.00     0.001 A 
ATOM     75  C   UNL A   1      44.165  23.655  36.261  1.00  0.00     0.000 A 
ENDBRANCH  56  70
BRANCH  57  76
ATOM     76  C   UNL A   1      44.636  32.742  27.287  1.00  0.00    -0.014 A 
ATOM     77  C   UNL A   1      45.237  33.956  27.658  1.00  0.00     0.009 A 
ATOM     78  C   UNL A   1      44.114  32.618  25.989  1.00  0.00     0.009 A 
ATOM     79  C   UNL A   1      45.275  35.030  26.765  1.00  0.00     0.001 A 
ATOM     80  C   UNL A   1      44.185  33.682  25.087  1.00  0.00     0.001 A 
ATOM     81  C   UNL A   1      44.752  34.892  25.480  1.00  0.00     0.000 A 
ENDBRANCH  57  76
BRANCH  69  82
ATOM     82  C   UNL A   1      48.590  27.206  28.785  1.00  0.00    -0.014 A 
ATOM     83  C   UNL A   1      49.833  27.528  29.352  1.00  0.00     0.009 A 
ATOM     84  C   UNL A   1      48.547  26.321  27.696  1.00  0.00     0.009 A 
ATOM     85  C   UNL A   1      51.009  26.994  28.820  1.00  0.00     0.001 A 
ATOM     86  C   UNL A   1      49.722  25.765  27.188  1.00  0.00     0.001 A 
ATOM     87  C   UNL A   1      50.952  26.108  27.745  1.00  0.00     0.000 A 
ENDBRANCH  69  82
ENDBRANCH  43  44
ENDBRANCH  36  38
ENDBRANCH  35  36
ENDBRANCH  34  35
ENDBRANCH  33  34
ENDBRANCH  32  33
ENDBRANCH  31  32
ENDBRANCH  30  31
ENDBRANCH  29  30
ENDBRANCH   1  29
TORSDOF 25
ENDMDL
MODEL 3
REMARK VINA RESULT:      -8.0      2.929      5.153
REMARK SMILES CSCC[C@@H](C(=O)OCCOCCOCCOCCOC(=O)c1ccc(-c2c3nc(c(-c4ccccc4)c4ccc([nH]4)c(-c4ccccc4)c4nc(c(-c5ccccc5)c5ccc2[nH]5)C=C4)C=C3)cc1)N1C(=O)/C(=C/c2ccccc2F)SC1=S
REMARK SMILES IDX 13 1 12 2 11 3 10 4 9 5 8 6 6 7 7 8 5 9 4 10 3 11 2 12 1 13
REMARK SMILES IDX 71 14 72 15 84 16 73 17 74 18 83 19 85 20 75 21 76 22 77 23
REMARK SMILES IDX 81 24 78 25 80 26 82 27 79 28 14 29 15 30 16 31 17 32 18 33
REMARK SMILES IDX 19 34 20 35 21 36 22 37 23 38 24 39 70 40 25 41 69 42 26 43
REMARK SMILES IDX 27 44 28 45 63 46 29 47 68 48 62 49 64 50 30 51 67 52 61 53
REMARK SMILES IDX 60 54 31 56 53 57 38 58 52 59 39 60 42 61 51 62 65 63 40 64
REMARK SMILES IDX 41 65 50 67 66 68 43 69 32 70 33 71 37 72 34 73 36 74 35 75
REMARK SMILES IDX 54 76 55 77 59 78 56 79 58 80 57 81 44 82 45 83 49 84 46 85
REMARK SMILES IDX 48 86 47 87
REMARK H PARENT 64 55 42 66
REMARK Flexibility Score: inf
ROOT
ATOM      1  C   UNL A   1      36.885  30.870  30.003  1.00  0.00     0.188 C 
ENDROOT
BRANCH   1   2
ATOM      2  C   UNL A   1      36.573  30.531  28.535  1.00  0.00     0.188 C 
BRANCH   2   3
ATOM      3  O   UNL A   1      35.235  30.124  28.316  1.00  0.00    -0.376 OA
BRANCH   3   4
ATOM      4  C   UNL A   1      34.965  29.436  27.109  1.00  0.00     0.202 C 
BRANCH   4   5
ATOM      5  C   UNL A   1      33.622  29.729  26.422  1.00  0.00     0.261 C 
BRANCH   5   6
ATOM      6  O   UNL A   1      33.399  29.128  25.130  1.00  0.00    -0.462 OA
BRANCH   6   7
ATOM      7  C   UNL A   1      32.161  29.213  24.598  1.00  0.00     0.329 C 
ATOM      8  O   UNL A   1      31.309  29.978  25.040  1.00  0.00    -0.250 OA
BRANCH   7   9
ATOM      9  C   UNL A   1      31.918  28.257  23.392  1.00  0.00     0.202 C 
BRANCH   9  10
ATOM     10  C   UNL A   1      30.617  28.326  22.565  1.00  0.00     0.048 C 
BRANCH  10  11
ATOM     11  C   UNL A   1      29.435  29.167  23.056  1.00  0.00     0.072 C 
BRANCH  11  12
ATOM     12  S   UNL A   1      28.984  30.558  21.979  1.00  0.00    -0.165 SA
ATOM     13  C   UNL A   1      28.517  31.793  23.209  1.00  0.00     0.085 C 
ENDBRANCH  11  12
ENDBRANCH  10  11
ENDBRANCH   9  10
BRANCH   9  14
ATOM     14  N   UNL A   1      32.307  26.896  23.894  1.00  0.00    -0.278 N 
ATOM     15  C   UNL A   1      33.274  26.231  23.141  1.00  0.00     0.266 C 
ATOM     16  C   UNL A   1      31.948  26.241  25.059  1.00  0.00     0.149 C 
ATOM     17  O   UNL A   1      33.668  26.553  22.028  1.00  0.00    -0.268 OA
ATOM     18  C   UNL A   1      33.743  25.014  23.848  1.00  0.00     0.081 C 
ATOM     19  S   UNL A   1      33.144  25.015  25.449  1.00  0.00    -0.054 SA
ATOM     20  S   UNL A   1      30.605  26.364  26.035  1.00  0.00    -0.052 S 
ATOM     21  C   UNL A   1      34.465  24.063  23.245  1.00  0.00     0.032 C 
BRANCH  21  22
ATOM     22  C   UNL A   1      34.824  22.773  23.848  1.00  0.00     0.012 A 
ATOM     23  C   UNL A   1      33.828  21.822  24.086  1.00  0.00     0.011 A 
ATOM     24  C   UNL A   1      36.141  22.481  24.234  1.00  0.00     0.130 A 
ATOM     25  C   UNL A   1      34.155  20.598  24.679  1.00  0.00     0.001 A 
ATOM     26  C   UNL A   1      36.472  21.259  24.810  1.00  0.00     0.040 A 
ATOM     27  F   UNL A   1      37.117  23.388  24.066  1.00  0.00    -0.206 F 
ATOM     28  C   UNL A   1      35.475  20.315  25.035  1.00  0.00     0.003 A 
ENDBRANCH  21  22
ENDBRANCH   9  14
ENDBRANCH   7   9
ENDBRANCH   6   7
ENDBRANCH   5   6
ENDBRANCH   4   5
ENDBRANCH   3   4
ENDBRANCH   2   3
ENDBRANCH   1   2
BRANCH   1  29
ATOM     29  O   UNL A   1      35.875  31.235  30.929  1.00  0.00    -0.377 OA
BRANCH  29  30
ATOM     30  C   UNL A   1      35.404  32.571  30.934  1.00  0.00     0.188 C 
BRANCH  30  31
ATOM     31  C   UNL A   1      34.332  32.983  31.964  1.00  0.00     0.188 C 
BRANCH  31  32
ATOM     32  O   UNL A   1      34.759  32.946  33.318  1.00  0.00    -0.376 OA
BRANCH  32  33
ATOM     33  C   UNL A   1      35.974  33.610  33.634  1.00  0.00     0.202 C 
BRANCH  33  34
ATOM     34  C   UNL A   1      36.261  33.826  35.127  1.00  0.00     0.261 C 
BRANCH  34  35
ATOM     35  O   UNL A   1      37.614  33.586  35.541  1.00  0.00    -0.460 OA
BRANCH  35  36
ATOM     36  C   UNL A   1      37.937  32.341  35.951  1.00  0.00     0.338 C 
ATOM     37  O   UNL A   1      37.404  31.680  36.823  1.00  0.00    -0.246 OA
BRANCH  36  38
ATOM     38  C   UNL A   1      38.945  31.832  35.003  1.00  0.00     0.060 A 
ATOM     39  C   UNL A   1      38.536  31.019  33.938  1.00  0.00     0.016 A 
ATOM     40  C   UNL A   1      40.280  32.221  35.131  1.00  0.00     0.016 A 
ATOM     41  C   UNL A   1      39.462  30.610  32.979  1.00  0.00     0.010 A 
ATOM     42  C   UNL A   1      41.213  31.777  34.196  1.00  0.00     0.010 A 
ATOM     43  C   UNL A   1      40.810  30.964  33.121  1.00  0.00    -0.014 A 
BRANCH  43  44
ATOM     44  C   UNL A   1      41.837  30.352  32.251  1.00  0.00     0.031 A 
ATOM     45  C   UNL A   1      42.431  29.041  32.679  1.00  0.00     0.074 A 
ATOM     46  C   UNL A   1      42.258  30.962  31.130  1.00  0.00     0.049 A 
ATOM     47  N   UNL A   1      43.422  28.370  32.152  1.00  0.00    -0.248 NA
ATOM     48  C   UNL A   1      41.832  28.403  33.863  1.00  0.00     0.031 C 
ATOM     49  C   UNL A   1      41.724  32.212  30.591  1.00  0.00     0.029 A 
ATOM     50  N   UNL A   1      43.257  30.615  30.254  1.00  0.00    -0.354 N 
ATOM     51  C   UNL A   1      43.576  27.245  32.950  1.00  0.00     0.074 A 
ATOM     52  C   UNL A   1      42.584  27.322  33.998  1.00  0.00     0.031 C 
ATOM     53  C   UNL A   1      42.424  32.543  29.490  1.00  0.00     0.029 A 
ATOM     54  C   UNL A   1      43.479  31.555  29.276  1.00  0.00     0.049 A 
ATOM     55  H   UNL A   1      43.765  29.774  30.320  1.00  0.00     0.167 HD
ATOM     56  C   UNL A   1      44.475  26.243  32.824  1.00  0.00     0.031 A 
ATOM     57  C   UNL A   1      44.451  31.626  28.345  1.00  0.00     0.031 A 
ATOM     58  C   UNL A   1      45.470  26.177  31.789  1.00  0.00     0.049 A 
ATOM     59  C   UNL A   1      45.496  30.537  28.286  1.00  0.00     0.074 A 
ATOM     60  C   UNL A   1      46.399  25.180  31.555  1.00  0.00     0.029 A 
ATOM     61  N   UNL A   1      45.678  27.158  30.834  1.00  0.00    -0.354 N 
ATOM     62  N   UNL A   1      45.597  29.446  29.006  1.00  0.00    -0.248 NA
ATOM     63  C   UNL A   1      46.565  30.695  27.287  1.00  0.00     0.031 C 
ATOM     64  C   UNL A   1      47.219  25.592  30.501  1.00  0.00     0.029 A 
ATOM     65  C   UNL A   1      46.755  26.812  30.037  1.00  0.00     0.049 A 
ATOM     66  H   UNL A   1      45.140  27.976  30.735  1.00  0.00     0.167 HD
ATOM     67  C   UNL A   1      46.721  28.780  28.533  1.00  0.00     0.074 A 
ATOM     68  C   UNL A   1      47.257  29.576  27.449  1.00  0.00     0.031 C 
ATOM     69  C   UNL A   1      47.269  27.616  28.960  1.00  0.00     0.031 A 
BRANCH  56  70
ATOM     70  C   UNL A   1      44.462  25.156  33.859  1.00  0.00    -0.014 A 
ATOM     71  C   UNL A   1      43.748  23.965  33.663  1.00  0.00     0.009 A 
ATOM     72  C   UNL A   1      45.237  25.305  35.020  1.00  0.00     0.009 A 
ATOM     73  C   UNL A   1      43.801  22.949  34.620  1.00  0.00     0.001 A 
ATOM     74  C   UNL A   1      45.307  24.279  35.962  1.00  0.00     0.001 A 
ATOM     75  C   UNL A   1      44.586  23.103  35.762  1.00  0.00     0.000 A 
ENDBRANCH  56  70
BRANCH  57  76
ATOM     76  C   UNL A   1      44.545  32.799  27.434  1.00  0.00    -0.014 A 
ATOM     77  C   UNL A   1      44.004  32.753  26.139  1.00  0.00     0.009 A 
ATOM     78  C   UNL A   1      45.236  33.955  27.835  1.00  0.00     0.009 A 
ATOM     79  C   UNL A   1      44.188  33.820  25.255  1.00  0.00     0.001 A 
ATOM     80  C   UNL A   1      45.389  35.033  26.960  1.00  0.00     0.001 A 
ATOM     81  C   UNL A   1      44.878  34.959  25.666  1.00  0.00     0.000 A 
ENDBRANCH  57  76
BRANCH  69  82
ATOM     82  C   UNL A   1      48.490  27.115  28.241  1.00  0.00    -0.014 A 
ATOM     83  C   UNL A   1      48.379  26.303  27.100  1.00  0.00     0.009 A 
ATOM     84  C   UNL A   1      49.765  27.518  28.667  1.00  0.00     0.009 A 
ATOM     85  C   UNL A   1      49.524  25.885  26.419  1.00  0.00     0.001 A 
ATOM     86  C   UNL A   1      50.905  27.125  27.965  1.00  0.00     0.001 A 
ATOM     87  C   UNL A   1      50.784  26.303  26.847  1.00  0.00     0.000 A 
ENDBRANCH  69  82
ENDBRANCH  43  44
ENDBRANCH  36  38
ENDBRANCH  35  36
ENDBRANCH  34  35
ENDBRANCH  33  34
ENDBRANCH  32  33
ENDBRANCH  31  32
ENDBRANCH  30  31
ENDBRANCH  29  30
ENDBRANCH   1  29
TORSDOF 25
ENDMDL
