MODEL 1
REMARK VINA RESULT:      -9.7      0.000      0.000
REMARK SMILES O=C(NC[C@@H]1CC[C@H](C(=O)OCCOCCOCCOCCOC(=O)c2ccc(-c3c4nc(c(-c5ccccc5)c5ccc([nH]5)c(-c5ccccc5)c5nc(c(-c6ccccc6)c6ccc3[nH]6)C=C5)C=C4)cc2)O1)c1ccc(CO)cc1
REMARK SMILES IDX 15 1 14 2 13 3 12 4 11 5 9 6 10 7 8 8 5 9 6 10 74 11 7 12
REMARK SMILES IDX 4 13 3 14 1 15 2 16 75 18 76 19 82 20 77 21 81 22 78 23
REMARK SMILES IDX 79 24 80 25 16 27 17 28 18 29 19 30 20 31 21 32 22 33 23 34
REMARK SMILES IDX 24 35 25 36 26 37 27 38 73 39 28 40 72 41 29 42 30 43 31 44
REMARK SMILES IDX 66 45 32 46 71 47 65 48 67 49 33 50 70 51 64 52 63 53 34 55
REMARK SMILES IDX 56 56 41 57 55 58 42 59 45 60 54 61 68 62 43 63 44 64 53 66
REMARK SMILES IDX 69 67 46 68 35 69 36 70 40 71 37 72 39 73 38 74 57 75 58 76
REMARK SMILES IDX 62 77 59 78 61 79 60 80 47 81 48 82 52 83 49 84 51 85 50 86
REMARK H PARENT 3 17 80 26 67 54 45 65
REMARK Flexibility Score: inf
ROOT
ATOM      1  C   UNL A   1      34.735  31.280  28.090  1.00  0.00     0.188 C 
ENDROOT
BRANCH   1   2
ATOM      2  O   UNL A   1      34.509  30.264  27.136  1.00  0.00    -0.376 OA
BRANCH   2   3
ATOM      3  C   UNL A   1      33.203  29.998  26.645  1.00  0.00     0.202 C 
BRANCH   3   4
ATOM      4  C   UNL A   1      32.888  29.567  25.201  1.00  0.00     0.261 C 
BRANCH   4   5
ATOM      5  O   UNL A   1      33.703  28.525  24.633  1.00  0.00    -0.461 OA
BRANCH   5   6
ATOM      6  C   UNL A   1      33.047  27.397  24.266  1.00  0.00     0.335 C 
ATOM      7  O   UNL A   1      33.429  26.647  23.370  1.00  0.00    -0.249 OA
BRANCH   6   8
ATOM      8  C   UNL A   1      31.773  27.095  25.074  1.00  0.00     0.228 C 
ATOM      9  C   UNL A   1      31.788  25.095  26.274  1.00  0.00     0.138 C 
ATOM     10  C   UNL A   1      30.968  24.846  25.027  1.00  0.00     0.037 C 
ATOM     11  O   UNL A   1      32.170  26.479  26.308  1.00  0.00    -0.361 OA
ATOM     12  C   UNL A   1      30.634  26.233  24.562  1.00  0.00     0.047 C 
BRANCH   9  13
ATOM     13  C   UNL A   1      33.016  24.190  26.390  1.00  0.00     0.148 C 
BRANCH  13  14
ATOM     14  N   UNL A   1      34.002  24.345  25.316  1.00  0.00    -0.349 N 
ATOM     15  O   UNL A   1      35.311  23.778  23.569  1.00  0.00    -0.269 OA
ATOM     16  C   UNL A   1      34.432  23.455  24.363  1.00  0.00     0.251 C 
ATOM     17  H   UNL A   1      34.425  25.233  25.270  1.00  0.00     0.163 HD
BRANCH  16  18
ATOM     18  C   UNL A   1      33.867  22.095  24.308  1.00  0.00     0.039 A 
ATOM     19  C   UNL A   1      34.495  21.030  24.956  1.00  0.00     0.014 A 
ATOM     20  C   UNL A   1      32.694  21.884  23.579  1.00  0.00     0.014 A 
ATOM     21  C   UNL A   1      34.038  19.732  24.751  1.00  0.00     0.007 A 
ATOM     22  C   UNL A   1      32.213  20.586  23.408  1.00  0.00     0.007 A 
ATOM     23  C   UNL A   1      32.902  19.499  23.965  1.00  0.00    -0.023 A 
BRANCH  23  24
ATOM     24  C   UNL A   1      32.480  18.086  23.670  1.00  0.00     0.191 C 
BRANCH  24  25
ATOM     25  O   UNL A   1      31.945  17.488  24.844  1.00  0.00    -0.392 OA
ATOM     26  H   UNL A   1      32.666  17.289  25.463  1.00  0.00     0.211 HD
ENDBRANCH  24  25
ENDBRANCH  23  24
ENDBRANCH  16  18
ENDBRANCH  13  14
ENDBRANCH   9  13
ENDBRANCH   6   8
ENDBRANCH   5   6
ENDBRANCH   4   5
ENDBRANCH   3   4
ENDBRANCH   2   3
ENDBRANCH   1   2
BRANCH   1  27
ATOM     27  C   UNL A   1      33.948  32.593  28.004  1.00  0.00     0.188 C 
BRANCH  27  28
ATOM     28  O   UNL A   1      34.699  33.770  27.769  1.00  0.00    -0.377 OA
BRANCH  28  29
ATOM     29  C   UNL A   1      34.641  34.845  28.698  1.00  0.00     0.188 C 
BRANCH  29  30
ATOM     30  C   UNL A   1      33.324  35.174  29.421  1.00  0.00     0.188 C 
BRANCH  30  31
ATOM     31  O   UNL A   1      33.247  34.700  30.755  1.00  0.00    -0.376 OA
BRANCH  31  32
ATOM     32  C   UNL A   1      34.441  34.588  31.517  1.00  0.00     0.202 C 
BRANCH  32  33
ATOM     33  C   UNL A   1      34.449  33.624  32.715  1.00  0.00     0.261 C 
BRANCH  33  34
ATOM     34  O   UNL A   1      35.141  32.376  32.527  1.00  0.00    -0.460 OA
BRANCH  34  35
ATOM     35  C   UNL A   1      36.284  32.181  33.217  1.00  0.00     0.338 C 
ATOM     36  O   UNL A   1      36.480  32.390  34.396  1.00  0.00    -0.246 OA
BRANCH  35  37
ATOM     37  C   UNL A   1      37.236  31.470  32.336  1.00  0.00     0.060 A 
ATOM     38  C   UNL A   1      38.233  30.687  32.930  1.00  0.00     0.016 A 
ATOM     39  C   UNL A   1      37.177  31.609  30.947  1.00  0.00     0.016 A 
ATOM     40  C   UNL A   1      39.210  30.087  32.139  1.00  0.00     0.010 A 
ATOM     41  C   UNL A   1      38.170  31.019  30.155  1.00  0.00     0.010 A 
ATOM     42  C   UNL A   1      39.215  30.293  30.753  1.00  0.00    -0.014 A 
BRANCH  42  43
ATOM     43  C   UNL A   1      40.422  29.906  29.980  1.00  0.00     0.031 A 
ATOM     44  C   UNL A   1      40.449  28.558  29.308  1.00  0.00     0.074 A 
ATOM     45  C   UNL A   1      41.437  30.770  29.798  1.00  0.00     0.049 A 
ATOM     46  N   UNL A   1      41.369  28.030  28.541  1.00  0.00    -0.248 NA
ATOM     47  C   UNL A   1      39.278  27.691  29.522  1.00  0.00     0.031 C 
ATOM     48  C   UNL A   1      41.512  32.121  30.350  1.00  0.00     0.029 A 
ATOM     49  N   UNL A   1      42.599  30.635  29.077  1.00  0.00    -0.354 N 
ATOM     50  C   UNL A   1      40.884  26.782  28.172  1.00  0.00     0.074 A 
ATOM     51  C   UNL A   1      39.611  26.608  28.837  1.00  0.00     0.031 C 
ATOM     52  C   UNL A   1      42.660  32.694  29.947  1.00  0.00     0.029 A 
ATOM     53  C   UNL A   1      43.413  31.742  29.133  1.00  0.00     0.049 A 
ATOM     54  H   UNL A   1      42.828  29.823  28.571  1.00  0.00     0.167 HD
ATOM     55  C   UNL A   1      41.434  25.867  27.339  1.00  0.00     0.031 A 
ATOM     56  C   UNL A   1      44.631  31.954  28.597  1.00  0.00     0.031 A 
ATOM     57  C   UNL A   1      42.709  26.024  26.691  1.00  0.00     0.049 A 
ATOM     58  C   UNL A   1      45.264  30.877  27.753  1.00  0.00     0.074 A 
ATOM     59  C   UNL A   1      43.360  25.144  25.844  1.00  0.00     0.029 A 
ATOM     60  N   UNL A   1      43.527  27.136  26.819  1.00  0.00    -0.354 N 
ATOM     61  N   UNL A   1      44.784  29.708  27.400  1.00  0.00    -0.248 NA
ATOM     62  C   UNL A   1      46.604  31.159  27.219  1.00  0.00     0.031 C 
ATOM     63  C   UNL A   1      44.597  25.699  25.503  1.00  0.00     0.029 A 
ATOM     64  C   UNL A   1      44.685  26.954  26.082  1.00  0.00     0.049 A 
ATOM     65  H   UNL A   1      43.316  27.934  27.354  1.00  0.00     0.167 HD
ATOM     66  C   UNL A   1      45.748  29.134  26.579  1.00  0.00     0.074 A 
ATOM     67  C   UNL A   1      46.825  30.095  26.463  1.00  0.00     0.031 C 
ATOM     68  C   UNL A   1      45.748  27.919  25.975  1.00  0.00     0.031 A 
BRANCH  55  69
ATOM     69  C   UNL A   1      40.664  24.601  27.091  1.00  0.00    -0.014 A 
ATOM     70  C   UNL A   1      41.067  23.383  27.664  1.00  0.00     0.009 A 
ATOM     71  C   UNL A   1      39.490  24.633  26.321  1.00  0.00     0.009 A 
ATOM     72  C   UNL A   1      40.322  22.221  27.452  1.00  0.00     0.001 A 
ATOM     73  C   UNL A   1      38.732  23.475  26.137  1.00  0.00     0.001 A 
ATOM     74  C   UNL A   1      39.151  22.269  26.696  1.00  0.00     0.000 A 
ENDBRANCH  55  69
BRANCH  56  75
ATOM     75  C   UNL A   1      45.365  33.222  28.864  1.00  0.00    -0.014 A 
ATOM     76  C   UNL A   1      45.213  34.338  28.027  1.00  0.00     0.009 A 
ATOM     77  C   UNL A   1      46.280  33.295  29.927  1.00  0.00     0.009 A 
ATOM     78  C   UNL A   1      45.998  35.479  28.217  1.00  0.00     0.001 A 
ATOM     79  C   UNL A   1      47.035  34.450  30.137  1.00  0.00     0.001 A 
ATOM     80  C   UNL A   1      46.906  35.535  29.273  1.00  0.00     0.000 A 
ENDBRANCH  56  75
BRANCH  68  81
ATOM     81  C   UNL A   1      46.928  27.585  25.104  1.00  0.00    -0.014 A 
ATOM     82  C   UNL A   1      48.051  26.913  25.612  1.00  0.00     0.009 A 
ATOM     83  C   UNL A   1      46.911  27.940  23.744  1.00  0.00     0.009 A 
ATOM     84  C   UNL A   1      49.152  26.653  24.793  1.00  0.00     0.001 A 
ATOM     85  C   UNL A   1      47.996  27.645  22.919  1.00  0.00     0.001 A 
ATOM     86  C   UNL A   1      49.122  27.016  23.447  1.00  0.00     0.000 A 
ENDBRANCH  68  81
ENDBRANCH  42  43
ENDBRANCH  35  37
ENDBRANCH  34  35
ENDBRANCH  33  34
ENDBRANCH  32  33
ENDBRANCH  31  32
ENDBRANCH  30  31
ENDBRANCH  29  30
ENDBRANCH  28  29
ENDBRANCH  27  28
ENDBRANCH   1  27
TORSDOF 25
ENDMDL
MODEL 2
REMARK VINA RESULT:      -8.8      4.230      8.024
REMARK SMILES O=C(NC[C@@H]1CC[C@H](C(=O)OCCOCCOCCOCCOC(=O)c2ccc(-c3c4nc(c(-c5ccccc5)c5ccc([nH]5)c(-c5ccccc5)c5nc(c(-c6ccccc6)c6ccc3[nH]6)C=C5)C=C4)cc2)O1)c1ccc(CO)cc1
REMARK SMILES IDX 15 1 14 2 13 3 12 4 11 5 9 6 10 7 8 8 5 9 6 10 74 11 7 12
REMARK SMILES IDX 4 13 3 14 1 15 2 16 75 18 76 19 82 20 77 21 81 22 78 23
REMARK SMILES IDX 79 24 80 25 16 27 17 28 18 29 19 30 20 31 21 32 22 33 23 34
REMARK SMILES IDX 24 35 25 36 26 37 27 38 73 39 28 40 72 41 29 42 30 43 31 44
REMARK SMILES IDX 66 45 32 46 71 47 65 48 67 49 33 50 70 51 64 52 63 53 34 55
REMARK SMILES IDX 56 56 41 57 55 58 42 59 45 60 54 61 68 62 43 63 44 64 53 66
REMARK SMILES IDX 69 67 46 68 35 69 36 70 40 71 37 72 39 73 38 74 57 75 58 76
REMARK SMILES IDX 62 77 59 78 61 79 60 80 47 81 48 82 52 83 49 84 51 85 50 86
REMARK H PARENT 3 17 80 26 67 54 45 65
REMARK Flexibility Score: inf
ROOT
ATOM      1  C   UNL A   1      34.199  30.416  26.777  1.00  0.00     0.188 C 
ENDROOT
BRANCH   1   2
ATOM      2  O   UNL A   1      34.036  29.014  26.718  1.00  0.00    -0.376 OA
BRANCH   2   3
ATOM      3  C   UNL A   1      32.979  28.370  27.414  1.00  0.00     0.202 C 
BRANCH   3   4
ATOM      4  C   UNL A   1      32.296  27.070  26.949  1.00  0.00     0.261 C 
BRANCH   4   5
ATOM      5  O   UNL A   1      30.859  27.072  26.875  1.00  0.00    -0.461 OA
BRANCH   5   6
ATOM      6  C   UNL A   1      30.311  26.177  26.017  1.00  0.00     0.335 C 
ATOM      7  O   UNL A   1      30.046  25.015  26.322  1.00  0.00    -0.249 OA
BRANCH   6   8
ATOM      8  C   UNL A   1      30.015  26.723  24.610  1.00  0.00     0.228 C 
ATOM      9  C   UNL A   1      30.896  25.488  22.839  1.00  0.00     0.138 C 
ATOM     10  C   UNL A   1      31.807  26.681  23.031  1.00  0.00     0.037 C 
ATOM     11  O   UNL A   1      29.785  25.604  23.743  1.00  0.00    -0.361 OA
ATOM     12  C   UNL A   1      30.962  27.622  23.837  1.00  0.00     0.047 C 
BRANCH   9  13
ATOM     13  C   UNL A   1      31.602  24.143  23.019  1.00  0.00     0.148 C 
BRANCH  13  14
ATOM     14  N   UNL A   1      33.019  24.133  22.640  1.00  0.00    -0.349 N 
ATOM     15  O   UNL A   1      35.149  23.407  22.496  1.00  0.00    -0.269 OA
ATOM     16  C   UNL A   1      33.998  23.197  22.868  1.00  0.00     0.251 C 
ATOM     17  H   UNL A   1      33.317  24.927  22.141  1.00  0.00     0.163 HD
BRANCH  16  18
ATOM     18  C   UNL A   1      33.682  21.952  23.589  1.00  0.00     0.039 A 
ATOM     19  C   UNL A   1      34.485  21.509  24.641  1.00  0.00     0.014 A 
ATOM     20  C   UNL A   1      32.568  21.208  23.189  1.00  0.00     0.014 A 
ATOM     21  C   UNL A   1      34.265  20.251  25.194  1.00  0.00     0.007 A 
ATOM     22  C   UNL A   1      32.325  19.965  23.773  1.00  0.00     0.007 A 
ATOM     23  C   UNL A   1      33.192  19.463  24.755  1.00  0.00    -0.023 A 
BRANCH  23  24
ATOM     24  C   UNL A   1      33.028  18.068  25.289  1.00  0.00     0.191 C 
BRANCH  24  25
ATOM     25  O   UNL A   1      32.559  18.116  26.630  1.00  0.00    -0.392 OA
ATOM     26  H   UNL A   1      33.265  18.452  27.206  1.00  0.00     0.211 HD
ENDBRANCH  24  25
ENDBRANCH  23  24
ENDBRANCH  16  18
ENDBRANCH  13  14
ENDBRANCH   9  13
ENDBRANCH   6   8
ENDBRANCH   5   6
ENDBRANCH   4   5
ENDBRANCH   3   4
ENDBRANCH   2   3
ENDBRANCH   1   2
BRANCH   1  27
ATOM     27  C   UNL A   1      35.272  31.018  27.691  1.00  0.00     0.188 C 
BRANCH  27  28
ATOM     28  O   UNL A   1      34.875  31.339  29.011  1.00  0.00    -0.377 OA
BRANCH  28  29
ATOM     29  C   UNL A   1      34.709  32.698  29.392  1.00  0.00     0.188 C 
BRANCH  29  30
ATOM     30  C   UNL A   1      34.075  33.704  28.415  1.00  0.00     0.188 C 
BRANCH  30  31
ATOM     31  O   UNL A   1      34.708  34.971  28.377  1.00  0.00    -0.376 OA
BRANCH  31  32
ATOM     32  C   UNL A   1      33.988  36.116  28.811  1.00  0.00     0.202 C 
BRANCH  32  33
ATOM     33  C   UNL A   1      32.653  35.900  29.544  1.00  0.00     0.261 C 
BRANCH  33  34
ATOM     34  O   UNL A   1      32.684  35.014  30.678  1.00  0.00    -0.460 OA
BRANCH  34  35
ATOM     35  C   UNL A   1      32.881  35.560  31.897  1.00  0.00     0.338 C 
ATOM     36  O   UNL A   1      32.140  36.311  32.497  1.00  0.00    -0.246 OA
BRANCH  35  37
ATOM     37  C   UNL A   1      34.082  34.935  32.491  1.00  0.00     0.060 A 
ATOM     38  C   UNL A   1      35.314  35.582  32.336  1.00  0.00     0.016 A 
ATOM     39  C   UNL A   1      34.005  33.707  33.153  1.00  0.00     0.016 A 
ATOM     40  C   UNL A   1      36.481  34.974  32.791  1.00  0.00     0.010 A 
ATOM     41  C   UNL A   1      35.182  33.090  33.594  1.00  0.00     0.010 A 
ATOM     42  C   UNL A   1      36.429  33.701  33.374  1.00  0.00    -0.014 A 
BRANCH  42  43
ATOM     43  C   UNL A   1      37.696  32.953  33.567  1.00  0.00     0.031 A 
ATOM     44  C   UNL A   1      38.480  33.172  34.835  1.00  0.00     0.074 A 
ATOM     45  C   UNL A   1      38.098  32.027  32.678  1.00  0.00     0.049 A 
ATOM     46  N   UNL A   1      39.581  32.593  35.241  1.00  0.00    -0.248 NA
ATOM     47  C   UNL A   1      37.946  34.171  35.776  1.00  0.00     0.031 C 
ATOM     48  C   UNL A   1      37.406  31.684  31.437  1.00  0.00     0.029 A 
ATOM     49  N   UNL A   1      39.190  31.194  32.697  1.00  0.00    -0.354 N 
ATOM     50  C   UNL A   1      39.863  33.146  36.485  1.00  0.00     0.074 A 
ATOM     51  C   UNL A   1      38.846  34.141  36.747  1.00  0.00     0.031 C 
ATOM     52  C   UNL A   1      38.089  30.708  30.813  1.00  0.00     0.029 A 
ATOM     53  C   UNL A   1      39.279  30.378  31.594  1.00  0.00     0.049 A 
ATOM     54  H   UNL A   1      39.847  31.183  33.430  1.00  0.00     0.167 HD
ATOM     55  C   UNL A   1      40.864  32.841  37.344  1.00  0.00     0.031 A 
ATOM     56  C   UNL A   1      40.222  29.479  31.250  1.00  0.00     0.031 A 
ATOM     57  C   UNL A   1      41.890  31.868  37.081  1.00  0.00     0.049 A 
ATOM     58  C   UNL A   1      41.380  29.231  32.183  1.00  0.00     0.074 A 
ATOM     59  C   UNL A   1      42.958  31.503  37.883  1.00  0.00     0.029 A 
ATOM     60  N   UNL A   1      41.976  31.104  35.928  1.00  0.00    -0.354 N 
ATOM     61  N   UNL A   1      41.623  29.749  33.364  1.00  0.00    -0.248 NA
ATOM     62  C   UNL A   1      42.388  28.256  31.740  1.00  0.00     0.031 C 
ATOM     63  C   UNL A   1      43.722  30.558  37.190  1.00  0.00     0.029 A 
ATOM     64  C   UNL A   1      43.090  30.285  35.988  1.00  0.00     0.049 A 
ATOM     65  H   UNL A   1      41.340  31.139  35.178  1.00  0.00     0.167 HD
ATOM     66  C   UNL A   1      42.789  29.141  33.814  1.00  0.00     0.074 A 
ATOM     67  C   UNL A   1      43.187  28.194  32.794  1.00  0.00     0.031 C 
ATOM     68  C   UNL A   1      43.474  29.347  34.966  1.00  0.00     0.031 A 
BRANCH  55  69
ATOM     69  C   UNL A   1      40.908  33.583  38.651  1.00  0.00    -0.014 A 
ATOM     70  C   UNL A   1      41.398  34.897  38.722  1.00  0.00     0.009 A 
ATOM     71  C   UNL A   1      40.402  32.984  39.815  1.00  0.00     0.009 A 
ATOM     72  C   UNL A   1      41.401  35.586  39.936  1.00  0.00     0.001 A 
ATOM     73  C   UNL A   1      40.379  33.687  41.021  1.00  0.00     0.001 A 
ATOM     74  C   UNL A   1      40.884  34.984  41.083  1.00  0.00     0.000 A 
ENDBRANCH  55  69
BRANCH  56  75
ATOM     75  C   UNL A   1      40.146  28.761  29.948  1.00  0.00    -0.014 A 
ATOM     76  C   UNL A   1      40.634  29.345  28.768  1.00  0.00     0.009 A 
ATOM     77  C   UNL A   1      39.516  27.509  29.870  1.00  0.00     0.009 A 
ATOM     78  C   UNL A   1      40.448  28.715  27.535  1.00  0.00     0.001 A 
ATOM     79  C   UNL A   1      39.365  26.863  28.641  1.00  0.00     0.001 A 
ATOM     80  C   UNL A   1      39.816  27.474  27.472  1.00  0.00     0.000 A 
ENDBRANCH  56  75
BRANCH  68  81
ATOM     81  C   UNL A   1      44.697  28.501  35.199  1.00  0.00    -0.014 A 
ATOM     82  C   UNL A   1      45.969  28.912  34.769  1.00  0.00     0.009 A 
ATOM     83  C   UNL A   1      44.575  27.274  35.872  1.00  0.00     0.009 A 
ATOM     84  C   UNL A   1      47.080  28.089  34.959  1.00  0.00     0.001 A 
ATOM     85  C   UNL A   1      45.693  26.471  36.094  1.00  0.00     0.001 A 
ATOM     86  C   UNL A   1      46.943  26.872  35.624  1.00  0.00     0.000 A 
ENDBRANCH  68  81
ENDBRANCH  42  43
ENDBRANCH  35  37
ENDBRANCH  34  35
ENDBRANCH  33  34
ENDBRANCH  32  33
ENDBRANCH  31  32
ENDBRANCH  30  31
ENDBRANCH  29  30
ENDBRANCH  28  29
ENDBRANCH  27  28
ENDBRANCH   1  27
TORSDOF 25
ENDMDL
MODEL 3
REMARK VINA RESULT:      -8.8      1.180      5.860
REMARK SMILES O=C(NC[C@@H]1CC[C@H](C(=O)OCCOCCOCCOCCOC(=O)c2ccc(-c3c4nc(c(-c5ccccc5)c5ccc([nH]5)c(-c5ccccc5)c5nc(c(-c6ccccc6)c6ccc3[nH]6)C=C5)C=C4)cc2)O1)c1ccc(CO)cc1
REMARK SMILES IDX 15 1 14 2 13 3 12 4 11 5 9 6 10 7 8 8 5 9 6 10 74 11 7 12
REMARK SMILES IDX 4 13 3 14 1 15 2 16 75 18 76 19 82 20 77 21 81 22 78 23
REMARK SMILES IDX 79 24 80 25 16 27 17 28 18 29 19 30 20 31 21 32 22 33 23 34
REMARK SMILES IDX 24 35 25 36 26 37 27 38 73 39 28 40 72 41 29 42 30 43 31 44
REMARK SMILES IDX 66 45 32 46 71 47 65 48 67 49 33 50 70 51 64 52 63 53 34 55
REMARK SMILES IDX 56 56 41 57 55 58 42 59 45 60 54 61 68 62 43 63 44 64 53 66
REMARK SMILES IDX 69 67 46 68 35 69 36 70 40 71 37 72 39 73 38 74 57 75 58 76
REMARK SMILES IDX 62 77 59 78 61 79 60 80 47 81 48 82 52 83 49 84 51 85 50 86
REMARK H PARENT 3 17 80 26 67 54 45 65
REMARK Flexibility Score: inf
ROOT
ATOM      1  C   UNL A   1      33.964  31.403  28.062  1.00  0.00     0.188 C 
ENDROOT
BRANCH   1   2
ATOM      2  O   UNL A   1      33.789  30.529  26.967  1.00  0.00    -0.376 OA
BRANCH   2   3
ATOM      3  C   UNL A   1      32.497  30.079  26.587  1.00  0.00     0.202 C 
BRANCH   3   4
ATOM      4  C   UNL A   1      31.780  28.867  27.210  1.00  0.00     0.261 C 
BRANCH   4   5
ATOM      5  O   UNL A   1      32.424  27.586  27.083  1.00  0.00    -0.461 OA
BRANCH   5   6
ATOM      6  C   UNL A   1      31.807  26.695  26.268  1.00  0.00     0.335 C 
ATOM      7  O   UNL A   1      30.932  25.918  26.646  1.00  0.00    -0.249 OA
BRANCH   6   8
ATOM      8  C   UNL A   1      32.267  26.730  24.801  1.00  0.00     0.228 C 
ATOM      9  C   UNL A   1      32.686  24.654  23.822  1.00  0.00     0.138 C 
ATOM     10  C   UNL A   1      34.033  25.244  24.183  1.00  0.00     0.037 C 
ATOM     11  O   UNL A   1      31.664  25.618  24.123  1.00  0.00    -0.361 OA
ATOM     12  C   UNL A   1      33.723  26.699  24.372  1.00  0.00     0.047 C 
BRANCH   9  13
ATOM     13  C   UNL A   1      32.395  23.322  24.515  1.00  0.00     0.148 C 
BRANCH  13  14
ATOM     14  N   UNL A   1      33.145  23.093  25.753  1.00  0.00    -0.349 N 
ATOM     15  O   UNL A   1      34.294  21.968  27.335  1.00  0.00    -0.269 OA
ATOM     16  C   UNL A   1      33.744  21.955  26.238  1.00  0.00     0.251 C 
ATOM     17  H   UNL A   1      33.234  23.883  26.334  1.00  0.00     0.163 HD
BRANCH  16  18
ATOM     18  C   UNL A   1      33.701  20.705  25.460  1.00  0.00     0.039 A 
ATOM     19  C   UNL A   1      32.483  20.120  25.108  1.00  0.00     0.014 A 
ATOM     20  C   UNL A   1      34.906  20.100  25.092  1.00  0.00     0.014 A 
ATOM     21  C   UNL A   1      32.468  18.858  24.522  1.00  0.00     0.007 A 
ATOM     22  C   UNL A   1      34.888  18.853  24.468  1.00  0.00     0.007 A 
ATOM     23  C   UNL A   1      33.670  18.209  24.210  1.00  0.00    -0.023 A 
BRANCH  23  24
ATOM     24  C   UNL A   1      33.638  16.806  23.672  1.00  0.00     0.191 C 
BRANCH  24  25
ATOM     25  O   UNL A   1      32.742  16.014  24.441  1.00  0.00    -0.392 OA
ATOM     26  H   UNL A   1      32.017  15.705  23.874  1.00  0.00     0.211 HD
ENDBRANCH  24  25
ENDBRANCH  23  24
ENDBRANCH  16  18
ENDBRANCH  13  14
ENDBRANCH   9  13
ENDBRANCH   6   8
ENDBRANCH   5   6
ENDBRANCH   4   5
ENDBRANCH   3   4
ENDBRANCH   2   3
ENDBRANCH   1   2
BRANCH   1  27
ATOM     27  C   UNL A   1      33.431  32.838  27.982  1.00  0.00     0.188 C 
BRANCH  27  28
ATOM     28  O   UNL A   1      34.389  33.861  27.781  1.00  0.00    -0.377 OA
BRANCH  28  29
ATOM     29  C   UNL A   1      34.480  34.938  28.705  1.00  0.00     0.188 C 
BRANCH  29  30
ATOM     30  C   UNL A   1      33.273  35.310  29.584  1.00  0.00     0.188 C 
BRANCH  30  31
ATOM     31  O   UNL A   1      33.310  34.775  30.896  1.00  0.00    -0.376 OA
BRANCH  31  32
ATOM     32  C   UNL A   1      34.511  34.179  31.364  1.00  0.00     0.202 C 
BRANCH  32  33
ATOM     33  C   UNL A   1      34.471  32.702  31.791  1.00  0.00     0.261 C 
BRANCH  33  34
ATOM     34  O   UNL A   1      35.423  32.300  32.793  1.00  0.00    -0.460 OA
BRANCH  34  35
ATOM     35  C   UNL A   1      36.636  32.889  32.781  1.00  0.00     0.338 C 
ATOM     36  O   UNL A   1      36.993  33.857  33.420  1.00  0.00    -0.246 OA
BRANCH  35  37
ATOM     37  C   UNL A   1      37.552  32.038  31.991  1.00  0.00     0.060 A 
ATOM     38  C   UNL A   1      38.543  31.319  32.671  1.00  0.00     0.016 A 
ATOM     39  C   UNL A   1      37.466  31.982  30.598  1.00  0.00     0.016 A 
ATOM     40  C   UNL A   1      39.488  30.589  31.955  1.00  0.00     0.010 A 
ATOM     41  C   UNL A   1      38.427  31.261  29.879  1.00  0.00     0.010 A 
ATOM     42  C   UNL A   1      39.468  30.599  30.554  1.00  0.00    -0.014 A 
BRANCH  42  43
ATOM     43  C   UNL A   1      40.649  30.076  29.821  1.00  0.00     0.031 A 
ATOM     44  C   UNL A   1      41.838  30.979  29.626  1.00  0.00     0.074 A 
ATOM     45  C   UNL A   1      40.704  28.794  29.417  1.00  0.00     0.049 A 
ATOM     46  N   UNL A   1      42.993  30.724  29.066  1.00  0.00    -0.248 NA
ATOM     47  C   UNL A   1      41.711  32.355  30.137  1.00  0.00     0.031 C 
ATOM     48  C   UNL A   1      39.644  27.803  29.589  1.00  0.00     0.029 A 
ATOM     49  N   UNL A   1      41.711  28.104  28.787  1.00  0.00    -0.354 N 
ATOM     50  C   UNL A   1      43.732  31.896  29.171  1.00  0.00     0.074 A 
ATOM     51  C   UNL A   1      42.880  32.880  29.802  1.00  0.00     0.031 C 
ATOM     52  C   UNL A   1      40.057  26.629  29.079  1.00  0.00     0.029 A 
ATOM     53  C   UNL A   1      41.397  26.793  28.519  1.00  0.00     0.049 A 
ATOM     54  H   UNL A   1      42.575  28.510  28.549  1.00  0.00     0.167 HD
ATOM     55  C   UNL A   1      45.012  32.132  28.796  1.00  0.00     0.031 A 
ATOM     56  C   UNL A   1      42.106  25.840  27.884  1.00  0.00     0.031 A 
ATOM     57  C   UNL A   1      45.857  31.164  28.148  1.00  0.00     0.049 A 
ATOM     58  C   UNL A   1      43.494  26.161  27.388  1.00  0.00     0.074 A 
ATOM     59  C   UNL A   1      47.163  31.315  27.713  1.00  0.00     0.029 A 
ATOM     60  N   UNL A   1      45.482  29.866  27.845  1.00  0.00    -0.354 N 
ATOM     61  N   UNL A   1      44.185  27.269  27.510  1.00  0.00    -0.248 NA
ATOM     62  C   UNL A   1      44.207  25.087  26.680  1.00  0.00     0.031 C 
ATOM     63  C   UNL A   1      47.558  30.125  27.095  1.00  0.00     0.029 A 
ATOM     64  C   UNL A   1      46.523  29.211  27.208  1.00  0.00     0.049 A 
ATOM     65  H   UNL A   1      44.605  29.468  28.050  1.00  0.00     0.167 HD
ATOM     66  C   UNL A   1      45.420  27.013  26.925  1.00  0.00     0.074 A 
ATOM     67  C   UNL A   1      45.393  25.637  26.476  1.00  0.00     0.031 C 
ATOM     68  C   UNL A   1      46.483  27.842  26.768  1.00  0.00     0.031 A 
BRANCH  55  69
ATOM     69  C   UNL A   1      45.574  33.499  29.063  1.00  0.00    -0.014 A 
ATOM     70  C   UNL A   1      45.417  34.542  28.134  1.00  0.00     0.009 A 
ATOM     71  C   UNL A   1      46.219  33.767  30.281  1.00  0.00     0.009 A 
ATOM     72  C   UNL A   1      45.915  35.817  28.411  1.00  0.00     0.001 A 
ATOM     73  C   UNL A   1      46.689  35.051  30.566  1.00  0.00     0.001 A 
ATOM     74  C   UNL A   1      46.543  36.072  29.630  1.00  0.00     0.000 A 
ENDBRANCH  55  69
BRANCH  56  75
ATOM     75  C   UNL A   1      41.518  24.495  27.637  1.00  0.00    -0.014 A 
ATOM     76  C   UNL A   1      40.493  24.313  26.695  1.00  0.00     0.009 A 
ATOM     77  C   UNL A   1      41.935  23.393  28.400  1.00  0.00     0.009 A 
ATOM     78  C   UNL A   1      39.867  23.071  26.559  1.00  0.00     0.001 A 
ATOM     79  C   UNL A   1      41.334  22.144  28.235  1.00  0.00     0.001 A 
ATOM     80  C   UNL A   1      40.289  21.987  27.327  1.00  0.00     0.000 A 
ENDBRANCH  56  75
BRANCH  68  81
ATOM     81  C   UNL A   1      47.714  27.265  26.123  1.00  0.00    -0.014 A 
ATOM     82  C   UNL A   1      47.910  27.318  24.733  1.00  0.00     0.009 A 
ATOM     83  C   UNL A   1      48.702  26.667  26.923  1.00  0.00     0.009 A 
ATOM     84  C   UNL A   1      49.040  26.737  24.155  1.00  0.00     0.001 A 
ATOM     85  C   UNL A   1      49.849  26.121  26.346  1.00  0.00     0.001 A 
ATOM     86  C   UNL A   1      50.010  26.142  24.962  1.00  0.00     0.000 A 
ENDBRANCH  68  81
ENDBRANCH  42  43
ENDBRANCH  35  37
ENDBRANCH  34  35
ENDBRANCH  33  34
ENDBRANCH  32  33
ENDBRANCH  31  32
ENDBRANCH  30  31
ENDBRANCH  29  30
ENDBRANCH  28  29
ENDBRANCH  27  28
ENDBRANCH   1  27
TORSDOF 25
ENDMDL
