MODEL 1
REMARK VINA RESULT:      -9.7      0.000      0.000
REMARK SMILES COc1ccc(N2C(=O)/C(=C/c3c(C(=O)OCCOCCOCCOCCOC(=O)c4ccc(-c5c6nc(c(-c7ccccc7)c7ccc([nH]7)c(-c7ccccc7)c7nc(c(-c8ccccc8)c8ccc5[nH]8)C=C7)C=C6)cc4)[nH]c4cc(OC)ccc34)SC2=S)cc1
REMARK SMILES IDX 21 1 20 2 19 3 18 4 17 5 16 6 14 7 15 8 13 9 12 10 87 11
REMARK SMILES IDX 79 12 80 13 86 14 81 16 85 17 82 18 11 19 7 20 8 21 89 22
REMARK SMILES IDX 9 23 10 24 88 25 90 26 6 27 3 28 4 29 92 30 5 31 91 32 2 33
REMARK SMILES IDX 1 34 83 35 84 36 22 37 23 38 24 39 25 40 26 41 27 42 28 43
REMARK SMILES IDX 29 44 30 45 31 46 32 47 78 48 33 49 77 50 34 51 35 52 36 53
REMARK SMILES IDX 71 54 37 55 76 56 70 57 72 58 38 59 75 60 69 61 68 62 39 64
REMARK SMILES IDX 61 65 46 66 60 67 47 68 50 69 59 70 73 71 48 72 49 73 58 75
REMARK SMILES IDX 74 76 51 77 40 78 41 79 45 80 42 81 44 82 43 83 62 84 63 85
REMARK SMILES IDX 67 86 64 87 66 88 65 89 52 90 53 91 57 92 54 93 56 94 55 95
REMARK H PARENT 79 15 72 63 50 74
REMARK Flexibility Score: inf
ROOT
ATOM      1  C   UNL A   1      38.077  23.032  25.862  1.00  0.00     0.188 C 
ENDROOT
BRANCH   1   2
ATOM      2  C   UNL A   1      36.587  22.713  25.777  1.00  0.00     0.188 C 
BRANCH   2   3
ATOM      3  O   UNL A   1      35.782  23.819  25.358  1.00  0.00    -0.376 OA
BRANCH   3   4
ATOM      4  C   UNL A   1      35.411  23.834  23.976  1.00  0.00     0.202 C 
BRANCH   4   5
ATOM      5  C   UNL A   1      34.605  25.050  23.513  1.00  0.00     0.261 C 
BRANCH   5   6
ATOM      6  O   UNL A   1      34.055  25.732  24.650  1.00  0.00    -0.459 OA
BRANCH   6   7
ATOM      7  C   UNL A   1      33.609  26.987  24.390  1.00  0.00     0.355 C 
ATOM      8  O   UNL A   1      34.322  27.918  24.025  1.00  0.00    -0.244 OA
BRANCH   7   9
ATOM      9  C   UNL A   1      32.166  27.021  24.322  1.00  0.00     0.133 A 
ATOM     10  C   UNL A   1      31.137  26.113  24.054  1.00  0.00     0.016 A 
ATOM     11  C   UNL A   1      29.915  26.877  23.931  1.00  0.00     0.008 A 
ATOM     12  N   UNL A   1      31.580  28.267  24.388  1.00  0.00    -0.348 N 
ATOM     13  C   UNL A   1      30.270  28.223  24.005  1.00  0.00     0.050 A 
ATOM     14  C   UNL A   1      28.560  26.574  23.664  1.00  0.00     0.015 A 
ATOM     15  H   UNL A   1      32.046  29.085  24.675  1.00  0.00     0.167 HD
ATOM     16  C   UNL A   1      29.399  29.272  23.697  1.00  0.00     0.073 A 
ATOM     17  C   UNL A   1      27.651  27.615  23.403  1.00  0.00     0.047 A 
ATOM     18  C   UNL A   1      28.083  28.937  23.388  1.00  0.00     0.120 A 
BRANCH  10  19
ATOM     19  C   UNL A   1      31.262  24.722  23.694  1.00  0.00     0.032 C 
ATOM     20  N   UNL A   1      32.526  21.561  24.906  1.00  0.00    -0.261 N 
ATOM     21  C   UNL A   1      31.942  22.333  23.900  1.00  0.00     0.270 C 
ATOM     22  C   UNL A   1      32.583  22.164  26.158  1.00  0.00     0.152 C 
ATOM     23  O   UNL A   1      31.800  22.044  22.719  1.00  0.00    -0.268 OA
ATOM     24  C   UNL A   1      31.509  23.654  24.468  1.00  0.00     0.081 C 
ATOM     25  S   UNL A   1      31.551  23.586  26.179  1.00  0.00    -0.054 SA
ATOM     26  S   UNL A   1      33.552  21.809  27.479  1.00  0.00    -0.051 S 
BRANCH  20  27
ATOM     27  C   UNL A   1      33.081  20.268  24.642  1.00  0.00     0.051 A 
ATOM     28  C   UNL A   1      34.086  17.634  24.356  1.00  0.00     0.119 A 
ATOM     29  C   UNL A   1      34.949  18.716  24.551  1.00  0.00     0.048 A 
ATOM     30  C   UNL A   1      32.724  17.878  24.245  1.00  0.00     0.048 A 
ATOM     31  C   UNL A   1      34.459  20.027  24.668  1.00  0.00     0.030 A 
ATOM     32  C   UNL A   1      32.231  19.180  24.385  1.00  0.00     0.030 A 
BRANCH  28  33
ATOM     33  O   UNL A   1      34.684  16.408  24.268  1.00  0.00    -0.497 OA
ATOM     34  C   UNL A   1      35.116  15.824  25.493  1.00  0.00     0.278 C 
ENDBRANCH  28  33
ENDBRANCH  20  27
ENDBRANCH  10  19
BRANCH  18  35
ATOM     35  O   UNL A   1      27.259  29.937  22.947  1.00  0.00    -0.497 OA
ATOM     36  C   UNL A   1      27.801  31.221  23.244  1.00  0.00     0.278 C 
ENDBRANCH  18  35
ENDBRANCH   7   9
ENDBRANCH   6   7
ENDBRANCH   5   6
ENDBRANCH   4   5
ENDBRANCH   3   4
ENDBRANCH   2   3
ENDBRANCH   1   2
BRANCH   1  37
ATOM     37  O   UNL A   1      38.407  24.425  25.886  1.00  0.00    -0.377 OA
BRANCH  37  38
ATOM     38  C   UNL A   1      39.217  24.891  26.957  1.00  0.00     0.188 C 
BRANCH  38  39
ATOM     39  C   UNL A   1      40.195  23.895  27.604  1.00  0.00     0.188 C 
BRANCH  39  40
ATOM     40  O   UNL A   1      41.333  24.487  28.211  1.00  0.00    -0.376 OA
BRANCH  40  41
ATOM     41  C   UNL A   1      42.383  23.581  28.550  1.00  0.00     0.202 C 
BRANCH  41  42
ATOM     42  C   UNL A   1      43.317  23.191  27.392  1.00  0.00     0.261 C 
BRANCH  42  43
ATOM     43  O   UNL A   1      44.669  22.895  27.780  1.00  0.00    -0.460 OA
BRANCH  43  44
ATOM     44  C   UNL A   1      45.615  23.003  26.824  1.00  0.00     0.338 C 
ATOM     45  O   UNL A   1      45.962  22.158  26.021  1.00  0.00    -0.246 OA
BRANCH  44  46
ATOM     46  C   UNL A   1      46.057  24.407  26.791  1.00  0.00     0.060 A 
ATOM     47  C   UNL A   1      45.991  25.103  25.578  1.00  0.00     0.016 A 
ATOM     48  C   UNL A   1      46.550  25.023  27.945  1.00  0.00     0.016 A 
ATOM     49  C   UNL A   1      46.437  26.421  25.515  1.00  0.00     0.010 A 
ATOM     50  C   UNL A   1      47.028  26.332  27.871  1.00  0.00     0.010 A 
ATOM     51  C   UNL A   1      46.993  27.026  26.653  1.00  0.00    -0.014 A 
BRANCH  51  52
ATOM     52  C   UNL A   1      47.675  28.332  26.519  1.00  0.00     0.031 A 
ATOM     53  C   UNL A   1      49.133  28.348  26.165  1.00  0.00     0.074 A 
ATOM     54  C   UNL A   1      47.001  29.482  26.688  1.00  0.00     0.049 A 
ATOM     55  N   UNL A   1      49.921  29.368  25.943  1.00  0.00    -0.248 NA
ATOM     56  C   UNL A   1      49.794  27.037  26.061  1.00  0.00     0.031 C 
ATOM     57  C   UNL A   1      45.583  29.582  27.023  1.00  0.00     0.029 A 
ATOM     58  N   UNL A   1      47.410  30.784  26.552  1.00  0.00    -0.354 N 
ATOM     59  C   UNL A   1      51.180  28.825  25.726  1.00  0.00     0.074 A 
ATOM     60  C   UNL A   1      51.045  27.387  25.801  1.00  0.00     0.031 C 
ATOM     61  C   UNL A   1      45.218  30.874  26.973  1.00  0.00     0.029 A 
ATOM     62  C   UNL A   1      46.380  31.691  26.636  1.00  0.00     0.049 A 
ATOM     63  H   UNL A   1      48.349  31.043  26.407  1.00  0.00     0.167 HD
ATOM     64  C   UNL A   1      52.353  29.471  25.529  1.00  0.00     0.031 A 
ATOM     65  C   UNL A   1      46.381  33.022  26.431  1.00  0.00     0.031 A 
ATOM     66  C   UNL A   1      52.490  30.900  25.484  1.00  0.00     0.049 A 
ATOM     67  C   UNL A   1      47.690  33.712  26.151  1.00  0.00     0.074 A 
ATOM     68  C   UNL A   1      53.640  31.654  25.338  1.00  0.00     0.029 A 
ATOM     69  N   UNL A   1      51.434  31.791  25.595  1.00  0.00    -0.354 N 
ATOM     70  N   UNL A   1      48.875  33.192  25.944  1.00  0.00    -0.248 NA
ATOM     71  C   UNL A   1      47.663  35.183  26.116  1.00  0.00     0.031 C 
ATOM     72  C   UNL A   1      53.284  33.007  25.400  1.00  0.00     0.029 A 
ATOM     73  C   UNL A   1      51.908  33.090  25.546  1.00  0.00     0.049 A 
ATOM     74  H   UNL A   1      50.488  31.537  25.693  1.00  0.00     0.167 HD
ATOM     75  C   UNL A   1      49.739  34.268  25.786  1.00  0.00     0.074 A 
ATOM     76  C   UNL A   1      48.931  35.469  25.855  1.00  0.00     0.031 C 
ATOM     77  C   UNL A   1      51.085  34.266  25.636  1.00  0.00     0.031 A 
BRANCH  64  78
ATOM     78  C   UNL A   1      53.586  28.622  25.454  1.00  0.00    -0.014 A 
ATOM     79  C   UNL A   1      54.080  28.145  24.231  1.00  0.00     0.009 A 
ATOM     80  C   UNL A   1      54.249  28.275  26.641  1.00  0.00     0.009 A 
ATOM     81  C   UNL A   1      55.199  27.309  24.204  1.00  0.00     0.001 A 
ATOM     82  C   UNL A   1      55.377  27.456  26.610  1.00  0.00     0.001 A 
ATOM     83  C   UNL A   1      55.846  26.966  25.392  1.00  0.00     0.000 A 
ENDBRANCH  64  78
BRANCH  65  84
ATOM     84  C   UNL A   1      45.109  33.795  26.438  1.00  0.00    -0.014 A 
ATOM     85  C   UNL A   1      44.363  33.909  25.253  1.00  0.00     0.009 A 
ATOM     86  C   UNL A   1      44.630  34.426  27.594  1.00  0.00     0.009 A 
ATOM     87  C   UNL A   1      43.173  34.637  25.222  1.00  0.00     0.001 A 
ATOM     88  C   UNL A   1      43.423  35.132  27.569  1.00  0.00     0.001 A 
ATOM     89  C   UNL A   1      42.697  35.240  26.384  1.00  0.00     0.000 A 
ENDBRANCH  65  84
BRANCH  77  90
ATOM     90  C   UNL A   1      51.766  35.603  25.593  1.00  0.00    -0.014 A 
ATOM     91  C   UNL A   1      52.144  36.243  26.784  1.00  0.00     0.009 A 
ATOM     92  C   UNL A   1      52.080  36.202  24.366  1.00  0.00     0.009 A 
ATOM     93  C   UNL A   1      52.800  37.473  26.747  1.00  0.00     0.001 A 
ATOM     94  C   UNL A   1      52.755  37.423  24.331  1.00  0.00     0.001 A 
ATOM     95  C   UNL A   1      53.109  38.060  25.521  1.00  0.00     0.000 A 
ENDBRANCH  77  90
ENDBRANCH  51  52
ENDBRANCH  44  46
ENDBRANCH  43  44
ENDBRANCH  42  43
ENDBRANCH  41  42
ENDBRANCH  40  41
ENDBRANCH  39  40
ENDBRANCH  38  39
ENDBRANCH  37  38
ENDBRANCH   1  37
TORSDOF 24
ENDMDL
MODEL 2
REMARK VINA RESULT:      -8.4      7.717     11.062
REMARK SMILES COc1ccc(N2C(=O)/C(=C/c3c(C(=O)OCCOCCOCCOCCOC(=O)c4ccc(-c5c6nc(c(-c7ccccc7)c7ccc([nH]7)c(-c7ccccc7)c7nc(c(-c8ccccc8)c8ccc5[nH]8)C=C7)C=C6)cc4)[nH]c4cc(OC)ccc34)SC2=S)cc1
REMARK SMILES IDX 21 1 20 2 19 3 18 4 17 5 16 6 14 7 15 8 13 9 12 10 87 11
REMARK SMILES IDX 79 12 80 13 86 14 81 16 85 17 82 18 11 19 7 20 8 21 89 22
REMARK SMILES IDX 9 23 10 24 88 25 90 26 6 27 3 28 4 29 92 30 5 31 91 32 2 33
REMARK SMILES IDX 1 34 83 35 84 36 22 37 23 38 24 39 25 40 26 41 27 42 28 43
REMARK SMILES IDX 29 44 30 45 31 46 32 47 78 48 33 49 77 50 34 51 35 52 36 53
REMARK SMILES IDX 71 54 37 55 76 56 70 57 72 58 38 59 75 60 69 61 68 62 39 64
REMARK SMILES IDX 61 65 46 66 60 67 47 68 50 69 59 70 73 71 48 72 49 73 58 75
REMARK SMILES IDX 74 76 51 77 40 78 41 79 45 80 42 81 44 82 43 83 62 84 63 85
REMARK SMILES IDX 67 86 64 87 66 88 65 89 52 90 53 91 57 92 54 93 56 94 55 95
REMARK H PARENT 79 15 72 63 50 74
REMARK Flexibility Score: inf
ROOT
ATOM      1  C   UNL A   1      37.421  23.022  25.624  1.00  0.00     0.188 C 
ENDROOT
BRANCH   1   2
ATOM      2  C   UNL A   1      36.035  23.337  26.179  1.00  0.00     0.188 C 
BRANCH   2   3
ATOM      3  O   UNL A   1      35.198  24.058  25.268  1.00  0.00    -0.376 OA
BRANCH   3   4
ATOM      4  C   UNL A   1      35.165  23.563  23.926  1.00  0.00     0.202 C 
BRANCH   4   5
ATOM      5  C   UNL A   1      34.610  24.525  22.872  1.00  0.00     0.261 C 
BRANCH   5   6
ATOM      6  O   UNL A   1      34.306  25.790  23.479  1.00  0.00    -0.459 OA
BRANCH   6   7
ATOM      7  C   UNL A   1      33.555  26.616  22.708  1.00  0.00     0.355 C 
ATOM      8  O   UNL A   1      33.925  27.102  21.643  1.00  0.00    -0.244 OA
BRANCH   7   9
ATOM      9  C   UNL A   1      32.179  26.628  23.149  1.00  0.00     0.133 A 
ATOM     10  C   UNL A   1      31.191  25.681  23.432  1.00  0.00     0.016 A 
ATOM     11  C   UNL A   1      29.949  26.399  23.609  1.00  0.00     0.008 A 
ATOM     12  N   UNL A   1      31.561  27.860  23.187  1.00  0.00    -0.348 N 
ATOM     13  C   UNL A   1      30.206  27.734  23.306  1.00  0.00     0.050 A 
ATOM     14  C   UNL A   1      28.611  26.041  23.898  1.00  0.00     0.015 A 
ATOM     15  H   UNL A   1      32.035  28.722  23.137  1.00  0.00     0.167 HD
ATOM     16  C   UNL A   1      29.206  28.697  23.138  1.00  0.00     0.073 A 
ATOM     17  C   UNL A   1      27.593  27.006  23.788  1.00  0.00     0.047 A 
ATOM     18  C   UNL A   1      27.894  28.301  23.379  1.00  0.00     0.120 A 
BRANCH  10  19
ATOM     19  C   UNL A   1      31.288  24.246  23.313  1.00  0.00     0.032 C 
ATOM     20  N   UNL A   1      32.413  21.303  25.081  1.00  0.00    -0.261 N 
ATOM     21  C   UNL A   1      31.889  21.910  23.938  1.00  0.00     0.270 C 
ATOM     22  C   UNL A   1      32.444  22.105  26.217  1.00  0.00     0.152 C 
ATOM     23  O   UNL A   1      31.781  21.432  22.816  1.00  0.00    -0.268 OA
ATOM     24  C   UNL A   1      31.475  23.316  24.262  1.00  0.00     0.081 C 
ATOM     25  S   UNL A   1      31.454  23.534  25.961  1.00  0.00    -0.054 SA
ATOM     26  S   UNL A   1      33.354  21.952  27.617  1.00  0.00    -0.051 S 
BRANCH  20  27
ATOM     27  C   UNL A   1      32.939  19.971  25.058  1.00  0.00     0.051 A 
ATOM     28  C   UNL A   1      33.946  17.341  24.749  1.00  0.00     0.119 A 
ATOM     29  C   UNL A   1      32.707  17.570  25.354  1.00  0.00     0.048 A 
ATOM     30  C   UNL A   1      34.707  18.431  24.351  1.00  0.00     0.048 A 
ATOM     31  C   UNL A   1      32.214  18.874  25.533  1.00  0.00     0.030 A 
ATOM     32  C   UNL A   1      34.208  19.729  24.507  1.00  0.00     0.030 A 
BRANCH  28  33
ATOM     33  O   UNL A   1      34.309  16.029  24.622  1.00  0.00    -0.497 OA
ATOM     34  C   UNL A   1      35.469  15.619  25.338  1.00  0.00     0.278 C 
ENDBRANCH  28  33
ENDBRANCH  20  27
ENDBRANCH  10  19
BRANCH  18  35
ATOM     35  O   UNL A   1      26.896  29.190  23.082  1.00  0.00    -0.497 OA
ATOM     36  C   UNL A   1      27.412  30.507  22.912  1.00  0.00     0.278 C 
ENDBRANCH  18  35
ENDBRANCH   7   9
ENDBRANCH   6   7
ENDBRANCH   5   6
ENDBRANCH   4   5
ENDBRANCH   3   4
ENDBRANCH   2   3
ENDBRANCH   1   2
BRANCH   1  37
ATOM     37  O   UNL A   1      38.331  24.126  25.577  1.00  0.00    -0.377 OA
BRANCH  37  38
ATOM     38  C   UNL A   1      38.993  24.484  26.783  1.00  0.00     0.188 C 
BRANCH  38  39
ATOM     39  C   UNL A   1      40.114  25.536  26.702  1.00  0.00     0.188 C 
BRANCH  39  40
ATOM     40  O   UNL A   1      41.044  25.498  27.772  1.00  0.00    -0.376 OA
BRANCH  40  41
ATOM     41  C   UNL A   1      41.104  26.681  28.569  1.00  0.00     0.202 C 
BRANCH  41  42
ATOM     42  C   UNL A   1      39.913  27.640  28.416  1.00  0.00     0.261 C 
BRANCH  42  43
ATOM     43  O   UNL A   1      40.130  28.962  28.938  1.00  0.00    -0.460 OA
BRANCH  43  44
ATOM     44  C   UNL A   1      39.555  29.252  30.123  1.00  0.00     0.338 C 
ATOM     45  O   UNL A   1      38.405  29.591  30.331  1.00  0.00    -0.246 OA
BRANCH  44  46
ATOM     46  C   UNL A   1      40.522  28.917  31.181  1.00  0.00     0.060 A 
ATOM     47  C   UNL A   1      40.055  28.296  32.346  1.00  0.00     0.016 A 
ATOM     48  C   UNL A   1      41.876  29.230  31.030  1.00  0.00     0.016 A 
ATOM     49  C   UNL A   1      40.946  28.002  33.375  1.00  0.00     0.010 A 
ATOM     50  C   UNL A   1      42.761  28.966  32.077  1.00  0.00     0.010 A 
ATOM     51  C   UNL A   1      42.295  28.372  33.259  1.00  0.00    -0.014 A 
BRANCH  51  52
ATOM     52  C   UNL A   1      43.179  28.271  34.441  1.00  0.00     0.031 A 
ATOM     53  C   UNL A   1      43.153  29.378  35.453  1.00  0.00     0.074 A 
ATOM     54  C   UNL A   1      43.972  27.201  34.619  1.00  0.00     0.049 A 
ATOM     55  N   UNL A   1      43.797  29.479  36.587  1.00  0.00    -0.248 NA
ATOM     56  C   UNL A   1      42.296  30.533  35.137  1.00  0.00     0.031 C 
ATOM     57  C   UNL A   1      44.068  26.067  33.705  1.00  0.00     0.029 A 
ATOM     58  N   UNL A   1      44.810  26.875  35.654  1.00  0.00    -0.354 N 
ATOM     59  C   UNL A   1      43.465  30.728  37.093  1.00  0.00     0.074 A 
ATOM     60  C   UNL A   1      42.532  31.332  36.167  1.00  0.00     0.031 C 
ATOM     61  C   UNL A   1      44.845  25.124  34.266  1.00  0.00     0.029 A 
ATOM     62  C   UNL A   1      45.325  25.603  35.558  1.00  0.00     0.049 A 
ATOM     63  H   UNL A   1      45.021  27.490  36.393  1.00  0.00     0.167 HD
ATOM     64  C   UNL A   1      43.933  31.336  38.207  1.00  0.00     0.031 A 
ATOM     65  C   UNL A   1      46.071  24.904  36.435  1.00  0.00     0.031 A 
ATOM     66  C   UNL A   1      44.882  30.748  39.111  1.00  0.00     0.049 A 
ATOM     67  C   UNL A   1      46.530  25.582  37.700  1.00  0.00     0.074 A 
ATOM     68  C   UNL A   1      45.456  31.300  40.242  1.00  0.00     0.029 A 
ATOM     69  N   UNL A   1      45.402  29.470  38.976  1.00  0.00    -0.354 N 
ATOM     70  N   UNL A   1      46.209  26.762  38.172  1.00  0.00    -0.248 NA
ATOM     71  C   UNL A   1      47.489  24.839  38.533  1.00  0.00     0.031 C 
ATOM     72  C   UNL A   1      46.357  30.367  40.771  1.00  0.00     0.029 A 
ATOM     73  C   UNL A   1      46.311  29.223  39.989  1.00  0.00     0.049 A 
ATOM     74  H   UNL A   1      45.159  28.834  38.266  1.00  0.00     0.167 HD
ATOM     75  C   UNL A   1      46.948  26.916  39.338  1.00  0.00     0.074 A 
ATOM     76  C   UNL A   1      47.683  25.683  39.537  1.00  0.00     0.031 C 
ATOM     77  C   UNL A   1      47.042  27.995  40.152  1.00  0.00     0.031 A 
BRANCH  64  78
ATOM     78  C   UNL A   1      43.494  32.752  38.438  1.00  0.00    -0.014 A 
ATOM     79  C   UNL A   1      44.207  33.840  37.915  1.00  0.00     0.009 A 
ATOM     80  C   UNL A   1      42.353  32.993  39.219  1.00  0.00     0.009 A 
ATOM     81  C   UNL A   1      43.802  35.146  38.197  1.00  0.00     0.001 A 
ATOM     82  C   UNL A   1      41.939  34.298  39.483  1.00  0.00     0.001 A 
ATOM     83  C   UNL A   1      42.669  35.374  38.980  1.00  0.00     0.000 A 
ENDBRANCH  64  78
BRANCH  65  84
ATOM     84  C   UNL A   1      46.403  23.475  36.185  1.00  0.00    -0.014 A 
ATOM     85  C   UNL A   1      45.587  22.470  36.729  1.00  0.00     0.009 A 
ATOM     86  C   UNL A   1      47.518  23.094  35.424  1.00  0.00     0.009 A 
ATOM     87  C   UNL A   1      45.877  21.121  36.523  1.00  0.00     0.001 A 
ATOM     88  C   UNL A   1      47.792  21.742  35.195  1.00  0.00     0.001 A 
ATOM     89  C   UNL A   1      46.975  20.757  35.747  1.00  0.00     0.000 A 
ENDBRANCH  65  84
BRANCH  77  90
ATOM     90  C   UNL A   1      48.012  27.903  41.294  1.00  0.00    -0.014 A 
ATOM     91  C   UNL A   1      49.380  28.138  41.080  1.00  0.00     0.009 A 
ATOM     92  C   UNL A   1      47.558  27.635  42.592  1.00  0.00     0.009 A 
ATOM     93  C   UNL A   1      50.280  28.079  42.144  1.00  0.00     0.001 A 
ATOM     94  C   UNL A   1      48.459  27.598  43.658  1.00  0.00     0.001 A 
ATOM     95  C   UNL A   1      49.819  27.814  43.432  1.00  0.00     0.000 A 
ENDBRANCH  77  90
ENDBRANCH  51  52
ENDBRANCH  44  46
ENDBRANCH  43  44
ENDBRANCH  42  43
ENDBRANCH  41  42
ENDBRANCH  40  41
ENDBRANCH  39  40
ENDBRANCH  38  39
ENDBRANCH  37  38
ENDBRANCH   1  37
TORSDOF 24
ENDMDL
MODEL 3
REMARK VINA RESULT:      -8.3      7.936     16.248
REMARK SMILES COc1ccc(N2C(=O)/C(=C/c3c(C(=O)OCCOCCOCCOCCOC(=O)c4ccc(-c5c6nc(c(-c7ccccc7)c7ccc([nH]7)c(-c7ccccc7)c7nc(c(-c8ccccc8)c8ccc5[nH]8)C=C7)C=C6)cc4)[nH]c4cc(OC)ccc34)SC2=S)cc1
REMARK SMILES IDX 21 1 20 2 19 3 18 4 17 5 16 6 14 7 15 8 13 9 12 10 87 11
REMARK SMILES IDX 79 12 80 13 86 14 81 16 85 17 82 18 11 19 7 20 8 21 89 22
REMARK SMILES IDX 9 23 10 24 88 25 90 26 6 27 3 28 4 29 92 30 5 31 91 32 2 33
REMARK SMILES IDX 1 34 83 35 84 36 22 37 23 38 24 39 25 40 26 41 27 42 28 43
REMARK SMILES IDX 29 44 30 45 31 46 32 47 78 48 33 49 77 50 34 51 35 52 36 53
REMARK SMILES IDX 71 54 37 55 76 56 70 57 72 58 38 59 75 60 69 61 68 62 39 64
REMARK SMILES IDX 61 65 46 66 60 67 47 68 50 69 59 70 73 71 48 72 49 73 58 75
REMARK SMILES IDX 74 76 51 77 40 78 41 79 45 80 42 81 44 82 43 83 62 84 63 85
REMARK SMILES IDX 67 86 64 87 66 88 65 89 52 90 53 91 57 92 54 93 56 94 55 95
REMARK H PARENT 79 15 72 63 50 74
REMARK Flexibility Score: inf
ROOT
ATOM      1  C   UNL A   1      36.991  34.068  33.090  1.00  0.00     0.188 C 
ENDROOT
BRANCH   1   2
ATOM      2  C   UNL A   1      38.426  34.514  32.822  1.00  0.00     0.188 C 
BRANCH   2   3
ATOM      3  O   UNL A   1      38.922  34.129  31.537  1.00  0.00    -0.376 OA
BRANCH   3   4
ATOM      4  C   UNL A   1      40.245  34.571  31.220  1.00  0.00     0.202 C 
BRANCH   4   5
ATOM      5  C   UNL A   1      40.749  34.221  29.817  1.00  0.00     0.261 C 
BRANCH   5   6
ATOM      6  O   UNL A   1      41.534  35.304  29.297  1.00  0.00    -0.459 OA
BRANCH   6   7
ATOM      7  C   UNL A   1      42.853  35.022  29.152  1.00  0.00     0.355 C 
ATOM      8  O   UNL A   1      43.334  34.409  28.203  1.00  0.00    -0.244 OA
BRANCH   7   9
ATOM      9  C   UNL A   1      43.651  35.769  30.098  1.00  0.00     0.133 A 
ATOM     10  C   UNL A   1      43.936  37.113  30.353  1.00  0.00     0.016 A 
ATOM     11  C   UNL A   1      45.007  37.145  31.324  1.00  0.00     0.008 A 
ATOM     12  N   UNL A   1      44.491  35.031  30.904  1.00  0.00    -0.348 N 
ATOM     13  C   UNL A   1      45.411  35.827  31.525  1.00  0.00     0.050 A 
ATOM     14  C   UNL A   1      45.743  38.160  31.978  1.00  0.00     0.015 A 
ATOM     15  H   UNL A   1      44.436  34.055  31.019  1.00  0.00     0.167 HD
ATOM     16  C   UNL A   1      46.572  35.470  32.217  1.00  0.00     0.073 A 
ATOM     17  C   UNL A   1      46.886  37.821  32.725  1.00  0.00     0.047 A 
ATOM     18  C   UNL A   1      47.304  36.497  32.806  1.00  0.00     0.120 A 
BRANCH  10  19
ATOM     19  C   UNL A   1      43.471  38.266  29.620  1.00  0.00     0.032 C 
ATOM     20  N   UNL A   1      44.283  40.373  26.799  1.00  0.00    -0.261 N 
ATOM     21  C   UNL A   1      43.486  40.075  27.906  1.00  0.00     0.270 C 
ATOM     22  C   UNL A   1      45.156  39.362  26.408  1.00  0.00     0.152 C 
ATOM     23  O   UNL A   1      42.668  40.798  28.459  1.00  0.00    -0.268 OA
ATOM     24  C   UNL A   1      43.795  38.687  28.388  1.00  0.00     0.081 C 
ATOM     25  S   UNL A   1      44.719  37.860  27.206  1.00  0.00    -0.054 SA
ATOM     26  S   UNL A   1      46.541  39.443  25.467  1.00  0.00    -0.051 S 
BRANCH  20  27
ATOM     27  C   UNL A   1      44.242  41.653  26.159  1.00  0.00     0.051 A 
ATOM     28  C   UNL A   1      44.288  44.075  24.690  1.00  0.00     0.119 A 
ATOM     29  C   UNL A   1      45.072  43.914  25.835  1.00  0.00     0.048 A 
ATOM     30  C   UNL A   1      43.436  43.045  24.313  1.00  0.00     0.048 A 
ATOM     31  C   UNL A   1      45.034  42.725  26.583  1.00  0.00     0.030 A 
ATOM     32  C   UNL A   1      43.415  41.851  25.042  1.00  0.00     0.030 A 
BRANCH  28  33
ATOM     33  O   UNL A   1      44.422  45.272  24.044  1.00  0.00    -0.497 OA
ATOM     34  C   UNL A   1      45.484  45.369  23.100  1.00  0.00     0.278 C 
ENDBRANCH  28  33
ENDBRANCH  20  27
ENDBRANCH  10  19
BRANCH  18  35
ATOM     35  O   UNL A   1      48.513  36.178  33.363  1.00  0.00    -0.497 OA
ATOM     36  C   UNL A   1      48.348  35.470  34.587  1.00  0.00     0.278 C 
ENDBRANCH  18  35
ENDBRANCH   7   9
ENDBRANCH   6   7
ENDBRANCH   5   6
ENDBRANCH   4   5
ENDBRANCH   3   4
ENDBRANCH   2   3
ENDBRANCH   1   2
BRANCH   1  37
ATOM     37  O   UNL A   1      36.168  35.018  33.775  1.00  0.00    -0.377 OA
BRANCH  37  38
ATOM     38  C   UNL A   1      34.787  35.052  33.444  1.00  0.00     0.188 C 
BRANCH  38  39
ATOM     39  C   UNL A   1      34.289  34.102  32.341  1.00  0.00     0.188 C 
BRANCH  39  40
ATOM     40  O   UNL A   1      33.562  34.729  31.297  1.00  0.00    -0.376 OA
BRANCH  40  41
ATOM     41  C   UNL A   1      34.021  34.442  29.976  1.00  0.00     0.202 C 
BRANCH  41  42
ATOM     42  C   UNL A   1      34.693  33.070  29.796  1.00  0.00     0.261 C 
BRANCH  42  43
ATOM     43  O   UNL A   1      34.766  32.607  28.437  1.00  0.00    -0.460 OA
BRANCH  43  44
ATOM     44  C   UNL A   1      34.555  31.291  28.229  1.00  0.00     0.338 C 
ATOM     45  O   UNL A   1      33.561  30.760  27.770  1.00  0.00    -0.246 OA
BRANCH  44  46
ATOM     46  C   UNL A   1      35.821  30.588  28.493  1.00  0.00     0.060 A 
ATOM     47  C   UNL A   1      35.913  29.776  29.630  1.00  0.00     0.016 A 
ATOM     48  C   UNL A   1      36.912  30.745  27.634  1.00  0.00     0.016 A 
ATOM     49  C   UNL A   1      37.113  29.129  29.919  1.00  0.00     0.010 A 
ATOM     50  C   UNL A   1      38.123  30.124  27.944  1.00  0.00     0.010 A 
ATOM     51  C   UNL A   1      38.232  29.334  29.098  1.00  0.00    -0.014 A 
BRANCH  51  52
ATOM     52  C   UNL A   1      39.555  28.837  29.539  1.00  0.00     0.031 A 
ATOM     53  C   UNL A   1      40.237  29.531  30.681  1.00  0.00     0.074 A 
ATOM     54  C   UNL A   1      40.124  27.774  28.946  1.00  0.00     0.049 A 
ATOM     55  N   UNL A   1      41.368  29.240  31.269  1.00  0.00    -0.248 NA
ATOM     56  C   UNL A   1      39.560  30.721  31.222  1.00  0.00     0.031 C 
ATOM     57  C   UNL A   1      39.545  27.021  27.838  1.00  0.00     0.029 A 
ATOM     58  N   UNL A   1      41.294  27.116  29.229  1.00  0.00    -0.354 N 
ATOM     59  C   UNL A   1      41.564  30.240  32.213  1.00  0.00     0.074 A 
ATOM     60  C   UNL A   1      40.418  31.120  32.148  1.00  0.00     0.031 C 
ATOM     61  C   UNL A   1      40.315  25.947  27.596  1.00  0.00     0.029 A 
ATOM     62  C   UNL A   1      41.454  25.956  28.508  1.00  0.00     0.049 A 
ATOM     63  H   UNL A   1      41.952  27.442  29.884  1.00  0.00     0.167 HD
ATOM     64  C   UNL A   1      42.627  30.431  33.028  1.00  0.00     0.031 A 
ATOM     65  C   UNL A   1      42.400  25.002  28.605  1.00  0.00     0.031 A 
ATOM     66  C   UNL A   1      43.777  29.573  33.070  1.00  0.00     0.049 A 
ATOM     67  C   UNL A   1      43.543  25.208  29.565  1.00  0.00     0.074 A 
ATOM     68  C   UNL A   1      44.928  29.706  33.825  1.00  0.00     0.029 A 
ATOM     69  N   UNL A   1      43.922  28.420  32.314  1.00  0.00    -0.354 N 
ATOM     70  N   UNL A   1      43.719  26.154  30.455  1.00  0.00    -0.248 NA
ATOM     71  C   UNL A   1      44.639  24.228  29.501  1.00  0.00     0.031 C 
ATOM     72  C   UNL A   1      45.789  28.652  33.495  1.00  0.00     0.029 A 
ATOM     73  C   UNL A   1      45.154  27.845  32.564  1.00  0.00     0.049 A 
ATOM     74  H   UNL A   1      43.247  28.064  31.692  1.00  0.00     0.167 HD
ATOM     75  C   UNL A   1      44.956  25.903  31.035  1.00  0.00     0.074 A 
ATOM     76  C   UNL A   1      45.457  24.679  30.442  1.00  0.00     0.031 C 
ATOM     77  C   UNL A   1      45.636  26.638  31.947  1.00  0.00     0.031 A 
BRANCH  64  78
ATOM     78  C   UNL A   1      42.623  31.680  33.857  1.00  0.00    -0.014 A 
ATOM     79  C   UNL A   1      43.164  32.883  33.382  1.00  0.00     0.009 A 
ATOM     80  C   UNL A   1      42.087  31.637  35.154  1.00  0.00     0.009 A 
ATOM     81  C   UNL A   1      43.195  34.013  34.203  1.00  0.00     0.001 A 
ATOM     82  C   UNL A   1      42.102  32.771  35.965  1.00  0.00     0.001 A 
ATOM     83  C   UNL A   1      42.664  33.956  35.493  1.00  0.00     0.000 A 
ENDBRANCH  64  78
BRANCH  65  84
ATOM     84  C   UNL A   1      42.301  23.746  27.812  1.00  0.00    -0.014 A 
ATOM     85  C   UNL A   1      42.522  23.785  26.426  1.00  0.00     0.009 A 
ATOM     86  C   UNL A   1      41.982  22.517  28.406  1.00  0.00     0.009 A 
ATOM     87  C   UNL A   1      42.425  22.627  25.652  1.00  0.00     0.001 A 
ATOM     88  C   UNL A   1      41.912  21.353  27.634  1.00  0.00     0.001 A 
ATOM     89  C   UNL A   1      42.129  21.409  26.258  1.00  0.00     0.000 A 
ENDBRANCH  65  84
BRANCH  77  90
ATOM     90  C   UNL A   1      47.012  26.165  32.313  1.00  0.00    -0.014 A 
ATOM     91  C   UNL A   1      48.141  26.730  31.698  1.00  0.00     0.009 A 
ATOM     92  C   UNL A   1      47.190  25.194  33.307  1.00  0.00     0.009 A 
ATOM     93  C   UNL A   1      49.423  26.311  32.054  1.00  0.00     0.001 A 
ATOM     94  C   UNL A   1      48.474  24.791  33.677  1.00  0.00     0.001 A 
ATOM     95  C   UNL A   1      49.588  25.346  33.046  1.00  0.00     0.000 A 
ENDBRANCH  77  90
ENDBRANCH  51  52
ENDBRANCH  44  46
ENDBRANCH  43  44
ENDBRANCH  42  43
ENDBRANCH  41  42
ENDBRANCH  40  41
ENDBRANCH  39  40
ENDBRANCH  38  39
ENDBRANCH  37  38
ENDBRANCH   1  37
TORSDOF 24
ENDMDL
