MODEL 1
REMARK VINA RESULT:      -9.2      0.000      0.000
REMARK SMILES CC(C)CCc1cc2c(cc1Cl)C=C(C(=O)OCCOCCOCCOCCOC(=O)c1ccc(-c3c4nc(c(-c5ccccc5)c5ccc([nH]5)c(-c5ccccc5)c5nc(c(-c6ccccc6)c6ccc3[nH]6)C=C5)C=C4)cc1)[C@@H](C(F)(F)F)O2
REMARK SMILES IDX 22 1 21 2 20 3 19 4 18 5 17 6 15 7 16 8 14 9 6 10 7 11 11 12
REMARK SMILES IDX 8 13 10 14 12 15 9 16 85 17 13 18 80 19 5 20 4 21 2 22 1 23
REMARK SMILES IDX 3 24 81 25 82 26 83 27 84 28 23 29 24 30 25 31 26 32 27 33
REMARK SMILES IDX 28 34 29 35 30 36 31 37 32 38 33 39 79 40 34 41 78 42 35 43
REMARK SMILES IDX 36 44 37 45 72 46 38 47 77 48 71 49 73 50 39 51 76 52 70 53
REMARK SMILES IDX 69 54 40 56 62 57 47 58 61 59 48 60 51 61 60 62 74 63 49 64
REMARK SMILES IDX 50 65 59 67 75 68 52 69 41 70 42 71 46 72 43 73 45 74 44 75
REMARK SMILES IDX 63 76 64 77 68 78 65 79 67 80 66 81 53 82 54 83 58 84 55 85
REMARK SMILES IDX 57 86 56 87
REMARK H PARENT 73 55 51 66
REMARK Flexibility Score: inf
ROOT
ATOM      1  C   UNL A   1      34.732  24.901  24.679  1.00  0.00     0.188 C 
ENDROOT
BRANCH   1   2
ATOM      2  C   UNL A   1      34.387  26.209  25.414  1.00  0.00     0.188 C 
BRANCH   2   3
ATOM      3  O   UNL A   1      34.040  27.272  24.531  1.00  0.00    -0.376 OA
BRANCH   3   4
ATOM      4  C   UNL A   1      33.419  28.418  25.099  1.00  0.00     0.202 C 
BRANCH   4   5
ATOM      5  C   UNL A   1      32.090  28.877  24.475  1.00  0.00     0.261 C 
BRANCH   5   6
ATOM      6  O   UNL A   1      30.956  28.053  24.787  1.00  0.00    -0.460 OA
BRANCH   6   7
ATOM      7  C   UNL A   1      30.420  27.356  23.770  1.00  0.00     0.338 C 
ATOM      8  O   UNL A   1      29.863  27.817  22.787  1.00  0.00    -0.246 OA
BRANCH   7   9
ATOM      9  C   UNL A   1      30.776  25.933  23.937  1.00  0.00     0.087 C 
ATOM     10  C   UNL A   1      32.555  21.601  25.784  1.00  0.00    -0.026 A 
ATOM     11  C   UNL A   1      32.081  22.026  24.514  1.00  0.00     0.052 A 
ATOM     12  C   UNL A   1      32.397  22.496  26.856  1.00  0.00     0.045 A 
ATOM     13  C   UNL A   1      31.530  23.296  24.315  1.00  0.00     0.128 A 
ATOM     14  C   UNL A   1      31.777  23.736  26.665  1.00  0.00     0.032 A 
ATOM     15  Cl  UNL A   1      33.007  22.259  28.452  1.00  0.00    -0.084 Cl
ATOM     16  C   UNL A   1      31.391  24.156  25.395  1.00  0.00     0.019 A 
ATOM     17  O   UNL A   1      31.178  23.630  23.039  1.00  0.00    -0.475 OA
ATOM     18  C   UNL A   1      30.953  25.521  25.197  1.00  0.00     0.027 C 
ATOM     19  C   UNL A   1      30.889  25.029  22.737  1.00  0.00     0.316 C 
BRANCH  10  20
ATOM     20  C   UNL A   1      33.295  20.273  25.783  1.00  0.00     0.037 C 
BRANCH  20  21
ATOM     21  C   UNL A   1      34.218  19.840  24.638  1.00  0.00     0.008 C 
BRANCH  21  22
ATOM     22  C   UNL A   1      33.843  18.508  23.960  1.00  0.00    -0.017 C 
ATOM     23  C   UNL A   1      34.494  17.316  24.658  1.00  0.00     0.007 C 
ATOM     24  C   UNL A   1      32.321  18.338  23.953  1.00  0.00     0.007 C 
ENDBRANCH  21  22
ENDBRANCH  20  21
ENDBRANCH  10  20
BRANCH  19  25
ATOM     25  C   UNL A   1      31.925  25.548  21.731  1.00  0.00     0.430 C 
ATOM     26  F   UNL A   1      32.707  24.546  21.265  1.00  0.00    -0.167 F 
ATOM     27  F   UNL A   1      31.338  26.116  20.652  1.00  0.00    -0.167 F 
ATOM     28  F   UNL A   1      32.740  26.477  22.281  1.00  0.00    -0.167 F 
ENDBRANCH  19  25
ENDBRANCH   7   9
ENDBRANCH   6   7
ENDBRANCH   5   6
ENDBRANCH   4   5
ENDBRANCH   3   4
ENDBRANCH   2   3
ENDBRANCH   1   2
BRANCH   1  29
ATOM     29  O   UNL A   1      35.428  23.967  25.487  1.00  0.00    -0.377 OA
BRANCH  29  30
ATOM     30  C   UNL A   1      36.661  23.442  24.995  1.00  0.00     0.188 C 
BRANCH  30  31
ATOM     31  C   UNL A   1      37.778  22.922  25.931  1.00  0.00     0.188 C 
BRANCH  31  32
ATOM     32  O   UNL A   1      38.629  21.943  25.343  1.00  0.00    -0.376 OA
BRANCH  32  33
ATOM     33  C   UNL A   1      38.242  20.583  25.489  1.00  0.00     0.202 C 
BRANCH  33  34
ATOM     34  C   UNL A   1      39.354  19.580  25.157  1.00  0.00     0.261 C 
BRANCH  34  35
ATOM     35  O   UNL A   1      40.240  19.276  26.246  1.00  0.00    -0.460 OA
BRANCH  35  36
ATOM     36  C   UNL A   1      41.538  19.631  26.116  1.00  0.00     0.338 C 
ATOM     37  O   UNL A   1      42.420  19.011  25.551  1.00  0.00    -0.246 OA
BRANCH  36  38
ATOM     38  C   UNL A   1      41.666  21.024  26.598  1.00  0.00     0.060 A 
ATOM     39  C   UNL A   1      41.303  21.357  27.905  1.00  0.00     0.016 A 
ATOM     40  C   UNL A   1      42.123  22.011  25.715  1.00  0.00     0.016 A 
ATOM     41  C   UNL A   1      41.446  22.673  28.345  1.00  0.00     0.010 A 
ATOM     42  C   UNL A   1      42.259  23.330  26.154  1.00  0.00     0.010 A 
ATOM     43  C   UNL A   1      41.955  23.661  27.482  1.00  0.00    -0.014 A 
BRANCH  43  44
ATOM     44  C   UNL A   1      42.412  24.953  28.050  1.00  0.00     0.031 A 
ATOM     45  C   UNL A   1      43.848  25.248  28.350  1.00  0.00     0.074 A 
ATOM     46  C   UNL A   1      41.465  25.877  28.298  1.00  0.00     0.049 A 
ATOM     47  N   UNL A   1      44.380  26.381  28.734  1.00  0.00    -0.248 NA
ATOM     48  C   UNL A   1      44.808  24.143  28.214  1.00  0.00     0.031 C 
ATOM     49  C   UNL A   1      40.030  25.679  28.079  1.00  0.00     0.029 A 
ATOM     50  N   UNL A   1      41.559  27.161  28.771  1.00  0.00    -0.354 N 
ATOM     51  C   UNL A   1      45.740  26.138  28.866  1.00  0.00     0.074 A 
ATOM     52  C   UNL A   1      45.945  24.736  28.565  1.00  0.00     0.031 C 
ATOM     53  C   UNL A   1      39.382  26.813  28.383  1.00  0.00     0.029 A 
ATOM     54  C   UNL A   1      40.348  27.805  28.841  1.00  0.00     0.049 A 
ATOM     55  H   UNL A   1      42.410  27.578  29.035  1.00  0.00     0.167 HD
ATOM     56  C   UNL A   1      46.721  27.015  29.194  1.00  0.00     0.031 A 
ATOM     57  C   UNL A   1      40.041  29.060  29.216  1.00  0.00     0.031 A 
ATOM     58  C   UNL A   1      46.498  28.403  29.520  1.00  0.00     0.049 A 
ATOM     59  C   UNL A   1      41.145  29.998  29.604  1.00  0.00     0.074 A 
ATOM     60  C   UNL A   1      47.440  29.379  29.804  1.00  0.00     0.029 A 
ATOM     61  N   UNL A   1      45.256  29.011  29.624  1.00  0.00    -0.354 N 
ATOM     62  N   UNL A   1      42.438  29.783  29.622  1.00  0.00    -0.248 NA
ATOM     63  C   UNL A   1      40.753  31.356  30.003  1.00  0.00     0.031 C 
ATOM     64  C   UNL A   1      46.767  30.552  30.154  1.00  0.00     0.029 A 
ATOM     65  C   UNL A   1      45.407  30.333  30.012  1.00  0.00     0.049 A 
ATOM     66  H   UNL A   1      44.394  28.568  29.448  1.00  0.00     0.167 HD
ATOM     67  C   UNL A   1      43.015  30.980  30.023  1.00  0.00     0.074 A 
ATOM     68  C   UNL A   1      41.932  31.925  30.208  1.00  0.00     0.031 C 
ATOM     69  C   UNL A   1      44.326  31.264  30.222  1.00  0.00     0.031 A 
BRANCH  56  70
ATOM     70  C   UNL A   1      48.144  26.523  29.213  1.00  0.00    -0.014 A 
ATOM     71  C   UNL A   1      48.948  26.656  28.070  1.00  0.00     0.009 A 
ATOM     72  C   UNL A   1      48.640  25.800  30.309  1.00  0.00     0.009 A 
ATOM     73  C   UNL A   1      50.210  26.059  28.014  1.00  0.00     0.001 A 
ATOM     74  C   UNL A   1      49.913  25.227  30.262  1.00  0.00     0.001 A 
ATOM     75  C   UNL A   1      50.692  25.347  29.111  1.00  0.00     0.000 A 
ENDBRANCH  56  70
BRANCH  57  76
ATOM     76  C   UNL A   1      38.623  29.496  29.189  1.00  0.00    -0.014 A 
ATOM     77  C   UNL A   1      37.812  29.360  30.328  1.00  0.00     0.009 A 
ATOM     78  C   UNL A   1      38.052  29.980  28.003  1.00  0.00     0.009 A 
ATOM     79  C   UNL A   1      36.453  29.675  30.272  1.00  0.00     0.001 A 
ATOM     80  C   UNL A   1      36.699  30.325  27.960  1.00  0.00     0.001 A 
ATOM     81  C   UNL A   1      35.899  30.162  29.091  1.00  0.00     0.000 A 
ENDBRANCH  57  76
BRANCH  69  82
ATOM     82  C   UNL A   1      44.675  32.655  30.681  1.00  0.00    -0.014 A 
ATOM     83  C   UNL A   1      44.983  33.650  29.740  1.00  0.00     0.009 A 
ATOM     84  C   UNL A   1      44.771  32.961  32.048  1.00  0.00     0.009 A 
ATOM     85  C   UNL A   1      45.395  34.917  30.157  1.00  0.00     0.001 A 
ATOM     86  C   UNL A   1      45.150  34.240  32.461  1.00  0.00     0.001 A 
ATOM     87  C   UNL A   1      45.470  35.215  31.516  1.00  0.00     0.000 A 
ENDBRANCH  69  82
ENDBRANCH  43  44
ENDBRANCH  36  38
ENDBRANCH  35  36
ENDBRANCH  34  35
ENDBRANCH  33  34
ENDBRANCH  32  33
ENDBRANCH  31  32
ENDBRANCH  30  31
ENDBRANCH  29  30
ENDBRANCH   1  29
TORSDOF 24
ENDMDL
MODEL 2
REMARK VINA RESULT:      -9.0      0.617      5.609
REMARK SMILES CC(C)CCc1cc2c(cc1Cl)C=C(C(=O)OCCOCCOCCOCCOC(=O)c1ccc(-c3c4nc(c(-c5ccccc5)c5ccc([nH]5)c(-c5ccccc5)c5nc(c(-c6ccccc6)c6ccc3[nH]6)C=C5)C=C4)cc1)[C@@H](C(F)(F)F)O2
REMARK SMILES IDX 22 1 21 2 20 3 19 4 18 5 17 6 15 7 16 8 14 9 6 10 7 11 11 12
REMARK SMILES IDX 8 13 10 14 12 15 9 16 85 17 13 18 80 19 5 20 4 21 2 22 1 23
REMARK SMILES IDX 3 24 81 25 82 26 83 27 84 28 23 29 24 30 25 31 26 32 27 33
REMARK SMILES IDX 28 34 29 35 30 36 31 37 32 38 33 39 79 40 34 41 78 42 35 43
REMARK SMILES IDX 36 44 37 45 72 46 38 47 77 48 71 49 73 50 39 51 76 52 70 53
REMARK SMILES IDX 69 54 40 56 62 57 47 58 61 59 48 60 51 61 60 62 74 63 49 64
REMARK SMILES IDX 50 65 59 67 75 68 52 69 41 70 42 71 46 72 43 73 45 74 44 75
REMARK SMILES IDX 63 76 64 77 68 78 65 79 67 80 66 81 53 82 54 83 58 84 55 85
REMARK SMILES IDX 57 86 56 87
REMARK H PARENT 73 55 51 66
REMARK Flexibility Score: inf
ROOT
ATOM      1  C   UNL A   1      34.931  24.763  24.853  1.00  0.00     0.188 C 
ENDROOT
BRANCH   1   2
ATOM      2  C   UNL A   1      34.300  25.990  25.535  1.00  0.00     0.188 C 
BRANCH   2   3
ATOM      3  O   UNL A   1      34.121  27.092  24.649  1.00  0.00    -0.376 OA
BRANCH   3   4
ATOM      4  C   UNL A   1      33.431  28.230  25.151  1.00  0.00     0.202 C 
BRANCH   4   5
ATOM      5  C   UNL A   1      32.173  28.679  24.388  1.00  0.00     0.261 C 
BRANCH   5   6
ATOM      6  O   UNL A   1      30.963  28.000  24.757  1.00  0.00    -0.460 OA
BRANCH   6   7
ATOM      7  C   UNL A   1      30.351  27.292  23.792  1.00  0.00     0.338 C 
ATOM      8  O   UNL A   1      29.698  27.742  22.864  1.00  0.00    -0.246 OA
BRANCH   7   9
ATOM      9  C   UNL A   1      30.748  25.877  23.924  1.00  0.00     0.087 C 
ATOM     10  C   UNL A   1      32.623  21.547  25.679  1.00  0.00    -0.026 A 
ATOM     11  C   UNL A   1      32.161  21.996  24.412  1.00  0.00     0.052 A 
ATOM     12  C   UNL A   1      32.416  22.404  26.774  1.00  0.00     0.045 A 
ATOM     13  C   UNL A   1      31.575  23.253  24.240  1.00  0.00     0.128 A 
ATOM     14  C   UNL A   1      31.761  23.630  26.607  1.00  0.00     0.032 A 
ATOM     15  Cl  UNL A   1      33.001  22.138  28.375  1.00  0.00    -0.084 Cl
ATOM     16  C   UNL A   1      31.388  24.076  25.342  1.00  0.00     0.019 A 
ATOM     17  O   UNL A   1      31.239  23.615  22.967  1.00  0.00    -0.475 OA
ATOM     18  C   UNL A   1      30.912  25.432  25.175  1.00  0.00     0.027 C 
ATOM     19  C   UNL A   1      30.913  25.013  22.700  1.00  0.00     0.316 C 
BRANCH  10  20
ATOM     20  C   UNL A   1      33.404  20.243  25.654  1.00  0.00     0.037 C 
BRANCH  20  21
ATOM     21  C   UNL A   1      32.722  18.870  25.621  1.00  0.00     0.008 C 
BRANCH  21  22
ATOM     22  C   UNL A   1      33.065  17.997  24.399  1.00  0.00    -0.017 C 
ATOM     23  C   UNL A   1      32.424  18.536  23.121  1.00  0.00     0.007 C 
ATOM     24  C   UNL A   1      34.584  17.918  24.225  1.00  0.00     0.007 C 
ENDBRANCH  21  22
ENDBRANCH  20  21
ENDBRANCH  10  20
BRANCH  19  25
ATOM     25  C   UNL A   1      31.952  25.594  21.733  1.00  0.00     0.430 C 
ATOM     26  F   UNL A   1      31.367  26.345  20.770  1.00  0.00    -0.167 F 
ATOM     27  F   UNL A   1      32.836  26.398  22.368  1.00  0.00    -0.167 F 
ATOM     28  F   UNL A   1      32.664  24.623  21.115  1.00  0.00    -0.167 F 
ENDBRANCH  19  25
ENDBRANCH   7   9
ENDBRANCH   6   7
ENDBRANCH   5   6
ENDBRANCH   4   5
ENDBRANCH   3   4
ENDBRANCH   2   3
ENDBRANCH   1   2
BRANCH   1  29
ATOM     29  O   UNL A   1      35.746  23.993  25.720  1.00  0.00    -0.377 OA
BRANCH  29  30
ATOM     30  C   UNL A   1      36.926  23.399  25.180  1.00  0.00     0.188 C 
BRANCH  30  31
ATOM     31  C   UNL A   1      38.045  22.807  26.072  1.00  0.00     0.188 C 
BRANCH  31  32
ATOM     32  O   UNL A   1      38.808  21.777  25.451  1.00  0.00    -0.376 OA
BRANCH  32  33
ATOM     33  C   UNL A   1      38.433  20.437  25.739  1.00  0.00     0.202 C 
BRANCH  33  34
ATOM     34  C   UNL A   1      39.537  19.409  25.463  1.00  0.00     0.261 C 
BRANCH  34  35
ATOM     35  O   UNL A   1      40.619  19.412  26.408  1.00  0.00    -0.460 OA
BRANCH  35  36
ATOM     36  C   UNL A   1      41.792  19.957  26.017  1.00  0.00     0.338 C 
ATOM     37  O   UNL A   1      42.602  19.487  25.239  1.00  0.00    -0.246 OA
BRANCH  36  38
ATOM     38  C   UNL A   1      41.833  21.341  26.538  1.00  0.00     0.060 A 
ATOM     39  C   UNL A   1      41.513  21.606  27.871  1.00  0.00     0.016 A 
ATOM     40  C   UNL A   1      42.162  22.387  25.666  1.00  0.00     0.016 A 
ATOM     41  C   UNL A   1      41.571  22.916  28.346  1.00  0.00     0.010 A 
ATOM     42  C   UNL A   1      42.214  23.699  26.140  1.00  0.00     0.010 A 
ATOM     43  C   UNL A   1      41.954  23.967  27.492  1.00  0.00    -0.014 A 
BRANCH  43  44
ATOM     44  C   UNL A   1      42.334  25.275  28.078  1.00  0.00     0.031 A 
ATOM     45  C   UNL A   1      41.341  26.352  28.381  1.00  0.00     0.074 A 
ATOM     46  C   UNL A   1      43.642  25.470  28.333  1.00  0.00     0.049 A 
ATOM     47  N   UNL A   1      41.539  27.487  29.004  1.00  0.00    -0.248 NA
ATOM     48  C   UNL A   1      39.959  26.143  27.927  1.00  0.00     0.031 C 
ATOM     49  C   UNL A   1      44.702  24.500  28.041  1.00  0.00     0.029 A 
ATOM     50  N   UNL A   1      44.303  26.528  28.901  1.00  0.00    -0.354 N 
ATOM     51  C   UNL A   1      40.306  28.123  29.039  1.00  0.00     0.074 A 
ATOM     52  C   UNL A   1      39.374  27.266  28.334  1.00  0.00     0.031 C 
ATOM     53  C   UNL A   1      45.873  24.994  28.464  1.00  0.00     0.029 A 
ATOM     54  C   UNL A   1      45.654  26.319  29.032  1.00  0.00     0.049 A 
ATOM     55  H   UNL A   1      43.853  27.355  29.187  1.00  0.00     0.167 HD
ATOM     56  C   UNL A   1      39.988  29.305  29.621  1.00  0.00     0.031 A 
ATOM     57  C   UNL A   1      46.615  27.097  29.562  1.00  0.00     0.031 A 
ATOM     58  C   UNL A   1      40.934  30.161  30.295  1.00  0.00     0.049 A 
ATOM     59  C   UNL A   1      46.238  28.414  30.172  1.00  0.00     0.074 A 
ATOM     60  C   UNL A   1      40.688  31.348  30.968  1.00  0.00     0.029 A 
ATOM     61  N   UNL A   1      42.301  29.941  30.370  1.00  0.00    -0.354 N 
ATOM     62  N   UNL A   1      45.050  28.954  30.292  1.00  0.00    -0.248 NA
ATOM     63  C   UNL A   1      47.328  29.221  30.738  1.00  0.00     0.031 C 
ATOM     64  C   UNL A   1      41.911  31.882  31.381  1.00  0.00     0.029 A 
ATOM     65  C   UNL A   1      42.914  30.991  31.037  1.00  0.00     0.049 A 
ATOM     66  H   UNL A   1      42.768  29.155  30.004  1.00  0.00     0.167 HD
ATOM     67  C   UNL A   1      45.245  30.157  30.955  1.00  0.00     0.074 A 
ATOM     68  C   UNL A   1      46.663  30.253  31.239  1.00  0.00     0.031 C 
ATOM     69  C   UNL A   1      44.329  31.097  31.294  1.00  0.00     0.031 A 
BRANCH  56  70
ATOM     70  C   UNL A   1      38.554  29.761  29.578  1.00  0.00    -0.014 A 
ATOM     71  C   UNL A   1      38.128  30.645  28.573  1.00  0.00     0.009 A 
ATOM     72  C   UNL A   1      37.664  29.432  30.612  1.00  0.00     0.009 A 
ATOM     73  C   UNL A   1      36.849  31.206  28.615  1.00  0.00     0.001 A 
ATOM     74  C   UNL A   1      36.376  29.973  30.637  1.00  0.00     0.001 A 
ATOM     75  C   UNL A   1      35.974  30.868  29.646  1.00  0.00     0.000 A 
ENDBRANCH  56  70
BRANCH  57  76
ATOM     76  C   UNL A   1      48.017  26.607  29.574  1.00  0.00    -0.014 A 
ATOM     77  C   UNL A   1      48.867  26.853  28.483  1.00  0.00     0.009 A 
ATOM     78  C   UNL A   1      48.488  25.827  30.639  1.00  0.00     0.009 A 
ATOM     79  C   UNL A   1      50.152  26.307  28.449  1.00  0.00     0.001 A 
ATOM     80  C   UNL A   1      49.784  25.309  30.617  1.00  0.00     0.001 A 
ATOM     81  C   UNL A   1      50.611  25.540  29.517  1.00  0.00     0.000 A 
ENDBRANCH  57  76
BRANCH  69  82
ATOM     82  C   UNL A   1      44.825  32.330  32.000  1.00  0.00    -0.014 A 
ATOM     83  C   UNL A   1      45.273  33.434  31.256  1.00  0.00     0.009 A 
ATOM     84  C   UNL A   1      44.920  32.374  33.400  1.00  0.00     0.009 A 
ATOM     85  C   UNL A   1      45.818  34.548  31.897  1.00  0.00     0.001 A 
ATOM     86  C   UNL A   1      45.433  33.504  34.040  1.00  0.00     0.001 A 
ATOM     87  C   UNL A   1      45.891  34.586  33.288  1.00  0.00     0.000 A 
ENDBRANCH  69  82
ENDBRANCH  43  44
ENDBRANCH  36  38
ENDBRANCH  35  36
ENDBRANCH  34  35
ENDBRANCH  33  34
ENDBRANCH  32  33
ENDBRANCH  31  32
ENDBRANCH  30  31
ENDBRANCH  29  30
ENDBRANCH   1  29
TORSDOF 24
ENDMDL
MODEL 3
REMARK VINA RESULT:      -8.3      2.256      3.064
REMARK SMILES CC(C)CCc1cc2c(cc1Cl)C=C(C(=O)OCCOCCOCCOCCOC(=O)c1ccc(-c3c4nc(c(-c5ccccc5)c5ccc([nH]5)c(-c5ccccc5)c5nc(c(-c6ccccc6)c6ccc3[nH]6)C=C5)C=C4)cc1)[C@@H](C(F)(F)F)O2
REMARK SMILES IDX 22 1 21 2 20 3 19 4 18 5 17 6 15 7 16 8 14 9 6 10 7 11 11 12
REMARK SMILES IDX 8 13 10 14 12 15 9 16 85 17 13 18 80 19 5 20 4 21 2 22 1 23
REMARK SMILES IDX 3 24 81 25 82 26 83 27 84 28 23 29 24 30 25 31 26 32 27 33
REMARK SMILES IDX 28 34 29 35 30 36 31 37 32 38 33 39 79 40 34 41 78 42 35 43
REMARK SMILES IDX 36 44 37 45 72 46 38 47 77 48 71 49 73 50 39 51 76 52 70 53
REMARK SMILES IDX 69 54 40 56 62 57 47 58 61 59 48 60 51 61 60 62 74 63 49 64
REMARK SMILES IDX 50 65 59 67 75 68 52 69 41 70 42 71 46 72 43 73 45 74 44 75
REMARK SMILES IDX 63 76 64 77 68 78 65 79 67 80 66 81 53 82 54 83 58 84 55 85
REMARK SMILES IDX 57 86 56 87
REMARK H PARENT 73 55 51 66
REMARK Flexibility Score: inf
ROOT
ATOM      1  C   UNL A   1      34.936  23.527  25.480  1.00  0.00     0.188 C 
ENDROOT
BRANCH   1   2
ATOM      2  C   UNL A   1      34.923  25.051  25.263  1.00  0.00     0.188 C 
BRANCH   2   3
ATOM      3  O   UNL A   1      34.174  25.446  24.116  1.00  0.00    -0.376 OA
BRANCH   3   4
ATOM      4  C   UNL A   1      33.603  26.748  24.125  1.00  0.00     0.202 C 
BRANCH   4   5
ATOM      5  C   UNL A   1      32.070  26.841  24.024  1.00  0.00     0.261 C 
BRANCH   5   6
ATOM      6  O   UNL A   1      31.349  26.009  24.945  1.00  0.00    -0.460 OA
BRANCH   6   7
ATOM      7  C   UNL A   1      30.501  25.113  24.411  1.00  0.00     0.338 C 
ATOM      8  O   UNL A   1      29.456  25.358  23.831  1.00  0.00    -0.246 OA
BRANCH   7   9
ATOM      9  C   UNL A   1      31.128  23.778  24.475  1.00  0.00     0.087 C 
ATOM     10  C   UNL A   1      32.590  19.089  23.371  1.00  0.00    -0.026 A 
ATOM     11  C   UNL A   1      32.603  19.890  24.545  1.00  0.00     0.052 A 
ATOM     12  C   UNL A   1      32.227  19.723  22.170  1.00  0.00     0.045 A 
ATOM     13  C   UNL A   1      32.221  21.235  24.528  1.00  0.00     0.128 A 
ATOM     14  C   UNL A   1      31.918  21.089  22.149  1.00  0.00     0.032 A 
ATOM     15  Cl  UNL A   1      32.013  18.935  20.650  1.00  0.00    -0.084 Cl
ATOM     16  C   UNL A   1      31.866  21.829  23.326  1.00  0.00     0.019 A 
ATOM     17  O   UNL A   1      32.196  21.890  25.727  1.00  0.00    -0.475 OA
ATOM     18  C   UNL A   1      31.336  23.176  23.299  1.00  0.00     0.027 C 
ATOM     19  C   UNL A   1      31.523  23.184  25.802  1.00  0.00     0.316 C 
BRANCH  10  20
ATOM     20  C   UNL A   1      32.847  17.609  23.599  1.00  0.00     0.037 C 
BRANCH  20  21
ATOM     21  C   UNL A   1      34.257  17.032  23.783  1.00  0.00     0.008 C 
BRANCH  21  22
ATOM     22  C   UNL A   1      34.344  15.792  24.693  1.00  0.00    -0.017 C 
ATOM     23  C   UNL A   1      35.638  15.779  25.506  1.00  0.00     0.007 C 
ATOM     24  C   UNL A   1      33.138  15.750  25.635  1.00  0.00     0.007 C 
ENDBRANCH  21  22
ENDBRANCH  20  21
ENDBRANCH  10  20
BRANCH  19  25
ATOM     25  C   UNL A   1      30.323  23.068  26.751  1.00  0.00     0.430 C 
ATOM     26  F   UNL A   1      29.584  24.203  26.755  1.00  0.00    -0.167 F 
ATOM     27  F   UNL A   1      29.490  22.065  26.389  1.00  0.00    -0.167 F 
ATOM     28  F   UNL A   1      30.709  22.831  28.026  1.00  0.00    -0.167 F 
ENDBRANCH  19  25
ENDBRANCH   7   9
ENDBRANCH   6   7
ENDBRANCH   5   6
ENDBRANCH   4   5
ENDBRANCH   3   4
ENDBRANCH   2   3
ENDBRANCH   1   2
BRANCH   1  29
ATOM     29  O   UNL A   1      36.022  23.080  26.274  1.00  0.00    -0.377 OA
BRANCH  29  30
ATOM     30  C   UNL A   1      37.312  23.009  25.668  1.00  0.00     0.188 C 
BRANCH  30  31
ATOM     31  C   UNL A   1      38.605  23.432  26.406  1.00  0.00     0.188 C 
BRANCH  31  32
ATOM     32  O   UNL A   1      39.754  22.661  26.068  1.00  0.00    -0.376 OA
BRANCH  32  33
ATOM     33  C   UNL A   1      39.959  21.459  26.798  1.00  0.00     0.202 C 
BRANCH  33  34
ATOM     34  C   UNL A   1      40.990  20.516  26.165  1.00  0.00     0.261 C 
BRANCH  34  35
ATOM     35  O   UNL A   1      42.316  20.615  26.708  1.00  0.00    -0.460 OA
BRANCH  35  36
ATOM     36  C   UNL A   1      43.205  21.395  26.054  1.00  0.00     0.338 C 
ATOM     37  O   UNL A   1      43.864  21.102  25.073  1.00  0.00    -0.246 OA
BRANCH  36  38
ATOM     38  C   UNL A   1      43.087  22.761  26.609  1.00  0.00     0.060 A 
ATOM     39  C   UNL A   1      43.100  22.968  27.991  1.00  0.00     0.016 A 
ATOM     40  C   UNL A   1      42.925  23.841  25.731  1.00  0.00     0.016 A 
ATOM     41  C   UNL A   1      43.002  24.266  28.494  1.00  0.00     0.010 A 
ATOM     42  C   UNL A   1      42.821  25.140  26.236  1.00  0.00     0.010 A 
ATOM     43  C   UNL A   1      42.895  25.363  27.619  1.00  0.00    -0.014 A 
BRANCH  43  44
ATOM     44  C   UNL A   1      43.130  26.731  28.140  1.00  0.00     0.031 A 
ATOM     45  C   UNL A   1      44.490  27.348  28.225  1.00  0.00     0.074 A 
ATOM     46  C   UNL A   1      42.048  27.419  28.552  1.00  0.00     0.049 A 
ATOM     47  N   UNL A   1      44.805  28.577  28.549  1.00  0.00    -0.248 NA
ATOM     48  C   UNL A   1      45.642  26.489  27.918  1.00  0.00     0.031 C 
ATOM     49  C   UNL A   1      40.678  26.897  28.550  1.00  0.00     0.029 A 
ATOM     50  N   UNL A   1      41.921  28.695  29.035  1.00  0.00    -0.354 N 
ATOM     51  C   UNL A   1      46.188  28.651  28.467  1.00  0.00     0.074 A 
ATOM     52  C   UNL A   1      46.656  27.328  28.105  1.00  0.00     0.031 C 
ATOM     53  C   UNL A   1      39.846  27.857  28.976  1.00  0.00     0.029 A 
ATOM     54  C   UNL A   1      40.621  29.049  29.304  1.00  0.00     0.049 A 
ATOM     55  H   UNL A   1      42.686  29.298  29.176  1.00  0.00     0.167 HD
ATOM     56  C   UNL A   1      46.984  29.731  28.662  1.00  0.00     0.031 A 
ATOM     57  C   UNL A   1      40.100  30.205  29.752  1.00  0.00     0.031 A 
ATOM     58  C   UNL A   1      46.505  31.036  29.050  1.00  0.00     0.049 A 
ATOM     59  C   UNL A   1      41.009  31.374  29.988  1.00  0.00     0.074 A 
ATOM     60  C   UNL A   1      47.234  32.204  29.211  1.00  0.00     0.029 A 
ATOM     61  N   UNL A   1      45.189  31.347  29.357  1.00  0.00    -0.354 N 
ATOM     62  N   UNL A   1      42.304  31.459  29.804  1.00  0.00    -0.248 NA
ATOM     63  C   UNL A   1      40.385  32.612  30.475  1.00  0.00     0.031 C 
ATOM     64  C   UNL A   1      46.375  33.197  29.687  1.00  0.00     0.029 A 
ATOM     65  C   UNL A   1      45.095  32.674  29.749  1.00  0.00     0.049 A 
ATOM     66  H   UNL A   1      44.433  30.718  29.305  1.00  0.00     0.167 HD
ATOM     67  C   UNL A   1      42.650  32.760  30.141  1.00  0.00     0.074 A 
ATOM     68  C   UNL A   1      41.423  33.437  30.511  1.00  0.00     0.031 C 
ATOM     69  C   UNL A   1      43.877  33.337  30.143  1.00  0.00     0.031 A 
BRANCH  56  70
ATOM     70  C   UNL A   1      48.466  29.576  28.452  1.00  0.00    -0.014 A 
ATOM     71  C   UNL A   1      49.307  29.317  29.547  1.00  0.00     0.009 A 
ATOM     72  C   UNL A   1      49.045  29.827  27.199  1.00  0.00     0.009 A 
ATOM     73  C   UNL A   1      50.696  29.335  29.397  1.00  0.00     0.001 A 
ATOM     74  C   UNL A   1      50.434  29.817  27.045  1.00  0.00     0.001 A 
ATOM     75  C   UNL A   1      51.258  29.583  28.146  1.00  0.00     0.000 A 
ENDBRANCH  56  70
BRANCH  57  76
ATOM     76  C   UNL A   1      38.632  30.307  29.951  1.00  0.00    -0.014 A 
ATOM     77  C   UNL A   1      37.801  30.762  28.914  1.00  0.00     0.009 A 
ATOM     78  C   UNL A   1      38.064  30.022  31.201  1.00  0.00     0.009 A 
ATOM     79  C   UNL A   1      36.436  30.954  29.132  1.00  0.00     0.001 A 
ATOM     80  C   UNL A   1      36.693  30.185  31.407  1.00  0.00     0.001 A 
ATOM     81  C   UNL A   1      35.882  30.661  30.376  1.00  0.00     0.000 A 
ENDBRANCH  57  76
BRANCH  69  82
ATOM     82  C   UNL A   1      43.968  34.776  30.577  1.00  0.00    -0.014 A 
ATOM     83  C   UNL A   1      43.894  35.804  29.624  1.00  0.00     0.009 A 
ATOM     84  C   UNL A   1      44.204  35.113  31.920  1.00  0.00     0.009 A 
ATOM     85  C   UNL A   1      44.066  37.137  30.002  1.00  0.00     0.001 A 
ATOM     86  C   UNL A   1      44.342  36.449  32.300  1.00  0.00     0.001 A 
ATOM     87  C   UNL A   1      44.283  37.459  31.341  1.00  0.00     0.000 A 
ENDBRANCH  69  82
ENDBRANCH  43  44
ENDBRANCH  36  38
ENDBRANCH  35  36
ENDBRANCH  34  35
ENDBRANCH  33  34
ENDBRANCH  32  33
ENDBRANCH  31  32
ENDBRANCH  30  31
ENDBRANCH  29  30
ENDBRANCH   1  29
TORSDOF 24
ENDMDL
