MODEL 1
REMARK VINA RESULT:     -10.1      0.000      0.000
REMARK SMILES Cc1ccc(S(=O)(=O)Nc2cc3c(cc2C(=O)OCCOCCOCCOCCOC(=O)c2ccc(-c4c5nc(c(-c6ccccc6)c6ccc([nH]6)c(-c6ccccc6)c6nc(c(-c7ccccc7)c7ccc4[nH]7)C=C6)C=C5)cc2)OCCO3)s1
REMARK SMILES IDX 23 1 22 2 21 3 20 4 19 5 18 6 16 7 17 8 15 9 10 10 11 11
REMARK SMILES IDX 12 12 14 13 13 14 84 15 81 16 83 17 82 18 9 19 6 21 7 22
REMARK SMILES IDX 8 23 5 24 1 25 2 26 3 27 85 28 4 29 24 30 25 31 26 32 27 33
REMARK SMILES IDX 28 34 29 35 30 36 31 37 32 38 33 39 34 40 80 41 35 42 79 43
REMARK SMILES IDX 36 44 37 45 38 46 73 47 39 48 78 49 72 50 74 51 40 52 77 53
REMARK SMILES IDX 71 54 70 55 41 57 63 58 48 59 62 60 49 61 52 62 61 63 75 64
REMARK SMILES IDX 50 65 51 66 60 68 76 69 53 70 42 71 43 72 47 73 44 74 46 75
REMARK SMILES IDX 45 76 64 77 65 78 69 79 66 80 68 81 67 82 54 83 55 84 59 85
REMARK SMILES IDX 56 86 58 87 57 88
REMARK H PARENT 9 20 74 56 52 67
REMARK Flexibility Score: inf
ROOT
ATOM      1  C   UNL A   1      38.340  23.916  26.156  1.00  0.00     0.188 C 
ENDROOT
BRANCH   1   2
ATOM      2  C   UNL A   1      36.915  23.378  26.022  1.00  0.00     0.188 C 
BRANCH   2   3
ATOM      3  O   UNL A   1      36.055  23.931  25.027  1.00  0.00    -0.376 OA
BRANCH   3   4
ATOM      4  C   UNL A   1      35.845  23.212  23.824  1.00  0.00     0.202 C 
BRANCH   4   5
ATOM      5  C   UNL A   1      34.824  23.808  22.858  1.00  0.00     0.261 C 
BRANCH   5   6
ATOM      6  O   UNL A   1      33.738  24.512  23.485  1.00  0.00    -0.460 OA
BRANCH   6   7
ATOM      7  C   UNL A   1      32.540  24.360  22.867  1.00  0.00     0.340 C 
ATOM      8  O   UNL A   1      32.262  23.542  22.004  1.00  0.00    -0.246 OA
BRANCH   7   9
ATOM      9  C   UNL A   1      31.581  25.407  23.279  1.00  0.00     0.088 A 
ATOM     10  C   UNL A   1      30.380  25.040  23.910  1.00  0.00     0.067 A 
ATOM     11  C   UNL A   1      29.289  25.909  23.877  1.00  0.00     0.078 A 
ATOM     12  C   UNL A   1      29.474  27.218  23.440  1.00  0.00     0.163 A 
ATOM     13  C   UNL A   1      31.770  26.728  22.853  1.00  0.00     0.068 A 
ATOM     14  C   UNL A   1      30.734  27.646  23.002  1.00  0.00     0.162 A 
ATOM     15  O   UNL A   1      28.396  28.054  23.574  1.00  0.00    -0.486 OA
ATOM     16  O   UNL A   1      31.007  28.954  22.700  1.00  0.00    -0.486 OA
ATOM     17  C   UNL A   1      28.629  29.331  22.971  1.00  0.00     0.271 C 
ATOM     18  C   UNL A   1      30.031  29.827  23.287  1.00  0.00     0.271 C 
BRANCH  10  19
ATOM     19  N   UNL A   1      30.323  23.854  24.723  1.00  0.00    -0.278 N 
ATOM     20  H   UNL A   1      29.934  23.014  24.390  1.00  0.00     0.180 HD
BRANCH  19  21
ATOM     21  S   UNL A   1      30.973  23.989  26.310  1.00  0.00     0.271 S 
ATOM     22  O   UNL A   1      29.876  23.793  27.231  1.00  0.00    -0.200 OA
ATOM     23  O   UNL A   1      31.770  25.197  26.337  1.00  0.00    -0.200 OA
BRANCH  21  24
ATOM     24  C   UNL A   1      32.149  22.666  26.567  1.00  0.00     0.140 A 
ATOM     25  C   UNL A   1      34.729  20.165  25.069  1.00  0.00     0.056 C 
ATOM     26  C   UNL A   1      33.831  20.996  25.916  1.00  0.00     0.003 A 
ATOM     27  C   UNL A   1      34.055  21.476  27.188  1.00  0.00     0.016 A 
ATOM     28  S   UNL A   1      32.295  21.487  25.351  1.00  0.00    -0.127 S 
ATOM     29  C   UNL A   1      33.026  22.373  27.599  1.00  0.00     0.034 A 
ENDBRANCH  21  24
ENDBRANCH  19  21
ENDBRANCH  10  19
ENDBRANCH   7   9
ENDBRANCH   6   7
ENDBRANCH   5   6
ENDBRANCH   4   5
ENDBRANCH   3   4
ENDBRANCH   2   3
ENDBRANCH   1   2
BRANCH   1  30
ATOM     30  O   UNL A   1      39.193  22.916  26.699  1.00  0.00    -0.377 OA
BRANCH  30  31
ATOM     31  C   UNL A   1      39.109  21.656  26.051  1.00  0.00     0.188 C 
BRANCH  31  32
ATOM     32  C   UNL A   1      40.364  20.824  26.314  1.00  0.00     0.188 C 
BRANCH  32  33
ATOM     33  O   UNL A   1      41.506  21.606  25.957  1.00  0.00    -0.376 OA
BRANCH  33  34
ATOM     34  C   UNL A   1      42.649  21.381  26.777  1.00  0.00     0.202 C 
BRANCH  34  35
ATOM     35  C   UNL A   1      43.754  22.367  26.369  1.00  0.00     0.261 C 
BRANCH  35  36
ATOM     36  O   UNL A   1      43.439  23.103  25.166  1.00  0.00    -0.460 OA
BRANCH  36  37
ATOM     37  C   UNL A   1      44.002  24.324  25.067  1.00  0.00     0.338 C 
ATOM     38  O   UNL A   1      44.926  24.645  24.335  1.00  0.00    -0.246 OA
BRANCH  37  39
ATOM     39  C   UNL A   1      43.224  25.301  25.859  1.00  0.00     0.060 A 
ATOM     40  C   UNL A   1      43.905  26.419  26.356  1.00  0.00     0.016 A 
ATOM     41  C   UNL A   1      41.872  25.108  26.162  1.00  0.00     0.016 A 
ATOM     42  C   UNL A   1      43.260  27.312  27.207  1.00  0.00     0.010 A 
ATOM     43  C   UNL A   1      41.229  25.993  27.035  1.00  0.00     0.010 A 
ATOM     44  C   UNL A   1      41.939  27.066  27.600  1.00  0.00    -0.014 A 
BRANCH  44  45
ATOM     45  C   UNL A   1      41.421  27.773  28.795  1.00  0.00     0.031 A 
ATOM     46  C   UNL A   1      42.158  27.584  30.096  1.00  0.00     0.074 A 
ATOM     47  C   UNL A   1      40.383  28.623  28.720  1.00  0.00     0.049 A 
ATOM     48  N   UNL A   1      41.952  28.149  31.258  1.00  0.00    -0.248 NA
ATOM     49  C   UNL A   1      43.284  26.633  30.080  1.00  0.00     0.031 C 
ATOM     50  C   UNL A   1      39.621  28.926  27.511  1.00  0.00     0.029 A 
ATOM     51  N   UNL A   1      39.801  29.396  29.692  1.00  0.00    -0.354 N 
ATOM     52  C   UNL A   1      42.926  27.630  32.104  1.00  0.00     0.074 A 
ATOM     53  C   UNL A   1      43.697  26.678  31.337  1.00  0.00     0.031 C 
ATOM     54  C   UNL A   1      38.665  29.824  27.815  1.00  0.00     0.029 A 
ATOM     55  C   UNL A   1      38.741  30.143  29.240  1.00  0.00     0.049 A 
ATOM     56  H   UNL A   1      40.114  29.414  30.625  1.00  0.00     0.167 HD
ATOM     57  C   UNL A   1      43.165  27.924  33.402  1.00  0.00     0.031 A 
ATOM     58  C   UNL A   1      37.924  30.982  29.907  1.00  0.00     0.031 A 
ATOM     59  C   UNL A   1      42.386  28.851  34.174  1.00  0.00     0.049 A 
ATOM     60  C   UNL A   1      38.162  31.232  31.375  1.00  0.00     0.074 A 
ATOM     61  C   UNL A   1      42.549  29.222  35.497  1.00  0.00     0.029 A 
ATOM     62  N   UNL A   1      41.289  29.546  33.693  1.00  0.00    -0.354 N 
ATOM     63  N   UNL A   1      39.109  30.764  32.152  1.00  0.00    -0.248 NA
ATOM     64  C   UNL A   1      37.223  32.139  32.051  1.00  0.00     0.031 C 
ATOM     65  C   UNL A   1      41.513  30.099  35.832  1.00  0.00     0.029 A 
ATOM     66  C   UNL A   1      40.743  30.320  34.701  1.00  0.00     0.049 A 
ATOM     67  H   UNL A   1      40.947  29.495  32.771  1.00  0.00     0.167 HD
ATOM     68  C   UNL A   1      38.897  31.341  33.399  1.00  0.00     0.074 A 
ATOM     69  C   UNL A   1      37.743  32.206  33.269  1.00  0.00     0.031 C 
ATOM     70  C   UNL A   1      39.593  31.172  34.550  1.00  0.00     0.031 A 
BRANCH  57  71
ATOM     71  C   UNL A   1      44.297  27.201  34.074  1.00  0.00    -0.014 A 
ATOM     72  C   UNL A   1      44.117  25.928  34.639  1.00  0.00     0.009 A 
ATOM     73  C   UNL A   1      45.567  27.795  34.125  1.00  0.00     0.009 A 
ATOM     74  C   UNL A   1      45.181  25.279  35.268  1.00  0.00     0.001 A 
ATOM     75  C   UNL A   1      46.635  27.131  34.732  1.00  0.00     0.001 A 
ATOM     76  C   UNL A   1      46.440  25.879  35.310  1.00  0.00     0.000 A 
ENDBRANCH  57  71
BRANCH  58  77
ATOM     77  C   UNL A   1      36.788  31.639  29.207  1.00  0.00    -0.014 A 
ATOM     78  C   UNL A   1      36.885  32.964  28.758  1.00  0.00     0.009 A 
ATOM     79  C   UNL A   1      35.580  30.948  29.022  1.00  0.00     0.009 A 
ATOM     80  C   UNL A   1      35.786  33.594  28.168  1.00  0.00     0.001 A 
ATOM     81  C   UNL A   1      34.492  31.571  28.405  1.00  0.00     0.001 A 
ATOM     82  C   UNL A   1      34.593  32.897  27.989  1.00  0.00     0.000 A 
ENDBRANCH  58  77
BRANCH  70  83
ATOM     83  C   UNL A   1      39.142  31.958  35.750  1.00  0.00    -0.014 A 
ATOM     84  C   UNL A   1      39.657  33.235  36.021  1.00  0.00     0.009 A 
ATOM     85  C   UNL A   1      38.156  31.428  36.597  1.00  0.00     0.009 A 
ATOM     86  C   UNL A   1      39.220  33.949  37.138  1.00  0.00     0.001 A 
ATOM     87  C   UNL A   1      37.699  32.157  37.696  1.00  0.00     0.001 A 
ATOM     88  C   UNL A   1      38.240  33.412  37.971  1.00  0.00     0.000 A 
ENDBRANCH  70  83
ENDBRANCH  44  45
ENDBRANCH  37  39
ENDBRANCH  36  37
ENDBRANCH  35  36
ENDBRANCH  34  35
ENDBRANCH  33  34
ENDBRANCH  32  33
ENDBRANCH  31  32
ENDBRANCH  30  31
ENDBRANCH   1  30
TORSDOF 23
ENDMDL
MODEL 2
REMARK VINA RESULT:      -9.6      1.779      4.437
REMARK SMILES Cc1ccc(S(=O)(=O)Nc2cc3c(cc2C(=O)OCCOCCOCCOCCOC(=O)c2ccc(-c4c5nc(c(-c6ccccc6)c6ccc([nH]6)c(-c6ccccc6)c6nc(c(-c7ccccc7)c7ccc4[nH]7)C=C6)C=C5)cc2)OCCO3)s1
REMARK SMILES IDX 23 1 22 2 21 3 20 4 19 5 18 6 16 7 17 8 15 9 10 10 11 11
REMARK SMILES IDX 12 12 14 13 13 14 84 15 81 16 83 17 82 18 9 19 6 21 7 22
REMARK SMILES IDX 8 23 5 24 1 25 2 26 3 27 85 28 4 29 24 30 25 31 26 32 27 33
REMARK SMILES IDX 28 34 29 35 30 36 31 37 32 38 33 39 34 40 80 41 35 42 79 43
REMARK SMILES IDX 36 44 37 45 38 46 73 47 39 48 78 49 72 50 74 51 40 52 77 53
REMARK SMILES IDX 71 54 70 55 41 57 63 58 48 59 62 60 49 61 52 62 61 63 75 64
REMARK SMILES IDX 50 65 51 66 60 68 76 69 53 70 42 71 43 72 47 73 44 74 46 75
REMARK SMILES IDX 45 76 64 77 65 78 69 79 66 80 68 81 67 82 54 83 55 84 59 85
REMARK SMILES IDX 56 86 58 87 57 88
REMARK H PARENT 9 20 74 56 52 67
REMARK Flexibility Score: inf
ROOT
ATOM      1  C   UNL A   1      42.456  22.113  27.671  1.00  0.00     0.188 C 
ENDROOT
BRANCH   1   2
ATOM      2  C   UNL A   1      41.296  22.321  26.698  1.00  0.00     0.188 C 
BRANCH   2   3
ATOM      3  O   UNL A   1      39.969  22.023  27.127  1.00  0.00    -0.376 OA
BRANCH   3   4
ATOM      4  C   UNL A   1      39.004  21.639  26.162  1.00  0.00     0.202 C 
BRANCH   4   5
ATOM      5  C   UNL A   1      38.211  22.775  25.521  1.00  0.00     0.261 C 
BRANCH   5   6
ATOM      6  O   UNL A   1      37.046  22.358  24.785  1.00  0.00    -0.460 OA
BRANCH   6   7
ATOM      7  C   UNL A   1      35.876  22.515  25.452  1.00  0.00     0.340 C 
ATOM      8  O   UNL A   1      35.639  23.333  26.328  1.00  0.00    -0.246 OA
BRANCH   7   9
ATOM      9  C   UNL A   1      34.895  21.475  25.077  1.00  0.00     0.088 A 
ATOM     10  C   UNL A   1      33.519  21.746  25.186  1.00  0.00     0.067 A 
ATOM     11  C   UNL A   1      32.616  20.689  25.301  1.00  0.00     0.078 A 
ATOM     12  C   UNL A   1      33.053  19.389  25.063  1.00  0.00     0.163 A 
ATOM     13  C   UNL A   1      35.332  20.169  24.823  1.00  0.00     0.068 A 
ATOM     14  C   UNL A   1      34.395  19.141  24.748  1.00  0.00     0.162 A 
ATOM     15  O   UNL A   1      32.082  18.422  25.049  1.00  0.00    -0.486 OA
ATOM     16  O   UNL A   1      34.848  17.907  24.362  1.00  0.00    -0.486 OA
ATOM     17  C   UNL A   1      32.636  17.107  24.941  1.00  0.00     0.271 C 
ATOM     18  C   UNL A   1      33.762  17.081  23.919  1.00  0.00     0.271 C 
BRANCH  10  19
ATOM     19  N   UNL A   1      33.031  23.088  25.015  1.00  0.00    -0.278 N 
ATOM     20  H   UNL A   1      33.109  23.764  25.725  1.00  0.00     0.180 HD
BRANCH  19  21
ATOM     21  S   UNL A   1      32.301  23.443  23.498  1.00  0.00     0.271 S 
ATOM     22  O   UNL A   1      30.931  22.983  23.573  1.00  0.00    -0.200 OA
ATOM     23  O   UNL A   1      33.200  22.956  22.474  1.00  0.00    -0.200 OA
BRANCH  21  24
ATOM     24  C   UNL A   1      32.273  25.217  23.270  1.00  0.00     0.140 A 
ATOM     25  C   UNL A   1      34.221  28.583  23.095  1.00  0.00     0.056 C 
ATOM     26  C   UNL A   1      33.228  27.474  23.092  1.00  0.00     0.003 A 
ATOM     27  C   UNL A   1      32.107  27.330  22.303  1.00  0.00     0.016 A 
ATOM     28  S   UNL A   1      33.386  26.147  24.156  1.00  0.00    -0.127 S 
ATOM     29  C   UNL A   1      31.501  26.052  22.479  1.00  0.00     0.034 A 
ENDBRANCH  21  24
ENDBRANCH  19  21
ENDBRANCH  10  19
ENDBRANCH   7   9
ENDBRANCH   6   7
ENDBRANCH   5   6
ENDBRANCH   4   5
ENDBRANCH   3   4
ENDBRANCH   2   3
ENDBRANCH   1   2
BRANCH   1  30
ATOM     30  O   UNL A   1      43.558  22.935  27.305  1.00  0.00    -0.377 OA
BRANCH  30  31
ATOM     31  C   UNL A   1      44.797  22.249  27.209  1.00  0.00     0.188 C 
BRANCH  31  32
ATOM     32  C   UNL A   1      45.451  22.496  25.850  1.00  0.00     0.188 C 
BRANCH  32  33
ATOM     33  O   UNL A   1      46.593  23.333  26.046  1.00  0.00    -0.376 OA
BRANCH  33  34
ATOM     34  C   UNL A   1      46.578  24.532  25.277  1.00  0.00     0.202 C 
BRANCH  34  35
ATOM     35  C   UNL A   1      45.587  25.518  25.914  1.00  0.00     0.261 C 
BRANCH  35  36
ATOM     36  O   UNL A   1      44.619  26.034  24.974  1.00  0.00    -0.460 OA
BRANCH  36  37
ATOM     37  C   UNL A   1      43.391  25.481  25.041  1.00  0.00     0.338 C 
ATOM     38  O   UNL A   1      43.047  24.408  24.569  1.00  0.00    -0.246 OA
BRANCH  37  39
ATOM     39  C   UNL A   1      42.527  26.284  25.933  1.00  0.00     0.060 A 
ATOM     40  C   UNL A   1      42.866  27.630  26.121  1.00  0.00     0.016 A 
ATOM     41  C   UNL A   1      41.442  25.729  26.619  1.00  0.00     0.016 A 
ATOM     42  C   UNL A   1      42.166  28.407  27.039  1.00  0.00     0.010 A 
ATOM     43  C   UNL A   1      40.751  26.503  27.558  1.00  0.00     0.010 A 
ATOM     44  C   UNL A   1      41.148  27.828  27.807  1.00  0.00    -0.014 A 
BRANCH  44  45
ATOM     45  C   UNL A   1      40.709  28.533  29.034  1.00  0.00     0.031 A 
ATOM     46  C   UNL A   1      41.508  28.313  30.293  1.00  0.00     0.074 A 
ATOM     47  C   UNL A   1      39.689  29.407  29.021  1.00  0.00     0.049 A 
ATOM     48  N   UNL A   1      41.376  28.870  31.469  1.00  0.00    -0.248 NA
ATOM     49  C   UNL A   1      42.609  27.338  30.209  1.00  0.00     0.031 C 
ATOM     50  C   UNL A   1      38.872  29.741  27.857  1.00  0.00     0.029 A 
ATOM     51  N   UNL A   1      39.176  30.183  30.030  1.00  0.00    -0.354 N 
ATOM     52  C   UNL A   1      42.380  28.320  32.258  1.00  0.00     0.074 A 
ATOM     53  C   UNL A   1      43.088  27.360  31.443  1.00  0.00     0.031 C 
ATOM     54  C   UNL A   1      37.954  30.657  28.219  1.00  0.00     0.029 A 
ATOM     55  C   UNL A   1      38.112  30.958  29.641  1.00  0.00     0.049 A 
ATOM     56  H   UNL A   1      39.537  30.183  30.945  1.00  0.00     0.167 HD
ATOM     57  C   UNL A   1      42.692  28.594  33.545  1.00  0.00     0.031 A 
ATOM     58  C   UNL A   1      37.350  31.808  30.358  1.00  0.00     0.031 A 
ATOM     59  C   UNL A   1      41.977  29.530  34.366  1.00  0.00     0.049 A 
ATOM     60  C   UNL A   1      37.670  32.036  31.814  1.00  0.00     0.074 A 
ATOM     61  C   UNL A   1      42.216  29.882  35.682  1.00  0.00     0.029 A 
ATOM     62  N   UNL A   1      40.872  30.255  33.949  1.00  0.00    -0.354 N 
ATOM     63  N   UNL A   1      38.644  31.539  32.536  1.00  0.00    -0.248 NA
ATOM     64  C   UNL A   1      36.788  32.957  32.547  1.00  0.00     0.031 C 
ATOM     65  C   UNL A   1      41.219  30.780  36.079  1.00  0.00     0.029 A 
ATOM     66  C   UNL A   1      40.398  31.030  34.992  1.00  0.00     0.049 A 
ATOM     67  H   UNL A   1      40.482  30.222  33.046  1.00  0.00     0.167 HD
ATOM     68  C   UNL A   1      38.510  32.106  33.797  1.00  0.00     0.074 A 
ATOM     69  C   UNL A   1      37.371  32.999  33.736  1.00  0.00     0.031 C 
ATOM     70  C   UNL A   1      39.261  31.909  34.910  1.00  0.00     0.031 A 
BRANCH  57  71
ATOM     71  C   UNL A   1      43.841  27.838  34.150  1.00  0.00    -0.014 A 
ATOM     72  C   UNL A   1      43.652  26.587  34.759  1.00  0.00     0.009 A 
ATOM     73  C   UNL A   1      45.135  28.378  34.093  1.00  0.00     0.009 A 
ATOM     74  C   UNL A   1      44.732  25.907  35.325  1.00  0.00     0.001 A 
ATOM     75  C   UNL A   1      46.217  27.683  34.636  1.00  0.00     0.001 A 
ATOM     76  C   UNL A   1      46.013  26.453  35.259  1.00  0.00     0.000 A 
ENDBRANCH  57  71
BRANCH  58  77
ATOM     77  C   UNL A   1      36.195  32.498  29.724  1.00  0.00    -0.014 A 
ATOM     78  C   UNL A   1      34.985  31.825  29.500  1.00  0.00     0.009 A 
ATOM     79  C   UNL A   1      36.316  33.831  29.301  1.00  0.00     0.009 A 
ATOM     80  C   UNL A   1      33.932  32.460  28.837  1.00  0.00     0.001 A 
ATOM     81  C   UNL A   1      35.251  34.475  28.664  1.00  0.00     0.001 A 
ATOM     82  C   UNL A   1      34.065  33.785  28.423  1.00  0.00     0.000 A 
ENDBRANCH  58  77
BRANCH  70  83
ATOM     83  C   UNL A   1      38.891  32.693  36.139  1.00  0.00    -0.014 A 
ATOM     84  C   UNL A   1      37.983  32.187  37.081  1.00  0.00     0.009 A 
ATOM     85  C   UNL A   1      39.496  33.937  36.376  1.00  0.00     0.009 A 
ATOM     86  C   UNL A   1      37.660  32.930  38.218  1.00  0.00     0.001 A 
ATOM     87  C   UNL A   1      39.194  34.664  37.528  1.00  0.00     0.001 A 
ATOM     88  C   UNL A   1      38.267  34.164  38.442  1.00  0.00     0.000 A 
ENDBRANCH  70  83
ENDBRANCH  44  45
ENDBRANCH  37  39
ENDBRANCH  36  37
ENDBRANCH  35  36
ENDBRANCH  34  35
ENDBRANCH  33  34
ENDBRANCH  32  33
ENDBRANCH  31  32
ENDBRANCH  30  31
ENDBRANCH   1  30
TORSDOF 23
ENDMDL
MODEL 3
REMARK VINA RESULT:      -9.2      2.314      7.367
REMARK SMILES Cc1ccc(S(=O)(=O)Nc2cc3c(cc2C(=O)OCCOCCOCCOCCOC(=O)c2ccc(-c4c5nc(c(-c6ccccc6)c6ccc([nH]6)c(-c6ccccc6)c6nc(c(-c7ccccc7)c7ccc4[nH]7)C=C6)C=C5)cc2)OCCO3)s1
REMARK SMILES IDX 23 1 22 2 21 3 20 4 19 5 18 6 16 7 17 8 15 9 10 10 11 11
REMARK SMILES IDX 12 12 14 13 13 14 84 15 81 16 83 17 82 18 9 19 6 21 7 22
REMARK SMILES IDX 8 23 5 24 1 25 2 26 3 27 85 28 4 29 24 30 25 31 26 32 27 33
REMARK SMILES IDX 28 34 29 35 30 36 31 37 32 38 33 39 34 40 80 41 35 42 79 43
REMARK SMILES IDX 36 44 37 45 38 46 73 47 39 48 78 49 72 50 74 51 40 52 77 53
REMARK SMILES IDX 71 54 70 55 41 57 63 58 48 59 62 60 49 61 52 62 61 63 75 64
REMARK SMILES IDX 50 65 51 66 60 68 76 69 53 70 42 71 43 72 47 73 44 74 46 75
REMARK SMILES IDX 45 76 64 77 65 78 69 79 66 80 68 81 67 82 54 83 55 84 59 85
REMARK SMILES IDX 56 86 58 87 57 88
REMARK H PARENT 9 20 74 56 52 67
REMARK Flexibility Score: inf
ROOT
ATOM      1  C   UNL A   1      42.339  22.735  28.274  1.00  0.00     0.188 C 
ENDROOT
BRANCH   1   2
ATOM      2  C   UNL A   1      40.903  22.346  27.922  1.00  0.00     0.188 C 
BRANCH   2   3
ATOM      3  O   UNL A   1      40.645  21.043  27.403  1.00  0.00    -0.376 OA
BRANCH   3   4
ATOM      4  C   UNL A   1      39.872  20.914  26.222  1.00  0.00     0.202 C 
BRANCH   4   5
ATOM      5  C   UNL A   1      38.838  22.010  25.976  1.00  0.00     0.261 C 
BRANCH   5   6
ATOM      6  O   UNL A   1      37.733  21.622  25.141  1.00  0.00    -0.460 OA
BRANCH   6   7
ATOM      7  C   UNL A   1      36.539  22.152  25.507  1.00  0.00     0.340 C 
ATOM      8  O   UNL A   1      36.362  23.157  26.179  1.00  0.00    -0.246 OA
BRANCH   7   9
ATOM      9  C   UNL A   1      35.412  21.292  25.088  1.00  0.00     0.088 A 
ATOM     10  C   UNL A   1      34.106  21.811  25.084  1.00  0.00     0.067 A 
ATOM     11  C   UNL A   1      33.018  20.942  25.160  1.00  0.00     0.078 A 
ATOM     12  C   UNL A   1      33.225  19.575  24.993  1.00  0.00     0.163 A 
ATOM     13  C   UNL A   1      35.619  19.919  24.906  1.00  0.00     0.068 A 
ATOM     14  C   UNL A   1      34.517  19.075  24.789  1.00  0.00     0.162 A 
ATOM     15  O   UNL A   1      32.096  18.800  24.933  1.00  0.00    -0.486 OA
ATOM     16  O   UNL A   1      34.761  17.764  24.474  1.00  0.00    -0.486 OA
ATOM     17  C   UNL A   1      32.405  17.403  24.905  1.00  0.00     0.271 C 
ATOM     18  C   UNL A   1      33.576  17.130  23.974  1.00  0.00     0.271 C 
BRANCH  10  19
ATOM     19  N   UNL A   1      33.885  23.211  24.837  1.00  0.00    -0.278 N 
ATOM     20  H   UNL A   1      33.842  23.868  25.570  1.00  0.00     0.180 HD
BRANCH  19  21
ATOM     21  S   UNL A   1      33.700  23.673  23.191  1.00  0.00     0.271 S 
ATOM     22  O   UNL A   1      32.529  22.986  22.691  1.00  0.00    -0.200 OA
ATOM     23  O   UNL A   1      34.992  23.509  22.560  1.00  0.00    -0.200 OA
BRANCH  21  24
ATOM     24  C   UNL A   1      33.380  25.431  23.115  1.00  0.00     0.140 A 
ATOM     25  C   UNL A   1      33.497  28.915  24.848  1.00  0.00     0.056 C 
ATOM     26  C   UNL A   1      33.344  27.746  23.940  1.00  0.00     0.003 A 
ATOM     27  C   UNL A   1      33.519  27.694  22.574  1.00  0.00     0.016 A 
ATOM     28  S   UNL A   1      32.900  26.212  24.547  1.00  0.00    -0.127 S 
ATOM     29  C   UNL A   1      33.445  26.356  22.086  1.00  0.00     0.034 A 
ENDBRANCH  21  24
ENDBRANCH  19  21
ENDBRANCH  10  19
ENDBRANCH   7   9
ENDBRANCH   6   7
ENDBRANCH   5   6
ENDBRANCH   4   5
ENDBRANCH   3   4
ENDBRANCH   2   3
ENDBRANCH   1   2
BRANCH   1  30
ATOM     30  O   UNL A   1      42.927  23.464  27.203  1.00  0.00    -0.377 OA
BRANCH  30  31
ATOM     31  C   UNL A   1      44.299  23.177  26.982  1.00  0.00     0.188 C 
BRANCH  31  32
ATOM     32  C   UNL A   1      44.739  23.657  25.598  1.00  0.00     0.188 C 
BRANCH  32  33
ATOM     33  O   UNL A   1      45.718  24.684  25.768  1.00  0.00    -0.376 OA
BRANCH  33  34
ATOM     34  C   UNL A   1      45.395  25.913  25.123  1.00  0.00     0.202 C 
BRANCH  34  35
ATOM     35  C   UNL A   1      44.291  26.619  25.925  1.00  0.00     0.261 C 
BRANCH  35  36
ATOM     36  O   UNL A   1      43.161  27.005  25.112  1.00  0.00    -0.460 OA
BRANCH  36  37
ATOM     37  C   UNL A   1      41.975  26.482  25.479  1.00  0.00     0.338 C 
ATOM     38  O   UNL A   1      41.500  25.418  25.111  1.00  0.00    -0.246 OA
BRANCH  37  39
ATOM     39  C   UNL A   1      41.374  27.305  26.552  1.00  0.00     0.060 A 
ATOM     40  C   UNL A   1      41.698  28.667  26.580  1.00  0.00     0.016 A 
ATOM     41  C   UNL A   1      40.556  26.755  27.543  1.00  0.00     0.016 A 
ATOM     42  C   UNL A   1      41.263  29.470  27.630  1.00  0.00     0.010 A 
ATOM     43  C   UNL A   1      40.135  27.556  28.611  1.00  0.00     0.010 A 
ATOM     44  C   UNL A   1      40.534  28.902  28.682  1.00  0.00    -0.014 A 
BRANCH  44  45
ATOM     45  C   UNL A   1      40.440  29.655  29.955  1.00  0.00     0.031 A 
ATOM     46  C   UNL A   1      39.325  30.658  30.096  1.00  0.00     0.074 A 
ATOM     47  C   UNL A   1      41.262  29.403  30.988  1.00  0.00     0.049 A 
ATOM     48  N   UNL A   1      38.984  31.383  31.130  1.00  0.00    -0.248 NA
ATOM     49  C   UNL A   1      38.475  30.865  28.910  1.00  0.00     0.031 C 
ATOM     50  C   UNL A   1      42.346  28.424  30.991  1.00  0.00     0.029 A 
ATOM     51  N   UNL A   1      41.297  29.953  32.245  1.00  0.00    -0.354 N 
ATOM     52  C   UNL A   1      37.879  32.122  30.722  1.00  0.00     0.074 A 
ATOM     53  C   UNL A   1      37.629  31.789  29.339  1.00  0.00     0.031 C 
ATOM     54  C   UNL A   1      42.945  28.443  32.197  1.00  0.00     0.029 A 
ATOM     55  C   UNL A   1      42.295  29.445  33.040  1.00  0.00     0.049 A 
ATOM     56  H   UNL A   1      40.665  30.644  32.547  1.00  0.00     0.167 HD
ATOM     57  C   UNL A   1      37.132  32.994  31.436  1.00  0.00     0.031 A 
ATOM     58  C   UNL A   1      42.644  29.763  34.302  1.00  0.00     0.031 A 
ATOM     59  C   UNL A   1      37.392  33.345  32.804  1.00  0.00     0.049 A 
ATOM     60  C   UNL A   1      41.843  30.798  35.050  1.00  0.00     0.074 A 
ATOM     61  C   UNL A   1      36.691  34.216  33.619  1.00  0.00     0.029 A 
ATOM     62  N   UNL A   1      38.445  32.848  33.556  1.00  0.00    -0.354 N 
ATOM     63  N   UNL A   1      40.779  31.460  34.666  1.00  0.00    -0.248 NA
ATOM     64  C   UNL A   1      42.288  31.117  36.415  1.00  0.00     0.031 C 
ATOM     65  C   UNL A   1      37.355  34.290  34.848  1.00  0.00     0.029 A 
ATOM     66  C   UNL A   1      38.433  33.419  34.816  1.00  0.00     0.049 A 
ATOM     67  H   UNL A   1      39.103  32.189  33.240  1.00  0.00     0.167 HD
ATOM     68  C   UNL A   1      40.411  32.251  35.748  1.00  0.00     0.074 A 
ATOM     69  C   UNL A   1      41.356  31.973  36.810  1.00  0.00     0.031 C 
ATOM     70  C   UNL A   1      39.384  33.130  35.857  1.00  0.00     0.031 A 
BRANCH  57  71
ATOM     71  C   UNL A   1      35.983  33.655  30.730  1.00  0.00    -0.014 A 
ATOM     72  C   UNL A   1      34.864  34.123  31.436  1.00  0.00     0.009 A 
ATOM     73  C   UNL A   1      36.031  33.828  29.338  1.00  0.00     0.009 A 
ATOM     74  C   UNL A   1      33.802  34.725  30.758  1.00  0.00     0.001 A 
ATOM     75  C   UNL A   1      34.979  34.454  28.666  1.00  0.00     0.001 A 
ATOM     76  C   UNL A   1      33.863  34.894  29.375  1.00  0.00     0.000 A 
ENDBRANCH  57  71
BRANCH  58  77
ATOM     77  C   UNL A   1      43.819  29.113  34.942  1.00  0.00    -0.014 A 
ATOM     78  C   UNL A   1      43.660  28.012  35.796  1.00  0.00     0.009 A 
ATOM     79  C   UNL A   1      45.109  29.624  34.730  1.00  0.00     0.009 A 
ATOM     80  C   UNL A   1      44.763  27.457  36.450  1.00  0.00     0.001 A 
ATOM     81  C   UNL A   1      46.215  29.049  35.362  1.00  0.00     0.001 A 
ATOM     82  C   UNL A   1      46.039  27.973  36.230  1.00  0.00     0.000 A 
ENDBRANCH  58  77
BRANCH  70  83
ATOM     83  C   UNL A   1      39.213  33.830  37.176  1.00  0.00    -0.014 A 
ATOM     84  C   UNL A   1      38.325  33.347  38.149  1.00  0.00     0.009 A 
ATOM     85  C   UNL A   1      39.985  34.967  37.463  1.00  0.00     0.009 A 
ATOM     86  C   UNL A   1      38.187  34.011  39.369  1.00  0.00     0.001 A 
ATOM     87  C   UNL A   1      39.867  35.612  38.695  1.00  0.00     0.001 A 
ATOM     88  C   UNL A   1      38.960  35.139  39.643  1.00  0.00     0.000 A 
ENDBRANCH  70  83
ENDBRANCH  44  45
ENDBRANCH  37  39
ENDBRANCH  36  37
ENDBRANCH  35  36
ENDBRANCH  34  35
ENDBRANCH  33  34
ENDBRANCH  32  33
ENDBRANCH  31  32
ENDBRANCH  30  31
ENDBRANCH   1  30
TORSDOF 23
ENDMDL
