MODEL 1
REMARK VINA RESULT:     -10.3      0.000      0.000
REMARK SMILES Cc1cc(C)c2c(c1)C=C(C(=O)OCCOCCOCCOCCOC(=O)c1ccc(-c3c4nc(c(-c5ccccc5)c5ccc([nH]5)c(-c5ccccc5)c5nc(c(-c6ccccc6)c6ccc3[nH]6)C=C5)C=C4)cc1)[C@@H](C(F)(F)F)O2
REMARK SMILES IDX 20 1 19 2 18 3 17 4 16 5 15 6 14 7 13 8 11 9 12 10 10 11
REMARK SMILES IDX 1 12 2 13 3 14 8 15 4 16 7 17 5 18 6 19 9 20 81 21 76 22
REMARK SMILES IDX 77 23 78 24 79 25 80 26 21 27 22 28 23 29 24 30 25 31 26 32
REMARK SMILES IDX 27 33 28 34 29 35 75 36 30 37 74 38 31 39 32 40 33 41 68 42
REMARK SMILES IDX 34 43 73 44 67 45 69 46 35 47 72 48 66 49 65 50 36 52 58 53
REMARK SMILES IDX 43 54 57 55 44 56 47 57 56 58 70 59 45 60 46 61 55 63 71 64
REMARK SMILES IDX 48 65 37 66 38 67 42 68 39 69 41 70 40 71 59 72 60 73 64 74
REMARK SMILES IDX 61 75 63 76 62 77 49 78 50 79 54 80 51 81 53 82 52 83
REMARK H PARENT 69 51 47 62
REMARK Flexibility Score: inf
ROOT
ATOM      1  C   UNL A   1      33.062  35.855  30.193  1.00  0.00     0.188 C 
ENDROOT
BRANCH   1   2
ATOM      2  O   UNL A   1      33.489  34.500  30.025  1.00  0.00    -0.377 OA
BRANCH   2   3
ATOM      3  C   UNL A   1      34.775  34.264  29.474  1.00  0.00     0.188 C 
BRANCH   3   4
ATOM      4  C   UNL A   1      34.746  33.507  28.132  1.00  0.00     0.188 C 
BRANCH   4   5
ATOM      5  O   UNL A   1      34.909  32.104  28.288  1.00  0.00    -0.376 OA
BRANCH   5   6
ATOM      6  C   UNL A   1      33.898  31.237  27.802  1.00  0.00     0.202 C 
BRANCH   6   7
ATOM      7  C   UNL A   1      34.271  30.086  26.853  1.00  0.00     0.261 C 
BRANCH   7   8
ATOM      8  O   UNL A   1      34.007  28.762  27.330  1.00  0.00    -0.460 OA
BRANCH   8   9
ATOM      9  C   UNL A   1      32.786  28.244  27.098  1.00  0.00     0.338 C 
ATOM     10  O   UNL A   1      31.740  28.587  27.618  1.00  0.00    -0.246 OA
BRANCH   9  11
ATOM     11  C   UNL A   1      32.905  27.294  25.969  1.00  0.00     0.087 C 
ATOM     12  C   UNL A   1      36.090  22.363  24.094  1.00  0.00     0.044 C 
ATOM     13  C   UNL A   1      35.078  23.467  24.007  1.00  0.00    -0.050 A 
ATOM     14  C   UNL A   1      34.368  23.683  22.820  1.00  0.00     0.010 A 
ATOM     15  C   UNL A   1      34.826  24.290  25.110  1.00  0.00     0.015 A 
ATOM     16  C   UNL A   1      33.421  24.714  22.723  1.00  0.00    -0.008 A 
ATOM     17  C   UNL A   1      33.907  25.342  25.018  1.00  0.00     0.018 A 
ATOM     18  C   UNL A   1      32.700  24.952  21.425  1.00  0.00     0.048 C 
ATOM     19  C   UNL A   1      33.181  25.531  23.839  1.00  0.00     0.130 A 
ATOM     20  C   UNL A   1      33.766  26.280  26.119  1.00  0.00     0.027 C 
ATOM     21  O   UNL A   1      32.231  26.504  23.696  1.00  0.00    -0.475 OA
ATOM     22  C   UNL A   1      32.016  27.462  24.765  1.00  0.00     0.316 C 
BRANCH  22  23
ATOM     23  C   UNL A   1      32.116  28.869  24.159  1.00  0.00     0.430 C 
ATOM     24  F   UNL A   1      33.401  29.192  23.874  1.00  0.00    -0.167 F 
ATOM     25  F   UNL A   1      31.427  28.975  22.999  1.00  0.00    -0.167 F 
ATOM     26  F   UNL A   1      31.637  29.814  25.000  1.00  0.00    -0.167 F 
ENDBRANCH  22  23
ENDBRANCH   9  11
ENDBRANCH   8   9
ENDBRANCH   7   8
ENDBRANCH   6   7
ENDBRANCH   5   6
ENDBRANCH   4   5
ENDBRANCH   3   4
ENDBRANCH   2   3
ENDBRANCH   1   2
BRANCH   1  27
ATOM     27  C   UNL A   1      33.123  36.592  31.555  1.00  0.00     0.188 C 
BRANCH  27  28
ATOM     28  O   UNL A   1      33.019  35.743  32.691  1.00  0.00    -0.376 OA
BRANCH  28  29
ATOM     29  C   UNL A   1      34.226  35.315  33.299  1.00  0.00     0.202 C 
BRANCH  29  30
ATOM     30  C   UNL A   1      34.408  33.795  33.374  1.00  0.00     0.261 C 
BRANCH  30  31
ATOM     31  O   UNL A   1      35.580  33.281  32.722  1.00  0.00    -0.460 OA
BRANCH  31  32
ATOM     32  C   UNL A   1      36.515  32.690  33.497  1.00  0.00     0.338 C 
ATOM     33  O   UNL A   1      36.547  32.639  34.713  1.00  0.00    -0.246 OA
BRANCH  32  34
ATOM     34  C   UNL A   1      37.412  31.933  32.599  1.00  0.00     0.060 A 
ATOM     35  C   UNL A   1      38.415  31.131  33.156  1.00  0.00     0.016 A 
ATOM     36  C   UNL A   1      37.240  31.997  31.215  1.00  0.00     0.016 A 
ATOM     37  C   UNL A   1      39.269  30.407  32.324  1.00  0.00     0.010 A 
ATOM     38  C   UNL A   1      38.110  31.292  30.381  1.00  0.00     0.010 A 
ATOM     39  C   UNL A   1      39.147  30.518  30.932  1.00  0.00    -0.014 A 
BRANCH  39  40
ATOM     40  C   UNL A   1      40.231  30.007  30.061  1.00  0.00     0.031 A 
ATOM     41  C   UNL A   1      41.439  30.879  29.854  1.00  0.00     0.074 A 
ATOM     42  C   UNL A   1      40.171  28.788  29.498  1.00  0.00     0.049 A 
ATOM     43  N   UNL A   1      42.513  30.653  29.143  1.00  0.00    -0.248 NA
ATOM     44  C   UNL A   1      41.436  32.179  30.548  1.00  0.00     0.031 C 
ATOM     45  C   UNL A   1      39.082  27.828  29.666  1.00  0.00     0.029 A 
ATOM     46  N   UNL A   1      41.060  28.150  28.669  1.00  0.00    -0.354 N 
ATOM     47  C   UNL A   1      43.314  31.774  29.312  1.00  0.00     0.074 A 
ATOM     48  C   UNL A   1      42.591  32.696  30.157  1.00  0.00     0.031 C 
ATOM     49  C   UNL A   1      39.373  26.716  28.967  1.00  0.00     0.029 A 
ATOM     50  C   UNL A   1      40.651  26.898  28.277  1.00  0.00     0.049 A 
ATOM     51  H   UNL A   1      41.912  28.552  28.383  1.00  0.00     0.167 HD
ATOM     52  C   UNL A   1      44.552  32.010  28.819  1.00  0.00     0.031 A 
ATOM     53  C   UNL A   1      41.236  26.010  27.451  1.00  0.00     0.031 A 
ATOM     54  C   UNL A   1      45.265  31.107  27.960  1.00  0.00     0.049 A 
ATOM     55  C   UNL A   1      42.564  26.347  26.821  1.00  0.00     0.074 A 
ATOM     56  C   UNL A   1      46.522  31.263  27.403  1.00  0.00     0.029 A 
ATOM     57  N   UNL A   1      44.780  29.885  27.526  1.00  0.00    -0.354 N 
ATOM     58  N   UNL A   1      43.321  27.402  27.002  1.00  0.00    -0.248 NA
ATOM     59  C   UNL A   1      43.119  25.368  25.873  1.00  0.00     0.031 C 
ATOM     60  C   UNL A   1      46.773  30.160  26.584  1.00  0.00     0.029 A 
ATOM     61  C   UNL A   1      45.701  29.288  26.683  1.00  0.00     0.049 A 
ATOM     62  H   UNL A   1      43.911  29.497  27.779  1.00  0.00     0.167 HD
ATOM     63  C   UNL A   1      44.450  27.202  26.213  1.00  0.00     0.074 A 
ATOM     64  C   UNL A   1      44.284  25.919  25.564  1.00  0.00     0.031 C 
ATOM     65  C   UNL A   1      45.525  28.010  26.044  1.00  0.00     0.031 A 
BRANCH  52  66
ATOM     66  C   UNL A   1      45.208  33.310  29.187  1.00  0.00    -0.014 A 
ATOM     67  C   UNL A   1      45.009  34.464  28.414  1.00  0.00     0.009 A 
ATOM     68  C   UNL A   1      45.992  33.394  30.348  1.00  0.00     0.009 A 
ATOM     69  C   UNL A   1      45.599  35.673  28.786  1.00  0.00     0.001 A 
ATOM     70  C   UNL A   1      46.557  34.611  30.733  1.00  0.00     0.001 A 
ATOM     71  C   UNL A   1      46.365  35.747  29.948  1.00  0.00     0.000 A 
ENDBRANCH  52  66
BRANCH  53  72
ATOM     72  C   UNL A   1      40.573  24.710  27.162  1.00  0.00    -0.014 A 
ATOM     73  C   UNL A   1      39.361  24.667  26.456  1.00  0.00     0.009 A 
ATOM     74  C   UNL A   1      41.142  23.504  27.603  1.00  0.00     0.009 A 
ATOM     75  C   UNL A   1      38.725  23.448  26.212  1.00  0.00     0.001 A 
ATOM     76  C   UNL A   1      40.518  22.284  27.334  1.00  0.00     0.001 A 
ATOM     77  C   UNL A   1      39.307  22.257  26.644  1.00  0.00     0.000 A 
ENDBRANCH  53  72
BRANCH  65  78
ATOM     78  C   UNL A   1      46.627  27.534  25.139  1.00  0.00    -0.014 A 
ATOM     79  C   UNL A   1      46.769  28.044  23.840  1.00  0.00     0.009 A 
ATOM     80  C   UNL A   1      47.593  26.640  25.629  1.00  0.00     0.009 A 
ATOM     81  C   UNL A   1      47.848  27.654  23.043  1.00  0.00     0.001 A 
ATOM     82  C   UNL A   1      48.686  26.276  24.841  1.00  0.00     0.001 A 
ATOM     83  C   UNL A   1      48.810  26.779  23.548  1.00  0.00     0.000 A 
ENDBRANCH  65  78
ENDBRANCH  39  40
ENDBRANCH  32  34
ENDBRANCH  31  32
ENDBRANCH  30  31
ENDBRANCH  29  30
ENDBRANCH  28  29
ENDBRANCH  27  28
ENDBRANCH   1  27
TORSDOF 21
ENDMDL
MODEL 2
REMARK VINA RESULT:     -10.1      1.474      2.206
REMARK SMILES Cc1cc(C)c2c(c1)C=C(C(=O)OCCOCCOCCOCCOC(=O)c1ccc(-c3c4nc(c(-c5ccccc5)c5ccc([nH]5)c(-c5ccccc5)c5nc(c(-c6ccccc6)c6ccc3[nH]6)C=C5)C=C4)cc1)[C@@H](C(F)(F)F)O2
REMARK SMILES IDX 20 1 19 2 18 3 17 4 16 5 15 6 14 7 13 8 11 9 12 10 10 11
REMARK SMILES IDX 1 12 2 13 3 14 8 15 4 16 7 17 5 18 6 19 9 20 81 21 76 22
REMARK SMILES IDX 77 23 78 24 79 25 80 26 21 27 22 28 23 29 24 30 25 31 26 32
REMARK SMILES IDX 27 33 28 34 29 35 75 36 30 37 74 38 31 39 32 40 33 41 68 42
REMARK SMILES IDX 34 43 73 44 67 45 69 46 35 47 72 48 66 49 65 50 36 52 58 53
REMARK SMILES IDX 43 54 57 55 44 56 47 57 56 58 70 59 45 60 46 61 55 63 71 64
REMARK SMILES IDX 48 65 37 66 38 67 42 68 39 69 41 70 40 71 59 72 60 73 64 74
REMARK SMILES IDX 61 75 63 76 62 77 49 78 50 79 54 80 51 81 53 82 52 83
REMARK H PARENT 69 51 47 62
REMARK Flexibility Score: inf
ROOT
ATOM      1  C   UNL A   1      34.366  34.363  29.724  1.00  0.00     0.188 C 
ENDROOT
BRANCH   1   2
ATOM      2  O   UNL A   1      33.933  33.589  28.603  1.00  0.00    -0.377 OA
BRANCH   2   3
ATOM      3  C   UNL A   1      34.446  32.273  28.456  1.00  0.00     0.188 C 
BRANCH   3   4
ATOM      4  C   UNL A   1      33.590  31.371  27.546  1.00  0.00     0.188 C 
BRANCH   4   5
ATOM      5  O   UNL A   1      34.264  30.179  27.163  1.00  0.00    -0.376 OA
BRANCH   5   6
ATOM      6  C   UNL A   1      33.710  28.928  27.535  1.00  0.00     0.202 C 
BRANCH   6   7
ATOM      7  C   UNL A   1      32.854  28.143  26.527  1.00  0.00     0.261 C 
BRANCH   7   8
ATOM      8  O   UNL A   1      33.177  26.756  26.368  1.00  0.00    -0.460 OA
BRANCH   8   9
ATOM      9  C   UNL A   1      33.597  26.346  25.156  1.00  0.00     0.338 C 
ATOM     10  O   UNL A   1      34.010  27.050  24.253  1.00  0.00    -0.246 OA
BRANCH   9  11
ATOM     11  C   UNL A   1      33.631  24.867  25.167  1.00  0.00     0.087 C 
ATOM     12  C   UNL A   1      37.521  20.100  24.814  1.00  0.00     0.044 C 
ATOM     13  C   UNL A   1      36.195  20.795  24.925  1.00  0.00    -0.050 A 
ATOM     14  C   UNL A   1      35.006  20.058  24.886  1.00  0.00     0.010 A 
ATOM     15  C   UNL A   1      36.130  22.184  25.073  1.00  0.00     0.015 A 
ATOM     16  C   UNL A   1      33.760  20.694  24.985  1.00  0.00    -0.008 A 
ATOM     17  C   UNL A   1      34.894  22.835  25.141  1.00  0.00     0.018 A 
ATOM     18  C   UNL A   1      32.495  19.885  24.902  1.00  0.00     0.048 C 
ATOM     19  C   UNL A   1      33.713  22.089  25.133  1.00  0.00     0.130 A 
ATOM     20  C   UNL A   1      34.838  24.288  25.143  1.00  0.00     0.027 C 
ATOM     21  O   UNL A   1      32.473  22.653  25.248  1.00  0.00    -0.475 OA
ATOM     22  C   UNL A   1      32.340  24.099  25.282  1.00  0.00     0.316 C 
BRANCH  22  23
ATOM     23  C   UNL A   1      31.325  24.500  24.203  1.00  0.00     0.430 C 
ATOM     24  F   UNL A   1      30.656  23.421  23.729  1.00  0.00    -0.167 F 
ATOM     25  F   UNL A   1      30.389  25.356  24.674  1.00  0.00    -0.167 F 
ATOM     26  F   UNL A   1      31.924  25.100  23.149  1.00  0.00    -0.167 F 
ENDBRANCH  22  23
ENDBRANCH   9  11
ENDBRANCH   8   9
ENDBRANCH   7   8
ENDBRANCH   6   7
ENDBRANCH   5   6
ENDBRANCH   4   5
ENDBRANCH   3   4
ENDBRANCH   2   3
ENDBRANCH   1   2
BRANCH   1  27
ATOM     27  C   UNL A   1      33.387  34.920  30.788  1.00  0.00     0.188 C 
BRANCH  27  28
ATOM     28  O   UNL A   1      33.987  35.777  31.751  1.00  0.00    -0.376 OA
BRANCH  28  29
ATOM     29  C   UNL A   1      34.838  35.181  32.715  1.00  0.00     0.202 C 
BRANCH  29  30
ATOM     30  C   UNL A   1      34.376  33.813  33.229  1.00  0.00     0.261 C 
BRANCH  30  31
ATOM     31  O   UNL A   1      35.174  32.695  32.811  1.00  0.00    -0.460 OA
BRANCH  31  32
ATOM     32  C   UNL A   1      36.280  32.414  33.533  1.00  0.00     0.338 C 
ATOM     33  O   UNL A   1      36.441  32.562  34.731  1.00  0.00    -0.246 OA
BRANCH  32  34
ATOM     34  C   UNL A   1      37.217  31.703  32.639  1.00  0.00     0.060 A 
ATOM     35  C   UNL A   1      38.204  30.883  33.200  1.00  0.00     0.016 A 
ATOM     36  C   UNL A   1      37.098  31.825  31.253  1.00  0.00     0.016 A 
ATOM     37  C   UNL A   1      39.095  30.201  32.371  1.00  0.00     0.010 A 
ATOM     38  C   UNL A   1      38.005  31.162  30.424  1.00  0.00     0.010 A 
ATOM     39  C   UNL A   1      39.025  30.372  30.981  1.00  0.00    -0.014 A 
BRANCH  39  40
ATOM     40  C   UNL A   1      40.147  29.906  30.132  1.00  0.00     0.031 A 
ATOM     41  C   UNL A   1      41.285  30.857  29.884  1.00  0.00     0.074 A 
ATOM     42  C   UNL A   1      40.179  28.662  29.624  1.00  0.00     0.049 A 
ATOM     43  N   UNL A   1      42.375  30.681  29.182  1.00  0.00    -0.248 NA
ATOM     44  C   UNL A   1      41.184  32.182  30.520  1.00  0.00     0.031 C 
ATOM     45  C   UNL A   1      39.166  27.631  29.836  1.00  0.00     0.029 A 
ATOM     46  N   UNL A   1      41.116  28.057  28.823  1.00  0.00    -0.354 N 
ATOM     47  C   UNL A   1      43.089  31.866  29.300  1.00  0.00     0.074 A 
ATOM     48  C   UNL A   1      42.297  32.767  30.104  1.00  0.00     0.031 C 
ATOM     49  C   UNL A   1      39.541  26.514  29.187  1.00  0.00     0.029 A 
ATOM     50  C   UNL A   1      40.802  26.762  28.488  1.00  0.00     0.049 A 
ATOM     51  H   UNL A   1      41.936  28.509  28.517  1.00  0.00     0.167 HD
ATOM     52  C   UNL A   1      44.306  32.172  28.795  1.00  0.00     0.031 A 
ATOM     53  C   UNL A   1      41.455  25.884  27.700  1.00  0.00     0.031 A 
ATOM     54  C   UNL A   1      45.087  31.289  27.975  1.00  0.00     0.049 A 
ATOM     55  C   UNL A   1      42.754  26.292  27.053  1.00  0.00     0.074 A 
ATOM     56  C   UNL A   1      46.329  31.514  27.410  1.00  0.00     0.029 A 
ATOM     57  N   UNL A   1      44.696  30.015  27.597  1.00  0.00    -0.354 N 
ATOM     58  N   UNL A   1      43.429  27.408  27.186  1.00  0.00    -0.248 NA
ATOM     59  C   UNL A   1      43.383  25.316  26.149  1.00  0.00     0.031 C 
ATOM     60  C   UNL A   1      46.664  30.397  26.640  1.00  0.00     0.029 A 
ATOM     61  C   UNL A   1      45.660  29.452  26.780  1.00  0.00     0.049 A 
ATOM     62  H   UNL A   1      43.858  29.574  27.869  1.00  0.00     0.167 HD
ATOM     63  C   UNL A   1      44.571  27.258  26.405  1.00  0.00     0.074 A 
ATOM     64  C   UNL A   1      44.504  25.939  25.814  1.00  0.00     0.031 C 
ATOM     65  C   UNL A   1      45.583  28.137  26.199  1.00  0.00     0.031 A 
BRANCH  52  66
ATOM     66  C   UNL A   1      44.861  33.533  29.102  1.00  0.00    -0.014 A 
ATOM     67  C   UNL A   1      45.562  33.776  30.293  1.00  0.00     0.009 A 
ATOM     68  C   UNL A   1      44.725  34.571  28.167  1.00  0.00     0.009 A 
ATOM     69  C   UNL A   1      46.101  35.038  30.551  1.00  0.00     0.001 A 
ATOM     70  C   UNL A   1      45.289  35.824  28.415  1.00  0.00     0.001 A 
ATOM     71  C   UNL A   1      45.970  36.058  29.609  1.00  0.00     0.000 A 
ENDBRANCH  52  66
BRANCH  53  72
ATOM     72  C   UNL A   1      40.892  24.526  27.471  1.00  0.00    -0.014 A 
ATOM     73  C   UNL A   1      41.474  23.401  28.076  1.00  0.00     0.009 A 
ATOM     74  C   UNL A   1      39.778  24.345  26.635  1.00  0.00     0.009 A 
ATOM     75  C   UNL A   1      40.963  22.123  27.836  1.00  0.00     0.001 A 
ATOM     76  C   UNL A   1      39.253  23.069  26.419  1.00  0.00     0.001 A 
ATOM     77  C   UNL A   1      39.849  21.959  27.015  1.00  0.00     0.000 A 
ENDBRANCH  53  72
BRANCH  65  78
ATOM     78  C   UNL A   1      46.718  27.706  25.313  1.00  0.00    -0.014 A 
ATOM     79  C   UNL A   1      46.728  28.012  23.945  1.00  0.00     0.009 A 
ATOM     80  C   UNL A   1      47.839  27.074  25.877  1.00  0.00     0.009 A 
ATOM     81  C   UNL A   1      47.831  27.679  23.154  1.00  0.00     0.001 A 
ATOM     82  C   UNL A   1      48.951  26.770  25.091  1.00  0.00     0.001 A 
ATOM     83  C   UNL A   1      48.944  27.067  23.730  1.00  0.00     0.000 A 
ENDBRANCH  65  78
ENDBRANCH  39  40
ENDBRANCH  32  34
ENDBRANCH  31  32
ENDBRANCH  30  31
ENDBRANCH  29  30
ENDBRANCH  28  29
ENDBRANCH  27  28
ENDBRANCH   1  27
TORSDOF 21
ENDMDL
MODEL 3
REMARK VINA RESULT:      -9.9      1.488      6.039
REMARK SMILES Cc1cc(C)c2c(c1)C=C(C(=O)OCCOCCOCCOCCOC(=O)c1ccc(-c3c4nc(c(-c5ccccc5)c5ccc([nH]5)c(-c5ccccc5)c5nc(c(-c6ccccc6)c6ccc3[nH]6)C=C5)C=C4)cc1)[C@@H](C(F)(F)F)O2
REMARK SMILES IDX 20 1 19 2 18 3 17 4 16 5 15 6 14 7 13 8 11 9 12 10 10 11
REMARK SMILES IDX 1 12 2 13 3 14 8 15 4 16 7 17 5 18 6 19 9 20 81 21 76 22
REMARK SMILES IDX 77 23 78 24 79 25 80 26 21 27 22 28 23 29 24 30 25 31 26 32
REMARK SMILES IDX 27 33 28 34 29 35 75 36 30 37 74 38 31 39 32 40 33 41 68 42
REMARK SMILES IDX 34 43 73 44 67 45 69 46 35 47 72 48 66 49 65 50 36 52 58 53
REMARK SMILES IDX 43 54 57 55 44 56 47 57 56 58 70 59 45 60 46 61 55 63 71 64
REMARK SMILES IDX 48 65 37 66 38 67 42 68 39 69 41 70 40 71 59 72 60 73 64 74
REMARK SMILES IDX 61 75 63 76 62 77 49 78 50 79 54 80 51 81 53 82 52 83
REMARK H PARENT 69 51 47 62
REMARK Flexibility Score: inf
ROOT
ATOM      1  C   UNL A   1      34.403  34.383  29.741  1.00  0.00     0.188 C 
ENDROOT
BRANCH   1   2
ATOM      2  O   UNL A   1      33.936  33.634  28.617  1.00  0.00    -0.377 OA
BRANCH   2   3
ATOM      3  C   UNL A   1      34.457  32.329  28.415  1.00  0.00     0.188 C 
BRANCH   3   4
ATOM      4  C   UNL A   1      33.589  31.448  27.497  1.00  0.00     0.188 C 
BRANCH   4   5
ATOM      5  O   UNL A   1      34.251  30.258  27.089  1.00  0.00    -0.376 OA
BRANCH   5   6
ATOM      6  C   UNL A   1      33.717  29.006  27.486  1.00  0.00     0.202 C 
BRANCH   6   7
ATOM      7  C   UNL A   1      32.858  28.196  26.501  1.00  0.00     0.261 C 
BRANCH   7   8
ATOM      8  O   UNL A   1      33.196  26.811  26.357  1.00  0.00    -0.460 OA
BRANCH   8   9
ATOM      9  C   UNL A   1      33.584  26.384  25.140  1.00  0.00     0.338 C 
ATOM     10  O   UNL A   1      33.969  27.076  24.215  1.00  0.00    -0.246 OA
BRANCH   9  11
ATOM     11  C   UNL A   1      33.624  24.905  25.173  1.00  0.00     0.087 C 
ATOM     12  C   UNL A   1      37.519  20.147  24.762  1.00  0.00     0.044 C 
ATOM     13  C   UNL A   1      36.196  20.840  24.906  1.00  0.00    -0.050 A 
ATOM     14  C   UNL A   1      35.008  20.097  24.919  1.00  0.00     0.010 A 
ATOM     15  C   UNL A   1      36.130  22.231  25.035  1.00  0.00     0.015 A 
ATOM     16  C   UNL A   1      33.764  20.730  25.050  1.00  0.00    -0.008 A 
ATOM     17  C   UNL A   1      34.894  22.878  25.135  1.00  0.00     0.018 A 
ATOM     18  C   UNL A   1      32.500  19.917  25.022  1.00  0.00     0.048 C 
ATOM     19  C   UNL A   1      33.716  22.128  25.178  1.00  0.00     0.130 A 
ATOM     20  C   UNL A   1      34.832  24.331  25.116  1.00  0.00     0.027 C 
ATOM     21  O   UNL A   1      32.478  22.689  25.327  1.00  0.00    -0.475 OA
ATOM     22  C   UNL A   1      32.341  24.135  25.343  1.00  0.00     0.316 C 
BRANCH  22  23
ATOM     23  C   UNL A   1      31.289  24.516  24.293  1.00  0.00     0.430 C 
ATOM     24  F   UNL A   1      30.753  23.416  23.710  1.00  0.00    -0.167 F 
ATOM     25  F   UNL A   1      30.257  25.208  24.830  1.00  0.00    -0.167 F 
ATOM     26  F   UNL A   1      31.815  25.280  23.308  1.00  0.00    -0.167 F 
ENDBRANCH  22  23
ENDBRANCH   9  11
ENDBRANCH   8   9
ENDBRANCH   7   8
ENDBRANCH   6   7
ENDBRANCH   5   6
ENDBRANCH   4   5
ENDBRANCH   3   4
ENDBRANCH   2   3
ENDBRANCH   1   2
BRANCH   1  27
ATOM     27  C   UNL A   1      33.457  34.917  30.846  1.00  0.00     0.188 C 
BRANCH  27  28
ATOM     28  O   UNL A   1      34.079  35.780  31.790  1.00  0.00    -0.376 OA
BRANCH  28  29
ATOM     29  C   UNL A   1      34.973  35.193  32.721  1.00  0.00     0.202 C 
BRANCH  29  30
ATOM     30  C   UNL A   1      34.561  33.807  33.228  1.00  0.00     0.261 C 
BRANCH  30  31
ATOM     31  O   UNL A   1      35.395  32.720  32.798  1.00  0.00    -0.460 OA
BRANCH  31  32
ATOM     32  C   UNL A   1      36.483  32.436  33.546  1.00  0.00     0.338 C 
ATOM     33  O   UNL A   1      36.590  32.511  34.757  1.00  0.00    -0.246 OA
BRANCH  32  34
ATOM     34  C   UNL A   1      37.482  31.821  32.649  1.00  0.00     0.060 A 
ATOM     35  C   UNL A   1      38.536  31.086  33.205  1.00  0.00     0.016 A 
ATOM     36  C   UNL A   1      37.359  31.950  31.264  1.00  0.00     0.016 A 
ATOM     37  C   UNL A   1      39.488  30.496  32.372  1.00  0.00     0.010 A 
ATOM     38  C   UNL A   1      38.325  31.380  30.432  1.00  0.00     0.010 A 
ATOM     39  C   UNL A   1      39.409  30.677  30.984  1.00  0.00    -0.014 A 
BRANCH  39  40
ATOM     40  C   UNL A   1      40.571  30.322  30.136  1.00  0.00     0.031 A 
ATOM     41  C   UNL A   1      40.581  28.966  29.487  1.00  0.00     0.074 A 
ATOM     42  C   UNL A   1      41.574  31.189  29.912  1.00  0.00     0.049 A 
ATOM     43  N   UNL A   1      41.480  28.429  28.703  1.00  0.00    -0.248 NA
ATOM     44  C   UNL A   1      39.418  28.102  29.753  1.00  0.00     0.031 C 
ATOM     45  C   UNL A   1      41.654  32.549  30.438  1.00  0.00     0.029 A 
ATOM     46  N   UNL A   1      42.720  31.044  29.171  1.00  0.00    -0.354 N 
ATOM     47  C   UNL A   1      40.986  27.172  28.377  1.00  0.00     0.074 A 
ATOM     48  C   UNL A   1      39.732  27.009  29.075  1.00  0.00     0.031 C 
ATOM     49  C   UNL A   1      42.789  33.120  29.995  1.00  0.00     0.029 A 
ATOM     50  C   UNL A   1      43.529  32.154  29.182  1.00  0.00     0.049 A 
ATOM     51  H   UNL A   1      42.943  30.221  28.678  1.00  0.00     0.167 HD
ATOM     52  C   UNL A   1      41.522  26.241  27.554  1.00  0.00     0.031 A 
ATOM     53  C   UNL A   1      44.731  32.361  28.609  1.00  0.00     0.031 A 
ATOM     54  C   UNL A   1      42.779  26.390  26.876  1.00  0.00     0.049 A 
ATOM     55  C   UNL A   1      45.362  31.262  27.791  1.00  0.00     0.074 A 
ATOM     56  C   UNL A   1      43.409  25.496  26.028  1.00  0.00     0.029 A 
ATOM     57  N   UNL A   1      43.602  27.499  26.977  1.00  0.00    -0.354 N 
ATOM     58  N   UNL A   1      44.879  30.086  27.475  1.00  0.00    -0.248 NA
ATOM     59  C   UNL A   1      46.706  31.523  27.251  1.00  0.00     0.031 C 
ATOM     60  C   UNL A   1      44.641  26.042  25.661  1.00  0.00     0.029 A 
ATOM     61  C   UNL A   1      44.749  27.302  26.229  1.00  0.00     0.049 A 
ATOM     62  H   UNL A   1      43.401  28.309  27.501  1.00  0.00     0.167 HD
ATOM     63  C   UNL A   1      45.845  29.478  26.679  1.00  0.00     0.074 A 
ATOM     64  C   UNL A   1      46.935  30.421  26.550  1.00  0.00     0.031 C 
ATOM     65  C   UNL A   1      45.826  28.249  26.107  1.00  0.00     0.031 A 
BRANCH  52  66
ATOM     66  C   UNL A   1      40.754  24.967  27.357  1.00  0.00    -0.014 A 
ATOM     67  C   UNL A   1      39.584  24.939  26.582  1.00  0.00     0.009 A 
ATOM     68  C   UNL A   1      41.233  23.769  27.912  1.00  0.00     0.009 A 
ATOM     69  C   UNL A   1      38.899  23.740  26.381  1.00  0.00     0.001 A 
ATOM     70  C   UNL A   1      40.560  22.567  27.685  1.00  0.00     0.001 A 
ATOM     71  C   UNL A   1      39.391  22.555  26.926  1.00  0.00     0.000 A 
ENDBRANCH  52  66
BRANCH  53  72
ATOM     72  C   UNL A   1      45.428  33.664  28.786  1.00  0.00    -0.014 A 
ATOM     73  C   UNL A   1      45.419  34.624  27.763  1.00  0.00     0.009 A 
ATOM     74  C   UNL A   1      46.119  33.949  29.976  1.00  0.00     0.009 A 
ATOM     75  C   UNL A   1      46.099  35.834  27.919  1.00  0.00     0.001 A 
ATOM     76  C   UNL A   1      46.774  35.172  30.140  1.00  0.00     0.001 A 
ATOM     77  C   UNL A   1      46.769  36.110  29.110  1.00  0.00     0.000 A 
ENDBRANCH  53  72
BRANCH  65  78
ATOM     78  C   UNL A   1      47.007  27.846  25.269  1.00  0.00    -0.014 A 
ATOM     79  C   UNL A   1      48.133  27.240  25.845  1.00  0.00     0.009 A 
ATOM     80  C   UNL A   1      46.948  27.984  23.872  1.00  0.00     0.009 A 
ATOM     81  C   UNL A   1      49.185  26.794  25.041  1.00  0.00     0.001 A 
ATOM     82  C   UNL A   1      47.987  27.510  23.069  1.00  0.00     0.001 A 
ATOM     83  C   UNL A   1      49.106  26.921  23.654  1.00  0.00     0.000 A 
ENDBRANCH  65  78
ENDBRANCH  39  40
ENDBRANCH  32  34
ENDBRANCH  31  32
ENDBRANCH  30  31
ENDBRANCH  29  30
ENDBRANCH  28  29
ENDBRANCH  27  28
ENDBRANCH   1  27
TORSDOF 21
ENDMDL
