MODEL 1
REMARK VINA RESULT:      -9.0      0.000      0.000
REMARK SMILES CC[C@@]1(C)C[C@@H]([NH2+]C[C@H]2CC[C@@H](C(=O)OCCOCCOCCOCCOC(=O)c3ccc(-c4c5nc(c(-c6ccccc6)c6ccc([nH]6)c(-c6ccccc6)c6nc(c(-c7ccccc7)c7ccc4[nH]7)C=C6)C=C5)cc3)CC2)CCO1
REMARK SMILES IDX 20 1 19 2 18 3 17 4 16 5 15 6 13 7 14 8 12 9 9 10 10 11
REMARK SMILES IDX 79 12 11 13 78 14 8 15 7 16 6 19 3 20 4 21 5 22 82 23 81 24
REMARK SMILES IDX 80 25 2 26 1 27 21 28 22 29 23 30 24 31 25 32 26 33 27 34
REMARK SMILES IDX 28 35 29 36 30 37 31 38 77 39 32 40 76 41 33 42 34 43 35 44
REMARK SMILES IDX 70 45 36 46 75 47 69 48 71 49 37 50 74 51 68 52 67 53 38 55
REMARK SMILES IDX 60 56 45 57 59 58 46 59 49 60 58 61 72 62 47 63 48 64 57 66
REMARK SMILES IDX 73 67 50 68 39 69 40 70 44 71 41 72 43 73 42 74 61 75 62 76
REMARK SMILES IDX 66 77 63 78 65 79 64 80 51 81 52 82 56 83 53 84 55 85 54 86
REMARK H PARENT 7 17 7 18 71 54 49 65
REMARK Flexibility Score: inf
ROOT
ATOM      1  C   UNL A   1      34.236  32.800  28.678  1.00  0.00     0.188 C 
ENDROOT
BRANCH   1   2
ATOM      2  C   UNL A   1      33.946  31.716  27.634  1.00  0.00     0.188 C 
BRANCH   2   3
ATOM      3  O   UNL A   1      34.533  30.441  27.792  1.00  0.00    -0.376 OA
BRANCH   3   4
ATOM      4  C   UNL A   1      33.902  29.272  27.286  1.00  0.00     0.202 C 
BRANCH   4   5
ATOM      5  C   UNL A   1      33.921  28.829  25.808  1.00  0.00     0.261 C 
BRANCH   5   6
ATOM      6  O   UNL A   1      32.776  29.173  25.007  1.00  0.00    -0.463 OA
BRANCH   6   7
ATOM      7  C   UNL A   1      32.842  28.836  23.694  1.00  0.00     0.309 C 
ATOM      8  O   UNL A   1      33.662  29.316  22.914  1.00  0.00    -0.252 OA
BRANCH   7   9
ATOM      9  C   UNL A   1      31.888  27.705  23.270  1.00  0.00     0.099 C 
ATOM     10  C   UNL A   1      30.267  25.321  24.219  1.00  0.00     0.044 C 
ATOM     11  C   UNL A   1      29.635  26.704  23.992  1.00  0.00     0.010 C 
ATOM     12  C   UNL A   1      31.343  25.211  23.122  1.00  0.00     0.010 C 
ATOM     13  C   UNL A   1      30.604  27.862  24.088  1.00  0.00     0.016 C 
ATOM     14  C   UNL A   1      32.438  26.267  23.303  1.00  0.00     0.016 C 
BRANCH  10  15
ATOM     15  C   UNL A   1      30.829  24.715  25.575  1.00  0.00     0.264 C 
BRANCH  15  16
ATOM     16  N   UNL A   1      31.689  23.547  25.831  1.00  0.00    -0.343 N 
ATOM     17  H   UNL A   1      31.138  22.874  26.362  1.00  0.00     0.346 HD
ATOM     18  H   UNL A   1      31.987  23.240  24.905  1.00  0.00     0.346 HD
BRANCH  16  19
ATOM     19  C   UNL A   1      32.936  23.766  26.566  1.00  0.00     0.187 C 
ATOM     20  C   UNL A   1      34.564  22.429  25.056  1.00  0.00     0.071 C 
ATOM     21  C   UNL A   1      35.776  22.798  24.162  1.00  0.00     0.042 C 
ATOM     22  C   UNL A   1      34.088  23.791  25.598  1.00  0.00     0.100 C 
ATOM     23  O   UNL A   1      35.064  21.742  26.222  1.00  0.00    -0.375 OA
ATOM     24  C   UNL A   1      34.030  21.461  27.169  1.00  0.00     0.167 C 
ATOM     25  C   UNL A   1      33.271  22.707  27.646  1.00  0.00     0.093 C 
BRANCH  20  26
ATOM     26  C   UNL A   1      33.726  21.393  24.218  1.00  0.00     0.032 C 
ATOM     27  C   UNL A   1      32.681  21.772  23.172  1.00  0.00     0.007 C 
ENDBRANCH  20  26
ENDBRANCH  16  19
ENDBRANCH  15  16
ENDBRANCH  10  15
ENDBRANCH   7   9
ENDBRANCH   6   7
ENDBRANCH   5   6
ENDBRANCH   4   5
ENDBRANCH   3   4
ENDBRANCH   2   3
ENDBRANCH   1   2
BRANCH   1  28
ATOM     28  O   UNL A   1      33.382  33.923  28.694  1.00  0.00    -0.377 OA
BRANCH  28  29
ATOM     29  C   UNL A   1      33.832  35.143  29.262  1.00  0.00     0.188 C 
BRANCH  29  30
ATOM     30  C   UNL A   1      33.455  35.520  30.705  1.00  0.00     0.188 C 
BRANCH  30  31
ATOM     31  O   UNL A   1      34.476  35.354  31.673  1.00  0.00    -0.376 OA
BRANCH  31  32
ATOM     32  C   UNL A   1      34.266  34.495  32.785  1.00  0.00     0.202 C 
BRANCH  32  33
ATOM     33  C   UNL A   1      34.149  32.977  32.557  1.00  0.00     0.261 C 
BRANCH  33  34
ATOM     34  O   UNL A   1      35.356  32.284  32.208  1.00  0.00    -0.460 OA
BRANCH  34  35
ATOM     35  C   UNL A   1      36.379  32.334  33.079  1.00  0.00     0.338 C 
ATOM     36  O   UNL A   1      36.317  32.308  34.301  1.00  0.00    -0.246 OA
BRANCH  35  37
ATOM     37  C   UNL A   1      37.635  32.225  32.319  1.00  0.00     0.060 A 
ATOM     38  C   UNL A   1      37.592  32.396  30.930  1.00  0.00     0.016 A 
ATOM     39  C   UNL A   1      38.838  31.923  32.963  1.00  0.00     0.016 A 
ATOM     40  C   UNL A   1      38.735  32.188  30.168  1.00  0.00     0.010 A 
ATOM     41  C   UNL A   1      39.979  31.685  32.196  1.00  0.00     0.010 A 
ATOM     42  C   UNL A   1      39.910  31.756  30.792  1.00  0.00    -0.014 A 
BRANCH  42  43
ATOM     43  C   UNL A   1      40.940  31.099  29.957  1.00  0.00     0.031 A 
ATOM     44  C   UNL A   1      42.208  31.862  29.681  1.00  0.00     0.074 A 
ATOM     45  C   UNL A   1      40.796  29.838  29.522  1.00  0.00     0.049 A 
ATOM     46  N   UNL A   1      43.266  31.503  29.002  1.00  0.00    -0.248 NA
ATOM     47  C   UNL A   1      42.291  33.219  30.250  1.00  0.00     0.031 C 
ATOM     48  C   UNL A   1      39.642  28.980  29.777  1.00  0.00     0.029 A 
ATOM     49  N   UNL A   1      41.641  29.063  28.770  1.00  0.00    -0.354 N 
ATOM     50  C   UNL A   1      44.128  32.592  29.048  1.00  0.00     0.074 A 
ATOM     51  C   UNL A   1      43.458  33.636  29.789  1.00  0.00     0.031 C 
ATOM     52  C   UNL A   1      39.850  27.792  29.183  1.00  0.00     0.029 A 
ATOM     53  C   UNL A   1      41.133  27.822  28.484  1.00  0.00     0.049 A 
ATOM     54  H   UNL A   1      42.526  29.368  28.466  1.00  0.00     0.167 HD
ATOM     55  C   UNL A   1      45.370  32.714  28.524  1.00  0.00     0.031 A 
ATOM     56  C   UNL A   1      41.643  26.830  27.728  1.00  0.00     0.031 A 
ATOM     57  C   UNL A   1      46.026  31.679  27.772  1.00  0.00     0.049 A 
ATOM     58  C   UNL A   1      42.997  27.010  27.094  1.00  0.00     0.074 A 
ATOM     59  C   UNL A   1      47.290  31.690  27.209  1.00  0.00     0.029 A 
ATOM     60  N   UNL A   1      45.460  30.450  27.466  1.00  0.00    -0.354 N 
ATOM     61  N   UNL A   1      43.815  28.032  27.162  1.00  0.00    -0.248 NA
ATOM     62  C   UNL A   1      43.503  25.887  26.293  1.00  0.00     0.031 C 
ATOM     63  C   UNL A   1      47.459  30.496  26.501  1.00  0.00     0.029 A 
ATOM     64  C   UNL A   1      46.335  29.707  26.693  1.00  0.00     0.049 A 
ATOM     65  H   UNL A   1      44.568  30.150  27.757  1.00  0.00     0.167 HD
ATOM     66  C   UNL A   1      44.946  27.665  26.441  1.00  0.00     0.074 A 
ATOM     67  C   UNL A   1      44.710  26.320  25.957  1.00  0.00     0.031 C 
ATOM     68  C   UNL A   1      46.081  28.373  26.209  1.00  0.00     0.031 A 
BRANCH  55  69
ATOM     69  C   UNL A   1      46.059  34.041  28.696  1.00  0.00    -0.014 A 
ATOM     70  C   UNL A   1      45.989  35.046  27.717  1.00  0.00     0.009 A 
ATOM     71  C   UNL A   1      46.809  34.281  29.857  1.00  0.00     0.009 A 
ATOM     72  C   UNL A   1      46.700  36.238  27.872  1.00  0.00     0.001 A 
ATOM     73  C   UNL A   1      47.489  35.488  30.028  1.00  0.00     0.001 A 
ATOM     74  C   UNL A   1      47.446  36.459  29.030  1.00  0.00     0.000 A 
ENDBRANCH  55  69
BRANCH  56  75
ATOM     75  C   UNL A   1      40.857  25.587  27.521  1.00  0.00    -0.014 A 
ATOM     76  C   UNL A   1      41.152  24.417  28.237  1.00  0.00     0.009 A 
ATOM     77  C   UNL A   1      39.790  25.571  26.608  1.00  0.00     0.009 A 
ATOM     78  C   UNL A   1      40.406  23.254  28.029  1.00  0.00     0.001 A 
ATOM     79  C   UNL A   1      39.028  24.417  26.424  1.00  0.00     0.001 A 
ATOM     80  C   UNL A   1      39.341  23.257  27.129  1.00  0.00     0.000 A 
ENDBRANCH  56  75
BRANCH  68  81
ATOM     81  C   UNL A   1      47.175  27.688  25.433  1.00  0.00    -0.014 A 
ATOM     82  C   UNL A   1      47.246  27.759  24.033  1.00  0.00     0.009 A 
ATOM     83  C   UNL A   1      48.175  26.987  26.126  1.00  0.00     0.009 A 
ATOM     84  C   UNL A   1      48.268  27.104  23.343  1.00  0.00     0.001 A 
ATOM     85  C   UNL A   1      49.216  26.364  25.438  1.00  0.00     0.001 A 
ATOM     86  C   UNL A   1      49.254  26.411  24.046  1.00  0.00     0.000 A 
ENDBRANCH  68  81
ENDBRANCH  42  43
ENDBRANCH  35  37
ENDBRANCH  34  35
ENDBRANCH  33  34
ENDBRANCH  32  33
ENDBRANCH  31  32
ENDBRANCH  30  31
ENDBRANCH  29  30
ENDBRANCH  28  29
ENDBRANCH   1  28
TORSDOF 24
ENDMDL
MODEL 2
REMARK VINA RESULT:      -8.7      2.647      7.762
REMARK SMILES CC[C@@]1(C)C[C@@H]([NH2+]C[C@H]2CC[C@@H](C(=O)OCCOCCOCCOCCOC(=O)c3ccc(-c4c5nc(c(-c6ccccc6)c6ccc([nH]6)c(-c6ccccc6)c6nc(c(-c7ccccc7)c7ccc4[nH]7)C=C6)C=C5)cc3)CC2)CCO1
REMARK SMILES IDX 20 1 19 2 18 3 17 4 16 5 15 6 13 7 14 8 12 9 9 10 10 11
REMARK SMILES IDX 79 12 11 13 78 14 8 15 7 16 6 19 3 20 4 21 5 22 82 23 81 24
REMARK SMILES IDX 80 25 2 26 1 27 21 28 22 29 23 30 24 31 25 32 26 33 27 34
REMARK SMILES IDX 28 35 29 36 30 37 31 38 77 39 32 40 76 41 33 42 34 43 35 44
REMARK SMILES IDX 70 45 36 46 75 47 69 48 71 49 37 50 74 51 68 52 67 53 38 55
REMARK SMILES IDX 60 56 45 57 59 58 46 59 49 60 58 61 72 62 47 63 48 64 57 66
REMARK SMILES IDX 73 67 50 68 39 69 40 70 44 71 41 72 43 73 42 74 61 75 62 76
REMARK SMILES IDX 66 77 63 78 65 79 64 80 51 81 52 82 56 83 53 84 55 85 54 86
REMARK H PARENT 7 17 7 18 71 54 49 65
REMARK Flexibility Score: inf
ROOT
ATOM      1  C   UNL A   1      31.272  26.025  26.556  1.00  0.00     0.188 C 
ENDROOT
BRANCH   1   2
ATOM      2  C   UNL A   1      31.601  24.559  26.858  1.00  0.00     0.188 C 
BRANCH   2   3
ATOM      3  O   UNL A   1      30.580  23.591  26.738  1.00  0.00    -0.376 OA
BRANCH   3   4
ATOM      4  C   UNL A   1      30.662  22.549  25.774  1.00  0.00     0.202 C 
BRANCH   4   5
ATOM      5  C   UNL A   1      31.975  21.917  25.267  1.00  0.00     0.261 C 
BRANCH   5   6
ATOM      6  O   UNL A   1      32.513  22.427  24.034  1.00  0.00    -0.463 OA
BRANCH   6   7
ATOM      7  C   UNL A   1      33.312  23.519  24.135  1.00  0.00     0.309 C 
ATOM      8  O   UNL A   1      34.181  23.643  24.996  1.00  0.00    -0.252 OA
BRANCH   7   9
ATOM      9  C   UNL A   1      33.138  24.552  23.008  1.00  0.00     0.099 C 
ATOM     10  C   UNL A   1      32.320  27.396  22.333  1.00  0.00     0.044 C 
ATOM     11  C   UNL A   1      33.792  26.982  22.493  1.00  0.00     0.010 C 
ATOM     12  C   UNL A   1      31.648  26.165  21.696  1.00  0.00     0.010 C 
ATOM     13  C   UNL A   1      34.011  25.758  23.357  1.00  0.00     0.016 C 
ATOM     14  C   UNL A   1      31.699  24.952  22.632  1.00  0.00     0.016 C 
BRANCH  10  15
ATOM     15  C   UNL A   1      31.356  28.019  23.429  1.00  0.00     0.264 C 
BRANCH  15  16
ATOM     16  N   UNL A   1      30.348  29.089  23.338  1.00  0.00    -0.343 N 
ATOM     17  H   UNL A   1      29.985  29.246  24.277  1.00  0.00     0.346 HD
ATOM     18  H   UNL A   1      30.846  29.876  22.921  1.00  0.00     0.346 HD
BRANCH  16  19
ATOM     19  C   UNL A   1      29.200  28.872  22.457  1.00  0.00     0.187 C 
ATOM     20  C   UNL A   1      28.395  31.321  22.190  1.00  0.00     0.071 C 
ATOM     21  C   UNL A   1      28.301  32.317  21.004  1.00  0.00     0.042 C 
ATOM     22  C   UNL A   1      29.027  30.066  21.557  1.00  0.00     0.100 C 
ATOM     23  O   UNL A   1      27.055  30.906  22.529  1.00  0.00    -0.375 OA
ATOM     24  C   UNL A   1      27.042  29.894  23.539  1.00  0.00     0.167 C 
ATOM     25  C   UNL A   1      27.843  28.639  23.170  1.00  0.00     0.093 C 
BRANCH  20  26
ATOM     26  C   UNL A   1      28.952  32.161  23.398  1.00  0.00     0.032 C 
ATOM     27  C   UNL A   1      29.270  33.653  23.341  1.00  0.00     0.007 C 
ENDBRANCH  20  26
ENDBRANCH  16  19
ENDBRANCH  15  16
ENDBRANCH  10  15
ENDBRANCH   7   9
ENDBRANCH   6   7
ENDBRANCH   5   6
ENDBRANCH   4   5
ENDBRANCH   3   4
ENDBRANCH   2   3
ENDBRANCH   1   2
BRANCH   1  28
ATOM     28  O   UNL A   1      32.359  26.900  26.348  1.00  0.00    -0.377 OA
BRANCH  28  29
ATOM     29  C   UNL A   1      32.542  28.015  27.205  1.00  0.00     0.188 C 
BRANCH  29  30
ATOM     30  C   UNL A   1      31.856  29.358  26.900  1.00  0.00     0.188 C 
BRANCH  30  31
ATOM     31  O   UNL A   1      32.714  30.411  26.497  1.00  0.00    -0.376 OA
BRANCH  31  32
ATOM     32  C   UNL A   1      33.918  30.656  27.209  1.00  0.00     0.202 C 
BRANCH  32  33
ATOM     33  C   UNL A   1      33.983  31.828  28.206  1.00  0.00     0.261 C 
BRANCH  33  34
ATOM     34  O   UNL A   1      35.284  32.182  28.697  1.00  0.00    -0.460 OA
BRANCH  34  35
ATOM     35  C   UNL A   1      35.676  31.650  29.868  1.00  0.00     0.338 C 
ATOM     36  O   UNL A   1      35.118  31.747  30.953  1.00  0.00    -0.246 OA
BRANCH  35  37
ATOM     37  C   UNL A   1      36.807  30.744  29.606  1.00  0.00     0.060 A 
ATOM     38  C   UNL A   1      37.389  30.074  30.688  1.00  0.00     0.016 A 
ATOM     39  C   UNL A   1      37.310  30.584  28.312  1.00  0.00     0.016 A 
ATOM     40  C   UNL A   1      38.528  29.301  30.496  1.00  0.00     0.010 A 
ATOM     41  C   UNL A   1      38.471  29.832  28.123  1.00  0.00     0.010 A 
ATOM     42  C   UNL A   1      39.115  29.243  29.226  1.00  0.00    -0.014 A 
BRANCH  42  43
ATOM     43  C   UNL A   1      40.534  28.832  29.135  1.00  0.00     0.031 A 
ATOM     44  C   UNL A   1      40.826  27.417  28.712  1.00  0.00     0.074 A 
ATOM     45  C   UNL A   1      41.534  29.702  29.341  1.00  0.00     0.049 A 
ATOM     46  N   UNL A   1      41.977  26.822  28.534  1.00  0.00    -0.248 NA
ATOM     47  C   UNL A   1      39.657  26.557  28.456  1.00  0.00     0.031 C 
ATOM     48  C   UNL A   1      41.374  31.110  29.695  1.00  0.00     0.029 A 
ATOM     49  N   UNL A   1      42.891  29.516  29.276  1.00  0.00    -0.354 N 
ATOM     50  C   UNL A   1      41.669  25.517  28.163  1.00  0.00     0.074 A 
ATOM     51  C   UNL A   1      40.229  25.398  28.177  1.00  0.00     0.031 C 
ATOM     52  C   UNL A   1      42.593  31.662  29.822  1.00  0.00     0.029 A 
ATOM     53  C   UNL A   1      43.612  30.639  29.590  1.00  0.00     0.049 A 
ATOM     54  H   UNL A   1      43.307  28.659  29.027  1.00  0.00     0.167 HD
ATOM     55  C   UNL A   1      42.509  24.508  27.837  1.00  0.00     0.031 A 
ATOM     56  C   UNL A   1      44.943  30.814  29.694  1.00  0.00     0.031 A 
ATOM     57  C   UNL A   1      43.942  24.626  27.842  1.00  0.00     0.049 A 
ATOM     58  C   UNL A   1      45.862  29.660  29.396  1.00  0.00     0.074 A 
ATOM     59  C   UNL A   1      44.888  23.672  27.513  1.00  0.00     0.029 A 
ATOM     60  N   UNL A   1      44.635  25.770  28.209  1.00  0.00    -0.354 N 
ATOM     61  N   UNL A   1      45.565  28.437  29.024  1.00  0.00    -0.248 NA
ATOM     62  C   UNL A   1      47.304  29.918  29.514  1.00  0.00     0.031 C 
ATOM     63  C   UNL A   1      46.154  24.215  27.752  1.00  0.00     0.029 A 
ATOM     64  C   UNL A   1      45.998  25.535  28.149  1.00  0.00     0.049 A 
ATOM     65  H   UNL A   1      44.220  26.622  28.474  1.00  0.00     0.167 HD
ATOM     66  C   UNL A   1      46.781  27.790  28.833  1.00  0.00     0.074 A 
ATOM     67  C   UNL A   1      47.817  28.761  29.118  1.00  0.00     0.031 C 
ATOM     68  C   UNL A   1      47.018  26.510  28.447  1.00  0.00     0.031 A 
BRANCH  55  69
ATOM     69  C   UNL A   1      41.887  23.175  27.516  1.00  0.00    -0.014 A 
ATOM     70  C   UNL A   1      41.813  22.143  28.466  1.00  0.00     0.009 A 
ATOM     71  C   UNL A   1      41.380  22.945  26.228  1.00  0.00     0.009 A 
ATOM     72  C   UNL A   1      41.297  20.892  28.115  1.00  0.00     0.001 A 
ATOM     73  C   UNL A   1      40.831  21.708  25.890  1.00  0.00     0.001 A 
ATOM     74  C   UNL A   1      40.803  20.678  26.829  1.00  0.00     0.000 A 
ENDBRANCH  55  69
BRANCH  56  75
ATOM     75  C   UNL A   1      45.480  32.133  30.117  1.00  0.00    -0.014 A 
ATOM     76  C   UNL A   1      45.843  33.103  29.170  1.00  0.00     0.009 A 
ATOM     77  C   UNL A   1      45.618  32.434  31.481  1.00  0.00     0.009 A 
ATOM     78  C   UNL A   1      46.349  34.338  29.581  1.00  0.00     0.001 A 
ATOM     79  C   UNL A   1      46.096  33.680  31.890  1.00  0.00     0.001 A 
ATOM     80  C   UNL A   1      46.468  34.628  30.940  1.00  0.00     0.000 A 
ENDBRANCH  56  75
BRANCH  68  81
ATOM     81  C   UNL A   1      48.455  26.099  28.265  1.00  0.00    -0.014 A 
ATOM     82  C   UNL A   1      49.055  26.045  26.997  1.00  0.00     0.009 A 
ATOM     83  C   UNL A   1      49.233  25.796  29.395  1.00  0.00     0.009 A 
ATOM     84  C   UNL A   1      50.388  25.649  26.862  1.00  0.00     0.001 A 
ATOM     85  C   UNL A   1      50.574  25.437  29.261  1.00  0.00     0.001 A 
ATOM     86  C   UNL A   1      51.147  25.350  27.994  1.00  0.00     0.000 A 
ENDBRANCH  68  81
ENDBRANCH  42  43
ENDBRANCH  35  37
ENDBRANCH  34  35
ENDBRANCH  33  34
ENDBRANCH  32  33
ENDBRANCH  31  32
ENDBRANCH  30  31
ENDBRANCH  29  30
ENDBRANCH  28  29
ENDBRANCH   1  28
TORSDOF 24
ENDMDL
MODEL 3
REMARK VINA RESULT:      -8.6      2.581      4.024
REMARK SMILES CC[C@@]1(C)C[C@@H]([NH2+]C[C@H]2CC[C@@H](C(=O)OCCOCCOCCOCCOC(=O)c3ccc(-c4c5nc(c(-c6ccccc6)c6ccc([nH]6)c(-c6ccccc6)c6nc(c(-c7ccccc7)c7ccc4[nH]7)C=C6)C=C5)cc3)CC2)CCO1
REMARK SMILES IDX 20 1 19 2 18 3 17 4 16 5 15 6 13 7 14 8 12 9 9 10 10 11
REMARK SMILES IDX 79 12 11 13 78 14 8 15 7 16 6 19 3 20 4 21 5 22 82 23 81 24
REMARK SMILES IDX 80 25 2 26 1 27 21 28 22 29 23 30 24 31 25 32 26 33 27 34
REMARK SMILES IDX 28 35 29 36 30 37 31 38 77 39 32 40 76 41 33 42 34 43 35 44
REMARK SMILES IDX 70 45 36 46 75 47 69 48 71 49 37 50 74 51 68 52 67 53 38 55
REMARK SMILES IDX 60 56 45 57 59 58 46 59 49 60 58 61 72 62 47 63 48 64 57 66
REMARK SMILES IDX 73 67 50 68 39 69 40 70 44 71 41 72 43 73 42 74 61 75 62 76
REMARK SMILES IDX 66 77 63 78 65 79 64 80 51 81 52 82 56 83 53 84 55 85 54 86
REMARK H PARENT 7 17 7 18 71 54 49 65
REMARK Flexibility Score: inf
ROOT
ATOM      1  C   UNL A   1      31.073  31.501  26.357  1.00  0.00     0.188 C 
ENDROOT
BRANCH   1   2
ATOM      2  C   UNL A   1      31.789  30.439  25.515  1.00  0.00     0.188 C 
BRANCH   2   3
ATOM      3  O   UNL A   1      31.212  29.155  25.400  1.00  0.00    -0.376 OA
BRANCH   3   4
ATOM      4  C   UNL A   1      31.693  28.060  26.167  1.00  0.00     0.202 C 
BRANCH   4   5
ATOM      5  C   UNL A   1      31.700  26.590  25.698  1.00  0.00     0.261 C 
BRANCH   5   6
ATOM      6  O   UNL A   1      32.953  25.885  25.770  1.00  0.00    -0.463 OA
BRANCH   6   7
ATOM      7  C   UNL A   1      33.706  25.886  24.641  1.00  0.00     0.309 C 
ATOM      8  O   UNL A   1      33.600  26.734  23.759  1.00  0.00    -0.252 OA
BRANCH   7   9
ATOM      9  C   UNL A   1      34.804  24.808  24.599  1.00  0.00     0.099 C 
ATOM     10  C   UNL A   1      35.389  21.833  24.750  1.00  0.00     0.044 C 
ATOM     11  C   UNL A   1      35.285  22.582  23.411  1.00  0.00     0.010 C 
ATOM     12  C   UNL A   1      36.031  22.856  25.706  1.00  0.00     0.010 C 
ATOM     13  C   UNL A   1      34.456  23.848  23.460  1.00  0.00     0.016 C 
ATOM     14  C   UNL A   1      35.125  24.074  25.915  1.00  0.00     0.016 C 
BRANCH  10  15
ATOM     15  C   UNL A   1      34.249  21.035  25.514  1.00  0.00     0.264 C 
BRANCH  15  16
ATOM     16  N   UNL A   1      33.989  19.591  25.632  1.00  0.00    -0.343 N 
ATOM     17  H   UNL A   1      34.707  19.108  25.094  1.00  0.00     0.346 HD
ATOM     18  H   UNL A   1      33.996  19.411  26.637  1.00  0.00     0.346 HD
BRANCH  16  19
ATOM     19  C   UNL A   1      32.691  19.091  25.178  1.00  0.00     0.187 C 
ATOM     20  C   UNL A   1      33.317  16.615  24.734  1.00  0.00     0.071 C 
ATOM     21  C   UNL A   1      32.903  15.255  25.355  1.00  0.00     0.042 C 
ATOM     22  C   UNL A   1      32.544  17.647  25.577  1.00  0.00     0.100 C 
ATOM     23  O   UNL A   1      32.715  16.708  23.426  1.00  0.00    -0.375 OA
ATOM     24  C   UNL A   1      32.943  17.981  22.816  1.00  0.00     0.167 C 
ATOM     25  C   UNL A   1      32.442  19.167  23.650  1.00  0.00     0.093 C 
BRANCH  20  26
ATOM     26  C   UNL A   1      34.876  16.525  24.533  1.00  0.00     0.032 C 
ATOM     27  C   UNL A   1      35.824  15.763  25.455  1.00  0.00     0.007 C 
ENDBRANCH  20  26
ENDBRANCH  16  19
ENDBRANCH  15  16
ENDBRANCH  10  15
ENDBRANCH   7   9
ENDBRANCH   6   7
ENDBRANCH   5   6
ENDBRANCH   4   5
ENDBRANCH   3   4
ENDBRANCH   2   3
ENDBRANCH   1   2
BRANCH   1  28
ATOM     28  O   UNL A   1      31.769  32.703  26.605  1.00  0.00    -0.377 OA
BRANCH  28  29
ATOM     29  C   UNL A   1      32.738  32.756  27.640  1.00  0.00     0.188 C 
BRANCH  29  30
ATOM     30  C   UNL A   1      33.326  34.103  28.093  1.00  0.00     0.188 C 
BRANCH  30  31
ATOM     31  O   UNL A   1      34.740  34.182  28.119  1.00  0.00    -0.376 OA
BRANCH  31  32
ATOM     32  C   UNL A   1      35.509  33.032  28.443  1.00  0.00     0.202 C 
BRANCH  32  33
ATOM     33  C   UNL A   1      35.678  32.626  29.919  1.00  0.00     0.261 C 
BRANCH  33  34
ATOM     34  O   UNL A   1      36.830  31.834  30.240  1.00  0.00    -0.460 OA
BRANCH  34  35
ATOM     35  C   UNL A   1      36.623  30.591  30.708  1.00  0.00     0.338 C 
ATOM     36  O   UNL A   1      35.654  30.184  31.335  1.00  0.00    -0.246 OA
BRANCH  35  37
ATOM     37  C   UNL A   1      37.677  29.715  30.169  1.00  0.00     0.060 A 
ATOM     38  C   UNL A   1      38.549  29.088  31.068  1.00  0.00     0.016 A 
ATOM     39  C   UNL A   1      37.827  29.541  28.791  1.00  0.00     0.016 A 
ATOM     40  C   UNL A   1      39.624  28.348  30.592  1.00  0.00     0.010 A 
ATOM     41  C   UNL A   1      38.924  28.822  28.312  1.00  0.00     0.010 A 
ATOM     42  C   UNL A   1      39.857  28.279  29.214  1.00  0.00    -0.014 A 
BRANCH  42  43
ATOM     43  C   UNL A   1      41.215  27.911  28.756  1.00  0.00     0.031 A 
ATOM     44  C   UNL A   1      42.278  28.977  28.790  1.00  0.00     0.074 A 
ATOM     45  C   UNL A   1      41.522  26.655  28.398  1.00  0.00     0.049 A 
ATOM     46  N   UNL A   1      43.543  28.903  28.467  1.00  0.00    -0.248 NA
ATOM     47  C   UNL A   1      41.851  30.309  29.251  1.00  0.00     0.031 C 
ATOM     48  C   UNL A   1      40.595  25.526  28.385  1.00  0.00     0.029 A 
ATOM     49  N   UNL A   1      42.715  26.124  27.979  1.00  0.00    -0.354 N 
ATOM     50  C   UNL A   1      44.055  30.179  28.669  1.00  0.00     0.074 A 
ATOM     51  C   UNL A   1      42.960  31.015  29.106  1.00  0.00     0.031 C 
ATOM     52  C   UNL A   1      41.255  24.432  27.969  1.00  0.00     0.029 A 
ATOM     53  C   UNL A   1      42.638  24.793  27.660  1.00  0.00     0.049 A 
ATOM     54  H   UNL A   1      43.545  26.648  27.913  1.00  0.00     0.167 HD
ATOM     55  C   UNL A   1      45.325  30.619  28.508  1.00  0.00     0.031 A 
ATOM     56  C   UNL A   1      43.576  23.966  27.158  1.00  0.00     0.031 A 
ATOM     57  C   UNL A   1      46.408  29.788  28.055  1.00  0.00     0.049 A 
ATOM     58  C   UNL A   1      44.966  24.490  26.919  1.00  0.00     0.074 A 
ATOM     59  C   UNL A   1      47.736  30.126  27.871  1.00  0.00     0.029 A 
ATOM     60  N   UNL A   1      46.279  28.453  27.699  1.00  0.00    -0.354 N 
ATOM     61  N   UNL A   1      45.449  25.691  27.134  1.00  0.00    -0.248 NA
ATOM     62  C   UNL A   1      45.947  23.535  26.384  1.00  0.00     0.031 C 
ATOM     63  C   UNL A   1      48.396  29.016  27.336  1.00  0.00     0.029 A 
ATOM     64  C   UNL A   1      47.498  27.962  27.264  1.00  0.00     0.049 A 
ATOM     65  H   UNL A   1      45.445  27.933  27.749  1.00  0.00     0.167 HD
ATOM     66  C   UNL A   1      46.795  25.628  26.792  1.00  0.00     0.074 A 
ATOM     67  C   UNL A   1      47.053  24.267  26.368  1.00  0.00     0.031 C 
ATOM     68  C   UNL A   1      47.736  26.606  26.834  1.00  0.00     0.031 A 
BRANCH  55  69
ATOM     69  C   UNL A   1      45.582  32.080  28.762  1.00  0.00    -0.014 A 
ATOM     70  C   UNL A   1      45.590  32.617  30.060  1.00  0.00     0.009 A 
ATOM     71  C   UNL A   1      45.801  32.939  27.675  1.00  0.00     0.009 A 
ATOM     72  C   UNL A   1      45.758  33.990  30.259  1.00  0.00     0.001 A 
ATOM     73  C   UNL A   1      46.006  34.305  27.878  1.00  0.00     0.001 A 
ATOM     74  C   UNL A   1      45.969  34.831  29.167  1.00  0.00     0.000 A 
ENDBRANCH  55  69
BRANCH  56  75
ATOM     75  C   UNL A   1      43.218  22.561  26.836  1.00  0.00    -0.014 A 
ATOM     76  C   UNL A   1      43.750  21.921  25.705  1.00  0.00     0.009 A 
ATOM     77  C   UNL A   1      42.348  21.844  27.673  1.00  0.00     0.009 A 
ATOM     78  C   UNL A   1      43.403  20.600  25.412  1.00  0.00     0.001 A 
ATOM     79  C   UNL A   1      42.027  20.515  27.394  1.00  0.00     0.001 A 
ATOM     80  C   UNL A   1      42.548  19.896  26.260  1.00  0.00     0.000 A 
ENDBRANCH  56  75
BRANCH  68  81
ATOM     81  C   UNL A   1      49.143  26.228  26.454  1.00  0.00    -0.014 A 
ATOM     82  C   UNL A   1      49.962  25.472  27.308  1.00  0.00     0.009 A 
ATOM     83  C   UNL A   1      49.643  26.608  25.198  1.00  0.00     0.009 A 
ATOM     84  C   UNL A   1      51.266  25.147  26.929  1.00  0.00     0.001 A 
ATOM     85  C   UNL A   1      50.933  26.250  24.807  1.00  0.00     0.001 A 
ATOM     86  C   UNL A   1      51.749  25.532  25.678  1.00  0.00     0.000 A 
ENDBRANCH  68  81
ENDBRANCH  42  43
ENDBRANCH  35  37
ENDBRANCH  34  35
ENDBRANCH  33  34
ENDBRANCH  32  33
ENDBRANCH  31  32
ENDBRANCH  30  31
ENDBRANCH  29  30
ENDBRANCH  28  29
ENDBRANCH   1  28
TORSDOF 24
ENDMDL
