MODEL 1
REMARK VINA RESULT:     -10.1      0.000      0.000
REMARK SMILES Cc1nc2scc(C)n2c1CNc1ccc(C(=O)OCCOCCOCCOCCOC(=O)c2ccc(-c3c4nc(c(-c5ccccc5)c5ccc([nH]5)c(-c5ccccc5)c5nc(c(-c6ccccc6)c6ccc3[nH]6)C=C5)C=C4)cc2)cc1
REMARK SMILES IDX 24 1 23 2 22 3 21 4 20 5 19 6 17 7 18 8 16 9 13 10 14 11
REMARK SMILES IDX 83 12 15 13 82 14 12 15 11 17 10 18 1 19 2 20 3 21 4 22 9 23
REMARK SMILES IDX 5 24 7 25 6 26 8 27 25 28 26 29 27 30 28 31 29 32 30 33
REMARK SMILES IDX 31 34 32 35 33 36 34 37 35 38 81 39 36 40 80 41 37 42 38 43
REMARK SMILES IDX 39 44 74 45 40 46 79 47 73 48 75 49 41 50 78 51 72 52 71 53
REMARK SMILES IDX 42 55 64 56 49 57 63 58 50 59 53 60 62 61 76 62 51 63 52 64
REMARK SMILES IDX 61 66 77 67 54 68 43 69 44 70 48 71 45 72 47 73 46 74 65 75
REMARK SMILES IDX 66 76 70 77 67 78 69 79 68 80 55 81 56 82 60 83 57 84 59 85
REMARK SMILES IDX 58 86
REMARK H PARENT 12 16 75 54 53 65
REMARK Flexibility Score: inf
ROOT
ATOM      1  C   UNL A   1      33.640  30.484  27.271  1.00  0.00     0.188 C 
ENDROOT
BRANCH   1   2
ATOM      2  C   UNL A   1      32.164  30.456  26.817  1.00  0.00     0.188 C 
BRANCH   2   3
ATOM      3  O   UNL A   1      31.901  29.607  25.708  1.00  0.00    -0.376 OA
BRANCH   3   4
ATOM      4  C   UNL A   1      33.032  29.139  24.992  1.00  0.00     0.202 C 
BRANCH   4   5
ATOM      5  C   UNL A   1      32.861  29.246  23.474  1.00  0.00     0.261 C 
BRANCH   5   6
ATOM      6  O   UNL A   1      32.187  28.126  22.880  1.00  0.00    -0.460 OA
BRANCH   6   7
ATOM      7  C   UNL A   1      32.975  27.197  22.296  1.00  0.00     0.338 C 
ATOM      8  O   UNL A   1      34.009  27.386  21.681  1.00  0.00    -0.246 OA
BRANCH   7   9
ATOM      9  C   UNL A   1      32.481  25.863  22.688  1.00  0.00     0.060 A 
ATOM     10  C   UNL A   1      31.696  23.364  23.658  1.00  0.00     0.034 A 
ATOM     11  C   UNL A   1      31.062  24.523  24.114  1.00  0.00     0.026 A 
ATOM     12  C   UNL A   1      32.607  23.465  22.597  1.00  0.00     0.026 A 
ATOM     13  C   UNL A   1      31.479  25.774  23.661  1.00  0.00     0.018 A 
ATOM     14  C   UNL A   1      32.996  24.708  22.103  1.00  0.00     0.018 A 
BRANCH  10  15
ATOM     15  N   UNL A   1      31.582  22.197  24.402  1.00  0.00    -0.379 N 
ATOM     16  H   UNL A   1      30.975  21.475  24.121  1.00  0.00     0.160 HD
BRANCH  15  17
ATOM     17  C   UNL A   1      32.386  22.072  25.608  1.00  0.00     0.169 C 
BRANCH  17  18
ATOM     18  C   UNL A   1      33.745  21.520  25.388  1.00  0.00     0.066 A 
ATOM     19  C   UNL A   1      33.260  19.008  24.964  1.00  0.00     0.069 C 
ATOM     20  C   UNL A   1      34.123  20.205  25.113  1.00  0.00     0.062 A 
ATOM     21  N   UNL A   1      35.482  20.095  24.926  1.00  0.00    -0.224 NA
ATOM     22  C   UNL A   1      35.905  21.317  25.065  1.00  0.00     0.194 A 
ATOM     23  N   UNL A   1      34.922  22.238  25.320  1.00  0.00    -0.290 N 
ATOM     24  S   UNL A   1      37.472  22.047  24.933  1.00  0.00    -0.105 S 
ATOM     25  C   UNL A   1      35.386  23.549  25.403  1.00  0.00     0.032 A 
ATOM     26  C   UNL A   1      36.721  23.611  25.214  1.00  0.00     0.090 A 
ATOM     27  C   UNL A   1      34.551  24.751  25.640  1.00  0.00     0.066 C 
ENDBRANCH  17  18
ENDBRANCH  15  17
ENDBRANCH  10  15
ENDBRANCH   7   9
ENDBRANCH   6   7
ENDBRANCH   5   6
ENDBRANCH   4   5
ENDBRANCH   3   4
ENDBRANCH   2   3
ENDBRANCH   1   2
BRANCH   1  28
ATOM     28  O   UNL A   1      34.400  31.685  27.253  1.00  0.00    -0.377 OA
BRANCH  28  29
ATOM     29  C   UNL A   1      34.278  32.619  28.317  1.00  0.00     0.188 C 
BRANCH  29  30
ATOM     30  C   UNL A   1      35.192  33.865  28.385  1.00  0.00     0.188 C 
BRANCH  30  31
ATOM     31  O   UNL A   1      34.518  35.119  28.365  1.00  0.00    -0.376 OA
BRANCH  31  32
ATOM     32  C   UNL A   1      33.168  35.159  28.792  1.00  0.00     0.202 C 
BRANCH  32  33
ATOM     33  C   UNL A   1      32.936  36.101  29.969  1.00  0.00     0.261 C 
BRANCH  33  34
ATOM     34  O   UNL A   1      33.790  35.834  31.072  1.00  0.00    -0.460 OA
BRANCH  34  35
ATOM     35  C   UNL A   1      33.207  35.211  32.113  1.00  0.00     0.338 C 
ATOM     36  O   UNL A   1      32.042  35.273  32.459  1.00  0.00    -0.246 OA
BRANCH  35  37
ATOM     37  C   UNL A   1      34.242  34.512  32.877  1.00  0.00     0.060 A 
ATOM     38  C   UNL A   1      35.368  35.267  33.207  1.00  0.00     0.016 A 
ATOM     39  C   UNL A   1      34.239  33.110  32.896  1.00  0.00     0.016 A 
ATOM     40  C   UNL A   1      36.575  34.616  33.266  1.00  0.00     0.010 A 
ATOM     41  C   UNL A   1      35.448  32.465  32.924  1.00  0.00     0.010 A 
ATOM     42  C   UNL A   1      36.599  33.244  32.999  1.00  0.00    -0.014 A 
BRANCH  42  43
ATOM     43  C   UNL A   1      37.879  32.659  32.691  1.00  0.00     0.031 A 
ATOM     44  C   UNL A   1      38.832  32.608  33.806  1.00  0.00     0.074 A 
ATOM     45  C   UNL A   1      38.142  32.125  31.485  1.00  0.00     0.049 A 
ATOM     46  N   UNL A   1      39.952  33.241  33.910  1.00  0.00    -0.248 NA
ATOM     47  C   UNL A   1      38.444  31.830  34.988  1.00  0.00     0.031 C 
ATOM     48  C   UNL A   1      37.198  31.811  30.409  1.00  0.00     0.029 A 
ATOM     49  N   UNL A   1      39.323  31.637  31.026  1.00  0.00    -0.354 N 
ATOM     50  C   UNL A   1      40.497  32.822  35.113  1.00  0.00     0.074 A 
ATOM     51  C   UNL A   1      39.473  32.072  35.799  1.00  0.00     0.031 C 
ATOM     52  C   UNL A   1      37.804  30.984  29.528  1.00  0.00     0.029 A 
ATOM     53  C   UNL A   1      39.197  30.820  29.917  1.00  0.00     0.049 A 
ATOM     54  H   UNL A   1      40.191  31.845  31.444  1.00  0.00     0.167 HD
ATOM     55  C   UNL A   1      41.825  32.923  35.371  1.00  0.00     0.031 A 
ATOM     56  C   UNL A   1      40.152  30.001  29.420  1.00  0.00     0.031 A 
ATOM     57  C   UNL A   1      42.504  33.804  34.462  1.00  0.00     0.049 A 
ATOM     58  C   UNL A   1      41.462  30.440  29.959  1.00  0.00     0.074 A 
ATOM     59  C   UNL A   1      42.397  35.143  34.142  1.00  0.00     0.029 A 
ATOM     60  N   UNL A   1      43.239  33.229  33.455  1.00  0.00    -0.354 N 
ATOM     61  N   UNL A   1      42.059  31.543  29.611  1.00  0.00    -0.248 NA
ATOM     62  C   UNL A   1      41.947  29.838  31.194  1.00  0.00     0.031 C 
ATOM     63  C   UNL A   1      42.694  35.221  32.750  1.00  0.00     0.029 A 
ATOM     64  C   UNL A   1      42.977  33.928  32.303  1.00  0.00     0.049 A 
ATOM     65  H   UNL A   1      43.844  32.457  33.542  1.00  0.00     0.167 HD
ATOM     66  C   UNL A   1      42.682  31.994  30.767  1.00  0.00     0.074 A 
ATOM     67  C   UNL A   1      42.689  30.844  31.664  1.00  0.00     0.031 C 
ATOM     68  C   UNL A   1      42.876  33.328  30.991  1.00  0.00     0.031 A 
BRANCH  55  69
ATOM     69  C   UNL A   1      42.553  31.930  36.227  1.00  0.00    -0.014 A 
ATOM     70  C   UNL A   1      43.246  32.381  37.359  1.00  0.00     0.009 A 
ATOM     71  C   UNL A   1      42.789  30.603  35.815  1.00  0.00     0.009 A 
ATOM     72  C   UNL A   1      44.151  31.550  38.028  1.00  0.00     0.001 A 
ATOM     73  C   UNL A   1      43.654  29.756  36.507  1.00  0.00     0.001 A 
ATOM     74  C   UNL A   1      44.353  30.239  37.604  1.00  0.00     0.000 A 
ENDBRANCH  55  69
BRANCH  56  75
ATOM     75  C   UNL A   1      39.971  28.717  28.717  1.00  0.00    -0.014 A 
ATOM     76  C   UNL A   1      40.475  28.531  27.422  1.00  0.00     0.009 A 
ATOM     77  C   UNL A   1      39.509  27.582  29.410  1.00  0.00     0.009 A 
ATOM     78  C   UNL A   1      40.540  27.253  26.854  1.00  0.00     0.001 A 
ATOM     79  C   UNL A   1      39.564  26.307  28.841  1.00  0.00     0.001 A 
ATOM     80  C   UNL A   1      40.093  26.142  27.566  1.00  0.00     0.000 A 
ENDBRANCH  56  75
BRANCH  68  81
ATOM     81  C   UNL A   1      42.659  34.272  29.833  1.00  0.00    -0.014 A 
ATOM     82  C   UNL A   1      41.388  34.765  29.485  1.00  0.00     0.009 A 
ATOM     83  C   UNL A   1      43.778  34.788  29.163  1.00  0.00     0.009 A 
ATOM     84  C   UNL A   1      41.240  35.713  28.469  1.00  0.00     0.001 A 
ATOM     85  C   UNL A   1      43.632  35.753  28.163  1.00  0.00     0.001 A 
ATOM     86  C   UNL A   1      42.363  36.209  27.812  1.00  0.00     0.000 A 
ENDBRANCH  68  81
ENDBRANCH  42  43
ENDBRANCH  35  37
ENDBRANCH  34  35
ENDBRANCH  33  34
ENDBRANCH  32  33
ENDBRANCH  31  32
ENDBRANCH  30  31
ENDBRANCH  29  30
ENDBRANCH  28  29
ENDBRANCH   1  28
TORSDOF 23
ENDMDL
MODEL 2
REMARK VINA RESULT:      -8.9      2.213      5.962
REMARK SMILES Cc1nc2scc(C)n2c1CNc1ccc(C(=O)OCCOCCOCCOCCOC(=O)c2ccc(-c3c4nc(c(-c5ccccc5)c5ccc([nH]5)c(-c5ccccc5)c5nc(c(-c6ccccc6)c6ccc3[nH]6)C=C5)C=C4)cc2)cc1
REMARK SMILES IDX 24 1 23 2 22 3 21 4 20 5 19 6 17 7 18 8 16 9 13 10 14 11
REMARK SMILES IDX 83 12 15 13 82 14 12 15 11 17 10 18 1 19 2 20 3 21 4 22 9 23
REMARK SMILES IDX 5 24 7 25 6 26 8 27 25 28 26 29 27 30 28 31 29 32 30 33
REMARK SMILES IDX 31 34 32 35 33 36 34 37 35 38 81 39 36 40 80 41 37 42 38 43
REMARK SMILES IDX 39 44 74 45 40 46 79 47 73 48 75 49 41 50 78 51 72 52 71 53
REMARK SMILES IDX 42 55 64 56 49 57 63 58 50 59 53 60 62 61 76 62 51 63 52 64
REMARK SMILES IDX 61 66 77 67 54 68 43 69 44 70 48 71 45 72 47 73 46 74 65 75
REMARK SMILES IDX 66 76 70 77 67 78 69 79 68 80 55 81 56 82 60 83 57 84 59 85
REMARK SMILES IDX 58 86
REMARK H PARENT 12 16 75 54 53 65
REMARK Flexibility Score: inf
ROOT
ATOM      1  C   UNL A   1      33.366  29.901  26.810  1.00  0.00     0.188 C 
ENDROOT
BRANCH   1   2
ATOM      2  C   UNL A   1      32.226  29.944  25.768  1.00  0.00     0.188 C 
BRANCH   2   3
ATOM      3  O   UNL A   1      32.074  28.755  25.005  1.00  0.00    -0.376 OA
BRANCH   3   4
ATOM      4  C   UNL A   1      31.047  28.760  24.029  1.00  0.00     0.202 C 
BRANCH   4   5
ATOM      5  C   UNL A   1      30.378  27.392  23.863  1.00  0.00     0.261 C 
BRANCH   5   6
ATOM      6  O   UNL A   1      31.128  26.301  24.419  1.00  0.00    -0.460 OA
BRANCH   6   7
ATOM      7  C   UNL A   1      31.703  25.460  23.532  1.00  0.00     0.338 C 
ATOM      8  O   UNL A   1      31.496  25.394  22.334  1.00  0.00    -0.246 OA
BRANCH   7   9
ATOM      9  C   UNL A   1      32.791  24.739  24.222  1.00  0.00     0.060 A 
ATOM     10  C   UNL A   1      34.946  23.618  25.601  1.00  0.00     0.034 A 
ATOM     11  C   UNL A   1      33.801  24.018  26.296  1.00  0.00     0.026 A 
ATOM     12  C   UNL A   1      34.926  23.637  24.199  1.00  0.00     0.026 A 
ATOM     13  C   UNL A   1      32.740  24.615  25.615  1.00  0.00     0.018 A 
ATOM     14  C   UNL A   1      33.851  24.187  23.505  1.00  0.00     0.018 A 
BRANCH  10  15
ATOM     15  N   UNL A   1      36.129  23.433  26.303  1.00  0.00    -0.379 N 
ATOM     16  H   UNL A   1      36.125  23.054  27.211  1.00  0.00     0.160 HD
BRANCH  15  17
ATOM     17  C   UNL A   1      37.376  23.815  25.658  1.00  0.00     0.169 C 
BRANCH  17  18
ATOM     18  C   UNL A   1      38.596  23.276  26.307  1.00  0.00     0.066 A 
ATOM     19  C   UNL A   1      39.356  25.261  27.792  1.00  0.00     0.069 C 
ATOM     20  C   UNL A   1      39.449  23.895  27.223  1.00  0.00     0.062 A 
ATOM     21  N   UNL A   1      40.454  23.050  27.634  1.00  0.00    -0.224 NA
ATOM     22  C   UNL A   1      40.197  21.945  26.997  1.00  0.00     0.194 A 
ATOM     23  N   UNL A   1      39.085  21.989  26.198  1.00  0.00    -0.290 N 
ATOM     24  S   UNL A   1      40.948  20.382  26.994  1.00  0.00    -0.105 S 
ATOM     25  C   UNL A   1      38.791  20.779  25.574  1.00  0.00     0.032 A 
ATOM     26  C   UNL A   1      39.688  19.826  25.902  1.00  0.00     0.090 A 
ATOM     27  C   UNL A   1      37.637  20.522  24.679  1.00  0.00     0.066 C 
ENDBRANCH  17  18
ENDBRANCH  15  17
ENDBRANCH  10  15
ENDBRANCH   7   9
ENDBRANCH   6   7
ENDBRANCH   5   6
ENDBRANCH   4   5
ENDBRANCH   3   4
ENDBRANCH   2   3
ENDBRANCH   1   2
BRANCH   1  28
ATOM     28  O   UNL A   1      33.888  31.088  27.391  1.00  0.00    -0.377 OA
BRANCH  28  29
ATOM     29  C   UNL A   1      33.026  32.182  27.670  1.00  0.00     0.188 C 
BRANCH  29  30
ATOM     30  C   UNL A   1      33.602  33.576  28.014  1.00  0.00     0.188 C 
BRANCH  30  31
ATOM     31  O   UNL A   1      32.970  34.247  29.099  1.00  0.00    -0.376 OA
BRANCH  31  32
ATOM     32  C   UNL A   1      33.703  35.247  29.784  1.00  0.00     0.202 C 
BRANCH  32  33
ATOM     33  C   UNL A   1      33.964  34.906  31.248  1.00  0.00     0.261 C 
BRANCH  33  34
ATOM     34  O   UNL A   1      33.836  33.520  31.527  1.00  0.00    -0.460 OA
BRANCH  34  35
ATOM     35  C   UNL A   1      34.629  33.055  32.510  1.00  0.00     0.338 C 
ATOM     36  O   UNL A   1      34.669  33.424  33.670  1.00  0.00    -0.246 OA
BRANCH  35  37
ATOM     37  C   UNL A   1      35.563  32.085  31.937  1.00  0.00     0.060 A 
ATOM     38  C   UNL A   1      36.567  31.629  32.790  1.00  0.00     0.016 A 
ATOM     39  C   UNL A   1      35.645  31.968  30.541  1.00  0.00     0.016 A 
ATOM     40  C   UNL A   1      37.786  31.327  32.235  1.00  0.00     0.010 A 
ATOM     41  C   UNL A   1      36.870  31.697  29.990  1.00  0.00     0.010 A 
ATOM     42  C   UNL A   1      37.941  31.490  30.855  1.00  0.00    -0.014 A 
BRANCH  42  43
ATOM     43  C   UNL A   1      39.289  31.542  30.349  1.00  0.00     0.031 A 
ATOM     44  C   UNL A   1      39.786  30.296  29.754  1.00  0.00     0.074 A 
ATOM     45  C   UNL A   1      40.003  32.681  30.353  1.00  0.00     0.049 A 
ATOM     46  N   UNL A   1      40.742  29.547  30.187  1.00  0.00    -0.248 NA
ATOM     47  C   UNL A   1      39.067  29.775  28.585  1.00  0.00     0.031 C 
ATOM     48  C   UNL A   1      39.529  34.045  30.602  1.00  0.00     0.029 A 
ATOM     49  N   UNL A   1      41.304  32.854  30.006  1.00  0.00    -0.354 N 
ATOM     50  C   UNL A   1      40.857  28.527  29.255  1.00  0.00     0.074 A 
ATOM     51  C   UNL A   1      39.719  28.633  28.376  1.00  0.00     0.031 C 
ATOM     52  C   UNL A   1      40.471  34.917  30.175  1.00  0.00     0.029 A 
ATOM     53  C   UNL A   1      41.643  34.169  29.746  1.00  0.00     0.049 A 
ATOM     54  H   UNL A   1      41.948  32.111  29.945  1.00  0.00     0.167 HD
ATOM     55  C   UNL A   1      41.995  27.800  29.126  1.00  0.00     0.031 A 
ATOM     56  C   UNL A   1      42.774  34.593  29.136  1.00  0.00     0.031 A 
ATOM     57  C   UNL A   1      42.881  27.947  30.248  1.00  0.00     0.049 A 
ATOM     58  C   UNL A   1      43.770  33.495  29.195  1.00  0.00     0.074 A 
ATOM     59  C   UNL A   1      42.790  27.687  31.601  1.00  0.00     0.029 A 
ATOM     60  N   UNL A   1      43.968  28.772  30.092  1.00  0.00    -0.354 N 
ATOM     61  N   UNL A   1      44.363  33.109  30.288  1.00  0.00    -0.248 NA
ATOM     62  C   UNL A   1      43.831  32.547  28.091  1.00  0.00     0.031 C 
ATOM     63  C   UNL A   1      43.553  28.711  32.232  1.00  0.00     0.029 A 
ATOM     64  C   UNL A   1      44.077  29.530  31.230  1.00  0.00     0.049 A 
ATOM     65  H   UNL A   1      44.562  28.811  29.307  1.00  0.00     0.167 HD
ATOM     66  C   UNL A   1      44.498  31.734  30.155  1.00  0.00     0.074 A 
ATOM     67  C   UNL A   1      44.277  31.468  28.738  1.00  0.00     0.031 C 
ATOM     68  C   UNL A   1      44.495  30.915  31.249  1.00  0.00     0.031 A 
BRANCH  55  69
ATOM     69  C   UNL A   1      42.449  27.247  27.808  1.00  0.00    -0.014 A 
ATOM     70  C   UNL A   1      42.171  27.962  26.635  1.00  0.00     0.009 A 
ATOM     71  C   UNL A   1      42.916  25.926  27.661  1.00  0.00     0.009 A 
ATOM     72  C   UNL A   1      42.330  27.371  25.377  1.00  0.00     0.001 A 
ATOM     73  C   UNL A   1      43.121  25.349  26.408  1.00  0.00     0.001 A 
ATOM     74  C   UNL A   1      42.806  26.066  25.264  1.00  0.00     0.000 A 
ENDBRANCH  55  69
BRANCH  56  75
ATOM     75  C   UNL A   1      42.955  35.786  28.287  1.00  0.00    -0.014 A 
ATOM     76  C   UNL A   1      41.849  36.452  27.741  1.00  0.00     0.009 A 
ATOM     77  C   UNL A   1      44.209  36.421  28.204  1.00  0.00     0.009 A 
ATOM     78  C   UNL A   1      41.989  37.718  27.159  1.00  0.00     0.001 A 
ATOM     79  C   UNL A   1      44.352  37.680  27.615  1.00  0.00     0.001 A 
ATOM     80  C   UNL A   1      43.237  38.335  27.106  1.00  0.00     0.000 A 
ENDBRANCH  56  75
BRANCH  68  81
ATOM     81  C   UNL A   1      44.628  31.560  32.608  1.00  0.00    -0.014 A 
ATOM     82  C   UNL A   1      45.861  31.671  33.276  1.00  0.00     0.009 A 
ATOM     83  C   UNL A   1      43.509  32.194  33.167  1.00  0.00     0.009 A 
ATOM     84  C   UNL A   1      45.961  32.361  34.488  1.00  0.00     0.001 A 
ATOM     85  C   UNL A   1      43.614  32.903  34.367  1.00  0.00     0.001 A 
ATOM     86  C   UNL A   1      44.837  32.980  35.030  1.00  0.00     0.000 A 
ENDBRANCH  68  81
ENDBRANCH  42  43
ENDBRANCH  35  37
ENDBRANCH  34  35
ENDBRANCH  33  34
ENDBRANCH  32  33
ENDBRANCH  31  32
ENDBRANCH  30  31
ENDBRANCH  29  30
ENDBRANCH  28  29
ENDBRANCH   1  28
TORSDOF 23
ENDMDL
MODEL 3
REMARK VINA RESULT:      -8.5      2.191      4.054
REMARK SMILES Cc1nc2scc(C)n2c1CNc1ccc(C(=O)OCCOCCOCCOCCOC(=O)c2ccc(-c3c4nc(c(-c5ccccc5)c5ccc([nH]5)c(-c5ccccc5)c5nc(c(-c6ccccc6)c6ccc3[nH]6)C=C5)C=C4)cc2)cc1
REMARK SMILES IDX 24 1 23 2 22 3 21 4 20 5 19 6 17 7 18 8 16 9 13 10 14 11
REMARK SMILES IDX 83 12 15 13 82 14 12 15 11 17 10 18 1 19 2 20 3 21 4 22 9 23
REMARK SMILES IDX 5 24 7 25 6 26 8 27 25 28 26 29 27 30 28 31 29 32 30 33
REMARK SMILES IDX 31 34 32 35 33 36 34 37 35 38 81 39 36 40 80 41 37 42 38 43
REMARK SMILES IDX 39 44 74 45 40 46 79 47 73 48 75 49 41 50 78 51 72 52 71 53
REMARK SMILES IDX 42 55 64 56 49 57 63 58 50 59 53 60 62 61 76 62 51 63 52 64
REMARK SMILES IDX 61 66 77 67 54 68 43 69 44 70 48 71 45 72 47 73 46 74 65 75
REMARK SMILES IDX 66 76 70 77 67 78 69 79 68 80 55 81 56 82 60 83 57 84 59 85
REMARK SMILES IDX 58 86
REMARK H PARENT 12 16 75 54 53 65
REMARK Flexibility Score: inf
ROOT
ATOM      1  C   UNL A   1      33.844  29.075  27.138  1.00  0.00     0.188 C 
ENDROOT
BRANCH   1   2
ATOM      2  C   UNL A   1      32.369  28.847  27.538  1.00  0.00     0.188 C 
BRANCH   2   3
ATOM      3  O   UNL A   1      31.425  29.180  26.529  1.00  0.00    -0.376 OA
BRANCH   3   4
ATOM      4  C   UNL A   1      31.955  29.632  25.295  1.00  0.00     0.202 C 
BRANCH   4   5
ATOM      5  C   UNL A   1      30.884  30.206  24.363  1.00  0.00     0.261 C 
BRANCH   5   6
ATOM      6  O   UNL A   1      29.875  29.260  23.976  1.00  0.00    -0.460 OA
BRANCH   6   7
ATOM      7  C   UNL A   1      30.105  28.577  22.834  1.00  0.00     0.338 C 
ATOM      8  O   UNL A   1      29.898  28.952  21.694  1.00  0.00    -0.246 OA
BRANCH   7   9
ATOM      9  C   UNL A   1      30.841  27.344  23.175  1.00  0.00     0.060 A 
ATOM     10  C   UNL A   1      32.326  25.143  24.043  1.00  0.00     0.034 A 
ATOM     11  C   UNL A   1      31.063  25.395  24.587  1.00  0.00     0.026 A 
ATOM     12  C   UNL A   1      32.756  25.910  22.952  1.00  0.00     0.026 A 
ATOM     13  C   UNL A   1      30.337  26.515  24.184  1.00  0.00     0.018 A 
ATOM     14  C   UNL A   1      32.017  27.004  22.508  1.00  0.00     0.018 A 
BRANCH  10  15
ATOM     15  N   UNL A   1      33.200  24.310  24.729  1.00  0.00    -0.379 N 
ATOM     16  H   UNL A   1      33.066  24.110  25.683  1.00  0.00     0.160 HD
BRANCH  15  17
ATOM     17  C   UNL A   1      34.321  23.741  23.996  1.00  0.00     0.169 C 
BRANCH  17  18
ATOM     18  C   UNL A   1      34.685  22.361  24.400  1.00  0.00     0.066 A 
ATOM     19  C   UNL A   1      36.872  22.736  25.742  1.00  0.00     0.069 C 
ATOM     20  C   UNL A   1      35.781  21.927  25.149  1.00  0.00     0.062 A 
ATOM     21  N   UNL A   1      35.748  20.566  25.355  1.00  0.00    -0.224 NA
ATOM     22  C   UNL A   1      34.650  20.199  24.763  1.00  0.00     0.194 A 
ATOM     23  N   UNL A   1      33.940  21.219  24.186  1.00  0.00    -0.290 N 
ATOM     24  S   UNL A   1      33.851  18.668  24.602  1.00  0.00    -0.105 S 
ATOM     25  C   UNL A   1      32.737  20.814  23.612  1.00  0.00     0.032 A 
ATOM     26  C   UNL A   1      32.545  19.486  23.756  1.00  0.00     0.090 A 
ATOM     27  C   UNL A   1      31.753  21.700  22.944  1.00  0.00     0.066 C 
ENDBRANCH  17  18
ENDBRANCH  15  17
ENDBRANCH  10  15
ENDBRANCH   7   9
ENDBRANCH   6   7
ENDBRANCH   5   6
ENDBRANCH   4   5
ENDBRANCH   3   4
ENDBRANCH   2   3
ENDBRANCH   1   2
BRANCH   1  28
ATOM     28  O   UNL A   1      34.504  30.307  27.398  1.00  0.00    -0.377 OA
BRANCH  28  29
ATOM     29  C   UNL A   1      33.803  31.369  28.029  1.00  0.00     0.188 C 
BRANCH  29  30
ATOM     30  C   UNL A   1      34.329  32.822  27.952  1.00  0.00     0.188 C 
BRANCH  30  31
ATOM     31  O   UNL A   1      33.332  33.837  28.012  1.00  0.00    -0.376 OA
BRANCH  31  32
ATOM     32  C   UNL A   1      33.724  35.134  28.425  1.00  0.00     0.202 C 
BRANCH  32  33
ATOM     33  C   UNL A   1      33.117  35.549  29.762  1.00  0.00     0.261 C 
BRANCH  33  34
ATOM     34  O   UNL A   1      33.280  34.568  30.775  1.00  0.00    -0.460 OA
BRANCH  34  35
ATOM     35  C   UNL A   1      34.018  34.951  31.833  1.00  0.00     0.338 C 
ATOM     36  O   UNL A   1      34.025  36.038  32.381  1.00  0.00    -0.246 OA
BRANCH  35  37
ATOM     37  C   UNL A   1      34.942  33.867  32.173  1.00  0.00     0.060 A 
ATOM     38  C   UNL A   1      35.697  34.052  33.331  1.00  0.00     0.016 A 
ATOM     39  C   UNL A   1      35.295  32.942  31.179  1.00  0.00     0.016 A 
ATOM     40  C   UNL A   1      36.965  33.525  33.355  1.00  0.00     0.010 A 
ATOM     41  C   UNL A   1      36.571  32.442  31.190  1.00  0.00     0.010 A 
ATOM     42  C   UNL A   1      37.414  32.836  32.225  1.00  0.00    -0.014 A 
BRANCH  42  43
ATOM     43  C   UNL A   1      38.835  32.627  32.107  1.00  0.00     0.031 A 
ATOM     44  C   UNL A   1      39.341  31.388  32.711  1.00  0.00     0.074 A 
ATOM     45  C   UNL A   1      39.621  33.474  31.420  1.00  0.00     0.049 A 
ATOM     46  N   UNL A   1      40.133  31.275  33.722  1.00  0.00    -0.248 NA
ATOM     47  C   UNL A   1      38.825  30.122  32.179  1.00  0.00     0.031 C 
ATOM     48  C   UNL A   1      39.215  34.545  30.506  1.00  0.00     0.029 A 
ATOM     49  N   UNL A   1      40.974  33.459  31.311  1.00  0.00    -0.354 N 
ATOM     50  C   UNL A   1      40.348  29.914  33.866  1.00  0.00     0.074 A 
ATOM     51  C   UNL A   1      39.415  29.247  32.991  1.00  0.00     0.031 C 
ATOM     52  C   UNL A   1      40.286  34.918  29.770  1.00  0.00     0.029 A 
ATOM     53  C   UNL A   1      41.458  34.202  30.250  1.00  0.00     0.049 A 
ATOM     54  H   UNL A   1      41.558  32.964  31.932  1.00  0.00     0.167 HD
ATOM     55  C   UNL A   1      41.430  29.425  34.524  1.00  0.00     0.031 A 
ATOM     56  C   UNL A   1      42.716  34.152  29.754  1.00  0.00     0.031 A 
ATOM     57  C   UNL A   1      42.088  30.418  35.328  1.00  0.00     0.049 A 
ATOM     58  C   UNL A   1      43.593  33.533  30.777  1.00  0.00     0.074 A 
ATOM     59  C   UNL A   1      41.715  31.210  36.395  1.00  0.00     0.029 A 
ATOM     60  N   UNL A   1      43.246  30.967  34.833  1.00  0.00    -0.354 N 
ATOM     61  N   UNL A   1      43.929  34.112  31.893  1.00  0.00    -0.248 NA
ATOM     62  C   UNL A   1      43.795  32.091  30.745  1.00  0.00     0.031 C 
ATOM     63  C   UNL A   1      42.417  32.437  36.216  1.00  0.00     0.029 A 
ATOM     64  C   UNL A   1      43.189  32.319  35.057  1.00  0.00     0.049 A 
ATOM     65  H   UNL A   1      43.982  30.480  34.397  1.00  0.00     0.167 HD
ATOM     66  C   UNL A   1      43.981  33.088  32.828  1.00  0.00     0.074 A 
ATOM     67  C   UNL A   1      44.020  31.861  32.041  1.00  0.00     0.031 C 
ATOM     68  C   UNL A   1      43.700  33.319  34.145  1.00  0.00     0.031 A 
BRANCH  55  69
ATOM     69  C   UNL A   1      42.088  28.135  34.138  1.00  0.00    -0.014 A 
ATOM     70  C   UNL A   1      42.010  27.040  35.010  1.00  0.00     0.009 A 
ATOM     71  C   UNL A   1      42.994  28.038  33.062  1.00  0.00     0.009 A 
ATOM     72  C   UNL A   1      42.821  25.914  34.826  1.00  0.00     0.001 A 
ATOM     73  C   UNL A   1      43.769  26.899  32.849  1.00  0.00     0.001 A 
ATOM     74  C   UNL A   1      43.698  25.844  33.746  1.00  0.00     0.000 A 
ENDBRANCH  55  69
BRANCH  56  75
ATOM     75  C   UNL A   1      43.151  34.371  28.361  1.00  0.00    -0.014 A 
ATOM     76  C   UNL A   1      43.819  33.362  27.652  1.00  0.00     0.009 A 
ATOM     77  C   UNL A   1      42.699  35.492  27.639  1.00  0.00     0.009 A 
ATOM     78  C   UNL A   1      44.002  33.460  26.266  1.00  0.00     0.001 A 
ATOM     79  C   UNL A   1      42.890  35.595  26.258  1.00  0.00     0.001 A 
ATOM     80  C   UNL A   1      43.529  34.570  25.570  1.00  0.00     0.000 A 
ENDBRANCH  56  75
BRANCH  68  81
ATOM     81  C   UNL A   1      43.616  34.755  34.603  1.00  0.00    -0.014 A 
ATOM     82  C   UNL A   1      44.638  35.375  35.344  1.00  0.00     0.009 A 
ATOM     83  C   UNL A   1      42.545  35.544  34.158  1.00  0.00     0.009 A 
ATOM     84  C   UNL A   1      44.567  36.734  35.666  1.00  0.00     0.001 A 
ATOM     85  C   UNL A   1      42.485  36.907  34.461  1.00  0.00     0.001 A 
ATOM     86  C   UNL A   1      43.492  37.499  35.220  1.00  0.00     0.000 A 
ENDBRANCH  68  81
ENDBRANCH  42  43
ENDBRANCH  35  37
ENDBRANCH  34  35
ENDBRANCH  33  34
ENDBRANCH  32  33
ENDBRANCH  31  32
ENDBRANCH  30  31
ENDBRANCH  29  30
ENDBRANCH  28  29
ENDBRANCH   1  28
TORSDOF 23
ENDMDL
