MODEL 1
REMARK VINA RESULT:      -7.6      0.000      0.000
REMARK SMILES CCCN1CCC[C@@]2(CCN(c3ccc(C(=O)OCCOCCOCCOCCOC(=O)c4ccc(-c5c6nc(c(-c7ccccc7)c7ccc([nH]7)c(-c7ccccc7)c7nc(c(-c8ccccc8)c8ccc5[nH]8)C=C7)C=C6)cc4)cn3)C2)C1=O
REMARK SMILES IDX 23 1 22 2 21 3 20 4 19 5 18 6 16 7 17 8 15 9 12 10 13 11
REMARK SMILES IDX 82 12 14 13 81 14 11 15 4 16 5 17 84 18 6 19 8 20 85 21 7 22
REMARK SMILES IDX 9 23 83 24 10 25 3 26 2 27 1 28 24 29 25 30 26 31 27 32
REMARK SMILES IDX 28 33 29 34 30 35 31 36 32 37 33 38 34 39 80 40 35 41 79 42
REMARK SMILES IDX 36 43 37 44 38 45 73 46 39 47 78 48 72 49 74 50 40 51 77 52
REMARK SMILES IDX 71 53 70 54 41 56 63 57 48 58 62 59 49 60 52 61 61 62 75 63
REMARK SMILES IDX 50 64 51 65 60 67 76 68 53 69 42 70 43 71 47 72 44 73 46 74
REMARK SMILES IDX 45 75 64 76 65 77 69 78 66 79 68 80 67 81 54 82 55 83 59 84
REMARK SMILES IDX 56 85 58 86 57 87
REMARK H PARENT 74 55 52 66
REMARK Flexibility Score: inf
ROOT
ATOM      1  C   UNL A   1      34.295  33.569  28.965  1.00  0.00     0.188 C 
ENDROOT
BRANCH   1   2
ATOM      2  C   UNL A   1      35.606  34.349  28.734  1.00  0.00     0.188 C 
BRANCH   2   3
ATOM      3  O   UNL A   1      36.763  33.576  29.005  1.00  0.00    -0.376 OA
BRANCH   3   4
ATOM      4  C   UNL A   1      36.862  32.254  28.513  1.00  0.00     0.202 C 
BRANCH   4   5
ATOM      5  C   UNL A   1      36.786  31.044  29.458  1.00  0.00     0.261 C 
BRANCH   5   6
ATOM      6  O   UNL A   1      37.143  29.773  28.916  1.00  0.00    -0.460 OA
BRANCH   6   7
ATOM      7  C   UNL A   1      37.861  28.934  29.691  1.00  0.00     0.339 C 
ATOM      8  O   UNL A   1      37.542  28.482  30.775  1.00  0.00    -0.246 OA
BRANCH   7   9
ATOM      9  C   UNL A   1      39.028  28.501  28.903  1.00  0.00     0.078 A 
ATOM     10  C   UNL A   1      41.185  27.522  27.495  1.00  0.00     0.128 A 
ATOM     11  C   UNL A   1      40.518  28.661  27.038  1.00  0.00     0.048 A 
ATOM     12  N   UNL A   1      40.763  26.843  28.582  1.00  0.00    -0.238 NA
ATOM     13  C   UNL A   1      39.422  29.153  27.739  1.00  0.00     0.021 A 
ATOM     14  C   UNL A   1      39.712  27.353  29.273  1.00  0.00     0.129 A 
BRANCH  10  15
ATOM     15  N   UNL A   1      42.389  27.192  26.897  1.00  0.00    -0.356 N 
ATOM     16  N   UNL A   1      43.849  23.040  26.635  1.00  0.00    -0.342 N 
ATOM     17  C   UNL A   1      45.197  22.966  27.175  1.00  0.00     0.119 C 
ATOM     18  C   UNL A   1      43.491  24.144  25.860  1.00  0.00     0.230 C 
ATOM     19  C   UNL A   1      45.528  24.223  27.955  1.00  0.00     0.023 C 
ATOM     20  C   UNL A   1      44.002  25.496  26.385  1.00  0.00     0.069 C 
ATOM     21  O   UNL A   1      42.664  24.069  24.952  1.00  0.00    -0.274 OA
ATOM     22  C   UNL A   1      45.402  25.416  27.010  1.00  0.00     0.021 C 
ATOM     23  C   UNL A   1      43.930  26.584  25.291  1.00  0.00     0.040 C 
ATOM     24  C   UNL A   1      42.965  25.959  27.438  1.00  0.00     0.135 C 
ATOM     25  C   UNL A   1      42.534  27.191  25.452  1.00  0.00     0.119 C 
BRANCH  16  26
ATOM     26  C   UNL A   1      42.834  22.004  26.844  1.00  0.00     0.119 C 
BRANCH  26  27
ATOM     27  C   UNL A   1      41.874  22.125  28.026  1.00  0.00     0.018 C 
ATOM     28  C   UNL A   1      40.404  22.196  27.626  1.00  0.00     0.006 C 
ENDBRANCH  26  27
ENDBRANCH  16  26
ENDBRANCH  10  15
ENDBRANCH   7   9
ENDBRANCH   6   7
ENDBRANCH   5   6
ENDBRANCH   4   5
ENDBRANCH   3   4
ENDBRANCH   2   3
ENDBRANCH   1   2
BRANCH   1  29
ATOM     29  O   UNL A   1      33.877  33.440  30.316  1.00  0.00    -0.377 OA
BRANCH  29  30
ATOM     30  C   UNL A   1      34.745  33.868  31.366  1.00  0.00     0.188 C 
BRANCH  30  31
ATOM     31  C   UNL A   1      34.529  35.175  32.170  1.00  0.00     0.188 C 
BRANCH  31  32
ATOM     32  O   UNL A   1      35.358  35.324  33.310  1.00  0.00    -0.376 OA
BRANCH  32  33
ATOM     33  C   UNL A   1      35.338  34.303  34.290  1.00  0.00     0.202 C 
BRANCH  33  34
ATOM     34  C   UNL A   1      36.703  33.753  34.722  1.00  0.00     0.261 C 
BRANCH  34  35
ATOM     35  O   UNL A   1      36.798  32.323  34.812  1.00  0.00    -0.460 OA
BRANCH  35  36
ATOM     36  C   UNL A   1      37.782  31.818  35.584  1.00  0.00     0.338 C 
ATOM     37  O   UNL A   1      37.714  31.509  36.764  1.00  0.00    -0.246 OA
BRANCH  36  38
ATOM     38  C   UNL A   1      38.931  31.518  34.706  1.00  0.00     0.060 A 
ATOM     39  C   UNL A   1      38.742  30.692  33.592  1.00  0.00     0.016 A 
ATOM     40  C   UNL A   1      40.187  32.065  34.980  1.00  0.00     0.016 A 
ATOM     41  C   UNL A   1      39.819  30.387  32.761  1.00  0.00     0.010 A 
ATOM     42  C   UNL A   1      41.269  31.741  34.159  1.00  0.00     0.010 A 
ATOM     43  C   UNL A   1      41.097  30.875  33.064  1.00  0.00    -0.014 A 
BRANCH  43  44
ATOM     44  C   UNL A   1      42.280  30.343  32.345  1.00  0.00     0.031 A 
ATOM     45  C   UNL A   1      42.832  31.132  31.189  1.00  0.00     0.074 A 
ATOM     46  C   UNL A   1      42.870  29.195  32.721  1.00  0.00     0.049 A 
ATOM     47  N   UNL A   1      43.834  30.851  30.395  1.00  0.00    -0.248 NA
ATOM     48  C   UNL A   1      42.164  32.409  30.890  1.00  0.00     0.031 C 
ATOM     49  C   UNL A   1      42.459  28.360  33.849  1.00  0.00     0.029 A 
ATOM     50  N   UNL A   1      43.944  28.531  32.183  1.00  0.00    -0.354 N 
ATOM     51  C   UNL A   1      43.913  31.913  29.503  1.00  0.00     0.074 A 
ATOM     52  C   UNL A   1      42.838  32.824  29.829  1.00  0.00     0.031 C 
ATOM     53  C   UNL A   1      43.270  27.290  33.914  1.00  0.00     0.029 A 
ATOM     54  C   UNL A   1      44.231  27.346  32.813  1.00  0.00     0.049 A 
ATOM     55  H   UNL A   1      44.461  28.874  31.418  1.00  0.00     0.167 HD
ATOM     56  C   UNL A   1      44.806  32.118  28.505  1.00  0.00     0.031 A 
ATOM     57  C   UNL A   1      45.148  26.403  32.520  1.00  0.00     0.031 A 
ATOM     58  C   UNL A   1      45.861  31.201  28.164  1.00  0.00     0.049 A 
ATOM     59  C   UNL A   1      46.071  26.609  31.346  1.00  0.00     0.074 A 
ATOM     60  C   UNL A   1      46.819  31.321  27.173  1.00  0.00     0.029 A 
ATOM     61  N   UNL A   1      46.089  29.991  28.798  1.00  0.00    -0.354 N 
ATOM     62  N   UNL A   1      46.153  27.629  30.525  1.00  0.00    -0.248 NA
ATOM     63  C   UNL A   1      47.034  25.534  31.066  1.00  0.00     0.031 C 
ATOM     64  C   UNL A   1      47.587  30.152  27.164  1.00  0.00     0.029 A 
ATOM     65  C   UNL A   1      47.154  29.338  28.199  1.00  0.00     0.049 A 
ATOM     66  H   UNL A   1      45.571  29.645  29.561  1.00  0.00     0.167 HD
ATOM     67  C   UNL A   1      47.194  27.331  29.652  1.00  0.00     0.074 A 
ATOM     68  C   UNL A   1      47.726  26.047  30.057  1.00  0.00     0.031 C 
ATOM     69  C   UNL A   1      47.668  28.056  28.609  1.00  0.00     0.031 A 
BRANCH  56  70
ATOM     70  C   UNL A   1      44.653  33.370  27.687  1.00  0.00    -0.014 A 
ATOM     71  C   UNL A   1      45.335  34.552  28.022  1.00  0.00     0.009 A 
ATOM     72  C   UNL A   1      43.837  33.360  26.545  1.00  0.00     0.009 A 
ATOM     73  C   UNL A   1      45.176  35.704  27.250  1.00  0.00     0.001 A 
ATOM     74  C   UNL A   1      43.705  34.503  25.756  1.00  0.00     0.001 A 
ATOM     75  C   UNL A   1      44.366  35.677  26.114  1.00  0.00     0.000 A 
ENDBRANCH  56  70
BRANCH  57  76
ATOM     76  C   UNL A   1      45.226  25.157  33.330  1.00  0.00    -0.014 A 
ATOM     77  C   UNL A   1      46.026  25.095  34.481  1.00  0.00     0.009 A 
ATOM     78  C   UNL A   1      44.521  24.009  32.934  1.00  0.00     0.009 A 
ATOM     79  C   UNL A   1      46.143  23.901  35.199  1.00  0.00     0.001 A 
ATOM     80  C   UNL A   1      44.612  22.828  33.673  1.00  0.00     0.001 A 
ATOM     81  C   UNL A   1      45.432  22.772  34.798  1.00  0.00     0.000 A 
ENDBRANCH  57  76
BRANCH  69  82
ATOM     82  C   UNL A   1      48.845  27.495  27.854  1.00  0.00    -0.014 A 
ATOM     83  C   UNL A   1      48.672  26.705  26.708  1.00  0.00     0.009 A 
ATOM     84  C   UNL A   1      50.150  27.795  28.280  1.00  0.00     0.009 A 
ATOM     85  C   UNL A   1      49.781  26.193  26.029  1.00  0.00     0.001 A 
ATOM     86  C   UNL A   1      51.255  27.312  27.580  1.00  0.00     0.001 A 
ATOM     87  C   UNL A   1      51.070  26.500  26.462  1.00  0.00     0.000 A 
ENDBRANCH  69  82
ENDBRANCH  43  44
ENDBRANCH  36  38
ENDBRANCH  35  36
ENDBRANCH  34  35
ENDBRANCH  33  34
ENDBRANCH  32  33
ENDBRANCH  31  32
ENDBRANCH  30  31
ENDBRANCH  29  30
ENDBRANCH   1  29
TORSDOF 23
ENDMDL
MODEL 2
REMARK VINA RESULT:      -7.5      4.805      8.741
REMARK SMILES CCCN1CCC[C@@]2(CCN(c3ccc(C(=O)OCCOCCOCCOCCOC(=O)c4ccc(-c5c6nc(c(-c7ccccc7)c7ccc([nH]7)c(-c7ccccc7)c7nc(c(-c8ccccc8)c8ccc5[nH]8)C=C7)C=C6)cc4)cn3)C2)C1=O
REMARK SMILES IDX 23 1 22 2 21 3 20 4 19 5 18 6 16 7 17 8 15 9 12 10 13 11
REMARK SMILES IDX 82 12 14 13 81 14 11 15 4 16 5 17 84 18 6 19 8 20 85 21 7 22
REMARK SMILES IDX 9 23 83 24 10 25 3 26 2 27 1 28 24 29 25 30 26 31 27 32
REMARK SMILES IDX 28 33 29 34 30 35 31 36 32 37 33 38 34 39 80 40 35 41 79 42
REMARK SMILES IDX 36 43 37 44 38 45 73 46 39 47 78 48 72 49 74 50 40 51 77 52
REMARK SMILES IDX 71 53 70 54 41 56 63 57 48 58 62 59 49 60 52 61 61 62 75 63
REMARK SMILES IDX 50 64 51 65 60 67 76 68 53 69 42 70 43 71 47 72 44 73 46 74
REMARK SMILES IDX 45 75 64 76 65 77 69 78 66 79 68 80 67 81 54 82 55 83 59 84
REMARK SMILES IDX 56 85 58 86 57 87
REMARK H PARENT 74 55 52 66
REMARK Flexibility Score: inf
ROOT
ATOM      1  C   UNL A   1      38.462  28.099  30.680  1.00  0.00     0.188 C 
ENDROOT
BRANCH   1   2
ATOM      2  C   UNL A   1      37.502  29.290  30.875  1.00  0.00     0.188 C 
BRANCH   2   3
ATOM      3  O   UNL A   1      38.099  30.537  30.561  1.00  0.00    -0.376 OA
BRANCH   3   4
ATOM      4  C   UNL A   1      38.147  30.980  29.219  1.00  0.00     0.202 C 
BRANCH   4   5
ATOM      5  C   UNL A   1      37.390  30.238  28.106  1.00  0.00     0.261 C 
BRANCH   5   6
ATOM      6  O   UNL A   1      36.318  30.936  27.472  1.00  0.00    -0.460 OA
BRANCH   6   7
ATOM      7  C   UNL A   1      35.089  30.836  28.017  1.00  0.00     0.339 C 
ATOM      8  O   UNL A   1      34.668  31.430  28.992  1.00  0.00    -0.246 OA
BRANCH   7   9
ATOM      9  C   UNL A   1      34.270  30.019  27.104  1.00  0.00     0.078 A 
ATOM     10  C   UNL A   1      32.672  28.648  25.326  1.00  0.00     0.128 A 
ATOM     11  C   UNL A   1      33.831  28.047  25.823  1.00  0.00     0.048 A 
ATOM     12  N   UNL A   1      32.340  29.915  25.646  1.00  0.00    -0.238 NA
ATOM     13  C   UNL A   1      34.647  28.738  26.712  1.00  0.00     0.021 A 
ATOM     14  C   UNL A   1      33.128  30.566  26.538  1.00  0.00     0.129 A 
BRANCH  10  15
ATOM     15  N   UNL A   1      31.783  27.856  24.621  1.00  0.00    -0.356 N 
ATOM     16  N   UNL A   1      31.422  23.514  25.292  1.00  0.00    -0.342 N 
ATOM     17  C   UNL A   1      31.560  22.815  24.025  1.00  0.00     0.119 C 
ATOM     18  C   UNL A   1      30.701  24.708  25.331  1.00  0.00     0.230 C 
ATOM     19  C   UNL A   1      32.118  23.742  22.964  1.00  0.00     0.023 C 
ATOM     20  C   UNL A   1      30.959  25.657  24.148  1.00  0.00     0.069 C 
ATOM     21  O   UNL A   1      30.074  25.066  26.327  1.00  0.00    -0.274 OA
ATOM     22  C   UNL A   1      31.163  24.924  22.814  1.00  0.00     0.021 C 
ATOM     23  C   UNL A   1      29.853  26.730  24.041  1.00  0.00     0.040 C 
ATOM     24  C   UNL A   1      32.226  26.464  24.521  1.00  0.00     0.135 C 
ATOM     25  C   UNL A   1      30.360  27.883  24.912  1.00  0.00     0.119 C 
BRANCH  16  26
ATOM     26  C   UNL A   1      31.986  23.025  26.553  1.00  0.00     0.119 C 
BRANCH  26  27
ATOM     27  C   UNL A   1      33.478  23.210  26.826  1.00  0.00     0.018 C 
ATOM     28  C   UNL A   1      34.058  22.198  27.808  1.00  0.00     0.006 C 
ENDBRANCH  26  27
ENDBRANCH  16  26
ENDBRANCH  10  15
ENDBRANCH   7   9
ENDBRANCH   6   7
ENDBRANCH   5   6
ENDBRANCH   4   5
ENDBRANCH   3   4
ENDBRANCH   2   3
ENDBRANCH   1   2
BRANCH   1  29
ATOM     29  O   UNL A   1      39.830  28.425  30.488  1.00  0.00    -0.377 OA
BRANCH  29  30
ATOM     30  C   UNL A   1      40.612  27.666  29.563  1.00  0.00     0.188 C 
BRANCH  30  31
ATOM     31  C   UNL A   1      40.358  27.664  28.034  1.00  0.00     0.188 C 
BRANCH  31  32
ATOM     32  O   UNL A   1      39.593  26.573  27.553  1.00  0.00    -0.376 OA
BRANCH  32  33
ATOM     33  C   UNL A   1      39.579  25.379  28.313  1.00  0.00     0.202 C 
BRANCH  33  34
ATOM     34  C   UNL A   1      39.703  24.071  27.521  1.00  0.00     0.261 C 
BRANCH  34  35
ATOM     35  O   UNL A   1      40.609  24.100  26.407  1.00  0.00    -0.460 OA
BRANCH  35  36
ATOM     36  C   UNL A   1      41.862  23.649  26.620  1.00  0.00     0.338 C 
ATOM     37  O   UNL A   1      42.239  22.487  26.636  1.00  0.00    -0.246 OA
BRANCH  36  38
ATOM     38  C   UNL A   1      42.761  24.820  26.648  1.00  0.00     0.060 A 
ATOM     39  C   UNL A   1      43.093  25.455  25.445  1.00  0.00     0.016 A 
ATOM     40  C   UNL A   1      43.261  25.295  27.862  1.00  0.00     0.016 A 
ATOM     41  C   UNL A   1      43.953  26.553  25.451  1.00  0.00     0.010 A 
ATOM     42  C   UNL A   1      44.138  26.382  27.865  1.00  0.00     0.010 A 
ATOM     43  C   UNL A   1      44.513  26.995  26.657  1.00  0.00    -0.014 A 
BRANCH  43  44
ATOM     44  C   UNL A   1      45.621  27.981  26.637  1.00  0.00     0.031 A 
ATOM     45  C   UNL A   1      45.283  29.444  26.740  1.00  0.00     0.074 A 
ATOM     46  C   UNL A   1      46.905  27.590  26.553  1.00  0.00     0.049 A 
ATOM     47  N   UNL A   1      46.077  30.483  26.713  1.00  0.00    -0.248 NA
ATOM     48  C   UNL A   1      43.858  29.776  26.895  1.00  0.00     0.031 C 
ATOM     49  C   UNL A   1      47.367  26.204  26.492  1.00  0.00     0.029 A 
ATOM     50  N   UNL A   1      48.058  28.333  26.501  1.00  0.00    -0.354 N 
ATOM     51  C   UNL A   1      45.248  31.590  26.845  1.00  0.00     0.074 A 
ATOM     52  C   UNL A   1      43.890  31.100  26.914  1.00  0.00     0.031 C 
ATOM     53  C   UNL A   1      48.708  26.198  26.403  1.00  0.00     0.029 A 
ATOM     54  C   UNL A   1      49.195  27.576  26.364  1.00  0.00     0.049 A 
ATOM     55  H   UNL A   1      48.068  29.316  26.556  1.00  0.00     0.167 HD
ATOM     56  C   UNL A   1      45.587  32.901  26.909  1.00  0.00     0.031 A 
ATOM     57  C   UNL A   1      50.478  27.954  26.202  1.00  0.00     0.031 A 
ATOM     58  C   UNL A   1      46.935  33.393  26.816  1.00  0.00     0.049 A 
ATOM     59  C   UNL A   1      50.820  29.422  26.183  1.00  0.00     0.074 A 
ATOM     60  C   UNL A   1      47.381  34.701  26.875  1.00  0.00     0.029 A 
ATOM     61  N   UNL A   1      48.054  32.596  26.632  1.00  0.00    -0.354 N 
ATOM     62  N   UNL A   1      50.031  30.459  26.334  1.00  0.00    -0.248 NA
ATOM     63  C   UNL A   1      52.235  29.769  25.982  1.00  0.00     0.031 C 
ATOM     64  C   UNL A   1      48.763  34.702  26.662  1.00  0.00     0.029 A 
ATOM     65  C   UNL A   1      49.187  33.388  26.544  1.00  0.00     0.049 A 
ATOM     66  H   UNL A   1      48.046  31.613  26.573  1.00  0.00     0.167 HD
ATOM     67  C   UNL A   1      50.857  31.577  26.274  1.00  0.00     0.074 A 
ATOM     68  C   UNL A   1      52.209  31.090  26.096  1.00  0.00     0.031 C 
ATOM     69  C   UNL A   1      50.527  32.889  26.360  1.00  0.00     0.031 A 
BRANCH  56  70
ATOM     70  C   UNL A   1      44.469  33.897  27.054  1.00  0.00    -0.014 A 
ATOM     71  C   UNL A   1      44.029  34.324  28.317  1.00  0.00     0.009 A 
ATOM     72  C   UNL A   1      43.867  34.438  25.908  1.00  0.00     0.009 A 
ATOM     73  C   UNL A   1      42.988  35.248  28.428  1.00  0.00     0.001 A 
ATOM     74  C   UNL A   1      42.849  35.386  26.020  1.00  0.00     0.001 A 
ATOM     75  C   UNL A   1      42.403  35.783  27.280  1.00  0.00     0.000 A 
ENDBRANCH  56  70
BRANCH  57  76
ATOM     76  C   UNL A   1      51.541  26.931  26.012  1.00  0.00    -0.014 A 
ATOM     77  C   UNL A   1      52.262  26.429  27.106  1.00  0.00     0.009 A 
ATOM     78  C   UNL A   1      51.863  26.473  24.724  1.00  0.00     0.009 A 
ATOM     79  C   UNL A   1      53.302  25.515  26.911  1.00  0.00     0.001 A 
ATOM     80  C   UNL A   1      52.879  25.534  24.535  1.00  0.00     0.001 A 
ATOM     81  C   UNL A   1      53.605  25.065  25.627  1.00  0.00     0.000 A 
ENDBRANCH  57  76
BRANCH  69  82
ATOM     82  C   UNL A   1      51.649  33.891  26.301  1.00  0.00    -0.014 A 
ATOM     83  C   UNL A   1      52.335  34.294  27.457  1.00  0.00     0.009 A 
ATOM     84  C   UNL A   1      52.048  34.413  25.059  1.00  0.00     0.009 A 
ATOM     85  C   UNL A   1      53.369  35.230  27.375  1.00  0.00     0.001 A 
ATOM     86  C   UNL A   1      53.105  35.320  24.976  1.00  0.00     0.001 A 
ATOM     87  C   UNL A   1      53.757  35.738  26.136  1.00  0.00     0.000 A 
ENDBRANCH  69  82
ENDBRANCH  43  44
ENDBRANCH  36  38
ENDBRANCH  35  36
ENDBRANCH  34  35
ENDBRANCH  33  34
ENDBRANCH  32  33
ENDBRANCH  31  32
ENDBRANCH  30  31
ENDBRANCH  29  30
ENDBRANCH   1  29
TORSDOF 23
ENDMDL
MODEL 3
REMARK VINA RESULT:      -7.5      4.495     10.386
REMARK SMILES CCCN1CCC[C@@]2(CCN(c3ccc(C(=O)OCCOCCOCCOCCOC(=O)c4ccc(-c5c6nc(c(-c7ccccc7)c7ccc([nH]7)c(-c7ccccc7)c7nc(c(-c8ccccc8)c8ccc5[nH]8)C=C7)C=C6)cc4)cn3)C2)C1=O
REMARK SMILES IDX 23 1 22 2 21 3 20 4 19 5 18 6 16 7 17 8 15 9 12 10 13 11
REMARK SMILES IDX 82 12 14 13 81 14 11 15 4 16 5 17 84 18 6 19 8 20 85 21 7 22
REMARK SMILES IDX 9 23 83 24 10 25 3 26 2 27 1 28 24 29 25 30 26 31 27 32
REMARK SMILES IDX 28 33 29 34 30 35 31 36 32 37 33 38 34 39 80 40 35 41 79 42
REMARK SMILES IDX 36 43 37 44 38 45 73 46 39 47 78 48 72 49 74 50 40 51 77 52
REMARK SMILES IDX 71 53 70 54 41 56 63 57 48 58 62 59 49 60 52 61 61 62 75 63
REMARK SMILES IDX 50 64 51 65 60 67 76 68 53 69 42 70 43 71 47 72 44 73 46 74
REMARK SMILES IDX 45 75 64 76 65 77 69 78 66 79 68 80 67 81 54 82 55 83 59 84
REMARK SMILES IDX 56 85 58 86 57 87
REMARK H PARENT 74 55 52 66
REMARK Flexibility Score: inf
ROOT
ATOM      1  C   UNL A   1      42.837  20.795  25.975  1.00  0.00     0.188 C 
ENDROOT
BRANCH   1   2
ATOM      2  C   UNL A   1      41.922  22.034  25.900  1.00  0.00     0.188 C 
BRANCH   2   3
ATOM      3  O   UNL A   1      40.605  21.776  26.357  1.00  0.00    -0.376 OA
BRANCH   3   4
ATOM      4  C   UNL A   1      39.869  22.793  27.009  1.00  0.00     0.202 C 
BRANCH   4   5
ATOM      5  C   UNL A   1      38.491  23.236  26.492  1.00  0.00     0.261 C 
BRANCH   5   6
ATOM      6  O   UNL A   1      38.099  22.766  25.202  1.00  0.00    -0.460 OA
BRANCH   6   7
ATOM      7  C   UNL A   1      37.068  21.899  25.133  1.00  0.00     0.339 C 
ATOM      8  O   UNL A   1      37.131  20.694  24.979  1.00  0.00    -0.246 OA
BRANCH   7   9
ATOM      9  C   UNL A   1      35.844  22.646  25.473  1.00  0.00     0.078 A 
ATOM     10  C   UNL A   1      33.555  24.108  25.938  1.00  0.00     0.128 A 
ATOM     11  C   UNL A   1      33.821  22.972  26.706  1.00  0.00     0.048 A 
ATOM     12  N   UNL A   1      34.362  24.480  24.923  1.00  0.00    -0.238 NA
ATOM     13  C   UNL A   1      34.969  22.225  26.469  1.00  0.00     0.021 A 
ATOM     14  C   UNL A   1      35.495  23.759  24.724  1.00  0.00     0.129 A 
BRANCH  10  15
ATOM     15  N   UNL A   1      32.525  24.939  26.343  1.00  0.00    -0.356 N 
ATOM     16  N   UNL A   1      31.689  28.804  24.394  1.00  0.00    -0.342 N 
ATOM     17  C   UNL A   1      31.644  29.853  25.399  1.00  0.00     0.119 C 
ATOM     18  C   UNL A   1      31.124  27.562  24.687  1.00  0.00     0.230 C 
ATOM     19  C   UNL A   1      32.229  29.362  26.708  1.00  0.00     0.023 C 
ATOM     20  C   UNL A   1      31.405  27.044  26.108  1.00  0.00     0.069 C 
ATOM     21  O   UNL A   1      30.623  26.846  23.821  1.00  0.00    -0.274 OA
ATOM     22  C   UNL A   1      31.417  28.154  27.169  1.00  0.00     0.021 C 
ATOM     23  C   UNL A   1      30.434  25.905  26.490  1.00  0.00     0.040 C 
ATOM     24  C   UNL A   1      32.786  26.347  26.038  1.00  0.00     0.135 C 
ATOM     25  C   UNL A   1      31.142  24.631  26.021  1.00  0.00     0.119 C 
BRANCH  16  26
ATOM     26  C   UNL A   1      32.283  28.979  23.066  1.00  0.00     0.119 C 
BRANCH  26  27
ATOM     27  C   UNL A   1      33.667  28.396  22.784  1.00  0.00     0.018 C 
ATOM     28  C   UNL A   1      33.640  26.985  22.207  1.00  0.00     0.006 C 
ENDBRANCH  26  27
ENDBRANCH  16  26
ENDBRANCH  10  15
ENDBRANCH   7   9
ENDBRANCH   6   7
ENDBRANCH   5   6
ENDBRANCH   4   5
ENDBRANCH   3   4
ENDBRANCH   2   3
ENDBRANCH   1   2
BRANCH   1  29
ATOM     29  O   UNL A   1      44.221  21.028  25.762  1.00  0.00    -0.377 OA
BRANCH  29  30
ATOM     30  C   UNL A   1      44.693  21.305  24.442  1.00  0.00     0.188 C 
BRANCH  30  31
ATOM     31  C   UNL A   1      45.197  22.700  23.993  1.00  0.00     0.188 C 
BRANCH  31  32
ATOM     32  O   UNL A   1      45.183  23.697  25.000  1.00  0.00    -0.376 OA
BRANCH  32  33
ATOM     33  C   UNL A   1      46.397  23.995  25.664  1.00  0.00     0.202 C 
BRANCH  33  34
ATOM     34  C   UNL A   1      47.242  25.122  25.056  1.00  0.00     0.261 C 
BRANCH  34  35
ATOM     35  O   UNL A   1      46.511  26.139  24.353  1.00  0.00    -0.460 OA
BRANCH  35  36
ATOM     36  C   UNL A   1      46.834  27.422  24.614  1.00  0.00     0.338 C 
ATOM     37  O   UNL A   1      47.422  28.202  23.881  1.00  0.00    -0.246 OA
BRANCH  36  38
ATOM     38  C   UNL A   1      46.186  27.797  25.886  1.00  0.00     0.060 A 
ATOM     39  C   UNL A   1      44.800  27.642  26.019  1.00  0.00     0.016 A 
ATOM     40  C   UNL A   1      46.950  28.288  26.948  1.00  0.00     0.016 A 
ATOM     41  C   UNL A   1      44.170  28.006  27.208  1.00  0.00     0.010 A 
ATOM     42  C   UNL A   1      46.314  28.672  28.131  1.00  0.00     0.010 A 
ATOM     43  C   UNL A   1      44.917  28.562  28.255  1.00  0.00    -0.014 A 
BRANCH  43  44
ATOM     44  C   UNL A   1      44.223  29.189  29.405  1.00  0.00     0.031 A 
ATOM     45  C   UNL A   1      43.846  30.642  29.312  1.00  0.00     0.074 A 
ATOM     46  C   UNL A   1      43.909  28.480  30.504  1.00  0.00     0.049 A 
ATOM     47  N   UNL A   1      43.264  31.408  30.199  1.00  0.00    -0.248 NA
ATOM     48  C   UNL A   1      44.170  31.322  28.047  1.00  0.00     0.031 C 
ATOM     49  C   UNL A   1      44.178  27.057  30.702  1.00  0.00     0.029 A 
ATOM     50  N   UNL A   1      43.294  28.872  31.668  1.00  0.00    -0.354 N 
ATOM     51  C   UNL A   1      43.156  32.658  29.601  1.00  0.00     0.074 A 
ATOM     52  C   UNL A   1      43.763  32.558  28.292  1.00  0.00     0.031 C 
ATOM     53  C   UNL A   1      43.736  26.696  31.919  1.00  0.00     0.029 A 
ATOM     54  C   UNL A   1      43.188  27.869  32.599  1.00  0.00     0.049 A 
ATOM     55  H   UNL A   1      42.961  29.786  31.820  1.00  0.00     0.167 HD
ATOM     56  C   UNL A   1      42.593  33.788  30.094  1.00  0.00     0.031 A 
ATOM     57  C   UNL A   1      42.724  27.900  33.863  1.00  0.00     0.031 A 
ATOM     58  C   UNL A   1      42.011  33.896  31.404  1.00  0.00     0.049 A 
ATOM     59  C   UNL A   1      42.188  29.193  34.422  1.00  0.00     0.074 A 
ATOM     60  C   UNL A   1      41.412  34.996  31.993  1.00  0.00     0.029 A 
ATOM     61  N   UNL A   1      41.964  32.869  32.333  1.00  0.00    -0.354 N 
ATOM     62  N   UNL A   1      42.067  30.362  33.839  1.00  0.00    -0.248 NA
ATOM     63  C   UNL A   1      41.715  29.166  35.815  1.00  0.00     0.031 C 
ATOM     64  C   UNL A   1      41.062  34.653  33.302  1.00  0.00     0.029 A 
ATOM     65  C   UNL A   1      41.375  33.318  33.503  1.00  0.00     0.049 A 
ATOM     66  H   UNL A   1      42.300  31.955  32.184  1.00  0.00     0.167 HD
ATOM     67  C   UNL A   1      41.479  31.199  34.783  1.00  0.00     0.074 A 
ATOM     68  C   UNL A   1      41.249  30.398  35.966  1.00  0.00     0.031 C 
ATOM     69  C   UNL A   1      41.157  32.511  34.677  1.00  0.00     0.031 A 
BRANCH  56  70
ATOM     70  C   UNL A   1      42.617  35.010  29.217  1.00  0.00    -0.014 A 
ATOM     71  C   UNL A   1      43.715  35.886  29.214  1.00  0.00     0.009 A 
ATOM     72  C   UNL A   1      41.538  35.272  28.359  1.00  0.00     0.009 A 
ATOM     73  C   UNL A   1      43.715  37.016  28.394  1.00  0.00     0.001 A 
ATOM     74  C   UNL A   1      41.555  36.384  27.517  1.00  0.00     0.001 A 
ATOM     75  C   UNL A   1      42.638  37.261  27.541  1.00  0.00     0.000 A 
ENDBRANCH  56  70
BRANCH  57  76
ATOM     76  C   UNL A   1      42.769  26.676  34.707  1.00  0.00    -0.014 A 
ATOM     77  C   UNL A   1      41.617  25.902  34.917  1.00  0.00     0.009 A 
ATOM     78  C   UNL A   1      43.964  26.292  35.337  1.00  0.00     0.009 A 
ATOM     79  C   UNL A   1      41.654  24.789  35.763  1.00  0.00     0.001 A 
ATOM     80  C   UNL A   1      44.007  25.161  36.154  1.00  0.00     0.001 A 
ATOM     81  C   UNL A   1      42.850  24.417  36.376  1.00  0.00     0.000 A 
ENDBRANCH  57  76
BRANCH  69  82
ATOM     82  C   UNL A   1      40.487  33.157  35.861  1.00  0.00    -0.014 A 
ATOM     83  C   UNL A   1      41.232  33.757  36.889  1.00  0.00     0.009 A 
ATOM     84  C   UNL A   1      39.085  33.196  35.930  1.00  0.00     0.009 A 
ATOM     85  C   UNL A   1      40.585  34.344  37.979  1.00  0.00     0.001 A 
ATOM     86  C   UNL A   1      38.442  33.814  37.001  1.00  0.00     0.001 A 
ATOM     87  C   UNL A   1      39.192  34.378  38.033  1.00  0.00     0.000 A 
ENDBRANCH  69  82
ENDBRANCH  43  44
ENDBRANCH  36  38
ENDBRANCH  35  36
ENDBRANCH  34  35
ENDBRANCH  33  34
ENDBRANCH  32  33
ENDBRANCH  31  32
ENDBRANCH  30  31
ENDBRANCH  29  30
ENDBRANCH   1  29
TORSDOF 23
ENDMDL
