MODEL 1
REMARK VINA RESULT:      -8.7      0.000      0.000
REMARK SMILES Cc1cc(C(=O)N2CCO[C@H](CC(=O)OCCOCCOCCOCCOC(=O)c3ccc(-c4c5nc(c(-c6ccccc6)c6ccc([nH]6)c(-c6ccccc6)c6nc(c(-c7ccccc7)c7ccc4[nH]7)C=C6)C=C5)cc3)C2)n(C)n1
REMARK SMILES IDX 20 1 19 2 18 3 17 4 16 5 15 6 13 7 14 8 12 9 11 10 7 11 8 12
REMARK SMILES IDX 78 13 9 14 10 15 5 16 6 17 4 18 1 19 2 20 3 21 81 22 79 23
REMARK SMILES IDX 80 24 21 25 22 26 23 27 24 28 25 29 26 30 27 31 28 32 29 33
REMARK SMILES IDX 30 34 31 35 77 36 32 37 76 38 33 39 34 40 35 41 70 42 36 43
REMARK SMILES IDX 75 44 69 45 71 46 37 47 74 48 68 49 67 50 38 52 60 53 45 54
REMARK SMILES IDX 59 55 46 56 49 57 58 58 72 59 47 60 48 61 57 63 73 64 50 65
REMARK SMILES IDX 39 66 40 67 44 68 41 69 43 70 42 71 61 72 62 73 66 74 63 75
REMARK SMILES IDX 65 76 64 77 51 78 52 79 56 80 53 81 55 82 54 83
REMARK H PARENT 71 51 49 62
REMARK Flexibility Score: inf
ROOT
ATOM      1  C   UNL A   1      34.742  31.763  27.899  1.00  0.00     0.188 C 
ENDROOT
BRANCH   1   2
ATOM      2  C   UNL A   1      35.423  30.447  27.501  1.00  0.00     0.188 C 
BRANCH   2   3
ATOM      3  O   UNL A   1      34.632  29.300  27.259  1.00  0.00    -0.376 OA
BRANCH   3   4
ATOM      4  C   UNL A   1      33.227  29.393  27.064  1.00  0.00     0.202 C 
BRANCH   4   5
ATOM      5  C   UNL A   1      32.553  29.556  25.692  1.00  0.00     0.261 C 
BRANCH   5   6
ATOM      6  O   UNL A   1      31.273  28.927  25.562  1.00  0.00    -0.463 OA
BRANCH   6   7
ATOM      7  C   UNL A   1      30.961  28.474  24.328  1.00  0.00     0.308 C 
ATOM      8  O   UNL A   1      30.237  29.069  23.534  1.00  0.00    -0.252 OA
BRANCH   7   9
ATOM      9  C   UNL A   1      31.725  27.250  23.901  1.00  0.00     0.156 C 
BRANCH   9  10
ATOM     10  C   UNL A   1      31.177  26.351  22.783  1.00  0.00     0.148 C 
ATOM     11  N   UNL A   1      32.258  24.352  23.669  1.00  0.00    -0.332 N 
ATOM     12  C   UNL A   1      33.182  24.311  22.536  1.00  0.00     0.148 C 
ATOM     13  C   UNL A   1      30.954  24.922  23.338  1.00  0.00     0.152 C 
ATOM     14  C   UNL A   1      33.286  25.676  21.834  1.00  0.00     0.182 C 
ATOM     15  O   UNL A   1      32.015  26.296  21.615  1.00  0.00    -0.374 OA
BRANCH  11  16
ATOM     16  C   UNL A   1      32.501  23.932  24.972  1.00  0.00     0.272 C 
ATOM     17  O   UNL A   1      32.512  24.757  25.884  1.00  0.00    -0.267 OA
BRANCH  16  18
ATOM     18  C   UNL A   1      32.895  22.551  25.183  1.00  0.00     0.126 A 
ATOM     19  C   UNL A   1      32.768  18.872  25.009  1.00  0.00     0.069 C 
ATOM     20  C   UNL A   1      33.053  20.316  25.166  1.00  0.00     0.060 A 
ATOM     21  C   UNL A   1      32.153  21.387  25.047  1.00  0.00     0.059 A 
ATOM     22  N   UNL A   1      34.288  20.751  25.413  1.00  0.00    -0.178 NA
ATOM     23  N   UNL A   1      34.183  22.100  25.387  1.00  0.00    -0.263 N 
ATOM     24  C   UNL A   1      35.408  22.852  25.529  1.00  0.00     0.174 C 
ENDBRANCH  16  18
ENDBRANCH  11  16
ENDBRANCH   9  10
ENDBRANCH   7   9
ENDBRANCH   6   7
ENDBRANCH   5   6
ENDBRANCH   4   5
ENDBRANCH   3   4
ENDBRANCH   2   3
ENDBRANCH   1   2
BRANCH   1  25
ATOM     25  O   UNL A   1      35.349  32.956  27.451  1.00  0.00    -0.377 OA
BRANCH  25  26
ATOM     26  C   UNL A   1      35.311  34.132  28.245  1.00  0.00     0.188 C 
BRANCH  26  27
ATOM     27  C   UNL A   1      34.292  34.282  29.390  1.00  0.00     0.188 C 
BRANCH  27  28
ATOM     28  O   UNL A   1      34.837  34.172  30.691  1.00  0.00    -0.376 OA
BRANCH  28  29
ATOM     29  C   UNL A   1      34.683  32.953  31.402  1.00  0.00     0.202 C 
BRANCH  29  30
ATOM     30  C   UNL A   1      35.951  32.189  31.813  1.00  0.00     0.261 C 
BRANCH  30  31
ATOM     31  O   UNL A   1      36.250  30.988  31.083  1.00  0.00    -0.460 OA
BRANCH  31  32
ATOM     32  C   UNL A   1      37.015  30.047  31.673  1.00  0.00     0.338 C 
ATOM     33  O   UNL A   1      36.668  29.211  32.491  1.00  0.00    -0.246 OA
BRANCH  32  34
ATOM     34  C   UNL A   1      38.337  30.077  31.020  1.00  0.00     0.060 A 
ATOM     35  C   UNL A   1      38.416  30.248  29.630  1.00  0.00     0.016 A 
ATOM     36  C   UNL A   1      39.496  29.917  31.780  1.00  0.00     0.016 A 
ATOM     37  C   UNL A   1      39.654  30.212  28.990  1.00  0.00     0.010 A 
ATOM     38  C   UNL A   1      40.733  29.859  31.137  1.00  0.00     0.010 A 
ATOM     39  C   UNL A   1      40.813  29.964  29.736  1.00  0.00    -0.014 A 
BRANCH  39  40
ATOM     40  C   UNL A   1      42.071  29.571  29.058  1.00  0.00     0.031 A 
ATOM     41  C   UNL A   1      42.210  28.143  28.609  1.00  0.00     0.074 A 
ATOM     42  C   UNL A   1      43.072  30.445  28.855  1.00  0.00     0.049 A 
ATOM     43  N   UNL A   1      43.250  27.521  28.118  1.00  0.00    -0.248 NA
ATOM     44  C   UNL A   1      41.011  27.299  28.745  1.00  0.00     0.031 C 
ATOM     45  C   UNL A   1      43.036  31.870  29.177  1.00  0.00     0.029 A 
ATOM     46  N   UNL A   1      44.327  30.245  28.336  1.00  0.00    -0.354 N 
ATOM     47  C   UNL A   1      42.836  26.211  27.905  1.00  0.00     0.074 A 
ATOM     48  C   UNL A   1      41.463  26.120  28.346  1.00  0.00     0.031 C 
ATOM     49  C   UNL A   1      44.225  32.415  28.861  1.00  0.00     0.029 A 
ATOM     50  C   UNL A   1      45.116  31.369  28.362  1.00  0.00     0.049 A 
ATOM     51  H   UNL A   1      44.633  29.380  27.980  1.00  0.00     0.167 HD
ATOM     52  C   UNL A   1      43.536  25.175  27.387  1.00  0.00     0.031 A 
ATOM     53  C   UNL A   1      46.419  31.523  28.050  1.00  0.00     0.031 A 
ATOM     54  C   UNL A   1      44.909  25.264  26.970  1.00  0.00     0.049 A 
ATOM     55  C   UNL A   1      47.213  30.330  27.580  1.00  0.00     0.074 A 
ATOM     56  C   UNL A   1      45.712  24.273  26.434  1.00  0.00     0.029 A 
ATOM     57  N   UNL A   1      45.684  26.410  27.051  1.00  0.00    -0.354 N 
ATOM     58  N   UNL A   1      46.814  29.097  27.377  1.00  0.00    -0.248 NA
ATOM     59  C   UNL A   1      48.638  30.552  27.292  1.00  0.00     0.031 C 
ATOM     60  C   UNL A   1      46.992  24.803  26.251  1.00  0.00     0.029 A 
ATOM     61  C   UNL A   1      46.964  26.145  26.599  1.00  0.00     0.049 A 
ATOM     62  H   UNL A   1      45.369  27.283  27.382  1.00  0.00     0.167 HD
ATOM     63  C   UNL A   1      47.925  28.411  26.897  1.00  0.00     0.074 A 
ATOM     64  C   UNL A   1      49.013  29.365  26.838  1.00  0.00     0.031 C 
ATOM     65  C   UNL A   1      48.031  27.110  26.529  1.00  0.00     0.031 A 
BRANCH  52  66
ATOM     66  C   UNL A   1      42.837  23.847  27.292  1.00  0.00    -0.014 A 
ATOM     67  C   UNL A   1      42.116  23.478  26.146  1.00  0.00     0.009 A 
ATOM     68  C   UNL A   1      42.913  22.945  28.365  1.00  0.00     0.009 A 
ATOM     69  C   UNL A   1      41.449  22.251  26.094  1.00  0.00     0.001 A 
ATOM     70  C   UNL A   1      42.277  21.705  28.296  1.00  0.00     0.001 A 
ATOM     71  C   UNL A   1      41.535  21.364  27.166  1.00  0.00     0.000 A 
ENDBRANCH  52  66
BRANCH  53  72
ATOM     72  C   UNL A   1      47.071  32.853  28.191  1.00  0.00    -0.014 A 
ATOM     73  C   UNL A   1      47.725  33.204  29.383  1.00  0.00     0.009 A 
ATOM     74  C   UNL A   1      47.021  33.790  27.147  1.00  0.00     0.009 A 
ATOM     75  C   UNL A   1      48.289  34.473  29.535  1.00  0.00     0.001 A 
ATOM     76  C   UNL A   1      47.615  35.047  27.290  1.00  0.00     0.001 A 
ATOM     77  C   UNL A   1      48.239  35.391  28.488  1.00  0.00     0.000 A 
ENDBRANCH  53  72
BRANCH  65  78
ATOM     78  C   UNL A   1      49.344  26.646  25.958  1.00  0.00    -0.014 A 
ATOM     79  C   UNL A   1      49.708  26.912  24.630  1.00  0.00     0.009 A 
ATOM     80  C   UNL A   1      50.265  25.999  26.799  1.00  0.00     0.009 A 
ATOM     81  C   UNL A   1      50.960  26.519  24.151  1.00  0.00     0.001 A 
ATOM     82  C   UNL A   1      51.527  25.637  26.327  1.00  0.00     0.001 A 
ATOM     83  C   UNL A   1      51.871  25.892  25.001  1.00  0.00     0.000 A 
ENDBRANCH  65  78
ENDBRANCH  39  40
ENDBRANCH  32  34
ENDBRANCH  31  32
ENDBRANCH  30  31
ENDBRANCH  29  30
ENDBRANCH  28  29
ENDBRANCH  27  28
ENDBRANCH  26  27
ENDBRANCH  25  26
ENDBRANCH   1  25
TORSDOF 23
ENDMDL
MODEL 2
REMARK VINA RESULT:      -8.7      4.714     10.420
REMARK SMILES Cc1cc(C(=O)N2CCO[C@H](CC(=O)OCCOCCOCCOCCOC(=O)c3ccc(-c4c5nc(c(-c6ccccc6)c6ccc([nH]6)c(-c6ccccc6)c6nc(c(-c7ccccc7)c7ccc4[nH]7)C=C6)C=C5)cc3)C2)n(C)n1
REMARK SMILES IDX 20 1 19 2 18 3 17 4 16 5 15 6 13 7 14 8 12 9 11 10 7 11 8 12
REMARK SMILES IDX 78 13 9 14 10 15 5 16 6 17 4 18 1 19 2 20 3 21 81 22 79 23
REMARK SMILES IDX 80 24 21 25 22 26 23 27 24 28 25 29 26 30 27 31 28 32 29 33
REMARK SMILES IDX 30 34 31 35 77 36 32 37 76 38 33 39 34 40 35 41 70 42 36 43
REMARK SMILES IDX 75 44 69 45 71 46 37 47 74 48 68 49 67 50 38 52 60 53 45 54
REMARK SMILES IDX 59 55 46 56 49 57 58 58 72 59 47 60 48 61 57 63 73 64 50 65
REMARK SMILES IDX 39 66 40 67 44 68 41 69 43 70 42 71 61 72 62 73 66 74 63 75
REMARK SMILES IDX 65 76 64 77 51 78 52 79 56 80 53 81 55 82 54 83
REMARK H PARENT 71 51 49 62
REMARK Flexibility Score: inf
ROOT
ATOM      1  C   UNL A   1      39.215  21.045  26.174  1.00  0.00     0.188 C 
ENDROOT
BRANCH   1   2
ATOM      2  C   UNL A   1      38.115  21.581  25.246  1.00  0.00     0.188 C 
BRANCH   2   3
ATOM      3  O   UNL A   1      36.838  21.872  25.778  1.00  0.00    -0.376 OA
BRANCH   3   4
ATOM      4  C   UNL A   1      35.682  21.927  24.952  1.00  0.00     0.202 C 
BRANCH   4   5
ATOM      5  C   UNL A   1      34.594  23.008  25.058  1.00  0.00     0.261 C 
BRANCH   5   6
ATOM      6  O   UNL A   1      34.948  24.286  24.518  1.00  0.00    -0.463 OA
BRANCH   6   7
ATOM      7  C   UNL A   1      34.360  24.616  23.347  1.00  0.00     0.308 C 
ATOM      8  O   UNL A   1      34.429  23.942  22.323  1.00  0.00    -0.252 OA
BRANCH   7   9
ATOM      9  C   UNL A   1      33.433  25.798  23.426  1.00  0.00     0.156 C 
BRANCH   9  10
ATOM     10  C   UNL A   1      32.920  26.284  24.790  1.00  0.00     0.148 C 
ATOM     11  N   UNL A   1      31.444  27.953  23.797  1.00  0.00    -0.332 N 
ATOM     12  C   UNL A   1      32.278  29.041  24.308  1.00  0.00     0.148 C 
ATOM     13  C   UNL A   1      31.454  26.764  24.646  1.00  0.00     0.152 C 
ATOM     14  C   UNL A   1      33.699  28.560  24.648  1.00  0.00     0.182 C 
ATOM     15  O   UNL A   1      33.719  27.328  25.375  1.00  0.00    -0.374 OA
BRANCH  11  16
ATOM     16  C   UNL A   1      30.691  27.945  22.629  1.00  0.00     0.272 C 
ATOM     17  O   UNL A   1      30.981  27.161  21.726  1.00  0.00    -0.267 OA
BRANCH  16  18
ATOM     18  C   UNL A   1      29.688  28.978  22.454  1.00  0.00     0.126 A 
ATOM     19  C   UNL A   1      27.996  31.924  21.023  1.00  0.00     0.069 C 
ATOM     20  C   UNL A   1      28.460  30.705  21.724  1.00  0.00     0.060 A 
ATOM     21  C   UNL A   1      29.759  30.172  21.752  1.00  0.00     0.059 A 
ATOM     22  N   UNL A   1      27.611  29.937  22.406  1.00  0.00    -0.178 NA
ATOM     23  N   UNL A   1      28.359  28.884  22.810  1.00  0.00    -0.263 N 
ATOM     24  C   UNL A   1      27.666  27.821  23.501  1.00  0.00     0.174 C 
ENDBRANCH  16  18
ENDBRANCH  11  16
ENDBRANCH   9  10
ENDBRANCH   7   9
ENDBRANCH   6   7
ENDBRANCH   5   6
ENDBRANCH   4   5
ENDBRANCH   3   4
ENDBRANCH   2   3
ENDBRANCH   1   2
BRANCH   1  25
ATOM     25  O   UNL A   1      39.901  21.995  26.962  1.00  0.00    -0.377 OA
BRANCH  25  26
ATOM     26  C   UNL A   1      41.170  21.690  27.522  1.00  0.00     0.188 C 
BRANCH  26  27
ATOM     27  C   UNL A   1      42.045  20.567  26.936  1.00  0.00     0.188 C 
BRANCH  27  28
ATOM     28  O   UNL A   1      42.908  20.969  25.888  1.00  0.00    -0.376 OA
BRANCH  28  29
ATOM     29  C   UNL A   1      43.562  22.226  25.978  1.00  0.00     0.202 C 
BRANCH  29  30
ATOM     30  C   UNL A   1      43.046  23.376  25.101  1.00  0.00     0.261 C 
BRANCH  30  31
ATOM     31  O   UNL A   1      42.371  24.453  25.773  1.00  0.00    -0.460 OA
BRANCH  31  32
ATOM     32  C   UNL A   1      42.876  25.698  25.667  1.00  0.00     0.338 C 
ATOM     33  O   UNL A   1      43.214  26.280  24.649  1.00  0.00    -0.246 OA
BRANCH  32  34
ATOM     34  C   UNL A   1      42.787  26.329  26.997  1.00  0.00     0.060 A 
ATOM     35  C   UNL A   1      42.106  25.667  28.029  1.00  0.00     0.016 A 
ATOM     36  C   UNL A   1      43.362  27.581  27.217  1.00  0.00     0.016 A 
ATOM     37  C   UNL A   1      41.956  26.280  29.273  1.00  0.00     0.010 A 
ATOM     38  C   UNL A   1      43.193  28.203  28.455  1.00  0.00     0.010 A 
ATOM     39  C   UNL A   1      42.454  27.573  29.474  1.00  0.00    -0.014 A 
BRANCH  39  40
ATOM     40  C   UNL A   1      42.009  28.375  30.638  1.00  0.00     0.031 A 
ATOM     41  C   UNL A   1      40.806  29.260  30.463  1.00  0.00     0.074 A 
ATOM     42  C   UNL A   1      42.657  28.338  31.815  1.00  0.00     0.049 A 
ATOM     43  N   UNL A   1      40.301  30.150  31.276  1.00  0.00    -0.248 NA
ATOM     44  C   UNL A   1      40.081  29.126  29.188  1.00  0.00     0.031 C 
ATOM     45  C   UNL A   1      43.790  27.473  32.136  1.00  0.00     0.029 A 
ATOM     46  N   UNL A   1      42.452  29.068  32.960  1.00  0.00    -0.354 N 
ATOM     47  C   UNL A   1      39.213  30.695  30.604  1.00  0.00     0.074 A 
ATOM     48  C   UNL A   1      39.148  30.058  29.309  1.00  0.00     0.031 C 
ATOM     49  C   UNL A   1      44.191  27.734  33.394  1.00  0.00     0.029 A 
ATOM     50  C   UNL A   1      43.374  28.815  33.944  1.00  0.00     0.049 A 
ATOM     51  H   UNL A   1      41.715  29.711  33.064  1.00  0.00     0.167 HD
ATOM     52  C   UNL A   1      38.343  31.642  31.028  1.00  0.00     0.031 A 
ATOM     53  C   UNL A   1      43.557  29.414  35.139  1.00  0.00     0.031 A 
ATOM     54  C   UNL A   1      38.424  32.289  32.309  1.00  0.00     0.049 A 
ATOM     55  C   UNL A   1      42.646  30.544  35.546  1.00  0.00     0.074 A 
ATOM     56  C   UNL A   1      37.594  33.263  32.836  1.00  0.00     0.029 A 
ATOM     57  N   UNL A   1      39.398  32.032  33.261  1.00  0.00    -0.354 N 
ATOM     58  N   UNL A   1      41.617  31.050  34.909  1.00  0.00    -0.248 NA
ATOM     59  C   UNL A   1      42.919  31.183  36.843  1.00  0.00     0.031 C 
ATOM     60  C   UNL A   1      38.106  33.642  34.081  1.00  0.00     0.029 A 
ATOM     61  C   UNL A   1      39.206  32.848  34.361  1.00  0.00     0.049 A 
ATOM     62  H   UNL A   1      40.120  31.368  33.166  1.00  0.00     0.167 HD
ATOM     63  C   UNL A   1      41.096  32.033  35.744  1.00  0.00     0.074 A 
ATOM     64  C   UNL A   1      41.921  32.051  36.934  1.00  0.00     0.031 C 
ATOM     65  C   UNL A   1      40.026  32.841  35.547  1.00  0.00     0.031 A 
BRANCH  52  66
ATOM     66  C   UNL A   1      37.261  32.063  30.073  1.00  0.00    -0.014 A 
ATOM     67  C   UNL A   1      37.430  33.158  29.211  1.00  0.00     0.009 A 
ATOM     68  C   UNL A   1      36.057  31.343  30.026  1.00  0.00     0.009 A 
ATOM     69  C   UNL A   1      36.398  33.549  28.353  1.00  0.00     0.001 A 
ATOM     70  C   UNL A   1      35.042  31.713  29.143  1.00  0.00     0.001 A 
ATOM     71  C   UNL A   1      35.209  32.823  28.316  1.00  0.00     0.000 A 
ENDBRANCH  52  66
BRANCH  53  72
ATOM     72  C   UNL A   1      44.663  28.978  36.034  1.00  0.00    -0.014 A 
ATOM     73  C   UNL A   1      44.457  27.960  36.979  1.00  0.00     0.009 A 
ATOM     74  C   UNL A   1      45.923  29.594  35.969  1.00  0.00     0.009 A 
ATOM     75  C   UNL A   1      45.479  27.590  37.857  1.00  0.00     0.001 A 
ATOM     76  C   UNL A   1      46.953  29.200  36.826  1.00  0.00     0.001 A 
ATOM     77  C   UNL A   1      46.727  28.206  37.776  1.00  0.00     0.000 A 
ENDBRANCH  53  72
BRANCH  65  78
ATOM     78  C   UNL A   1      39.628  33.766  36.664  1.00  0.00    -0.014 A 
ATOM     79  C   UNL A   1      38.849  33.328  37.745  1.00  0.00     0.009 A 
ATOM     80  C   UNL A   1      40.116  35.084  36.668  1.00  0.00     0.009 A 
ATOM     81  C   UNL A   1      38.549  34.198  38.797  1.00  0.00     0.001 A 
ATOM     82  C   UNL A   1      39.842  35.941  37.735  1.00  0.00     0.001 A 
ATOM     83  C   UNL A   1      39.053  35.499  38.795  1.00  0.00     0.000 A 
ENDBRANCH  65  78
ENDBRANCH  39  40
ENDBRANCH  32  34
ENDBRANCH  31  32
ENDBRANCH  30  31
ENDBRANCH  29  30
ENDBRANCH  28  29
ENDBRANCH  27  28
ENDBRANCH  26  27
ENDBRANCH  25  26
ENDBRANCH   1  25
TORSDOF 23
ENDMDL
MODEL 3
REMARK VINA RESULT:      -8.4      3.694      9.001
REMARK SMILES Cc1cc(C(=O)N2CCO[C@H](CC(=O)OCCOCCOCCOCCOC(=O)c3ccc(-c4c5nc(c(-c6ccccc6)c6ccc([nH]6)c(-c6ccccc6)c6nc(c(-c7ccccc7)c7ccc4[nH]7)C=C6)C=C5)cc3)C2)n(C)n1
REMARK SMILES IDX 20 1 19 2 18 3 17 4 16 5 15 6 13 7 14 8 12 9 11 10 7 11 8 12
REMARK SMILES IDX 78 13 9 14 10 15 5 16 6 17 4 18 1 19 2 20 3 21 81 22 79 23
REMARK SMILES IDX 80 24 21 25 22 26 23 27 24 28 25 29 26 30 27 31 28 32 29 33
REMARK SMILES IDX 30 34 31 35 77 36 32 37 76 38 33 39 34 40 35 41 70 42 36 43
REMARK SMILES IDX 75 44 69 45 71 46 37 47 74 48 68 49 67 50 38 52 60 53 45 54
REMARK SMILES IDX 59 55 46 56 49 57 58 58 72 59 47 60 48 61 57 63 73 64 50 65
REMARK SMILES IDX 39 66 40 67 44 68 41 69 43 70 42 71 61 72 62 73 66 74 63 75
REMARK SMILES IDX 65 76 64 77 51 78 52 79 56 80 53 81 55 82 54 83
REMARK H PARENT 71 51 49 62
REMARK Flexibility Score: inf
ROOT
ATOM      1  C   UNL A   1      40.116  20.337  26.342  1.00  0.00     0.188 C 
ENDROOT
BRANCH   1   2
ATOM      2  C   UNL A   1      39.620  21.762  26.056  1.00  0.00     0.188 C 
BRANCH   2   3
ATOM      3  O   UNL A   1      38.244  22.057  26.186  1.00  0.00    -0.376 OA
BRANCH   3   4
ATOM      4  C   UNL A   1      37.629  23.090  25.426  1.00  0.00     0.202 C 
BRANCH   4   5
ATOM      5  C   UNL A   1      36.324  23.799  25.826  1.00  0.00     0.261 C 
BRANCH   5   6
ATOM      6  O   UNL A   1      35.573  24.352  24.740  1.00  0.00    -0.463 OA
BRANCH   6   7
ATOM      7  C   UNL A   1      34.586  23.573  24.247  1.00  0.00     0.308 C 
ATOM      8  O   UNL A   1      34.619  23.025  23.148  1.00  0.00    -0.252 OA
BRANCH   7   9
ATOM      9  C   UNL A   1      33.494  23.253  25.230  1.00  0.00     0.156 C 
BRANCH   9  10
ATOM     10  C   UNL A   1      32.096  22.862  24.728  1.00  0.00     0.148 C 
ATOM     11  N   UNL A   1      31.437  25.176  24.328  1.00  0.00    -0.332 N 
ATOM     12  C   UNL A   1      30.483  25.129  25.436  1.00  0.00     0.148 C 
ATOM     13  C   UNL A   1      31.626  23.888  23.667  1.00  0.00     0.152 C 
ATOM     14  C   UNL A   1      30.805  23.992  26.420  1.00  0.00     0.182 C 
ATOM     15  O   UNL A   1      31.111  22.753  25.772  1.00  0.00    -0.374 OA
BRANCH  11  16
ATOM     16  C   UNL A   1      32.156  26.279  23.881  1.00  0.00     0.272 C 
ATOM     17  O   UNL A   1      32.556  26.311  22.717  1.00  0.00    -0.267 OA
BRANCH  16  18
ATOM     18  C   UNL A   1      32.548  27.281  24.854  1.00  0.00     0.126 A 
ATOM     19  C   UNL A   1      34.664  29.087  27.272  1.00  0.00     0.069 C 
ATOM     20  C   UNL A   1      33.661  28.561  26.318  1.00  0.00     0.060 A 
ATOM     21  C   UNL A   1      33.600  27.276  25.757  1.00  0.00     0.059 A 
ATOM     22  N   UNL A   1      32.683  29.336  25.851  1.00  0.00    -0.178 NA
ATOM     23  N   UNL A   1      32.042  28.561  24.945  1.00  0.00    -0.263 N 
ATOM     24  C   UNL A   1      30.977  29.184  24.193  1.00  0.00     0.174 C 
ENDBRANCH  16  18
ENDBRANCH  11  16
ENDBRANCH   9  10
ENDBRANCH   7   9
ENDBRANCH   6   7
ENDBRANCH   5   6
ENDBRANCH   4   5
ENDBRANCH   3   4
ENDBRANCH   2   3
ENDBRANCH   1   2
BRANCH   1  25
ATOM     25  O   UNL A   1      40.880  20.152  27.515  1.00  0.00    -0.377 OA
BRANCH  25  26
ATOM     26  C   UNL A   1      42.061  19.366  27.493  1.00  0.00     0.188 C 
BRANCH  26  27
ATOM     27  C   UNL A   1      42.658  18.868  26.164  1.00  0.00     0.188 C 
BRANCH  27  28
ATOM     28  O   UNL A   1      42.820  19.865  25.173  1.00  0.00    -0.376 OA
BRANCH  28  29
ATOM     29  C   UNL A   1      43.828  20.849  25.343  1.00  0.00     0.202 C 
BRANCH  29  30
ATOM     30  C   UNL A   1      43.403  22.249  25.813  1.00  0.00     0.261 C 
BRANCH  30  31
ATOM     31  O   UNL A   1      44.130  22.811  26.918  1.00  0.00    -0.460 OA
BRANCH  31  32
ATOM     32  C   UNL A   1      43.491  23.663  27.744  1.00  0.00     0.338 C 
ATOM     33  O   UNL A   1      42.641  23.396  28.578  1.00  0.00    -0.246 OA
BRANCH  32  34
ATOM     34  C   UNL A   1      44.129  24.985  27.598  1.00  0.00     0.060 A 
ATOM     35  C   UNL A   1      44.289  25.535  26.318  1.00  0.00     0.016 A 
ATOM     36  C   UNL A   1      44.585  25.670  28.725  1.00  0.00     0.016 A 
ATOM     37  C   UNL A   1      44.950  26.753  26.158  1.00  0.00     0.010 A 
ATOM     38  C   UNL A   1      45.265  26.878  28.563  1.00  0.00     0.010 A 
ATOM     39  C   UNL A   1      45.488  27.403  27.276  1.00  0.00    -0.014 A 
BRANCH  39  40
ATOM     40  C   UNL A   1      46.482  28.488  27.106  1.00  0.00     0.031 A 
ATOM     41  C   UNL A   1      45.978  29.905  27.088  1.00  0.00     0.074 A 
ATOM     42  C   UNL A   1      47.793  28.234  26.955  1.00  0.00     0.049 A 
ATOM     43  N   UNL A   1      46.618  31.014  26.824  1.00  0.00    -0.248 NA
ATOM     44  C   UNL A   1      44.551  30.092  27.404  1.00  0.00     0.031 C 
ATOM     45  C   UNL A   1      48.418  26.915  27.023  1.00  0.00     0.029 A 
ATOM     46  N   UNL A   1      48.835  29.090  26.696  1.00  0.00    -0.354 N 
ATOM     47  C   UNL A   1      45.669  32.025  26.922  1.00  0.00     0.074 A 
ATOM     48  C   UNL A   1      44.407  31.398  27.240  1.00  0.00     0.031 C 
ATOM     49  C   UNL A   1      49.737  27.049  26.796  1.00  0.00     0.029 A 
ATOM     50  C   UNL A   1      50.038  28.453  26.520  1.00  0.00     0.049 A 
ATOM     51  H   UNL A   1      48.729  30.067  26.642  1.00  0.00     0.167 HD
ATOM     52  C   UNL A   1      45.833  33.359  26.761  1.00  0.00     0.031 A 
ATOM     53  C   UNL A   1      51.235  28.946  26.145  1.00  0.00     0.031 A 
ATOM     54  C   UNL A   1      47.086  33.978  26.423  1.00  0.00     0.049 A 
ATOM     55  C   UNL A   1      51.372  30.420  25.862  1.00  0.00     0.074 A 
ATOM     56  C   UNL A   1      47.360  35.321  26.235  1.00  0.00     0.029 A 
ATOM     57  N   UNL A   1      48.271  33.292  26.213  1.00  0.00    -0.354 N 
ATOM     58  N   UNL A   1      50.473  31.370  25.960  1.00  0.00    -0.248 NA
ATOM     59  C   UNL A   1      52.694  30.892  25.419  1.00  0.00     0.031 C 
ATOM     60  C   UNL A   1      48.698  35.441  25.848  1.00  0.00     0.029 A 
ATOM     61  C   UNL A   1      49.274  34.181  25.872  1.00  0.00     0.049 A 
ATOM     62  H   UNL A   1      48.382  32.316  26.295  1.00  0.00     0.167 HD
ATOM     63  C   UNL A   1      51.130  32.553  25.636  1.00  0.00     0.074 A 
ATOM     64  C   UNL A   1      52.503  32.201  25.339  1.00  0.00     0.031 C 
ATOM     65  C   UNL A   1      50.641  33.817  25.597  1.00  0.00     0.031 A 
BRANCH  52  66
ATOM     66  C   UNL A   1      44.613  34.228  26.904  1.00  0.00    -0.014 A 
ATOM     67  C   UNL A   1      44.244  34.776  28.142  1.00  0.00     0.009 A 
ATOM     68  C   UNL A   1      43.829  34.512  25.775  1.00  0.00     0.009 A 
ATOM     69  C   UNL A   1      43.089  35.555  28.254  1.00  0.00     0.001 A 
ATOM     70  C   UNL A   1      42.696  35.319  25.883  1.00  0.00     0.001 A 
ATOM     71  C   UNL A   1      42.321  35.831  27.124  1.00  0.00     0.000 A 
ENDBRANCH  52  66
BRANCH  53  72
ATOM     72  C   UNL A   1      52.404  28.037  25.989  1.00  0.00    -0.014 A 
ATOM     73  C   UNL A   1      52.629  27.366  24.776  1.00  0.00     0.009 A 
ATOM     74  C   UNL A   1      53.286  27.815  27.058  1.00  0.00     0.009 A 
ATOM     75  C   UNL A   1      53.694  26.471  24.648  1.00  0.00     0.001 A 
ATOM     76  C   UNL A   1      54.370  26.944  26.917  1.00  0.00     0.001 A 
ATOM     77  C   UNL A   1      54.566  26.265  25.716  1.00  0.00     0.000 A 
ENDBRANCH  53  72
BRANCH  65  78
ATOM     78  C   UNL A   1      51.604  34.934  25.294  1.00  0.00    -0.014 A 
ATOM     79  C   UNL A   1      52.356  35.555  26.301  1.00  0.00     0.009 A 
ATOM     80  C   UNL A   1      51.816  35.310  23.957  1.00  0.00     0.009 A 
ATOM     81  C   UNL A   1      53.285  36.547  25.976  1.00  0.00     0.001 A 
ATOM     82  C   UNL A   1      52.767  36.277  23.633  1.00  0.00     0.001 A 
ATOM     83  C   UNL A   1      53.497  36.900  24.643  1.00  0.00     0.000 A 
ENDBRANCH  65  78
ENDBRANCH  39  40
ENDBRANCH  32  34
ENDBRANCH  31  32
ENDBRANCH  30  31
ENDBRANCH  29  30
ENDBRANCH  28  29
ENDBRANCH  27  28
ENDBRANCH  26  27
ENDBRANCH  25  26
ENDBRANCH   1  25
TORSDOF 23
ENDMDL
