MODEL 1
REMARK VINA RESULT:      -9.5      0.000      0.000
REMARK SMILES C#Cc1cc(Cl)cc2c1O[C@H](C(F)(F)F)C(C(=O)OCCOCCOCCOCCOC(=O)c1ccc(-c3c4nc(c(-c5ccccc5)c5ccc([nH]5)c(-c5ccccc5)c5nc(c(-c6ccccc6)c6ccc3[nH]6)C=C5)C=C4)cc1)=C2
REMARK SMILES IDX 26 1 25 2 24 3 23 4 22 5 21 6 20 7 19 8 17 9 18 10 16 11
REMARK SMILES IDX 3 12 4 13 9 14 5 15 8 16 10 17 6 18 7 19 82 20 11 21 2 22
REMARK SMILES IDX 1 23 12 24 13 25 14 26 15 27 27 28 28 29 29 30 30 31 31 32
REMARK SMILES IDX 32 33 33 34 34 35 35 36 81 37 36 38 80 39 37 40 38 41 39 42
REMARK SMILES IDX 74 43 40 44 79 45 73 46 75 47 41 48 78 49 72 50 71 51 42 53
REMARK SMILES IDX 64 54 49 55 63 56 50 57 53 58 62 59 76 60 51 61 52 62 61 64
REMARK SMILES IDX 77 65 54 66 43 67 44 68 48 69 45 70 47 71 46 72 65 73 66 74
REMARK SMILES IDX 70 75 67 76 69 77 68 78 55 79 56 80 60 81 57 82 59 83 58 84
REMARK H PARENT 75 52 53 63
REMARK Flexibility Score: inf
ROOT
ATOM      1  C   UNL A   1      40.573  19.766  26.115  1.00  0.00     0.188 C 
ENDROOT
BRANCH   1   2
ATOM      2  O   UNL A   1      40.086  21.019  25.633  1.00  0.00    -0.377 OA
BRANCH   2   3
ATOM      3  C   UNL A   1      38.834  21.493  26.094  1.00  0.00     0.188 C 
BRANCH   3   4
ATOM      4  C   UNL A   1      37.728  21.616  25.023  1.00  0.00     0.188 C 
BRANCH   4   5
ATOM      5  O   UNL A   1      36.423  21.861  25.501  1.00  0.00    -0.376 OA
BRANCH   5   6
ATOM      6  C   UNL A   1      35.320  21.009  25.255  1.00  0.00     0.202 C 
BRANCH   6   7
ATOM      7  C   UNL A   1      34.049  20.893  26.114  1.00  0.00     0.261 C 
BRANCH   7   8
ATOM      8  O   UNL A   1      33.473  22.097  26.607  1.00  0.00    -0.460 OA
BRANCH   8   9
ATOM      9  C   UNL A   1      32.411  22.571  25.926  1.00  0.00     0.338 C 
ATOM     10  O   UNL A   1      31.328  22.032  25.793  1.00  0.00    -0.246 OA
BRANCH   9  11
ATOM     11  C   UNL A   1      32.718  23.956  25.511  1.00  0.00     0.087 C 
ATOM     12  C   UNL A   1      33.215  27.890  24.225  1.00  0.00     0.068 A 
ATOM     13  C   UNL A   1      32.707  28.933  25.004  1.00  0.00     0.041 A 
ATOM     14  C   UNL A   1      33.159  26.569  24.695  1.00  0.00     0.143 A 
ATOM     15  C   UNL A   1      32.171  28.662  26.260  1.00  0.00     0.043 A 
ATOM     16  C   UNL A   1      32.562  26.301  25.932  1.00  0.00     0.020 A 
ATOM     17  O   UNL A   1      33.685  25.589  23.898  1.00  0.00    -0.474 OA
ATOM     18  Cl  UNL A   1      31.538  29.943  27.217  1.00  0.00    -0.084 Cl
ATOM     19  C   UNL A   1      32.102  27.353  26.731  1.00  0.00     0.032 A 
ATOM     20  C   UNL A   1      32.329  24.929  26.341  1.00  0.00     0.027 C 
ATOM     21  C   UNL A   1      33.482  24.192  24.236  1.00  0.00     0.316 C 
BRANCH  12  22
ATOM     22  C   UNL A   1      33.723  28.191  22.915  1.00  0.00    -0.067 C 
ATOM     23  C   UNL A   1      34.181  28.427  21.836  1.00  0.00     0.010 C 
ENDBRANCH  12  22
BRANCH  21  24
ATOM     24  C   UNL A   1      32.823  23.501  23.036  1.00  0.00     0.430 C 
ATOM     25  F   UNL A   1      31.475  23.629  23.069  1.00  0.00    -0.167 F 
ATOM     26  F   UNL A   1      33.233  24.029  21.859  1.00  0.00    -0.167 F 
ATOM     27  F   UNL A   1      33.106  22.179  23.005  1.00  0.00    -0.167 F 
ENDBRANCH  21  24
ENDBRANCH   9  11
ENDBRANCH   8   9
ENDBRANCH   7   8
ENDBRANCH   6   7
ENDBRANCH   5   6
ENDBRANCH   4   5
ENDBRANCH   3   4
ENDBRANCH   2   3
ENDBRANCH   1   2
BRANCH   1  28
ATOM     28  C   UNL A   1      42.074  19.492  26.396  1.00  0.00     0.188 C 
BRANCH  28  29
ATOM     29  O   UNL A   1      42.973  20.080  25.481  1.00  0.00    -0.376 OA
BRANCH  29  30
ATOM     30  C   UNL A   1      43.383  21.423  25.619  1.00  0.00     0.202 C 
BRANCH  30  31
ATOM     31  C   UNL A   1      44.877  21.782  25.653  1.00  0.00     0.261 C 
BRANCH  31  32
ATOM     32  O   UNL A   1      45.245  22.971  26.360  1.00  0.00    -0.460 OA
BRANCH  32  33
ATOM     33  C   UNL A   1      45.003  24.152  25.748  1.00  0.00     0.338 C 
ATOM     34  O   UNL A   1      45.229  24.442  24.588  1.00  0.00    -0.246 OA
BRANCH  33  35
ATOM     35  C   UNL A   1      44.228  24.985  26.694  1.00  0.00     0.060 A 
ATOM     36  C   UNL A   1      44.526  26.351  26.810  1.00  0.00     0.016 A 
ATOM     37  C   UNL A   1      43.198  24.420  27.447  1.00  0.00     0.016 A 
ATOM     38  C   UNL A   1      43.808  27.151  27.696  1.00  0.00     0.010 A 
ATOM     39  C   UNL A   1      42.501  25.216  28.361  1.00  0.00     0.010 A 
ATOM     40  C   UNL A   1      42.825  26.576  28.511  1.00  0.00    -0.014 A 
BRANCH  40  41
ATOM     41  C   UNL A   1      42.297  27.340  29.667  1.00  0.00     0.031 A 
ATOM     42  C   UNL A   1      41.014  28.103  29.482  1.00  0.00     0.074 A 
ATOM     43  C   UNL A   1      42.914  27.328  30.862  1.00  0.00     0.049 A 
ATOM     44  N   UNL A   1      40.382  28.878  30.324  1.00  0.00    -0.248 NA
ATOM     45  C   UNL A   1      40.352  27.971  28.172  1.00  0.00     0.031 C 
ATOM     46  C   UNL A   1      44.120  26.571  31.189  1.00  0.00     0.029 A 
ATOM     47  N   UNL A   1      42.597  27.978  32.030  1.00  0.00    -0.354 N 
ATOM     48  C   UNL A   1      39.255  29.327  29.645  1.00  0.00     0.074 A 
ATOM     49  C   UNL A   1      39.306  28.770  28.313  1.00  0.00     0.031 C 
ATOM     50  C   UNL A   1      44.443  26.801  32.474  1.00  0.00     0.029 A 
ATOM     51  C   UNL A   1      43.491  27.751  33.048  1.00  0.00     0.049 A 
ATOM     52  H   UNL A   1      41.804  28.553  32.128  1.00  0.00     0.167 HD
ATOM     53  C   UNL A   1      38.259  30.121  30.098  1.00  0.00     0.031 A 
ATOM     54  C   UNL A   1      43.544  28.267  34.293  1.00  0.00     0.031 A 
ATOM     55  C   UNL A   1      38.212  30.681  31.420  1.00  0.00     0.049 A 
ATOM     56  C   UNL A   1      42.481  29.243  34.732  1.00  0.00     0.074 A 
ATOM     57  C   UNL A   1      37.244  31.502  31.970  1.00  0.00     0.029 A 
ATOM     58  N   UNL A   1      39.173  30.478  32.399  1.00  0.00    -0.354 N 
ATOM     59  N   UNL A   1      41.415  29.652  34.087  1.00  0.00    -0.248 NA
ATOM     60  C   UNL A   1      42.627  29.825  36.075  1.00  0.00     0.031 C 
ATOM     61  C   UNL A   1      37.651  31.852  33.259  1.00  0.00     0.029 A 
ATOM     62  C   UNL A   1      38.833  31.186  33.539  1.00  0.00     0.049 A 
ATOM     63  H   UNL A   1      39.974  29.917  32.298  1.00  0.00     0.167 HD
ATOM     64  C   UNL A   1      40.749  30.509  34.957  1.00  0.00     0.074 A 
ATOM     65  C   UNL A   1      41.519  30.546  36.181  1.00  0.00     0.031 C 
ATOM     66  C   UNL A   1      39.603  31.206  34.756  1.00  0.00     0.031 A 
BRANCH  53  67
ATOM     67  C   UNL A   1      37.135  30.448  29.157  1.00  0.00    -0.014 A 
ATOM     68  C   UNL A   1      36.179  29.482  28.805  1.00  0.00     0.009 A 
ATOM     69  C   UNL A   1      36.977  31.762  28.690  1.00  0.00     0.009 A 
ATOM     70  C   UNL A   1      35.092  29.825  27.999  1.00  0.00     0.001 A 
ATOM     71  C   UNL A   1      35.873  32.110  27.910  1.00  0.00     0.001 A 
ATOM     72  C   UNL A   1      34.933  31.140  27.563  1.00  0.00     0.000 A 
ENDBRANCH  53  67
BRANCH  54  73
ATOM     73  C   UNL A   1      44.646  27.885  35.219  1.00  0.00    -0.014 A 
ATOM     74  C   UNL A   1      44.470  26.850  36.150  1.00  0.00     0.009 A 
ATOM     75  C   UNL A   1      45.871  28.572  35.197  1.00  0.00     0.009 A 
ATOM     76  C   UNL A   1      45.487  26.527  37.054  1.00  0.00     0.001 A 
ATOM     77  C   UNL A   1      46.898  28.223  36.078  1.00  0.00     0.001 A 
ATOM     78  C   UNL A   1      46.701  27.209  37.012  1.00  0.00     0.000 A 
ENDBRANCH  54  73
BRANCH  66  79
ATOM     79  C   UNL A   1      39.081  32.048  35.889  1.00  0.00    -0.014 A 
ATOM     80  C   UNL A   1      39.422  33.404  36.007  1.00  0.00     0.009 A 
ATOM     81  C   UNL A   1      38.161  31.499  36.797  1.00  0.00     0.009 A 
ATOM     82  C   UNL A   1      38.870  34.184  37.025  1.00  0.00     0.001 A 
ATOM     83  C   UNL A   1      37.584  32.290  37.791  1.00  0.00     0.001 A 
ATOM     84  C   UNL A   1      37.945  33.630  37.908  1.00  0.00     0.000 A 
ENDBRANCH  66  79
ENDBRANCH  40  41
ENDBRANCH  33  35
ENDBRANCH  32  33
ENDBRANCH  31  32
ENDBRANCH  30  31
ENDBRANCH  29  30
ENDBRANCH  28  29
ENDBRANCH   1  28
TORSDOF 22
ENDMDL
MODEL 2
REMARK VINA RESULT:      -8.7      2.346      6.700
REMARK SMILES C#Cc1cc(Cl)cc2c1O[C@H](C(F)(F)F)C(C(=O)OCCOCCOCCOCCOC(=O)c1ccc(-c3c4nc(c(-c5ccccc5)c5ccc([nH]5)c(-c5ccccc5)c5nc(c(-c6ccccc6)c6ccc3[nH]6)C=C5)C=C4)cc1)=C2
REMARK SMILES IDX 26 1 25 2 24 3 23 4 22 5 21 6 20 7 19 8 17 9 18 10 16 11
REMARK SMILES IDX 3 12 4 13 9 14 5 15 8 16 10 17 6 18 7 19 82 20 11 21 2 22
REMARK SMILES IDX 1 23 12 24 13 25 14 26 15 27 27 28 28 29 29 30 30 31 31 32
REMARK SMILES IDX 32 33 33 34 34 35 35 36 81 37 36 38 80 39 37 40 38 41 39 42
REMARK SMILES IDX 74 43 40 44 79 45 73 46 75 47 41 48 78 49 72 50 71 51 42 53
REMARK SMILES IDX 64 54 49 55 63 56 50 57 53 58 62 59 76 60 51 61 52 62 61 64
REMARK SMILES IDX 77 65 54 66 43 67 44 68 48 69 45 70 47 71 46 72 65 73 66 74
REMARK SMILES IDX 70 75 67 76 69 77 68 78 55 79 56 80 60 81 57 82 59 83 58 84
REMARK H PARENT 75 52 53 63
REMARK Flexibility Score: inf
ROOT
ATOM      1  C   UNL A   1      41.506  19.859  26.244  1.00  0.00     0.188 C 
ENDROOT
BRANCH   1   2
ATOM      2  O   UNL A   1      40.264  19.288  25.830  1.00  0.00    -0.377 OA
BRANCH   2   3
ATOM      3  C   UNL A   1      39.138  20.131  25.675  1.00  0.00     0.188 C 
BRANCH   3   4
ATOM      4  C   UNL A   1      39.310  21.580  26.182  1.00  0.00     0.188 C 
BRANCH   4   5
ATOM      5  O   UNL A   1      38.562  22.569  25.508  1.00  0.00    -0.376 OA
BRANCH   5   6
ATOM      6  C   UNL A   1      37.327  23.079  25.976  1.00  0.00     0.202 C 
BRANCH   6   7
ATOM      7  C   UNL A   1      35.998  22.309  26.065  1.00  0.00     0.261 C 
BRANCH   7   8
ATOM      8  O   UNL A   1      34.987  22.834  26.918  1.00  0.00    -0.460 OA
BRANCH   8   9
ATOM      9  C   UNL A   1      33.827  23.176  26.324  1.00  0.00     0.338 C 
ATOM     10  O   UNL A   1      33.306  24.277  26.317  1.00  0.00    -0.246 OA
BRANCH   9  11
ATOM     11  C   UNL A   1      33.370  22.025  25.519  1.00  0.00     0.087 C 
ATOM     12  C   UNL A   1      32.455  18.674  23.214  1.00  0.00     0.068 A 
ATOM     13  C   UNL A   1      32.503  17.406  23.801  1.00  0.00     0.041 A 
ATOM     14  C   UNL A   1      32.647  19.821  24.000  1.00  0.00     0.143 A 
ATOM     15  C   UNL A   1      32.715  17.286  25.172  1.00  0.00     0.043 A 
ATOM     16  C   UNL A   1      32.921  19.684  25.365  1.00  0.00     0.020 A 
ATOM     17  O   UNL A   1      32.574  21.037  23.376  1.00  0.00    -0.474 OA
ATOM     18  Cl  UNL A   1      32.783  15.726  25.895  1.00  0.00    -0.084 Cl
ATOM     19  C   UNL A   1      32.918  18.417  25.957  1.00  0.00     0.032 A 
ATOM     20  C   UNL A   1      33.308  20.845  26.145  1.00  0.00     0.027 C 
ATOM     21  C   UNL A   1      32.957  22.242  24.088  1.00  0.00     0.316 C 
BRANCH  12  22
ATOM     22  C   UNL A   1      32.278  18.769  21.792  1.00  0.00    -0.067 C 
ATOM     23  C   UNL A   1      32.092  18.845  20.612  1.00  0.00     0.010 C 
ENDBRANCH  12  22
BRANCH  21  24
ATOM     24  C   UNL A   1      34.049  22.950  23.277  1.00  0.00     0.430 C 
ATOM     25  F   UNL A   1      33.773  22.932  21.952  1.00  0.00    -0.167 F 
ATOM     26  F   UNL A   1      34.177  24.251  23.628  1.00  0.00    -0.167 F 
ATOM     27  F   UNL A   1      35.256  22.364  23.450  1.00  0.00    -0.167 F 
ENDBRANCH  21  24
ENDBRANCH   9  11
ENDBRANCH   8   9
ENDBRANCH   7   8
ENDBRANCH   6   7
ENDBRANCH   5   6
ENDBRANCH   4   5
ENDBRANCH   3   4
ENDBRANCH   2   3
ENDBRANCH   1   2
BRANCH   1  28
ATOM     28  C   UNL A   1      42.876  19.173  26.001  1.00  0.00     0.188 C 
BRANCH  28  29
ATOM     29  O   UNL A   1      43.546  19.569  24.824  1.00  0.00    -0.376 OA
BRANCH  29  30
ATOM     30  C   UNL A   1      44.898  19.976  24.853  1.00  0.00     0.202 C 
BRANCH  30  31
ATOM     31  C   UNL A   1      45.260  21.457  25.041  1.00  0.00     0.261 C 
BRANCH  31  32
ATOM     32  O   UNL A   1      44.534  22.185  26.038  1.00  0.00    -0.460 OA
BRANCH  32  33
ATOM     33  C   UNL A   1      43.610  23.071  25.604  1.00  0.00     0.338 C 
ATOM     34  O   UNL A   1      42.983  23.032  24.563  1.00  0.00    -0.246 OA
BRANCH  33  35
ATOM     35  C   UNL A   1      43.347  24.010  26.717  1.00  0.00     0.060 A 
ATOM     36  C   UNL A   1      42.515  23.609  27.772  1.00  0.00     0.016 A 
ATOM     37  C   UNL A   1      43.939  25.274  26.725  1.00  0.00     0.016 A 
ATOM     38  C   UNL A   1      42.255  24.479  28.828  1.00  0.00     0.010 A 
ATOM     39  C   UNL A   1      43.650  26.159  27.767  1.00  0.00     0.010 A 
ATOM     40  C   UNL A   1      42.782  25.777  28.805  1.00  0.00    -0.014 A 
BRANCH  40  41
ATOM     41  C   UNL A   1      42.251  26.797  29.741  1.00  0.00     0.031 A 
ATOM     42  C   UNL A   1      42.990  27.023  31.032  1.00  0.00     0.074 A 
ATOM     43  C   UNL A   1      41.167  27.534  29.441  1.00  0.00     0.049 A 
ATOM     44  N   UNL A   1      42.697  27.820  32.025  1.00  0.00    -0.248 NA
ATOM     45  C   UNL A   1      44.228  26.247  31.227  1.00  0.00     0.031 C 
ATOM     46  C   UNL A   1      40.408  27.461  28.194  1.00  0.00     0.029 A 
ATOM     47  N   UNL A   1      40.519  28.497  30.175  1.00  0.00    -0.354 N 
ATOM     48  C   UNL A   1      43.709  27.640  32.960  1.00  0.00     0.074 A 
ATOM     49  C   UNL A   1      44.603  26.633  32.437  1.00  0.00     0.031 C 
ATOM     50  C   UNL A   1      39.395  28.344  28.250  1.00  0.00     0.029 A 
ATOM     51  C   UNL A   1      39.411  29.014  29.549  1.00  0.00     0.049 A 
ATOM     52  H   UNL A   1      40.821  28.790  31.064  1.00  0.00     0.167 HD
ATOM     53  C   UNL A   1      43.885  28.269  34.145  1.00  0.00     0.031 A 
ATOM     54  C   UNL A   1      38.502  29.911  29.986  1.00  0.00     0.031 A 
ATOM     55  C   UNL A   1      42.992  29.264  34.669  1.00  0.00     0.049 A 
ATOM     56  C   UNL A   1      38.660  30.510  31.361  1.00  0.00     0.074 A 
ATOM     57  C   UNL A   1      43.085  29.955  35.863  1.00  0.00     0.029 A 
ATOM     58  N   UNL A   1      41.845  29.711  34.032  1.00  0.00    -0.354 N 
ATOM     59  N   UNL A   1      39.626  30.341  32.232  1.00  0.00    -0.248 NA
ATOM     60  C   UNL A   1      37.604  31.430  31.811  1.00  0.00     0.031 C 
ATOM     61  C   UNL A   1      41.958  30.771  35.982  1.00  0.00     0.029 A 
ATOM     62  C   UNL A   1      41.205  30.647  34.827  1.00  0.00     0.049 A 
ATOM     63  H   UNL A   1      41.532  29.408  33.150  1.00  0.00     0.167 HD
ATOM     64  C   UNL A   1      39.310  31.156  33.315  1.00  0.00     0.074 A 
ATOM     65  C   UNL A   1      38.076  31.834  32.982  1.00  0.00     0.031 C 
ATOM     66  C   UNL A   1      39.982  31.323  34.480  1.00  0.00     0.031 A 
BRANCH  53  67
ATOM     67  C   UNL A   1      45.084  27.895  34.970  1.00  0.00    -0.014 A 
ATOM     68  C   UNL A   1      45.032  26.831  35.883  1.00  0.00     0.009 A 
ATOM     69  C   UNL A   1      46.305  28.556  34.763  1.00  0.00     0.009 A 
ATOM     70  C   UNL A   1      46.179  26.441  36.577  1.00  0.00     0.001 A 
ATOM     71  C   UNL A   1      47.457  28.144  35.435  1.00  0.00     0.001 A 
ATOM     72  C   UNL A   1      47.392  27.089  36.344  1.00  0.00     0.000 A 
ENDBRANCH  53  67
BRANCH  54  73
ATOM     73  C   UNL A   1      37.351  30.295  29.123  1.00  0.00    -0.014 A 
ATOM     74  C   UNL A   1      36.499  29.315  28.591  1.00  0.00     0.009 A 
ATOM     75  C   UNL A   1      37.113  31.642  28.803  1.00  0.00     0.009 A 
ATOM     76  C   UNL A   1      35.449  29.672  27.740  1.00  0.00     0.001 A 
ATOM     77  C   UNL A   1      36.042  31.998  27.980  1.00  0.00     0.001 A 
ATOM     78  C   UNL A   1      35.218  31.013  27.441  1.00  0.00     0.000 A 
ENDBRANCH  54  73
BRANCH  66  79
ATOM     79  C   UNL A   1      39.427  32.301  35.481  1.00  0.00    -0.014 A 
ATOM     80  C   UNL A   1      39.777  33.659  35.445  1.00  0.00     0.009 A 
ATOM     81  C   UNL A   1      38.468  31.873  36.413  1.00  0.00     0.009 A 
ATOM     82  C   UNL A   1      39.196  34.562  36.339  1.00  0.00     0.001 A 
ATOM     83  C   UNL A   1      37.862  32.783  37.280  1.00  0.00     0.001 A 
ATOM     84  C   UNL A   1      38.232  34.125  37.246  1.00  0.00     0.000 A 
ENDBRANCH  66  79
ENDBRANCH  40  41
ENDBRANCH  33  35
ENDBRANCH  32  33
ENDBRANCH  31  32
ENDBRANCH  30  31
ENDBRANCH  29  30
ENDBRANCH  28  29
ENDBRANCH   1  28
TORSDOF 22
ENDMDL
MODEL 3
REMARK VINA RESULT:      -8.5      6.161     12.525
REMARK SMILES C#Cc1cc(Cl)cc2c1O[C@H](C(F)(F)F)C(C(=O)OCCOCCOCCOCCOC(=O)c1ccc(-c3c4nc(c(-c5ccccc5)c5ccc([nH]5)c(-c5ccccc5)c5nc(c(-c6ccccc6)c6ccc3[nH]6)C=C5)C=C4)cc1)=C2
REMARK SMILES IDX 26 1 25 2 24 3 23 4 22 5 21 6 20 7 19 8 17 9 18 10 16 11
REMARK SMILES IDX 3 12 4 13 9 14 5 15 8 16 10 17 6 18 7 19 82 20 11 21 2 22
REMARK SMILES IDX 1 23 12 24 13 25 14 26 15 27 27 28 28 29 29 30 30 31 31 32
REMARK SMILES IDX 32 33 33 34 34 35 35 36 81 37 36 38 80 39 37 40 38 41 39 42
REMARK SMILES IDX 74 43 40 44 79 45 73 46 75 47 41 48 78 49 72 50 71 51 42 53
REMARK SMILES IDX 64 54 49 55 63 56 50 57 53 58 62 59 76 60 51 61 52 62 61 64
REMARK SMILES IDX 77 65 54 66 43 67 44 68 48 69 45 70 47 71 46 72 65 73 66 74
REMARK SMILES IDX 70 75 67 76 69 77 68 78 55 79 56 80 60 81 57 82 59 83 58 84
REMARK H PARENT 75 52 53 63
REMARK Flexibility Score: inf
ROOT
ATOM      1  C   UNL A   1      37.665  33.791  33.849  1.00  0.00     0.188 C 
ENDROOT
BRANCH   1   2
ATOM      2  O   UNL A   1      38.808  33.015  33.486  1.00  0.00    -0.377 OA
BRANCH   2   3
ATOM      3  C   UNL A   1      38.818  31.629  33.775  1.00  0.00     0.188 C 
BRANCH   3   4
ATOM      4  C   UNL A   1      39.880  31.165  34.797  1.00  0.00     0.188 C 
BRANCH   4   5
ATOM      5  O   UNL A   1      40.068  29.771  34.910  1.00  0.00    -0.376 OA
BRANCH   5   6
ATOM      6  C   UNL A   1      41.164  29.075  34.346  1.00  0.00     0.202 C 
BRANCH   6   7
ATOM      7  C   UNL A   1      41.197  27.585  33.963  1.00  0.00     0.261 C 
BRANCH   7   8
ATOM      8  O   UNL A   1      42.404  26.869  34.199  1.00  0.00    -0.460 OA
BRANCH   8   9
ATOM      9  C   UNL A   1      42.325  25.839  35.064  1.00  0.00     0.338 C 
ATOM     10  O   UNL A   1      41.341  25.480  35.686  1.00  0.00    -0.246 OA
BRANCH   9  11
ATOM     11  C   UNL A   1      43.597  25.091  34.998  1.00  0.00     0.087 C 
ATOM     12  C   UNL A   1      47.136  22.896  35.189  1.00  0.00     0.068 A 
ATOM     13  C   UNL A   1      47.074  21.499  35.205  1.00  0.00     0.041 A 
ATOM     14  C   UNL A   1      45.966  23.649  35.010  1.00  0.00     0.143 A 
ATOM     15  C   UNL A   1      45.853  20.858  35.016  1.00  0.00     0.043 A 
ATOM     16  C   UNL A   1      44.736  22.995  34.883  1.00  0.00     0.020 A 
ATOM     17  O   UNL A   1      46.087  25.012  34.985  1.00  0.00    -0.474 OA
ATOM     18  Cl  UNL A   1      45.774  19.140  35.045  1.00  0.00    -0.084 Cl
ATOM     19  C   UNL A   1      44.685  21.597  34.849  1.00  0.00     0.032 A 
ATOM     20  C   UNL A   1      43.504  23.761  34.888  1.00  0.00     0.027 C 
ATOM     21  C   UNL A   1      44.899  25.846  35.002  1.00  0.00     0.316 C 
BRANCH  12  22
ATOM     22  C   UNL A   1      48.401  23.533  35.429  1.00  0.00    -0.067 C 
ATOM     23  C   UNL A   1      49.468  24.046  35.597  1.00  0.00     0.010 C 
ENDBRANCH  12  22
BRANCH  21  24
ATOM     24  C   UNL A   1      45.003  26.802  36.197  1.00  0.00     0.430 C 
ATOM     25  F   UNL A   1      44.201  26.412  37.216  1.00  0.00    -0.167 F 
ATOM     26  F   UNL A   1      46.261  26.857  36.693  1.00  0.00    -0.167 F 
ATOM     27  F   UNL A   1      44.648  28.063  35.859  1.00  0.00    -0.167 F 
ENDBRANCH  21  24
ENDBRANCH   9  11
ENDBRANCH   8   9
ENDBRANCH   7   8
ENDBRANCH   6   7
ENDBRANCH   5   6
ENDBRANCH   4   5
ENDBRANCH   3   4
ENDBRANCH   2   3
ENDBRANCH   1   2
BRANCH   1  28
ATOM     28  C   UNL A   1      36.210  33.357  33.530  1.00  0.00     0.188 C 
BRANCH  28  29
ATOM     29  O   UNL A   1      36.001  32.874  32.220  1.00  0.00    -0.376 OA
BRANCH  29  30
ATOM     30  C   UNL A   1      35.853  33.758  31.129  1.00  0.00     0.202 C 
BRANCH  30  31
ATOM     31  C   UNL A   1      34.985  33.367  29.923  1.00  0.00     0.261 C 
BRANCH  31  32
ATOM     32  O   UNL A   1      34.620  31.988  29.802  1.00  0.00    -0.460 OA
BRANCH  32  33
ATOM     33  C   UNL A   1      34.832  31.396  28.605  1.00  0.00     0.338 C 
ATOM     34  O   UNL A   1      34.227  31.593  27.569  1.00  0.00    -0.246 OA
BRANCH  33  35
ATOM     35  C   UNL A   1      36.070  30.595  28.725  1.00  0.00     0.060 A 
ATOM     36  C   UNL A   1      36.325  29.901  29.917  1.00  0.00     0.016 A 
ATOM     37  C   UNL A   1      36.962  30.514  27.655  1.00  0.00     0.016 A 
ATOM     38  C   UNL A   1      37.486  29.141  30.049  1.00  0.00     0.010 A 
ATOM     39  C   UNL A   1      38.143  29.780  27.801  1.00  0.00     0.010 A 
ATOM     40  C   UNL A   1      38.424  29.118  29.010  1.00  0.00    -0.014 A 
BRANCH  40  41
ATOM     41  C   UNL A   1      39.786  28.592  29.267  1.00  0.00     0.031 A 
ATOM     42  C   UNL A   1      40.745  29.460  30.033  1.00  0.00     0.074 A 
ATOM     43  C   UNL A   1      40.154  27.361  28.868  1.00  0.00     0.049 A 
ATOM     44  N   UNL A   1      41.997  29.242  30.339  1.00  0.00    -0.248 NA
ATOM     45  C   UNL A   1      40.221  30.748  30.523  1.00  0.00     0.031 C 
ATOM     46  C   UNL A   1      39.295  26.397  28.183  1.00  0.00     0.029 A 
ATOM     47  N   UNL A   1      41.358  26.713  28.991  1.00  0.00    -0.354 N 
ATOM     48  C   UNL A   1      42.408  30.362  31.052  1.00  0.00     0.074 A 
ATOM     49  C   UNL A   1      41.289  31.274  31.102  1.00  0.00     0.031 C 
ATOM     50  C   UNL A   1      40.002  25.278  27.945  1.00  0.00     0.029 A 
ATOM     51  C   UNL A   1      41.371  25.461  28.425  1.00  0.00     0.049 A 
ATOM     52  H   UNL A   1      42.138  27.107  29.443  1.00  0.00     0.167 HD
ATOM     53  C   UNL A   1      43.609  30.603  31.627  1.00  0.00     0.031 A 
ATOM     54  C   UNL A   1      42.380  24.575  28.291  1.00  0.00     0.031 A 
ATOM     55  C   UNL A   1      44.724  29.699  31.570  1.00  0.00     0.049 A 
ATOM     56  C   UNL A   1      43.741  24.920  28.840  1.00  0.00     0.074 A 
ATOM     57  C   UNL A   1      45.984  29.858  32.119  1.00  0.00     0.029 A 
ATOM     58  N   UNL A   1      44.715  28.471  30.929  1.00  0.00    -0.354 N 
ATOM     59  N   UNL A   1      44.116  25.976  29.521  1.00  0.00    -0.248 NA
ATOM     60  C   UNL A   1      44.819  23.946  28.606  1.00  0.00     0.031 C 
ATOM     61  C   UNL A   1      46.759  28.756  31.753  1.00  0.00     0.029 A 
ATOM     62  C   UNL A   1      45.960  27.875  31.043  1.00  0.00     0.049 A 
ATOM     63  H   UNL A   1      43.941  28.081  30.463  1.00  0.00     0.167 HD
ATOM     64  C   UNL A   1      45.459  25.778  29.824  1.00  0.00     0.074 A 
ATOM     65  C   UNL A   1      45.828  24.492  29.271  1.00  0.00     0.031 C 
ATOM     66  C   UNL A   1      46.310  26.590  30.497  1.00  0.00     0.031 A 
BRANCH  53  67
ATOM     67  C   UNL A   1      43.791  31.900  32.361  1.00  0.00    -0.014 A 
ATOM     68  C   UNL A   1      43.336  32.059  33.679  1.00  0.00     0.009 A 
ATOM     69  C   UNL A   1      44.511  32.945  31.760  1.00  0.00     0.009 A 
ATOM     70  C   UNL A   1      43.592  33.240  34.377  1.00  0.00     0.001 A 
ATOM     71  C   UNL A   1      44.792  34.113  32.470  1.00  0.00     0.001 A 
ATOM     72  C   UNL A   1      44.329  34.260  33.777  1.00  0.00     0.000 A 
ENDBRANCH  53  67
BRANCH  54  73
ATOM     73  C   UNL A   1      42.152  23.276  27.599  1.00  0.00    -0.014 A 
ATOM     74  C   UNL A   1      42.517  23.110  26.254  1.00  0.00     0.009 A 
ATOM     75  C   UNL A   1      41.543  22.203  28.270  1.00  0.00     0.009 A 
ATOM     76  C   UNL A   1      42.256  21.908  25.590  1.00  0.00     0.001 A 
ATOM     77  C   UNL A   1      41.316  20.991  27.613  1.00  0.00     0.001 A 
ATOM     78  C   UNL A   1      41.663  20.848  26.272  1.00  0.00     0.000 A 
ENDBRANCH  54  73
BRANCH  66  79
ATOM     79  C   UNL A   1      47.722  26.112  30.711  1.00  0.00    -0.014 A 
ATOM     80  C   UNL A   1      48.694  26.237  29.708  1.00  0.00     0.009 A 
ATOM     81  C   UNL A   1      48.105  25.615  31.967  1.00  0.00     0.009 A 
ATOM     82  C   UNL A   1      50.014  25.852  29.951  1.00  0.00     0.001 A 
ATOM     83  C   UNL A   1      49.432  25.266  32.220  1.00  0.00     0.001 A 
ATOM     84  C   UNL A   1      50.384  25.378  31.209  1.00  0.00     0.000 A 
ENDBRANCH  66  79
ENDBRANCH  40  41
ENDBRANCH  33  35
ENDBRANCH  32  33
ENDBRANCH  31  32
ENDBRANCH  30  31
ENDBRANCH  29  30
ENDBRANCH  28  29
ENDBRANCH   1  28
TORSDOF 22
ENDMDL
