MODEL 1
REMARK VINA RESULT:      -9.9      0.000      0.000
REMARK SMILES COc1ccc(-c2cc(Cl)cc3c2O[C@@H](C(F)(F)F)C(C(=O)OCCOCCOCCOCCOC(=O)c2ccc(-c4c5nc(c(-c6ccccc6)c6ccc([nH]6)c(-c6ccccc6)c6nc(c(-c7ccccc7)c7ccc4[nH]7)C=C6)C=C5)cc2)=C3)cc1C
REMARK SMILES IDX 29 1 28 2 27 3 26 4 25 5 24 6 23 7 21 8 22 9 20 10 7 11 8 12
REMARK SMILES IDX 13 13 9 14 12 15 14 16 10 17 11 18 86 19 15 20 6 21 3 22
REMARK SMILES IDX 4 23 88 24 5 25 87 26 89 27 2 28 1 29 16 30 17 31 18 32
REMARK SMILES IDX 19 33 30 34 31 35 32 36 33 37 34 38 35 39 36 40 37 41 38 42
REMARK SMILES IDX 39 43 85 44 40 45 84 46 41 47 42 48 43 49 78 50 44 51 83 52
REMARK SMILES IDX 77 53 79 54 45 55 82 56 76 57 75 58 46 60 68 61 53 62 67 63
REMARK SMILES IDX 54 64 57 65 66 66 80 67 55 68 56 69 65 71 81 72 58 73 47 74
REMARK SMILES IDX 48 75 52 76 49 77 51 78 50 79 69 80 70 81 74 82 71 83 73 84
REMARK SMILES IDX 72 85 59 86 60 87 64 88 61 89 63 90 62 91
REMARK H PARENT 79 59 57 70
REMARK Flexibility Score: inf
ROOT
ATOM      1  O   UNL A   1      31.978  29.761  25.008  1.00  0.00    -0.377 OA
ENDROOT
BRANCH   1   2
ATOM      2  C   UNL A   1      31.514  28.647  24.272  1.00  0.00     0.188 C 
BRANCH   2   3
ATOM      3  C   UNL A   1      31.966  28.413  22.832  1.00  0.00     0.188 C 
BRANCH   3   4
ATOM      4  O   UNL A   1      31.524  27.338  22.017  1.00  0.00    -0.376 OA
BRANCH   4   5
ATOM      5  C   UNL A   1      32.246  26.134  21.825  1.00  0.00     0.202 C 
BRANCH   5   6
ATOM      6  C   UNL A   1      33.507  25.792  22.723  1.00  0.00     0.261 C 
BRANCH   6   7
ATOM      7  O   UNL A   1      33.220  24.752  23.694  1.00  0.00    -0.460 OA
BRANCH   7   8
ATOM      8  C   UNL A   1      32.852  23.525  23.245  1.00  0.00     0.338 C 
ATOM      9  O   UNL A   1      33.420  22.865  22.391  1.00  0.00    -0.246 OA
BRANCH   8  10
ATOM     10  C   UNL A   1      31.738  22.978  24.122  1.00  0.00     0.087 C 
ATOM     11  C   UNL A   1      35.287  21.594  25.480  1.00  0.00     0.026 A 
ATOM     12  C   UNL A   1      35.537  20.249  25.116  1.00  0.00     0.033 A 
ATOM     13  C   UNL A   1      33.859  21.974  25.443  1.00  0.00     0.135 A 
ATOM     14  C   UNL A   1      34.548  19.372  24.665  1.00  0.00     0.042 A 
ATOM     15  C   UNL A   1      32.923  21.103  24.788  1.00  0.00     0.019 A 
ATOM     16  O   UNL A   1      33.265  23.189  25.915  1.00  0.00    -0.475 OA
ATOM     17  Cl  UNL A   1      34.980  17.763  24.242  1.00  0.00    -0.084 Cl
ATOM     18  C   UNL A   1      33.251  19.799  24.465  1.00  0.00     0.032 A 
ATOM     19  C   UNL A   1      31.636  21.639  24.244  1.00  0.00     0.027 C 
ATOM     20  C   UNL A   1      31.857  23.551  25.501  1.00  0.00     0.316 C 
BRANCH  11  21
ATOM     21  C   UNL A   1      36.663  22.350  25.635  1.00  0.00    -0.014 A 
ATOM     22  C   UNL A   1      39.270  23.540  26.399  1.00  0.00     0.121 A 
ATOM     23  C   UNL A   1      38.059  24.239  26.433  1.00  0.00     0.047 A 
ATOM     24  C   UNL A   1      39.194  22.182  26.112  1.00  0.00    -0.008 A 
ATOM     25  C   UNL A   1      36.799  23.662  26.095  1.00  0.00     0.013 A 
ATOM     26  C   UNL A   1      37.913  21.630  25.688  1.00  0.00     0.016 A 
ATOM     27  C   UNL A   1      40.392  21.314  26.422  1.00  0.00     0.048 C 
BRANCH  22  28
ATOM     28  O   UNL A   1      40.360  24.258  26.822  1.00  0.00    -0.496 OA
ATOM     29  C   UNL A   1      40.860  25.365  26.070  1.00  0.00     0.278 C 
ENDBRANCH  22  28
ENDBRANCH  11  21
BRANCH  20  30
ATOM     30  C   UNL A   1      31.218  25.005  25.525  1.00  0.00     0.430 C 
ATOM     31  F   UNL A   1      30.264  25.023  26.510  1.00  0.00    -0.167 F 
ATOM     32  F   UNL A   1      32.081  25.979  25.864  1.00  0.00    -0.167 F 
ATOM     33  F   UNL A   1      30.564  25.422  24.425  1.00  0.00    -0.167 F 
ENDBRANCH  20  30
ENDBRANCH   8  10
ENDBRANCH   7   8
ENDBRANCH   6   7
ENDBRANCH   5   6
ENDBRANCH   4   5
ENDBRANCH   3   4
ENDBRANCH   2   3
ENDBRANCH   1   2
BRANCH   1  34
ATOM     34  C   UNL A   1      31.744  29.768  26.411  1.00  0.00     0.188 C 
BRANCH  34  35
ATOM     35  C   UNL A   1      33.000  29.828  27.285  1.00  0.00     0.188 C 
BRANCH  35  36
ATOM     36  O   UNL A   1      33.669  31.051  26.991  1.00  0.00    -0.376 OA
BRANCH  36  37
ATOM     37  C   UNL A   1      35.012  31.172  27.435  1.00  0.00     0.202 C 
BRANCH  37  38
ATOM     38  C   UNL A   1      35.121  31.192  28.960  1.00  0.00     0.261 C 
BRANCH  38  39
ATOM     39  O   UNL A   1      34.547  32.427  29.432  1.00  0.00    -0.460 OA
BRANCH  39  40
ATOM     40  C   UNL A   1      35.387  33.494  29.426  1.00  0.00     0.338 C 
ATOM     41  O   UNL A   1      35.206  34.531  28.799  1.00  0.00    -0.246 OA
BRANCH  40  42
ATOM     42  C   UNL A   1      36.681  33.150  30.088  1.00  0.00     0.060 A 
ATOM     43  C   UNL A   1      37.890  33.343  29.405  1.00  0.00     0.016 A 
ATOM     44  C   UNL A   1      36.693  32.422  31.277  1.00  0.00     0.016 A 
ATOM     45  C   UNL A   1      39.076  32.732  29.861  1.00  0.00     0.010 A 
ATOM     46  C   UNL A   1      37.857  31.780  31.696  1.00  0.00     0.010 A 
ATOM     47  C   UNL A   1      39.057  31.887  30.981  1.00  0.00    -0.014 A 
BRANCH  47  48
ATOM     48  C   UNL A   1      40.108  30.882  31.314  1.00  0.00     0.031 A 
ATOM     49  C   UNL A   1      40.441  29.732  30.376  1.00  0.00     0.074 A 
ATOM     50  C   UNL A   1      41.039  31.280  32.228  1.00  0.00     0.049 A 
ATOM     51  N   UNL A   1      41.514  29.015  30.436  1.00  0.00    -0.248 NA
ATOM     52  C   UNL A   1      39.598  29.263  29.280  1.00  0.00     0.031 C 
ATOM     53  C   UNL A   1      42.421  30.801  32.339  1.00  0.00     0.029 A 
ATOM     54  N   UNL A   1      41.018  32.272  33.203  1.00  0.00    -0.354 N 
ATOM     55  C   UNL A   1      41.661  28.233  29.304  1.00  0.00     0.074 A 
ATOM     56  C   UNL A   1      40.395  28.384  28.635  1.00  0.00     0.031 C 
ATOM     57  C   UNL A   1      43.088  31.440  33.309  1.00  0.00     0.029 A 
ATOM     58  C   UNL A   1      42.065  32.046  34.109  1.00  0.00     0.049 A 
ATOM     59  H   UNL A   1      40.373  33.015  33.248  1.00  0.00     0.167 HD
ATOM     60  C   UNL A   1      42.861  27.596  29.082  1.00  0.00     0.031 A 
ATOM     61  C   UNL A   1      41.829  31.589  35.374  1.00  0.00     0.031 A 
ATOM     62  C   UNL A   1      43.710  27.620  30.269  1.00  0.00     0.049 A 
ATOM     63  C   UNL A   1      42.243  30.111  35.493  1.00  0.00     0.074 A 
ATOM     64  C   UNL A   1      45.043  27.861  30.526  1.00  0.00     0.029 A 
ATOM     65  N   UNL A   1      43.111  27.421  31.507  1.00  0.00    -0.354 N 
ATOM     66  N   UNL A   1      42.286  29.287  34.466  1.00  0.00    -0.248 NA
ATOM     67  C   UNL A   1      42.826  29.494  36.683  1.00  0.00     0.031 C 
ATOM     68  C   UNL A   1      45.184  28.019  31.938  1.00  0.00     0.029 A 
ATOM     69  C   UNL A   1      43.967  27.712  32.536  1.00  0.00     0.049 A 
ATOM     70  H   UNL A   1      42.185  27.110  31.629  1.00  0.00     0.167 HD
ATOM     71  C   UNL A   1      43.045  28.192  34.772  1.00  0.00     0.074 A 
ATOM     72  C   UNL A   1      43.266  28.311  36.202  1.00  0.00     0.031 C 
ATOM     73  C   UNL A   1      43.594  27.312  33.880  1.00  0.00     0.031 A 
BRANCH  60  74
ATOM     74  C   UNL A   1      43.422  27.022  27.782  1.00  0.00    -0.014 A 
ATOM     75  C   UNL A   1      44.018  25.748  27.707  1.00  0.00     0.009 A 
ATOM     76  C   UNL A   1      43.613  27.814  26.653  1.00  0.00     0.009 A 
ATOM     77  C   UNL A   1      44.741  25.313  26.573  1.00  0.00     0.001 A 
ATOM     78  C   UNL A   1      44.329  27.402  25.507  1.00  0.00     0.001 A 
ATOM     79  C   UNL A   1      44.896  26.139  25.466  1.00  0.00     0.000 A 
ENDBRANCH  60  74
BRANCH  61  80
ATOM     80  C   UNL A   1      40.804  32.438  36.048  1.00  0.00    -0.014 A 
ATOM     81  C   UNL A   1      41.156  33.809  36.130  1.00  0.00     0.009 A 
ATOM     82  C   UNL A   1      39.437  32.120  35.963  1.00  0.00     0.009 A 
ATOM     83  C   UNL A   1      40.209  34.817  35.909  1.00  0.00     0.001 A 
ATOM     84  C   UNL A   1      38.489  33.140  35.751  1.00  0.00     0.001 A 
ATOM     85  C   UNL A   1      38.882  34.477  35.672  1.00  0.00     0.000 A 
ENDBRANCH  61  80
BRANCH  73  86
ATOM     86  C   UNL A   1      43.717  25.831  34.155  1.00  0.00    -0.014 A 
ATOM     87  C   UNL A   1      42.789  25.152  34.946  1.00  0.00     0.009 A 
ATOM     88  C   UNL A   1      44.583  25.043  33.354  1.00  0.00     0.009 A 
ATOM     89  C   UNL A   1      42.736  23.753  34.945  1.00  0.00     0.001 A 
ATOM     90  C   UNL A   1      44.501  23.653  33.315  1.00  0.00     0.001 A 
ATOM     91  C   UNL A   1      43.578  23.008  34.121  1.00  0.00     0.000 A 
ENDBRANCH  73  86
ENDBRANCH  47  48
ENDBRANCH  40  42
ENDBRANCH  39  40
ENDBRANCH  38  39
ENDBRANCH  37  38
ENDBRANCH  36  37
ENDBRANCH  35  36
ENDBRANCH  34  35
ENDBRANCH   1  34
TORSDOF 23
ENDMDL
MODEL 2
REMARK VINA RESULT:      -9.4      5.361     10.903
REMARK SMILES COc1ccc(-c2cc(Cl)cc3c2O[C@@H](C(F)(F)F)C(C(=O)OCCOCCOCCOCCOC(=O)c2ccc(-c4c5nc(c(-c6ccccc6)c6ccc([nH]6)c(-c6ccccc6)c6nc(c(-c7ccccc7)c7ccc4[nH]7)C=C6)C=C5)cc2)=C3)cc1C
REMARK SMILES IDX 29 1 28 2 27 3 26 4 25 5 24 6 23 7 21 8 22 9 20 10 7 11 8 12
REMARK SMILES IDX 13 13 9 14 12 15 14 16 10 17 11 18 86 19 15 20 6 21 3 22
REMARK SMILES IDX 4 23 88 24 5 25 87 26 89 27 2 28 1 29 16 30 17 31 18 32
REMARK SMILES IDX 19 33 30 34 31 35 32 36 33 37 34 38 35 39 36 40 37 41 38 42
REMARK SMILES IDX 39 43 85 44 40 45 84 46 41 47 42 48 43 49 78 50 44 51 83 52
REMARK SMILES IDX 77 53 79 54 45 55 82 56 76 57 75 58 46 60 68 61 53 62 67 63
REMARK SMILES IDX 54 64 57 65 66 66 80 67 55 68 56 69 65 71 81 72 58 73 47 74
REMARK SMILES IDX 48 75 52 76 49 77 51 78 50 79 69 80 70 81 74 82 71 83 73 84
REMARK SMILES IDX 72 85 59 86 60 87 64 88 61 89 63 90 62 91
REMARK H PARENT 79 59 57 70
REMARK Flexibility Score: inf
ROOT
ATOM      1  O   UNL A   1      31.338  31.275  27.200  1.00  0.00    -0.377 OA
ENDROOT
BRANCH   1   2
ATOM      2  C   UNL A   1      31.963  32.437  26.692  1.00  0.00     0.188 C 
BRANCH   2   3
ATOM      3  C   UNL A   1      32.418  33.556  27.627  1.00  0.00     0.188 C 
BRANCH   3   4
ATOM      4  O   UNL A   1      33.757  34.016  27.733  1.00  0.00    -0.376 OA
BRANCH   4   5
ATOM      5  C   UNL A   1      34.851  33.202  28.119  1.00  0.00     0.202 C 
BRANCH   5   6
ATOM      6  C   UNL A   1      35.539  33.387  29.536  1.00  0.00     0.261 C 
BRANCH   6   7
ATOM      7  O   UNL A   1      34.574  33.695  30.575  1.00  0.00    -0.460 OA
BRANCH   7   8
ATOM      8  C   UNL A   1      34.708  33.099  31.787  1.00  0.00     0.338 C 
ATOM      9  O   UNL A   1      35.309  32.066  32.025  1.00  0.00    -0.246 OA
BRANCH   8  10
ATOM     10  C   UNL A   1      34.178  34.028  32.868  1.00  0.00     0.087 C 
ATOM     11  C   UNL A   1      38.219  34.191  32.850  1.00  0.00     0.026 A 
ATOM     12  C   UNL A   1      38.812  33.453  33.901  1.00  0.00     0.033 A 
ATOM     13  C   UNL A   1      36.808  34.560  33.092  1.00  0.00     0.135 A 
ATOM     14  C   UNL A   1      38.115  33.017  35.030  1.00  0.00     0.042 A 
ATOM     15  C   UNL A   1      36.095  33.923  34.163  1.00  0.00     0.019 A 
ATOM     16  O   UNL A   1      35.989  35.442  32.314  1.00  0.00    -0.475 OA
ATOM     17  Cl  UNL A   1      38.946  32.117  36.236  1.00  0.00    -0.084 Cl
ATOM     18  C   UNL A   1      36.754  33.217  35.152  1.00  0.00     0.032 A 
ATOM     19  C   UNL A   1      34.603  33.824  34.132  1.00  0.00     0.027 C 
ATOM     20  C   UNL A   1      34.490  35.447  32.508  1.00  0.00     0.316 C 
BRANCH  11  21
ATOM     21  C   UNL A   1      39.214  34.234  31.625  1.00  0.00    -0.014 A 
ATOM     22  C   UNL A   1      41.238  34.773  29.527  1.00  0.00     0.121 A 
ATOM     23  C   UNL A   1      39.863  34.951  29.341  1.00  0.00     0.047 A 
ATOM     24  C   UNL A   1      41.654  34.450  30.813  1.00  0.00    -0.008 A 
ATOM     25  C   UNL A   1      38.889  34.721  30.357  1.00  0.00     0.013 A 
ATOM     26  C   UNL A   1      40.641  34.138  31.815  1.00  0.00     0.016 A 
ATOM     27  C   UNL A   1      43.116  34.609  31.158  1.00  0.00     0.048 C 
BRANCH  22  28
ATOM     28  O   UNL A   1      42.012  35.109  28.445  1.00  0.00    -0.496 OA
ATOM     29  C   UNL A   1      41.873  36.373  27.793  1.00  0.00     0.278 C 
ENDBRANCH  22  28
ENDBRANCH  11  21
BRANCH  20  30
ATOM     30  C   UNL A   1      33.413  35.977  31.469  1.00  0.00     0.430 C 
ATOM     31  F   UNL A   1      33.041  37.238  31.862  1.00  0.00    -0.167 F 
ATOM     32  F   UNL A   1      33.885  36.132  30.219  1.00  0.00    -0.167 F 
ATOM     33  F   UNL A   1      32.251  35.305  31.372  1.00  0.00    -0.167 F 
ENDBRANCH  20  30
ENDBRANCH   8  10
ENDBRANCH   7   8
ENDBRANCH   6   7
ENDBRANCH   5   6
ENDBRANCH   4   5
ENDBRANCH   3   4
ENDBRANCH   2   3
ENDBRANCH   1   2
BRANCH   1  34
ATOM     34  C   UNL A   1      32.089  30.066  27.196  1.00  0.00     0.188 C 
BRANCH  34  35
ATOM     35  C   UNL A   1      33.423  30.125  26.448  1.00  0.00     0.188 C 
BRANCH  35  36
ATOM     36  O   UNL A   1      34.283  29.150  27.028  1.00  0.00    -0.376 OA
BRANCH  36  37
ATOM     37  C   UNL A   1      35.627  29.541  27.270  1.00  0.00     0.202 C 
BRANCH  37  38
ATOM     38  C   UNL A   1      35.875  29.893  28.737  1.00  0.00     0.261 C 
BRANCH  38  39
ATOM     39  O   UNL A   1      37.090  29.238  29.154  1.00  0.00    -0.460 OA
BRANCH  39  40
ATOM     40  C   UNL A   1      38.215  29.992  29.054  1.00  0.00     0.338 C 
ATOM     41  O   UNL A   1      38.249  31.217  29.086  1.00  0.00    -0.246 OA
BRANCH  40  42
ATOM     42  C   UNL A   1      39.382  29.149  28.658  1.00  0.00     0.060 A 
ATOM     43  C   UNL A   1      40.314  28.744  29.626  1.00  0.00     0.016 A 
ATOM     44  C   UNL A   1      39.689  28.956  27.313  1.00  0.00     0.016 A 
ATOM     45  C   UNL A   1      41.574  28.242  29.241  1.00  0.00     0.010 A 
ATOM     46  C   UNL A   1      40.954  28.505  26.938  1.00  0.00     0.010 A 
ATOM     47  C   UNL A   1      41.932  28.178  27.887  1.00  0.00    -0.014 A 
BRANCH  47  48
ATOM     48  C   UNL A   1      43.328  28.068  27.373  1.00  0.00     0.031 A 
ATOM     49  C   UNL A   1      44.206  29.294  27.173  1.00  0.00     0.074 A 
ATOM     50  C   UNL A   1      43.921  26.850  27.528  1.00  0.00     0.049 A 
ATOM     51  N   UNL A   1      45.490  29.271  27.031  1.00  0.00    -0.248 NA
ATOM     52  C   UNL A   1      43.729  30.672  27.100  1.00  0.00     0.031 C 
ATOM     53  C   UNL A   1      45.358  26.582  27.655  1.00  0.00     0.029 A 
ATOM     54  N   UNL A   1      43.392  25.577  27.714  1.00  0.00    -0.354 N 
ATOM     55  C   UNL A   1      46.032  30.540  27.136  1.00  0.00     0.074 A 
ATOM     56  C   UNL A   1      44.872  31.393  27.120  1.00  0.00     0.031 C 
ATOM     57  C   UNL A   1      45.602  25.280  27.853  1.00  0.00     0.029 A 
ATOM     58  C   UNL A   1      44.390  24.624  27.458  1.00  0.00     0.049 A 
ATOM     59  H   UNL A   1      42.466  25.377  27.984  1.00  0.00     0.167 HD
ATOM     60  C   UNL A   1      47.396  30.677  27.259  1.00  0.00     0.031 A 
ATOM     61  C   UNL A   1      44.369  23.851  26.333  1.00  0.00     0.031 A 
ATOM     62  C   UNL A   1      48.091  29.429  26.955  1.00  0.00     0.049 A 
ATOM     63  C   UNL A   1      45.445  24.327  25.340  1.00  0.00     0.074 A 
ATOM     64  C   UNL A   1      49.130  28.717  27.513  1.00  0.00     0.029 A 
ATOM     65  N   UNL A   1      47.628  28.664  25.892  1.00  0.00    -0.354 N 
ATOM     66  N   UNL A   1      45.913  25.558  25.315  1.00  0.00    -0.248 NA
ATOM     67  C   UNL A   1      46.220  23.455  24.458  1.00  0.00     0.031 C 
ATOM     68  C   UNL A   1      49.135  27.424  26.907  1.00  0.00     0.029 A 
ATOM     69  C   UNL A   1      48.204  27.421  25.875  1.00  0.00     0.049 A 
ATOM     70  H   UNL A   1      46.967  28.976  25.233  1.00  0.00     0.167 HD
ATOM     71  C   UNL A   1      47.099  25.597  24.637  1.00  0.00     0.074 A 
ATOM     72  C   UNL A   1      47.193  24.285  24.023  1.00  0.00     0.031 C 
ATOM     73  C   UNL A   1      48.033  26.595  24.694  1.00  0.00     0.031 A 
BRANCH  60  74
ATOM     74  C   UNL A   1      48.203  31.869  27.771  1.00  0.00    -0.014 A 
ATOM     75  C   UNL A   1      48.801  32.809  26.911  1.00  0.00     0.009 A 
ATOM     76  C   UNL A   1      48.615  31.958  29.098  1.00  0.00     0.009 A 
ATOM     77  C   UNL A   1      49.734  33.769  27.364  1.00  0.00     0.001 A 
ATOM     78  C   UNL A   1      49.544  32.910  29.576  1.00  0.00     0.001 A 
ATOM     79  C   UNL A   1      50.107  33.824  28.702  1.00  0.00     0.000 A 
ENDBRANCH  60  74
BRANCH  61  80
ATOM     80  C   UNL A   1      43.041  23.188  26.186  1.00  0.00    -0.014 A 
ATOM     81  C   UNL A   1      43.069  21.788  26.412  1.00  0.00     0.009 A 
ATOM     82  C   UNL A   1      41.854  23.874  26.496  1.00  0.00     0.009 A 
ATOM     83  C   UNL A   1      42.048  21.147  27.124  1.00  0.00     0.001 A 
ATOM     84  C   UNL A   1      40.826  23.220  27.204  1.00  0.00     0.001 A 
ATOM     85  C   UNL A   1      40.948  21.876  27.561  1.00  0.00     0.000 A 
ENDBRANCH  61  80
BRANCH  73  86
ATOM     86  C   UNL A   1      48.852  27.026  23.499  1.00  0.00    -0.014 A 
ATOM     87  C   UNL A   1      50.246  26.969  23.506  1.00  0.00     0.009 A 
ATOM     88  C   UNL A   1      48.218  27.183  22.239  1.00  0.00     0.009 A 
ATOM     89  C   UNL A   1      50.973  27.075  22.315  1.00  0.00     0.001 A 
ATOM     90  C   UNL A   1      48.937  27.241  21.047  1.00  0.00     0.001 A 
ATOM     91  C   UNL A   1      50.320  27.194  21.089  1.00  0.00     0.000 A 
ENDBRANCH  73  86
ENDBRANCH  47  48
ENDBRANCH  40  42
ENDBRANCH  39  40
ENDBRANCH  38  39
ENDBRANCH  37  38
ENDBRANCH  36  37
ENDBRANCH  35  36
ENDBRANCH  34  35
ENDBRANCH   1  34
TORSDOF 23
ENDMDL
MODEL 3
REMARK VINA RESULT:      -9.2      5.547      9.109
REMARK SMILES COc1ccc(-c2cc(Cl)cc3c2O[C@@H](C(F)(F)F)C(C(=O)OCCOCCOCCOCCOC(=O)c2ccc(-c4c5nc(c(-c6ccccc6)c6ccc([nH]6)c(-c6ccccc6)c6nc(c(-c7ccccc7)c7ccc4[nH]7)C=C6)C=C5)cc2)=C3)cc1C
REMARK SMILES IDX 29 1 28 2 27 3 26 4 25 5 24 6 23 7 21 8 22 9 20 10 7 11 8 12
REMARK SMILES IDX 13 13 9 14 12 15 14 16 10 17 11 18 86 19 15 20 6 21 3 22
REMARK SMILES IDX 4 23 88 24 5 25 87 26 89 27 2 28 1 29 16 30 17 31 18 32
REMARK SMILES IDX 19 33 30 34 31 35 32 36 33 37 34 38 35 39 36 40 37 41 38 42
REMARK SMILES IDX 39 43 85 44 40 45 84 46 41 47 42 48 43 49 78 50 44 51 83 52
REMARK SMILES IDX 77 53 79 54 45 55 82 56 76 57 75 58 46 60 68 61 53 62 67 63
REMARK SMILES IDX 54 64 57 65 66 66 80 67 55 68 56 69 65 71 81 72 58 73 47 74
REMARK SMILES IDX 48 75 52 76 49 77 51 78 50 79 69 80 70 81 74 82 71 83 73 84
REMARK SMILES IDX 72 85 59 86 60 87 64 88 61 89 63 90 62 91
REMARK H PARENT 79 59 57 70
REMARK Flexibility Score: inf
ROOT
ATOM      1  O   UNL A   1      37.170  32.617  36.040  1.00  0.00    -0.377 OA
ENDROOT
BRANCH   1   2
ATOM      2  C   UNL A   1      36.619  33.898  35.809  1.00  0.00     0.188 C 
BRANCH   2   3
ATOM      3  C   UNL A   1      35.740  34.167  34.590  1.00  0.00     0.188 C 
BRANCH   3   4
ATOM      4  O   UNL A   1      34.766  33.262  34.089  1.00  0.00    -0.376 OA
BRANCH   4   5
ATOM      5  C   UNL A   1      34.764  32.742  32.770  1.00  0.00     0.202 C 
BRANCH   5   6
ATOM      6  C   UNL A   1      35.779  31.598  32.349  1.00  0.00     0.261 C 
BRANCH   6   7
ATOM      7  O   UNL A   1      36.151  31.688  30.949  1.00  0.00    -0.460 OA
BRANCH   7   8
ATOM      8  C   UNL A   1      37.443  31.452  30.602  1.00  0.00     0.338 C 
ATOM      9  O   UNL A   1      37.833  30.685  29.739  1.00  0.00    -0.246 OA
BRANCH   8  10
ATOM     10  C   UNL A   1      38.345  32.456  31.301  1.00  0.00     0.087 C 
ATOM     11  C   UNL A   1      40.503  29.166  30.367  1.00  0.00     0.026 A 
ATOM     12  C   UNL A   1      40.737  28.318  31.476  1.00  0.00     0.033 A 
ATOM     13  C   UNL A   1      40.169  30.559  30.730  1.00  0.00     0.135 A 
ATOM     14  C   UNL A   1      40.576  28.719  32.804  1.00  0.00     0.042 A 
ATOM     15  C   UNL A   1      39.825  30.860  32.092  1.00  0.00     0.019 A 
ATOM     16  O   UNL A   1      40.050  31.687  29.855  1.00  0.00    -0.475 OA
ATOM     17  Cl  UNL A   1      40.881  27.593  34.065  1.00  0.00    -0.084 Cl
ATOM     18  C   UNL A   1      40.088  29.972  33.119  1.00  0.00     0.032 A 
ATOM     19  C   UNL A   1      38.983  32.052  32.419  1.00  0.00     0.027 C 
ATOM     20  C   UNL A   1      39.382  32.953  30.342  1.00  0.00     0.316 C 
BRANCH  11  21
ATOM     21  C   UNL A   1      40.483  28.296  29.050  1.00  0.00    -0.014 A 
ATOM     22  C   UNL A   1      40.945  26.550  26.699  1.00  0.00     0.121 A 
ATOM     23  C   UNL A   1      40.938  27.947  26.636  1.00  0.00     0.047 A 
ATOM     24  C   UNL A   1      40.857  25.985  27.965  1.00  0.00    -0.008 A 
ATOM     25  C   UNL A   1      40.745  28.791  27.770  1.00  0.00     0.013 A 
ATOM     26  C   UNL A   1      40.577  26.858  29.099  1.00  0.00     0.016 A 
ATOM     27  C   UNL A   1      41.228  24.529  28.131  1.00  0.00     0.048 C 
BRANCH  22  28
ATOM     28  O   UNL A   1      41.209  25.923  25.506  1.00  0.00    -0.496 OA
ATOM     29  C   UNL A   1      42.544  25.789  25.015  1.00  0.00     0.278 C 
ENDBRANCH  22  28
ENDBRANCH  11  21
BRANCH  20  30
ATOM     30  C   UNL A   1      38.755  34.091  29.429  1.00  0.00     0.430 C 
ATOM     31  F   UNL A   1      39.787  34.870  28.970  1.00  0.00    -0.167 F 
ATOM     32  F   UNL A   1      38.149  33.634  28.320  1.00  0.00    -0.167 F 
ATOM     33  F   UNL A   1      37.913  34.967  30.009  1.00  0.00    -0.167 F 
ENDBRANCH  20  30
ENDBRANCH   8  10
ENDBRANCH   7   8
ENDBRANCH   6   7
ENDBRANCH   5   6
ENDBRANCH   4   5
ENDBRANCH   3   4
ENDBRANCH   2   3
ENDBRANCH   1   2
BRANCH   1  34
ATOM     34  C   UNL A   1      38.091  32.478  37.115  1.00  0.00     0.188 C 
BRANCH  34  35
ATOM     35  C   UNL A   1      37.800  33.343  38.344  1.00  0.00     0.188 C 
BRANCH  35  36
ATOM     36  O   UNL A   1      38.985  34.073  38.646  1.00  0.00    -0.376 OA
BRANCH  36  37
ATOM     37  C   UNL A   1      39.879  34.322  37.570  1.00  0.00     0.202 C 
BRANCH  37  38
ATOM     38  C   UNL A   1      39.654  35.693  36.932  1.00  0.00     0.261 C 
BRANCH  38  39
ATOM     39  O   UNL A   1      40.655  35.880  35.912  1.00  0.00    -0.460 OA
BRANCH  39  40
ATOM     40  C   UNL A   1      40.417  35.231  34.743  1.00  0.00     0.338 C 
ATOM     41  O   UNL A   1      39.340  35.203  34.159  1.00  0.00    -0.246 OA
BRANCH  40  42
ATOM     42  C   UNL A   1      41.570  34.353  34.382  1.00  0.00     0.060 A 
ATOM     43  C   UNL A   1      42.506  34.783  33.431  1.00  0.00     0.016 A 
ATOM     44  C   UNL A   1      41.601  33.023  34.797  1.00  0.00     0.016 A 
ATOM     45  C   UNL A   1      43.397  33.866  32.836  1.00  0.00     0.010 A 
ATOM     46  C   UNL A   1      42.449  32.111  34.171  1.00  0.00     0.010 A 
ATOM     47  C   UNL A   1      43.332  32.502  33.155  1.00  0.00    -0.014 A 
BRANCH  47  48
ATOM     48  C   UNL A   1      43.905  31.401  32.328  1.00  0.00     0.031 A 
ATOM     49  C   UNL A   1      44.278  30.056  32.934  1.00  0.00     0.074 A 
ATOM     50  C   UNL A   1      43.656  31.475  30.989  1.00  0.00     0.049 A 
ATOM     51  N   UNL A   1      44.484  28.972  32.262  1.00  0.00    -0.248 NA
ATOM     52  C   UNL A   1      44.468  29.794  34.358  1.00  0.00     0.031 C 
ATOM     53  C   UNL A   1      43.578  30.353  30.047  1.00  0.00     0.029 A 
ATOM     54  N   UNL A   1      43.311  32.543  30.167  1.00  0.00    -0.354 N 
ATOM     55  C   UNL A   1      44.540  27.867  33.093  1.00  0.00     0.074 A 
ATOM     56  C   UNL A   1      44.584  28.449  34.409  1.00  0.00     0.031 C 
ATOM     57  C   UNL A   1      43.260  30.767  28.813  1.00  0.00     0.029 A 
ATOM     58  C   UNL A   1      43.519  32.176  28.829  1.00  0.00     0.049 A 
ATOM     59  H   UNL A   1      42.973  33.415  30.475  1.00  0.00     0.167 HD
ATOM     60  C   UNL A   1      44.505  26.609  32.535  1.00  0.00     0.031 A 
ATOM     61  C   UNL A   1      44.556  32.686  28.101  1.00  0.00     0.031 A 
ATOM     62  C   UNL A   1      44.714  26.654  31.091  1.00  0.00     0.049 A 
ATOM     63  C   UNL A   1      45.648  31.619  27.909  1.00  0.00     0.074 A 
ATOM     64  C   UNL A   1      44.141  26.054  29.991  1.00  0.00     0.029 A 
ATOM     65  N   UNL A   1      45.665  27.536  30.595  1.00  0.00    -0.354 N 
ATOM     66  N   UNL A   1      45.826  30.608  28.736  1.00  0.00    -0.248 NA
ATOM     67  C   UNL A   1      46.474  31.466  26.713  1.00  0.00     0.031 C 
ATOM     68  C   UNL A   1      44.608  26.748  28.834  1.00  0.00     0.029 A 
ATOM     69  C   UNL A   1      45.584  27.655  29.232  1.00  0.00     0.049 A 
ATOM     70  H   UNL A   1      46.318  28.018  31.154  1.00  0.00     0.167 HD
ATOM     71  C   UNL A   1      46.566  29.631  28.133  1.00  0.00     0.074 A 
ATOM     72  C   UNL A   1      47.044  30.258  26.914  1.00  0.00     0.031 C 
ATOM     73  C   UNL A   1      46.662  28.326  28.530  1.00  0.00     0.031 A 
BRANCH  60  74
ATOM     74  C   UNL A   1      44.163  25.273  33.193  1.00  0.00    -0.014 A 
ATOM     75  C   UNL A   1      43.296  25.168  34.297  1.00  0.00     0.009 A 
ATOM     76  C   UNL A   1      44.881  24.113  32.912  1.00  0.00     0.009 A 
ATOM     77  C   UNL A   1      43.162  23.977  35.049  1.00  0.00     0.001 A 
ATOM     78  C   UNL A   1      44.763  22.911  33.645  1.00  0.00     0.001 A 
ATOM     79  C   UNL A   1      43.894  22.843  34.722  1.00  0.00     0.000 A 
ENDBRANCH  60  74
BRANCH  61  80
ATOM     80  C   UNL A   1      44.562  34.176  28.183  1.00  0.00    -0.014 A 
ATOM     81  C   UNL A   1      43.585  34.801  27.369  1.00  0.00     0.009 A 
ATOM     82  C   UNL A   1      44.938  34.830  29.370  1.00  0.00     0.009 A 
ATOM     83  C   UNL A   1      42.855  35.905  27.829  1.00  0.00     0.001 A 
ATOM     84  C   UNL A   1      44.206  35.946  29.821  1.00  0.00     0.001 A 
ATOM     85  C   UNL A   1      43.136  36.447  29.077  1.00  0.00     0.000 A 
ENDBRANCH  61  80
BRANCH  73  86
ATOM     86  C   UNL A   1      47.937  27.522  28.416  1.00  0.00    -0.014 A 
ATOM     87  C   UNL A   1      49.007  27.715  29.290  1.00  0.00     0.009 A 
ATOM     88  C   UNL A   1      47.947  26.338  27.634  1.00  0.00     0.009 A 
ATOM     89  C   UNL A   1      50.043  26.777  29.372  1.00  0.00     0.001 A 
ATOM     90  C   UNL A   1      48.952  25.380  27.747  1.00  0.00     0.001 A 
ATOM     91  C   UNL A   1      50.006  25.607  28.615  1.00  0.00     0.000 A 
ENDBRANCH  73  86
ENDBRANCH  47  48
ENDBRANCH  40  42
ENDBRANCH  39  40
ENDBRANCH  38  39
ENDBRANCH  37  38
ENDBRANCH  36  37
ENDBRANCH  35  36
ENDBRANCH  34  35
ENDBRANCH   1  34
TORSDOF 23
ENDMDL
