MODEL 1
REMARK VINA RESULT:      -6.7      0.000      0.000
REMARK SMILES Cc1ccc(S(=O)(=O)n2cc(C(=O)C(=O)N[C@@H](Cc3cnc[nH]3)C(=O)OCCOCCOCCOCCOC(=O)c3ccc(-c4c5nc(c(-c6ccccc6)c6ccc([nH]6)c(-c6ccccc6)c6nc(c(-c7ccccc7)c7ccc4[nH]7)C=C6)C=C5)cc3)c3ccccc32)cc1
REMARK SMILES IDX 30 1 29 2 28 3 27 4 26 5 24 6 25 7 17 8 16 9 14 10 15 11
REMARK SMILES IDX 12 13 13 14 11 15 9 16 10 17 94 18 89 19 93 20 90 21 92 22
REMARK SMILES IDX 91 23 6 24 7 25 8 26 5 27 1 28 2 29 3 30 96 31 4 32 95 33
REMARK SMILES IDX 18 34 19 35 20 36 23 37 21 38 22 39 31 41 32 42 33 43 34 44
REMARK SMILES IDX 35 45 36 46 37 47 38 48 39 49 40 50 41 51 42 52 88 53 43 54
REMARK SMILES IDX 87 55 44 56 45 57 46 58 81 59 47 60 86 61 80 62 82 63 48 64
REMARK SMILES IDX 85 65 79 66 78 67 49 69 71 70 56 71 70 72 57 73 60 74 69 75
REMARK SMILES IDX 83 76 58 77 59 78 68 80 84 81 61 82 50 83 51 84 55 85 52 86
REMARK SMILES IDX 54 87 53 88 72 89 73 90 77 91 74 92 76 93 75 94 62 95 63 96
REMARK SMILES IDX 67 97 64 98 66 99 65 100
REMARK H PARENT 16 12 23 40 82 68 60 79
REMARK Flexibility Score: inf
ROOT
ATOM      1  C   UNL A   1      36.123  29.908  27.510  1.00  0.00     0.188 C 
ENDROOT
BRANCH   1   2
ATOM      2  O   UNL A   1      36.863  29.337  28.578  1.00  0.00    -0.376 OA
BRANCH   2   3
ATOM      3  C   UNL A   1      38.261  29.618  28.545  1.00  0.00     0.202 C 
BRANCH   3   4
ATOM      4  C   UNL A   1      39.069  28.930  27.446  1.00  0.00     0.261 C 
BRANCH   4   5
ATOM      5  O   UNL A   1      40.257  28.358  28.037  1.00  0.00    -0.462 OA
BRANCH   5   6
ATOM      6  C   UNL A   1      40.210  27.020  28.240  1.00  0.00     0.329 C 
ATOM      7  O   UNL A   1      39.425  26.465  29.005  1.00  0.00    -0.250 OA
BRANCH   6   8
ATOM      8  C   UNL A   1      41.333  26.269  27.503  1.00  0.00     0.198 C 
BRANCH   8   9
ATOM      9  N   UNL A   1      41.651  26.685  26.123  1.00  0.00    -0.335 N 
ATOM     10  C   UNL A   1      42.491  27.707  25.709  1.00  0.00     0.293 C 
ATOM     11  O   UNL A   1      42.499  28.065  24.536  1.00  0.00    -0.265 OA
ATOM     12  H   UNL A   1      41.210  26.172  25.407  1.00  0.00     0.164 HD
BRANCH  10  13
ATOM     13  C   UNL A   1      43.468  28.347  26.727  1.00  0.00     0.252 C 
ATOM     14  O   UNL A   1      42.995  29.150  27.528  1.00  0.00    -0.283 OA
BRANCH  13  15
ATOM     15  C   UNL A   1      44.893  27.987  26.847  1.00  0.00     0.054 A 
ATOM     16  N   UNL A   1      46.863  26.926  26.888  1.00  0.00    -0.240 N 
ATOM     17  C   UNL A   1      45.499  26.744  26.788  1.00  0.00     0.117 A 
ATOM     18  C   UNL A   1      47.180  28.264  26.949  1.00  0.00     0.065 A 
ATOM     19  C   UNL A   1      45.958  28.938  27.059  1.00  0.00     0.012 A 
ATOM     20  C   UNL A   1      48.404  28.960  26.939  1.00  0.00     0.028 A 
ATOM     21  C   UNL A   1      45.975  30.332  27.285  1.00  0.00     0.011 A 
ATOM     22  C   UNL A   1      48.382  30.344  27.138  1.00  0.00     0.002 A 
ATOM     23  C   UNL A   1      47.186  31.020  27.335  1.00  0.00     0.001 A 
BRANCH  16  24
ATOM     24  S   UNL A   1      47.988  25.651  26.747  1.00  0.00     0.268 S 
ATOM     25  O   UNL A   1      48.723  25.962  25.519  1.00  0.00    -0.201 OA
ATOM     26  O   UNL A   1      47.238  24.437  26.905  1.00  0.00    -0.201 OA
BRANCH  24  27
ATOM     27  C   UNL A   1      49.151  25.724  28.088  1.00  0.00     0.088 A 
ATOM     28  C   UNL A   1      52.158  26.123  31.148  1.00  0.00     0.044 C 
ATOM     29  C   UNL A   1      51.106  25.968  30.089  1.00  0.00    -0.051 A 
ATOM     30  C   UNL A   1      51.465  26.050  28.739  1.00  0.00     0.005 A 
ATOM     31  C   UNL A   1      49.766  25.731  30.424  1.00  0.00     0.005 A 
ATOM     32  C   UNL A   1      50.492  25.936  27.743  1.00  0.00     0.022 A 
ATOM     33  C   UNL A   1      48.789  25.593  29.429  1.00  0.00     0.022 A 
ENDBRANCH  24  27
ENDBRANCH  16  24
ENDBRANCH  13  15
ENDBRANCH  10  13
ENDBRANCH   8   9
BRANCH   8  34
ATOM     34  C   UNL A   1      42.559  26.198  28.437  1.00  0.00     0.092 C 
BRANCH  34  35
ATOM     35  C   UNL A   1      43.151  24.852  28.685  1.00  0.00     0.037 A 
ATOM     36  C   UNL A   1      43.412  24.168  29.854  1.00  0.00     0.134 A 
ATOM     37  N   UNL A   1      43.678  24.057  27.699  1.00  0.00    -0.348 N 
ATOM     38  N   UNL A   1      44.098  23.009  29.605  1.00  0.00    -0.245 NA
ATOM     39  C   UNL A   1      44.270  22.984  28.303  1.00  0.00     0.196 A 
ATOM     40  H   UNL A   1      43.638  24.229  26.730  1.00  0.00     0.167 HD
ENDBRANCH  34  35
ENDBRANCH   8  34
ENDBRANCH   6   8
ENDBRANCH   5   6
ENDBRANCH   4   5
ENDBRANCH   3   4
ENDBRANCH   2   3
ENDBRANCH   1   2
BRANCH   1  41
ATOM     41  C   UNL A   1      34.905  30.777  27.847  1.00  0.00     0.188 C 
BRANCH  41  42
ATOM     42  O   UNL A   1      35.049  32.183  27.879  1.00  0.00    -0.377 OA
BRANCH  42  43
ATOM     43  C   UNL A   1      34.559  32.815  29.065  1.00  0.00     0.188 C 
BRANCH  43  44
ATOM     44  C   UNL A   1      35.243  32.392  30.362  1.00  0.00     0.188 C 
BRANCH  44  45
ATOM     45  O   UNL A   1      34.394  32.756  31.456  1.00  0.00    -0.376 OA
BRANCH  45  46
ATOM     46  C   UNL A   1      34.896  33.805  32.282  1.00  0.00     0.202 C 
BRANCH  46  47
ATOM     47  C   UNL A   1      34.700  33.555  33.782  1.00  0.00     0.261 C 
BRANCH  47  48
ATOM     48  O   UNL A   1      35.618  32.527  34.194  1.00  0.00    -0.460 OA
BRANCH  48  49
ATOM     49  C   UNL A   1      36.761  32.969  34.781  1.00  0.00     0.338 C 
ATOM     50  O   UNL A   1      37.028  34.133  35.029  1.00  0.00    -0.246 OA
BRANCH  49  51
ATOM     51  C   UNL A   1      37.764  31.866  34.813  1.00  0.00     0.060 A 
ATOM     52  C   UNL A   1      38.858  31.964  35.687  1.00  0.00     0.016 A 
ATOM     53  C   UNL A   1      37.780  30.906  33.799  1.00  0.00     0.016 A 
ATOM     54  C   UNL A   1      40.017  31.208  35.456  1.00  0.00     0.010 A 
ATOM     55  C   UNL A   1      38.952  30.211  33.534  1.00  0.00     0.010 A 
ATOM     56  C   UNL A   1      40.103  30.402  34.316  1.00  0.00    -0.014 A 
BRANCH  56  57
ATOM     57  C   UNL A   1      41.384  29.979  33.709  1.00  0.00     0.031 A 
ATOM     58  C   UNL A   1      42.232  28.886  34.268  1.00  0.00     0.074 A 
ATOM     59  C   UNL A   1      41.598  30.322  32.412  1.00  0.00     0.049 A 
ATOM     60  N   UNL A   1      43.389  28.558  33.783  1.00  0.00    -0.248 NA
ATOM     61  C   UNL A   1      41.873  28.061  35.418  1.00  0.00     0.031 C 
ATOM     62  C   UNL A   1      42.418  29.595  31.443  1.00  0.00     0.029 A 
ATOM     63  N   UNL A   1      41.102  31.375  31.654  1.00  0.00    -0.354 N 
ATOM     64  C   UNL A   1      43.707  27.306  34.248  1.00  0.00     0.074 A 
ATOM     65  C   UNL A   1      42.826  27.120  35.379  1.00  0.00     0.031 C 
ATOM     66  C   UNL A   1      42.426  30.237  30.273  1.00  0.00     0.029 A 
ATOM     67  C   UNL A   1      41.911  31.551  30.528  1.00  0.00     0.049 A 
ATOM     68  H   UNL A   1      40.308  31.913  31.875  1.00  0.00     0.167 HD
ATOM     69  C   UNL A   1      44.570  26.512  33.542  1.00  0.00     0.031 A 
ATOM     70  C   UNL A   1      42.614  32.691  30.277  1.00  0.00     0.031 A 
ATOM     71  C   UNL A   1      45.218  27.200  32.394  1.00  0.00     0.049 A 
ATOM     72  C   UNL A   1      44.117  32.469  30.379  1.00  0.00     0.074 A 
ATOM     73  C   UNL A   1      45.518  26.851  31.085  1.00  0.00     0.029 A 
ATOM     74  N   UNL A   1      45.604  28.542  32.510  1.00  0.00    -0.354 N 
ATOM     75  N   UNL A   1      44.645  31.327  30.755  1.00  0.00    -0.248 NA
ATOM     76  C   UNL A   1      45.154  33.454  30.092  1.00  0.00     0.031 C 
ATOM     77  C   UNL A   1      46.094  27.979  30.435  1.00  0.00     0.029 A 
ATOM     78  C   UNL A   1      46.116  29.037  31.328  1.00  0.00     0.049 A 
ATOM     79  H   UNL A   1      45.519  29.070  33.336  1.00  0.00     0.167 HD
ATOM     80  C   UNL A   1      46.002  31.407  30.831  1.00  0.00     0.074 A 
ATOM     81  C   UNL A   1      46.277  32.761  30.377  1.00  0.00     0.031 C 
ATOM     82  C   UNL A   1      46.755  30.357  31.284  1.00  0.00     0.031 A 
BRANCH  69  83
ATOM     83  C   UNL A   1      44.750  25.010  33.800  1.00  0.00    -0.014 A 
ATOM     84  C   UNL A   1      43.639  24.144  33.786  1.00  0.00     0.009 A 
ATOM     85  C   UNL A   1      45.973  24.391  34.131  1.00  0.00     0.009 A 
ATOM     86  C   UNL A   1      43.737  22.773  34.089  1.00  0.00     0.001 A 
ATOM     87  C   UNL A   1      46.092  23.012  34.381  1.00  0.00     0.001 A 
ATOM     88  C   UNL A   1      44.970  22.202  34.372  1.00  0.00     0.000 A 
ENDBRANCH  69  83
BRANCH  70  89
ATOM     89  C   UNL A   1      41.760  33.903  30.419  1.00  0.00    -0.014 A 
ATOM     90  C   UNL A   1      40.984  34.180  29.270  1.00  0.00     0.009 A 
ATOM     91  C   UNL A   1      41.237  34.273  31.672  1.00  0.00     0.009 A 
ATOM     92  C   UNL A   1      39.644  34.565  29.382  1.00  0.00     0.001 A 
ATOM     93  C   UNL A   1      39.889  34.666  31.777  1.00  0.00     0.001 A 
ATOM     94  C   UNL A   1      39.083  34.754  30.641  1.00  0.00     0.000 A 
ENDBRANCH  70  89
BRANCH  82  95
ATOM     95  C   UNL A   1      48.204  30.416  31.728  1.00  0.00    -0.014 A 
ATOM     96  C   UNL A   1      48.693  31.232  32.751  1.00  0.00     0.009 A 
ATOM     97  C   UNL A   1      49.120  29.479  31.184  1.00  0.00     0.009 A 
ATOM     98  C   UNL A   1      50.024  31.137  33.187  1.00  0.00     0.001 A 
ATOM     99  C   UNL A   1      50.434  29.356  31.638  1.00  0.00     0.001 A 
ATOM    100  C   UNL A   1      50.888  30.194  32.641  1.00  0.00     0.000 A 
ENDBRANCH  82  95
ENDBRANCH  56  57
ENDBRANCH  49  51
ENDBRANCH  48  49
ENDBRANCH  47  48
ENDBRANCH  46  47
ENDBRANCH  45  46
ENDBRANCH  44  45
ENDBRANCH  43  44
ENDBRANCH  42  43
ENDBRANCH  41  42
ENDBRANCH   1  41
TORSDOF 27
ENDMDL
MODEL 2
REMARK VINA RESULT:      -6.6      3.477      8.968
REMARK SMILES Cc1ccc(S(=O)(=O)n2cc(C(=O)C(=O)N[C@@H](Cc3cnc[nH]3)C(=O)OCCOCCOCCOCCOC(=O)c3ccc(-c4c5nc(c(-c6ccccc6)c6ccc([nH]6)c(-c6ccccc6)c6nc(c(-c7ccccc7)c7ccc4[nH]7)C=C6)C=C5)cc3)c3ccccc32)cc1
REMARK SMILES IDX 30 1 29 2 28 3 27 4 26 5 24 6 25 7 17 8 16 9 14 10 15 11
REMARK SMILES IDX 12 13 13 14 11 15 9 16 10 17 94 18 89 19 93 20 90 21 92 22
REMARK SMILES IDX 91 23 6 24 7 25 8 26 5 27 1 28 2 29 3 30 96 31 4 32 95 33
REMARK SMILES IDX 18 34 19 35 20 36 23 37 21 38 22 39 31 41 32 42 33 43 34 44
REMARK SMILES IDX 35 45 36 46 37 47 38 48 39 49 40 50 41 51 42 52 88 53 43 54
REMARK SMILES IDX 87 55 44 56 45 57 46 58 81 59 47 60 86 61 80 62 82 63 48 64
REMARK SMILES IDX 85 65 79 66 78 67 49 69 71 70 56 71 70 72 57 73 60 74 69 75
REMARK SMILES IDX 83 76 58 77 59 78 68 80 84 81 61 82 50 83 51 84 55 85 52 86
REMARK SMILES IDX 54 87 53 88 72 89 73 90 77 91 74 92 76 93 75 94 62 95 63 96
REMARK SMILES IDX 67 97 64 98 66 99 65 100
REMARK H PARENT 16 12 23 40 82 68 60 79
REMARK Flexibility Score: inf
ROOT
ATOM      1  C   UNL A   1      53.634  31.265  27.396  1.00  0.00     0.188 C 
ENDROOT
BRANCH   1   2
ATOM      2  O   UNL A   1      53.128  30.736  26.181  1.00  0.00    -0.376 OA
BRANCH   2   3
ATOM      3  C   UNL A   1      51.734  30.433  26.204  1.00  0.00     0.202 C 
BRANCH   3   4
ATOM      4  C   UNL A   1      51.333  29.118  26.870  1.00  0.00     0.261 C 
BRANCH   4   5
ATOM      5  O   UNL A   1      50.074  28.683  26.309  1.00  0.00    -0.462 OA
BRANCH   5   6
ATOM      6  C   UNL A   1      48.978  29.026  27.026  1.00  0.00     0.329 C 
ATOM      7  O   UNL A   1      48.514  30.163  27.076  1.00  0.00    -0.250 OA
BRANCH   6   8
ATOM      8  C   UNL A   1      48.441  27.865  27.881  1.00  0.00     0.198 C 
BRANCH   8   9
ATOM      9  N   UNL A   1      49.160  26.576  27.823  1.00  0.00    -0.335 N 
ATOM     10  C   UNL A   1      48.963  25.526  26.940  1.00  0.00     0.293 C 
ATOM     11  O   UNL A   1      49.497  24.440  27.141  1.00  0.00    -0.265 OA
ATOM     12  H   UNL A   1      49.867  26.448  28.496  1.00  0.00     0.164 HD
BRANCH  10  13
ATOM     13  C   UNL A   1      48.118  25.756  25.661  1.00  0.00     0.252 C 
ATOM     14  O   UNL A   1      48.711  25.725  24.586  1.00  0.00    -0.283 OA
BRANCH  13  15
ATOM     15  C   UNL A   1      46.653  25.919  25.655  1.00  0.00     0.054 A 
ATOM     16  N   UNL A   1      44.563  26.720  25.656  1.00  0.00    -0.240 N 
ATOM     17  C   UNL A   1      45.890  27.067  25.796  1.00  0.00     0.117 A 
ATOM     18  C   UNL A   1      44.430  25.381  25.362  1.00  0.00     0.065 A 
ATOM     19  C   UNL A   1      45.713  24.837  25.489  1.00  0.00     0.012 A 
ATOM     20  C   UNL A   1      43.323  24.581  25.019  1.00  0.00     0.028 A 
ATOM     21  C   UNL A   1      45.865  23.436  25.385  1.00  0.00     0.011 A 
ATOM     22  C   UNL A   1      43.514  23.201  24.896  1.00  0.00     0.002 A 
ATOM     23  C   UNL A   1      44.763  22.631  25.102  1.00  0.00     0.001 A 
BRANCH  16  24
ATOM     24  S   UNL A   1      43.295  27.861  25.651  1.00  0.00     0.268 S 
ATOM     25  O   UNL A   1      42.696  27.720  24.322  1.00  0.00    -0.201 OA
ATOM     26  O   UNL A   1      43.867  29.096  26.107  1.00  0.00    -0.201 OA
BRANCH  24  27
ATOM     27  C   UNL A   1      42.058  27.390  26.837  1.00  0.00     0.088 A 
ATOM     28  C   UNL A   1      38.988  25.975  29.509  1.00  0.00     0.044 C 
ATOM     29  C   UNL A   1      40.055  26.485  28.584  1.00  0.00    -0.051 A 
ATOM     30  C   UNL A   1      39.937  26.272  27.206  1.00  0.00     0.005 A 
ATOM     31  C   UNL A   1      41.168  27.183  29.073  1.00  0.00     0.005 A 
ATOM     32  C   UNL A   1      40.936  26.716  26.337  1.00  0.00     0.022 A 
ATOM     33  C   UNL A   1      42.162  27.651  28.203  1.00  0.00     0.022 A 
ENDBRANCH  24  27
ENDBRANCH  16  24
ENDBRANCH  13  15
ENDBRANCH  10  13
ENDBRANCH   8   9
BRANCH   8  34
ATOM     34  C   UNL A   1      48.204  28.389  29.313  1.00  0.00     0.092 C 
BRANCH  34  35
ATOM     35  C   UNL A   1      47.205  27.663  30.148  1.00  0.00     0.037 A 
ATOM     36  C   UNL A   1      46.189  28.119  30.963  1.00  0.00     0.134 A 
ATOM     37  N   UNL A   1      47.213  26.304  30.339  1.00  0.00    -0.348 N 
ATOM     38  N   UNL A   1      45.610  27.087  31.652  1.00  0.00    -0.245 NA
ATOM     39  C   UNL A   1      46.265  26.012  31.279  1.00  0.00     0.196 A 
ATOM     40  H   UNL A   1      47.797  25.656  29.882  1.00  0.00     0.167 HD
ENDBRANCH  34  35
ENDBRANCH   8  34
ENDBRANCH   6   8
ENDBRANCH   5   6
ENDBRANCH   4   5
ENDBRANCH   3   4
ENDBRANCH   2   3
ENDBRANCH   1   2
BRANCH   1  41
ATOM     41  C   UNL A   1      53.527  32.776  27.638  1.00  0.00     0.188 C 
BRANCH  41  42
ATOM     42  O   UNL A   1      53.002  33.602  26.618  1.00  0.00    -0.377 OA
BRANCH  42  43
ATOM     43  C   UNL A   1      51.818  34.322  26.970  1.00  0.00     0.188 C 
BRANCH  43  44
ATOM     44  C   UNL A   1      50.888  34.662  25.809  1.00  0.00     0.188 C 
BRANCH  44  45
ATOM     45  O   UNL A   1      50.189  35.869  26.132  1.00  0.00    -0.376 OA
BRANCH  45  46
ATOM     46  C   UNL A   1      48.887  35.679  26.682  1.00  0.00     0.202 C 
BRANCH  46  47
ATOM     47  C   UNL A   1      47.942  34.892  25.766  1.00  0.00     0.261 C 
BRANCH  47  48
ATOM     48  O   UNL A   1      46.588  35.169  26.166  1.00  0.00    -0.460 OA
BRANCH  48  49
ATOM     49  C   UNL A   1      45.634  34.430  25.541  1.00  0.00     0.338 C 
ATOM     50  O   UNL A   1      45.473  34.351  24.334  1.00  0.00    -0.246 OA
BRANCH  49  51
ATOM     51  C   UNL A   1      44.630  33.963  26.540  1.00  0.00     0.060 A 
ATOM     52  C   UNL A   1      44.309  34.795  27.624  1.00  0.00     0.016 A 
ATOM     53  C   UNL A   1      44.241  32.623  26.565  1.00  0.00     0.016 A 
ATOM     54  C   UNL A   1      43.733  34.255  28.784  1.00  0.00     0.010 A 
ATOM     55  C   UNL A   1      43.735  32.080  27.738  1.00  0.00     0.010 A 
ATOM     56  C   UNL A   1      43.537  32.872  28.881  1.00  0.00    -0.014 A 
BRANCH  56  57
ATOM     57  C   UNL A   1      43.429  32.151  30.167  1.00  0.00     0.031 A 
ATOM     58  C   UNL A   1      44.613  31.769  30.993  1.00  0.00     0.074 A 
ATOM     59  C   UNL A   1      42.225  32.182  30.795  1.00  0.00     0.049 A 
ATOM     60  N   UNL A   1      44.530  31.076  32.085  1.00  0.00    -0.248 NA
ATOM     61  C   UNL A   1      45.994  32.122  30.677  1.00  0.00     0.031 C 
ATOM     62  C   UNL A   1      41.992  32.090  32.237  1.00  0.00     0.029 A 
ATOM     63  N   UNL A   1      40.939  32.339  30.293  1.00  0.00    -0.354 N 
ATOM     64  C   UNL A   1      45.700  31.241  32.785  1.00  0.00     0.074 A 
ATOM     65  C   UNL A   1      46.627  31.751  31.799  1.00  0.00     0.031 C 
ATOM     66  C   UNL A   1      40.683  32.124  32.494  1.00  0.00     0.029 A 
ATOM     67  C   UNL A   1      40.017  31.893  31.244  1.00  0.00     0.049 A 
ATOM     68  H   UNL A   1      40.713  32.705  29.408  1.00  0.00     0.167 HD
ATOM     69  C   UNL A   1      45.716  31.070  34.142  1.00  0.00     0.031 A 
ATOM     70  C   UNL A   1      39.162  30.854  31.034  1.00  0.00     0.031 A 
ATOM     71  C   UNL A   1      44.444  30.535  34.696  1.00  0.00     0.049 A 
ATOM     72  C   UNL A   1      39.495  29.654  31.911  1.00  0.00     0.074 A 
ATOM     73  C   UNL A   1      43.671  30.809  35.815  1.00  0.00     0.029 A 
ATOM     74  N   UNL A   1      43.721  29.569  33.983  1.00  0.00    -0.354 N 
ATOM     75  N   UNL A   1      40.542  29.618  32.701  1.00  0.00    -0.248 NA
ATOM     76  C   UNL A   1      38.733  28.413  31.995  1.00  0.00     0.031 C 
ATOM     77  C   UNL A   1      42.504  29.995  35.771  1.00  0.00     0.029 A 
ATOM     78  C   UNL A   1      42.533  29.246  34.607  1.00  0.00     0.049 A 
ATOM     79  H   UNL A   1      44.025  29.169  33.137  1.00  0.00     0.167 HD
ATOM     80  C   UNL A   1      40.653  28.412  33.324  1.00  0.00     0.074 A 
ATOM     81  C   UNL A   1      39.474  27.695  32.866  1.00  0.00     0.031 C 
ATOM     82  C   UNL A   1      41.720  28.121  34.131  1.00  0.00     0.031 A 
BRANCH  69  83
ATOM     83  C   UNL A   1      46.872  31.523  35.045  1.00  0.00    -0.014 A 
ATOM     84  C   UNL A   1      47.918  30.635  35.367  1.00  0.00     0.009 A 
ATOM     85  C   UNL A   1      46.960  32.785  35.666  1.00  0.00     0.009 A 
ATOM     86  C   UNL A   1      48.961  30.975  36.247  1.00  0.00     0.001 A 
ATOM     87  C   UNL A   1      48.029  33.154  36.504  1.00  0.00     0.001 A 
ATOM     88  C   UNL A   1      49.026  32.244  36.805  1.00  0.00     0.000 A 
ENDBRANCH  69  83
BRANCH  70  89
ATOM     89  C   UNL A   1      38.447  30.989  29.734  1.00  0.00    -0.014 A 
ATOM     90  C   UNL A   1      38.897  30.077  28.751  1.00  0.00     0.009 A 
ATOM     91  C   UNL A   1      37.100  31.393  29.691  1.00  0.00     0.009 A 
ATOM     92  C   UNL A   1      37.990  29.402  27.927  1.00  0.00     0.001 A 
ATOM     93  C   UNL A   1      36.194  30.713  28.855  1.00  0.00     0.001 A 
ATOM     94  C   UNL A   1      36.631  29.682  28.021  1.00  0.00     0.000 A 
ENDBRANCH  70  89
BRANCH  82  95
ATOM     95  C   UNL A   1      42.138  26.743  34.608  1.00  0.00    -0.014 A 
ATOM     96  C   UNL A   1      41.408  25.952  35.499  1.00  0.00     0.009 A 
ATOM     97  C   UNL A   1      43.266  26.128  34.007  1.00  0.00     0.009 A 
ATOM     98  C   UNL A   1      41.798  24.636  35.795  1.00  0.00     0.001 A 
ATOM     99  C   UNL A   1      43.638  24.810  34.269  1.00  0.00     0.001 A 
ATOM    100  C   UNL A   1      42.902  24.062  35.172  1.00  0.00     0.000 A 
ENDBRANCH  82  95
ENDBRANCH  56  57
ENDBRANCH  49  51
ENDBRANCH  48  49
ENDBRANCH  47  48
ENDBRANCH  46  47
ENDBRANCH  45  46
ENDBRANCH  44  45
ENDBRANCH  43  44
ENDBRANCH  42  43
ENDBRANCH  41  42
ENDBRANCH   1  41
TORSDOF 27
ENDMDL
MODEL 3
REMARK VINA RESULT:      -6.6      6.356     13.229
REMARK SMILES Cc1ccc(S(=O)(=O)n2cc(C(=O)C(=O)N[C@@H](Cc3cnc[nH]3)C(=O)OCCOCCOCCOCCOC(=O)c3ccc(-c4c5nc(c(-c6ccccc6)c6ccc([nH]6)c(-c6ccccc6)c6nc(c(-c7ccccc7)c7ccc4[nH]7)C=C6)C=C5)cc3)c3ccccc32)cc1
REMARK SMILES IDX 30 1 29 2 28 3 27 4 26 5 24 6 25 7 17 8 16 9 14 10 15 11
REMARK SMILES IDX 12 13 13 14 11 15 9 16 10 17 94 18 89 19 93 20 90 21 92 22
REMARK SMILES IDX 91 23 6 24 7 25 8 26 5 27 1 28 2 29 3 30 96 31 4 32 95 33
REMARK SMILES IDX 18 34 19 35 20 36 23 37 21 38 22 39 31 41 32 42 33 43 34 44
REMARK SMILES IDX 35 45 36 46 37 47 38 48 39 49 40 50 41 51 42 52 88 53 43 54
REMARK SMILES IDX 87 55 44 56 45 57 46 58 81 59 47 60 86 61 80 62 82 63 48 64
REMARK SMILES IDX 85 65 79 66 78 67 49 69 71 70 56 71 70 72 57 73 60 74 69 75
REMARK SMILES IDX 83 76 58 77 59 78 68 80 84 81 61 82 50 83 51 84 55 85 52 86
REMARK SMILES IDX 54 87 53 88 72 89 73 90 77 91 74 92 76 93 75 94 62 95 63 96
REMARK SMILES IDX 67 97 64 98 66 99 65 100
REMARK H PARENT 16 12 23 40 82 68 60 79
REMARK Flexibility Score: inf
ROOT
ATOM      1  C   UNL A   1      40.916  27.965  29.747  1.00  0.00     0.188 C 
ENDROOT
BRANCH   1   2
ATOM      2  O   UNL A   1      39.641  28.533  29.494  1.00  0.00    -0.376 OA
BRANCH   2   3
ATOM      3  C   UNL A   1      39.588  29.376  28.345  1.00  0.00     0.202 C 
BRANCH   3   4
ATOM      4  C   UNL A   1      38.204  29.870  27.924  1.00  0.00     0.261 C 
BRANCH   4   5
ATOM      5  O   UNL A   1      37.685  30.727  28.966  1.00  0.00    -0.462 OA
BRANCH   5   6
ATOM      6  C   UNL A   1      36.343  30.668  29.139  1.00  0.00     0.329 C 
ATOM      7  O   UNL A   1      35.786  29.977  29.988  1.00  0.00    -0.250 OA
BRANCH   6   8
ATOM      8  C   UNL A   1      35.572  31.466  28.073  1.00  0.00     0.198 C 
BRANCH   8   9
ATOM      9  N   UNL A   1      34.107  31.291  28.005  1.00  0.00    -0.335 N 
ATOM     10  C   UNL A   1      33.384  30.455  27.169  1.00  0.00     0.293 C 
ATOM     11  O   UNL A   1      32.165  30.565  27.087  1.00  0.00    -0.265 OA
ATOM     12  H   UNL A   1      33.580  31.836  28.633  1.00  0.00     0.164 HD
BRANCH  10  13
ATOM     13  C   UNL A   1      34.121  29.335  26.390  1.00  0.00     0.252 C 
ATOM     14  O   UNL A   1      35.340  29.267  26.530  1.00  0.00    -0.283 OA
BRANCH  13  15
ATOM     15  C   UNL A   1      33.444  28.310  25.575  1.00  0.00     0.054 A 
ATOM     16  N   UNL A   1      32.864  26.836  23.995  1.00  0.00    -0.240 N 
ATOM     17  C   UNL A   1      33.751  27.845  24.307  1.00  0.00     0.117 A 
ATOM     18  C   UNL A   1      32.016  26.578  25.048  1.00  0.00     0.065 A 
ATOM     19  C   UNL A   1      32.274  27.577  25.994  1.00  0.00     0.012 A 
ATOM     20  C   UNL A   1      31.036  25.592  25.271  1.00  0.00     0.028 A 
ATOM     21  C   UNL A   1      31.445  27.656  27.136  1.00  0.00     0.011 A 
ATOM     22  C   UNL A   1      30.252  25.683  26.425  1.00  0.00     0.002 A 
ATOM     23  C   UNL A   1      30.435  26.717  27.334  1.00  0.00     0.001 A 
BRANCH  16  24
ATOM     24  S   UNL A   1      32.964  25.915  22.562  1.00  0.00     0.268 S 
ATOM     25  O   UNL A   1      34.240  26.323  21.968  1.00  0.00    -0.201 OA
ATOM     26  O   UNL A   1      31.712  26.093  21.884  1.00  0.00    -0.201 OA
BRANCH  24  27
ATOM     27  C   UNL A   1      33.100  24.189  22.964  1.00  0.00     0.088 A 
ATOM     28  C   UNL A   1      33.646  20.096  24.193  1.00  0.00     0.044 C 
ATOM     29  C   UNL A   1      33.451  21.517  23.748  1.00  0.00    -0.051 A 
ATOM     30  C   UNL A   1      34.500  22.434  23.881  1.00  0.00     0.005 A 
ATOM     31  C   UNL A   1      32.239  21.944  23.189  1.00  0.00     0.005 A 
ATOM     32  C   UNL A   1      34.324  23.765  23.498  1.00  0.00     0.022 A 
ATOM     33  C   UNL A   1      32.064  23.273  22.782  1.00  0.00     0.022 A 
ENDBRANCH  24  27
ENDBRANCH  16  24
ENDBRANCH  13  15
ENDBRANCH  10  13
ENDBRANCH   8   9
BRANCH   8  34
ATOM     34  C   UNL A   1      36.026  32.939  28.151  1.00  0.00     0.092 C 
BRANCH  34  35
ATOM     35  C   UNL A   1      35.047  33.928  28.687  1.00  0.00     0.037 A 
ATOM     36  C   UNL A   1      34.618  34.186  29.973  1.00  0.00     0.134 A 
ATOM     37  N   UNL A   1      34.268  34.735  27.898  1.00  0.00    -0.348 N 
ATOM     38  N   UNL A   1      33.594  35.096  29.977  1.00  0.00    -0.245 NA
ATOM     39  C   UNL A   1      33.386  35.386  28.714  1.00  0.00     0.196 A 
ATOM     40  H   UNL A   1      34.331  34.828  26.919  1.00  0.00     0.167 HD
ENDBRANCH  34  35
ENDBRANCH   8  34
ENDBRANCH   6   8
ENDBRANCH   5   6
ENDBRANCH   4   5
ENDBRANCH   3   4
ENDBRANCH   2   3
ENDBRANCH   1   2
BRANCH   1  41
ATOM     41  C   UNL A   1      42.162  28.829  29.514  1.00  0.00     0.188 C 
BRANCH  41  42
ATOM     42  O   UNL A   1      43.351  28.217  29.057  1.00  0.00    -0.377 OA
BRANCH  42  43
ATOM     43  C   UNL A   1      44.393  29.122  28.682  1.00  0.00     0.188 C 
BRANCH  43  44
ATOM     44  C   UNL A   1      45.800  28.713  29.107  1.00  0.00     0.188 C 
BRANCH  44  45
ATOM     45  O   UNL A   1      46.726  29.217  28.138  1.00  0.00    -0.376 OA
BRANCH  45  46
ATOM     46  C   UNL A   1      46.195  30.205  27.258  1.00  0.00     0.202 C 
BRANCH  46  47
ATOM     47  C   UNL A   1      46.544  31.642  27.664  1.00  0.00     0.261 C 
BRANCH  47  48
ATOM     48  O   UNL A   1      47.963  31.718  27.890  1.00  0.00    -0.460 OA
BRANCH  48  49
ATOM     49  C   UNL A   1      48.683  32.271  26.880  1.00  0.00     0.338 C 
ATOM     50  O   UNL A   1      49.614  31.741  26.297  1.00  0.00    -0.246 OA
BRANCH  49  51
ATOM     51  C   UNL A   1      48.369  33.726  26.782  1.00  0.00     0.060 A 
ATOM     52  C   UNL A   1      48.904  34.605  27.736  1.00  0.00     0.016 A 
ATOM     53  C   UNL A   1      47.339  34.163  25.948  1.00  0.00     0.016 A 
ATOM     54  C   UNL A   1      48.314  35.860  27.951  1.00  0.00     0.010 A 
ATOM     55  C   UNL A   1      46.716  35.376  26.210  1.00  0.00     0.010 A 
ATOM     56  C   UNL A   1      47.151  36.207  27.254  1.00  0.00    -0.014 A 
BRANCH  56  57
ATOM     57  C   UNL A   1      46.186  37.221  27.730  1.00  0.00     0.031 A 
ATOM     58  C   UNL A   1      45.990  38.542  27.062  1.00  0.00     0.074 A 
ATOM     59  C   UNL A   1      45.189  36.791  28.548  1.00  0.00     0.049 A 
ATOM     60  N   UNL A   1      45.197  39.462  27.515  1.00  0.00    -0.248 NA
ATOM     61  C   UNL A   1      46.660  38.959  25.833  1.00  0.00     0.031 C 
ATOM     62  C   UNL A   1      43.855  37.379  28.679  1.00  0.00     0.029 A 
ATOM     63  N   UNL A   1      45.128  35.712  29.419  1.00  0.00    -0.354 N 
ATOM     64  C   UNL A   1      44.947  40.348  26.496  1.00  0.00     0.074 A 
ATOM     65  C   UNL A   1      46.001  40.088  25.541  1.00  0.00     0.031 C 
ATOM     66  C   UNL A   1      43.149  36.717  29.597  1.00  0.00     0.029 A 
ATOM     67  C   UNL A   1      44.087  35.915  30.330  1.00  0.00     0.049 A 
ATOM     68  H   UNL A   1      45.723  34.928  29.400  1.00  0.00     0.167 HD
ATOM     69  C   UNL A   1      43.800  41.095  26.504  1.00  0.00     0.031 A 
ATOM     70  C   UNL A   1      44.274  36.025  31.675  1.00  0.00     0.031 A 
ATOM     71  C   UNL A   1      43.013  40.974  27.759  1.00  0.00     0.049 A 
ATOM     72  C   UNL A   1      43.970  37.429  32.181  1.00  0.00     0.074 A 
ATOM     73  C   UNL A   1      41.664  40.855  28.062  1.00  0.00     0.029 A 
ATOM     74  N   UNL A   1      43.671  40.881  28.993  1.00  0.00    -0.354 N 
ATOM     75  N   UNL A   1      43.656  38.422  31.382  1.00  0.00    -0.248 NA
ATOM     76  C   UNL A   1      43.990  37.865  33.572  1.00  0.00     0.031 C 
ATOM     77  C   UNL A   1      41.526  40.709  29.471  1.00  0.00     0.029 A 
ATOM     78  C   UNL A   1      42.789  40.698  30.038  1.00  0.00     0.049 A 
ATOM     79  H   UNL A   1      44.648  40.939  29.101  1.00  0.00     0.167 HD
ATOM     80  C   UNL A   1      43.500  39.585  32.071  1.00  0.00     0.074 A 
ATOM     81  C   UNL A   1      43.695  39.177  33.453  1.00  0.00     0.031 C 
ATOM     82  C   UNL A   1      43.252  40.769  31.429  1.00  0.00     0.031 A 
BRANCH  69  83
ATOM     83  C   UNL A   1      43.281  41.871  25.286  1.00  0.00    -0.014 A 
ATOM     84  C   UNL A   1      43.924  43.053  24.865  1.00  0.00     0.009 A 
ATOM     85  C   UNL A   1      42.127  41.536  24.550  1.00  0.00     0.009 A 
ATOM     86  C   UNL A   1      43.446  43.842  23.802  1.00  0.00     0.001 A 
ATOM     87  C   UNL A   1      41.673  42.287  23.451  1.00  0.00     0.001 A 
ATOM     88  C   UNL A   1      42.326  43.450  23.082  1.00  0.00     0.000 A 
ENDBRANCH  69  83
BRANCH  70  89
ATOM     89  C   UNL A   1      45.130  34.925  32.200  1.00  0.00    -0.014 A 
ATOM     90  C   UNL A   1      44.602  33.637  31.952  1.00  0.00     0.009 A 
ATOM     91  C   UNL A   1      46.529  35.064  32.254  1.00  0.00     0.009 A 
ATOM     92  C   UNL A   1      45.426  32.593  31.519  1.00  0.00     0.001 A 
ATOM     93  C   UNL A   1      47.353  34.007  31.823  1.00  0.00     0.001 A 
ATOM     94  C   UNL A   1      46.797  32.798  31.403  1.00  0.00     0.000 A 
ENDBRANCH  70  89
BRANCH  82  95
ATOM     95  C   UNL A   1      43.385  42.158  32.021  1.00  0.00    -0.014 A 
ATOM     96  C   UNL A   1      42.324  43.043  32.228  1.00  0.00     0.009 A 
ATOM     97  C   UNL A   1      44.641  42.555  32.549  1.00  0.00     0.009 A 
ATOM     98  C   UNL A   1      42.510  44.263  32.897  1.00  0.00     0.001 A 
ATOM     99  C   UNL A   1      44.824  43.749  33.247  1.00  0.00     0.001 A 
ATOM    100  C   UNL A   1      43.754  44.610  33.416  1.00  0.00     0.000 A 
ENDBRANCH  82  95
ENDBRANCH  56  57
ENDBRANCH  49  51
ENDBRANCH  48  49
ENDBRANCH  47  48
ENDBRANCH  46  47
ENDBRANCH  45  46
ENDBRANCH  44  45
ENDBRANCH  43  44
ENDBRANCH  42  43
ENDBRANCH  41  42
ENDBRANCH   1  41
TORSDOF 27
ENDMDL
