MODEL 1
REMARK VINA RESULT:      -9.2      0.000      0.000
REMARK SMILES C[C@@H]1Oc2ccccc2N(CC(=O)OCCOCCOCCOCCOC(=O)c2ccc(-c3c4nc(c(-c5ccccc5)c5ccc([nH]5)c(-c5ccccc5)c5nc(c(-c6ccccc6)c6ccc3[nH]6)C=C5)C=C4)cc2)C1=O
REMARK SMILES IDX 21 1 20 2 19 3 18 4 17 5 16 6 15 7 14 8 12 9 13 10 11 11
REMARK SMILES IDX 10 12 1 13 2 14 3 15 77 16 4 17 78 18 5 19 9 20 6 21 8 22
REMARK SMILES IDX 7 23 22 24 23 25 24 26 25 27 26 28 27 29 28 30 29 31 30 32
REMARK SMILES IDX 76 33 31 34 75 35 32 36 33 37 34 38 69 39 35 40 74 41 68 42
REMARK SMILES IDX 70 43 36 44 73 45 67 46 66 47 37 49 59 50 44 51 58 52 45 53
REMARK SMILES IDX 48 54 57 55 71 56 46 57 47 58 56 60 72 61 49 62 38 63 39 64
REMARK SMILES IDX 43 65 40 66 42 67 41 68 60 69 61 70 65 71 62 72 64 73 63 74
REMARK SMILES IDX 50 75 51 76 55 77 52 78 54 79 53 80
REMARK H PARENT 70 48 48 59
REMARK Flexibility Score: inf
ROOT
ATOM      1  C   UNL A   1      37.029  23.025  25.319  1.00  0.00     0.188 C 
ENDROOT
BRANCH   1   2
ATOM      2  O   UNL A   1      36.035  23.313  26.284  1.00  0.00    -0.377 OA
BRANCH   2   3
ATOM      3  C   UNL A   1      35.078  22.282  26.465  1.00  0.00     0.188 C 
BRANCH   3   4
ATOM      4  C   UNL A   1      33.639  22.771  26.709  1.00  0.00     0.188 C 
BRANCH   4   5
ATOM      5  O   UNL A   1      33.089  23.896  26.024  1.00  0.00    -0.376 OA
BRANCH   5   6
ATOM      6  C   UNL A   1      31.955  23.726  25.194  1.00  0.00     0.202 C 
BRANCH   6   7
ATOM      7  C   UNL A   1      32.225  23.041  23.845  1.00  0.00     0.261 C 
BRANCH   7   8
ATOM      8  O   UNL A   1      32.413  23.935  22.727  1.00  0.00    -0.462 OA
BRANCH   8   9
ATOM      9  C   UNL A   1      33.613  24.568  22.641  1.00  0.00     0.326 C 
ATOM     10  O   UNL A   1      34.699  24.007  22.767  1.00  0.00    -0.250 OA
BRANCH   9  11
ATOM     11  C   UNL A   1      33.520  26.085  22.376  1.00  0.00     0.248 C 
BRANCH  11  12
ATOM     12  N   UNL A   1      32.483  26.879  23.045  1.00  0.00    -0.294 N 
ATOM     13  C   UNL A   1      30.455  29.407  22.216  1.00  0.00     0.064 C 
ATOM     14  C   UNL A   1      30.316  28.073  22.949  1.00  0.00     0.259 C 
ATOM     15  O   UNL A   1      30.337  28.321  24.342  1.00  0.00    -0.479 OA
ATOM     16  C   UNL A   1      31.300  27.070  22.343  1.00  0.00     0.268 C 
ATOM     17  C   UNL A   1      31.536  28.091  24.953  1.00  0.00     0.144 A 
ATOM     18  O   UNL A   1      31.075  26.538  21.254  1.00  0.00    -0.270 OA
ATOM     19  C   UNL A   1      31.629  28.619  26.248  1.00  0.00     0.049 A 
ATOM     20  C   UNL A   1      32.604  27.382  24.378  1.00  0.00     0.087 A 
ATOM     21  C   UNL A   1      32.789  28.456  26.995  1.00  0.00     0.004 A 
ATOM     22  C   UNL A   1      33.762  27.216  25.155  1.00  0.00     0.030 A 
ATOM     23  C   UNL A   1      33.856  27.754  26.448  1.00  0.00     0.002 A 
ENDBRANCH  11  12
ENDBRANCH   9  11
ENDBRANCH   8   9
ENDBRANCH   7   8
ENDBRANCH   6   7
ENDBRANCH   5   6
ENDBRANCH   4   5
ENDBRANCH   3   4
ENDBRANCH   2   3
ENDBRANCH   1   2
BRANCH   1  24
ATOM     24  C   UNL A   1      36.699  21.792  24.474  1.00  0.00     0.188 C 
BRANCH  24  25
ATOM     25  O   UNL A   1      37.580  20.704  24.759  1.00  0.00    -0.376 OA
BRANCH  25  26
ATOM     26  C   UNL A   1      38.810  21.032  25.395  1.00  0.00     0.202 C 
BRANCH  26  27
ATOM     27  C   UNL A   1      39.575  19.837  25.979  1.00  0.00     0.261 C 
BRANCH  27  28
ATOM     28  O   UNL A   1      40.773  19.443  25.291  1.00  0.00    -0.460 OA
BRANCH  28  29
ATOM     29  C   UNL A   1      41.916  19.318  26.000  1.00  0.00     0.338 C 
ATOM     30  O   UNL A   1      42.618  18.329  26.098  1.00  0.00    -0.246 OA
BRANCH  29  31
ATOM     31  C   UNL A   1      42.292  20.676  26.460  1.00  0.00     0.060 A 
ATOM     32  C   UNL A   1      42.829  21.613  25.571  1.00  0.00     0.016 A 
ATOM     33  C   UNL A   1      42.175  20.982  27.821  1.00  0.00     0.016 A 
ATOM     34  C   UNL A   1      43.237  22.864  26.044  1.00  0.00     0.010 A 
ATOM     35  C   UNL A   1      42.604  22.224  28.295  1.00  0.00     0.010 A 
ATOM     36  C   UNL A   1      43.120  23.181  27.408  1.00  0.00    -0.014 A 
BRANCH  36  37
ATOM     37  C   UNL A   1      43.370  24.562  27.889  1.00  0.00     0.031 A 
ATOM     38  C   UNL A   1      42.258  25.544  28.107  1.00  0.00     0.074 A 
ATOM     39  C   UNL A   1      44.651  24.937  28.072  1.00  0.00     0.049 A 
ATOM     40  N   UNL A   1      42.338  26.795  28.485  1.00  0.00    -0.248 NA
ATOM     41  C   UNL A   1      40.885  25.071  27.874  1.00  0.00     0.031 C 
ATOM     42  C   UNL A   1      45.811  24.062  27.884  1.00  0.00     0.029 A 
ATOM     43  N   UNL A   1      45.196  26.141  28.439  1.00  0.00    -0.354 N 
ATOM     44  C   UNL A   1      41.031  27.259  28.547  1.00  0.00     0.074 A 
ATOM     45  C   UNL A   1      40.176  26.163  28.141  1.00  0.00     0.031 C 
ATOM     46  C   UNL A   1      46.929  24.760  28.129  1.00  0.00     0.029 A 
ATOM     47  C   UNL A   1      46.570  26.138  28.455  1.00  0.00     0.049 A 
ATOM     48  H   UNL A   1      44.655  26.931  28.667  1.00  0.00     0.167 HD
ATOM     49  C   UNL A   1      40.595  28.486  28.920  1.00  0.00     0.031 A 
ATOM     50  C   UNL A   1      47.450  27.131  28.687  1.00  0.00     0.031 A 
ATOM     51  C   UNL A   1      41.458  29.573  29.307  1.00  0.00     0.049 A 
ATOM     52  C   UNL A   1      46.937  28.499  29.040  1.00  0.00     0.074 A 
ATOM     53  C   UNL A   1      41.097  30.839  29.738  1.00  0.00     0.029 A 
ATOM     54  N   UNL A   1      42.844  29.534  29.300  1.00  0.00    -0.354 N 
ATOM     55  N   UNL A   1      45.696  28.900  29.166  1.00  0.00    -0.248 NA
ATOM     56  C   UNL A   1      47.936  29.547  29.297  1.00  0.00     0.031 C 
ATOM     57  C   UNL A   1      42.259  31.586  29.923  1.00  0.00     0.029 A 
ATOM     58  C   UNL A   1      43.349  30.764  29.686  1.00  0.00     0.049 A 
ATOM     59  H   UNL A   1      43.387  28.748  29.059  1.00  0.00     0.167 HD
ATOM     60  C   UNL A   1      45.763  30.234  29.545  1.00  0.00     0.074 A 
ATOM     61  C   UNL A   1      47.168  30.574  29.638  1.00  0.00     0.031 C 
ATOM     62  C   UNL A   1      44.748  31.093  29.792  1.00  0.00     0.031 A 
BRANCH  49  63
ATOM     63  C   UNL A   1      39.115  28.753  28.948  1.00  0.00    -0.014 A 
ATOM     64  C   UNL A   1      38.485  29.322  27.828  1.00  0.00     0.009 A 
ATOM     65  C   UNL A   1      38.383  28.612  30.138  1.00  0.00     0.009 A 
ATOM     66  C   UNL A   1      37.165  29.771  27.906  1.00  0.00     0.001 A 
ATOM     67  C   UNL A   1      37.055  29.039  30.205  1.00  0.00     0.001 A 
ATOM     68  C   UNL A   1      36.451  29.629  29.095  1.00  0.00     0.000 A 
ENDBRANCH  49  63
BRANCH  50  69
ATOM     69  C   UNL A   1      48.908  26.849  28.599  1.00  0.00    -0.014 A 
ATOM     70  C   UNL A   1      49.577  26.937  27.366  1.00  0.00     0.009 A 
ATOM     71  C   UNL A   1      49.629  26.443  29.730  1.00  0.00     0.009 A 
ATOM     72  C   UNL A   1      50.928  26.602  27.263  1.00  0.00     0.001 A 
ATOM     73  C   UNL A   1      50.989  26.140  29.632  1.00  0.00     0.001 A 
ATOM     74  C   UNL A   1      51.635  26.209  28.399  1.00  0.00     0.000 A 
ENDBRANCH  50  69
BRANCH  62  75
ATOM     75  C   UNL A   1      45.083  32.495  30.222  1.00  0.00    -0.014 A 
ATOM     76  C   UNL A   1      45.191  32.792  31.590  1.00  0.00     0.009 A 
ATOM     77  C   UNL A   1      45.131  33.543  29.290  1.00  0.00     0.009 A 
ATOM     78  C   UNL A   1      45.305  34.115  32.021  1.00  0.00     0.001 A 
ATOM     79  C   UNL A   1      45.273  34.863  29.725  1.00  0.00     0.001 A 
ATOM     80  C   UNL A   1      45.344  35.149  31.088  1.00  0.00     0.000 A 
ENDBRANCH  62  75
ENDBRANCH  36  37
ENDBRANCH  29  31
ENDBRANCH  28  29
ENDBRANCH  27  28
ENDBRANCH  26  27
ENDBRANCH  25  26
ENDBRANCH  24  25
ENDBRANCH   1  24
TORSDOF 21
ENDMDL
MODEL 2
REMARK VINA RESULT:      -8.9      5.469     10.382
REMARK SMILES C[C@@H]1Oc2ccccc2N(CC(=O)OCCOCCOCCOCCOC(=O)c2ccc(-c3c4nc(c(-c5ccccc5)c5ccc([nH]5)c(-c5ccccc5)c5nc(c(-c6ccccc6)c6ccc3[nH]6)C=C5)C=C4)cc2)C1=O
REMARK SMILES IDX 21 1 20 2 19 3 18 4 17 5 16 6 15 7 14 8 12 9 13 10 11 11
REMARK SMILES IDX 10 12 1 13 2 14 3 15 77 16 4 17 78 18 5 19 9 20 6 21 8 22
REMARK SMILES IDX 7 23 22 24 23 25 24 26 25 27 26 28 27 29 28 30 29 31 30 32
REMARK SMILES IDX 76 33 31 34 75 35 32 36 33 37 34 38 69 39 35 40 74 41 68 42
REMARK SMILES IDX 70 43 36 44 73 45 67 46 66 47 37 49 59 50 44 51 58 52 45 53
REMARK SMILES IDX 48 54 57 55 71 56 46 57 47 58 56 60 72 61 49 62 38 63 39 64
REMARK SMILES IDX 43 65 40 66 42 67 41 68 60 69 61 70 65 71 62 72 64 73 63 74
REMARK SMILES IDX 50 75 51 76 55 77 52 78 54 79 53 80
REMARK H PARENT 70 48 48 59
REMARK Flexibility Score: inf
ROOT
ATOM      1  C   UNL A   1      34.598  32.761  29.653  1.00  0.00     0.188 C 
ENDROOT
BRANCH   1   2
ATOM      2  O   UNL A   1      35.095  31.511  29.218  1.00  0.00    -0.377 OA
BRANCH   2   3
ATOM      3  C   UNL A   1      35.176  31.371  27.809  1.00  0.00     0.188 C 
BRANCH   3   4
ATOM      4  C   UNL A   1      34.367  30.197  27.227  1.00  0.00     0.188 C 
BRANCH   4   5
ATOM      5  O   UNL A   1      32.962  30.063  27.432  1.00  0.00    -0.376 OA
BRANCH   5   6
ATOM      6  C   UNL A   1      32.065  30.432  26.401  1.00  0.00     0.202 C 
BRANCH   6   7
ATOM      7  C   UNL A   1      31.633  29.291  25.467  1.00  0.00     0.261 C 
BRANCH   7   8
ATOM      8  O   UNL A   1      32.499  29.060  24.335  1.00  0.00    -0.462 OA
BRANCH   8   9
ATOM      9  C   UNL A   1      32.890  27.777  24.112  1.00  0.00     0.326 C 
ATOM     10  O   UNL A   1      33.280  27.355  23.026  1.00  0.00    -0.250 OA
BRANCH   9  11
ATOM     11  C   UNL A   1      32.803  26.856  25.346  1.00  0.00     0.248 C 
BRANCH  11  12
ATOM     12  N   UNL A   1      32.485  25.434  25.172  1.00  0.00    -0.294 N 
ATOM     13  C   UNL A   1      30.510  23.191  26.675  1.00  0.00     0.064 C 
ATOM     14  C   UNL A   1      30.829  23.594  25.236  1.00  0.00     0.259 C 
ATOM     15  O   UNL A   1      31.763  22.672  24.707  1.00  0.00    -0.479 OA
ATOM     16  C   UNL A   1      31.140  25.092  25.199  1.00  0.00     0.268 C 
ATOM     17  C   UNL A   1      33.061  23.097  24.705  1.00  0.00     0.144 A 
ATOM     18  O   UNL A   1      30.238  25.929  25.273  1.00  0.00    -0.270 OA
ATOM     19  C   UNL A   1      33.996  22.081  24.466  1.00  0.00     0.049 A 
ATOM     20  C   UNL A   1      33.466  24.427  24.907  1.00  0.00     0.087 A 
ATOM     21  C   UNL A   1      35.355  22.368  24.428  1.00  0.00     0.004 A 
ATOM     22  C   UNL A   1      34.843  24.698  24.849  1.00  0.00     0.030 A 
ATOM     23  C   UNL A   1      35.778  23.677  24.621  1.00  0.00     0.002 A 
ENDBRANCH  11  12
ENDBRANCH   9  11
ENDBRANCH   8   9
ENDBRANCH   7   8
ENDBRANCH   6   7
ENDBRANCH   5   6
ENDBRANCH   4   5
ENDBRANCH   3   4
ENDBRANCH   2   3
ENDBRANCH   1   2
BRANCH   1  24
ATOM     24  C   UNL A   1      34.579  33.814  28.542  1.00  0.00     0.188 C 
BRANCH  24  25
ATOM     25  O   UNL A   1      33.378  34.588  28.566  1.00  0.00    -0.376 OA
BRANCH  25  26
ATOM     26  C   UNL A   1      33.523  35.977  28.839  1.00  0.00     0.202 C 
BRANCH  26  27
ATOM     27  C   UNL A   1      32.745  36.479  30.064  1.00  0.00     0.261 C 
BRANCH  27  28
ATOM     28  O   UNL A   1      33.426  36.415  31.328  1.00  0.00    -0.460 OA
BRANCH  28  29
ATOM     29  C   UNL A   1      33.032  35.489  32.229  1.00  0.00     0.338 C 
ATOM     30  O   UNL A   1      31.891  35.174  32.511  1.00  0.00    -0.246 OA
BRANCH  29  31
ATOM     31  C   UNL A   1      34.248  34.754  32.654  1.00  0.00     0.060 A 
ATOM     32  C   UNL A   1      34.150  33.552  33.361  1.00  0.00     0.016 A 
ATOM     33  C   UNL A   1      35.501  35.326  32.406  1.00  0.00     0.016 A 
ATOM     34  C   UNL A   1      35.310  32.914  33.809  1.00  0.00     0.010 A 
ATOM     35  C   UNL A   1      36.658  34.698  32.873  1.00  0.00     0.010 A 
ATOM     36  C   UNL A   1      36.573  33.479  33.561  1.00  0.00    -0.014 A 
BRANCH  36  37
ATOM     37  C   UNL A   1      37.813  32.723  33.862  1.00  0.00     0.031 A 
ATOM     38  C   UNL A   1      38.626  32.983  35.096  1.00  0.00     0.074 A 
ATOM     39  C   UNL A   1      38.231  31.820  32.954  1.00  0.00     0.049 A 
ATOM     40  N   UNL A   1      39.752  32.425  35.462  1.00  0.00    -0.248 NA
ATOM     41  C   UNL A   1      38.118  33.993  36.038  1.00  0.00     0.031 C 
ATOM     42  C   UNL A   1      37.518  31.491  31.716  1.00  0.00     0.029 A 
ATOM     43  N   UNL A   1      39.351  31.028  32.916  1.00  0.00    -0.354 N 
ATOM     44  C   UNL A   1      40.085  33.004  36.680  1.00  0.00     0.074 A 
ATOM     45  C   UNL A   1      39.057  33.977  36.978  1.00  0.00     0.031 C 
ATOM     46  C   UNL A   1      38.222  30.573  31.038  1.00  0.00     0.029 A 
ATOM     47  C   UNL A   1      39.449  30.274  31.771  1.00  0.00     0.049 A 
ATOM     48  H   UNL A   1      40.019  31.003  33.638  1.00  0.00     0.167 HD
ATOM     49  C   UNL A   1      41.150  32.732  37.472  1.00  0.00     0.031 A 
ATOM     50  C   UNL A   1      40.423  29.447  31.343  1.00  0.00     0.031 A 
ATOM     51  C   UNL A   1      42.176  31.771  37.155  1.00  0.00     0.049 A 
ATOM     52  C   UNL A   1      41.622  29.211  32.217  1.00  0.00     0.074 A 
ATOM     53  C   UNL A   1      43.270  31.405  37.921  1.00  0.00     0.029 A 
ATOM     54  N   UNL A   1      42.246  31.035  35.982  1.00  0.00    -0.354 N 
ATOM     55  N   UNL A   1      41.884  29.711  33.399  1.00  0.00    -0.248 NA
ATOM     56  C   UNL A   1      42.652  28.290  31.713  1.00  0.00     0.031 C 
ATOM     57  C   UNL A   1      44.038  30.504  37.185  1.00  0.00     0.029 A 
ATOM     58  C   UNL A   1      43.383  30.245  35.992  1.00  0.00     0.049 A 
ATOM     59  H   UNL A   1      41.586  31.069  35.252  1.00  0.00     0.167 HD
ATOM     60  C   UNL A   1      43.090  29.146  33.793  1.00  0.00     0.074 A 
ATOM     61  C   UNL A   1      43.505  28.256  32.728  1.00  0.00     0.031 C 
ATOM     62  C   UNL A   1      43.784  29.350  34.937  1.00  0.00     0.031 A 
BRANCH  49  63
ATOM     63  C   UNL A   1      41.288  33.464  38.779  1.00  0.00    -0.014 A 
ATOM     64  C   UNL A   1      40.646  32.970  39.928  1.00  0.00     0.009 A 
ATOM     65  C   UNL A   1      41.898  34.727  38.834  1.00  0.00     0.009 A 
ATOM     66  C   UNL A   1      40.586  33.737  41.094  1.00  0.00     0.001 A 
ATOM     67  C   UNL A   1      41.858  35.481  40.009  1.00  0.00     0.001 A 
ATOM     68  C   UNL A   1      41.192  34.992  41.133  1.00  0.00     0.000 A 
ENDBRANCH  49  63
BRANCH  50  69
ATOM     69  C   UNL A   1      40.283  28.780  30.021  1.00  0.00    -0.014 A 
ATOM     70  C   UNL A   1      40.792  29.386  28.860  1.00  0.00     0.009 A 
ATOM     71  C   UNL A   1      39.599  27.561  29.903  1.00  0.00     0.009 A 
ATOM     72  C   UNL A   1      40.599  28.800  27.608  1.00  0.00     0.001 A 
ATOM     73  C   UNL A   1      39.436  26.960  28.652  1.00  0.00     0.001 A 
ATOM     74  C   UNL A   1      39.926  27.584  27.506  1.00  0.00     0.000 A 
ENDBRANCH  50  69
BRANCH  62  75
ATOM     75  C   UNL A   1      45.063  28.587  35.145  1.00  0.00    -0.014 A 
ATOM     76  C   UNL A   1      45.038  27.370  35.845  1.00  0.00     0.009 A 
ATOM     77  C   UNL A   1      46.301  29.146  34.794  1.00  0.00     0.009 A 
ATOM     78  C   UNL A   1      46.227  26.744  36.222  1.00  0.00     0.001 A 
ATOM     79  C   UNL A   1      47.489  28.502  35.149  1.00  0.00     0.001 A 
ATOM     80  C   UNL A   1      47.451  27.311  35.875  1.00  0.00     0.000 A 
ENDBRANCH  62  75
ENDBRANCH  36  37
ENDBRANCH  29  31
ENDBRANCH  28  29
ENDBRANCH  27  28
ENDBRANCH  26  27
ENDBRANCH  25  26
ENDBRANCH  24  25
ENDBRANCH   1  24
TORSDOF 21
ENDMDL
MODEL 3
REMARK VINA RESULT:      -8.7      0.919      5.886
REMARK SMILES C[C@@H]1Oc2ccccc2N(CC(=O)OCCOCCOCCOCCOC(=O)c2ccc(-c3c4nc(c(-c5ccccc5)c5ccc([nH]5)c(-c5ccccc5)c5nc(c(-c6ccccc6)c6ccc3[nH]6)C=C5)C=C4)cc2)C1=O
REMARK SMILES IDX 21 1 20 2 19 3 18 4 17 5 16 6 15 7 14 8 12 9 13 10 11 11
REMARK SMILES IDX 10 12 1 13 2 14 3 15 77 16 4 17 78 18 5 19 9 20 6 21 8 22
REMARK SMILES IDX 7 23 22 24 23 25 24 26 25 27 26 28 27 29 28 30 29 31 30 32
REMARK SMILES IDX 76 33 31 34 75 35 32 36 33 37 34 38 69 39 35 40 74 41 68 42
REMARK SMILES IDX 70 43 36 44 73 45 67 46 66 47 37 49 59 50 44 51 58 52 45 53
REMARK SMILES IDX 48 54 57 55 71 56 46 57 47 58 56 60 72 61 49 62 38 63 39 64
REMARK SMILES IDX 43 65 40 66 42 67 41 68 60 69 61 70 65 71 62 72 64 73 63 74
REMARK SMILES IDX 50 75 51 76 55 77 52 78 54 79 53 80
REMARK H PARENT 70 48 48 59
REMARK Flexibility Score: inf
ROOT
ATOM      1  C   UNL A   1      36.987  22.767  25.307  1.00  0.00     0.188 C 
ENDROOT
BRANCH   1   2
ATOM      2  O   UNL A   1      35.743  22.956  25.953  1.00  0.00    -0.377 OA
BRANCH   2   3
ATOM      3  C   UNL A   1      35.135  21.761  26.416  1.00  0.00     0.188 C 
BRANCH   3   4
ATOM      4  C   UNL A   1      33.924  21.969  27.345  1.00  0.00     0.188 C 
BRANCH   4   5
ATOM      5  O   UNL A   1      32.884  22.897  27.046  1.00  0.00    -0.376 OA
BRANCH   5   6
ATOM      6  C   UNL A   1      31.547  22.443  26.943  1.00  0.00     0.202 C 
BRANCH   6   7
ATOM      7  C   UNL A   1      30.861  22.719  25.595  1.00  0.00     0.261 C 
BRANCH   7   8
ATOM      8  O   UNL A   1      31.398  23.832  24.848  1.00  0.00    -0.462 OA
BRANCH   8   9
ATOM      9  C   UNL A   1      32.539  23.606  24.144  1.00  0.00     0.326 C 
ATOM     10  O   UNL A   1      32.750  22.596  23.477  1.00  0.00    -0.250 OA
BRANCH   9  11
ATOM     11  C   UNL A   1      33.588  24.733  24.246  1.00  0.00     0.248 C 
BRANCH  11  12
ATOM     12  N   UNL A   1      33.197  26.120  23.966  1.00  0.00    -0.294 N 
ATOM     13  C   UNL A   1      34.433  28.674  22.194  1.00  0.00     0.064 C 
ATOM     14  C   UNL A   1      33.065  28.022  22.386  1.00  0.00     0.259 C 
ATOM     15  O   UNL A   1      32.321  28.796  23.307  1.00  0.00    -0.479 OA
ATOM     16  C   UNL A   1      33.261  26.525  22.640  1.00  0.00     0.268 C 
ATOM     17  C   UNL A   1      32.300  28.315  24.585  1.00  0.00     0.144 A 
ATOM     18  O   UNL A   1      33.541  25.756  21.717  1.00  0.00    -0.270 OA
ATOM     19  C   UNL A   1      31.825  29.231  25.533  1.00  0.00     0.049 A 
ATOM     20  C   UNL A   1      32.695  27.019  24.958  1.00  0.00     0.087 A 
ATOM     21  C   UNL A   1      31.740  28.877  26.875  1.00  0.00     0.004 A 
ATOM     22  C   UNL A   1      32.587  26.677  26.316  1.00  0.00     0.030 A 
ATOM     23  C   UNL A   1      32.122  27.599  27.265  1.00  0.00     0.002 A 
ENDBRANCH  11  12
ENDBRANCH   9  11
ENDBRANCH   8   9
ENDBRANCH   7   8
ENDBRANCH   6   7
ENDBRANCH   5   6
ENDBRANCH   4   5
ENDBRANCH   3   4
ENDBRANCH   2   3
ENDBRANCH   1   2
BRANCH   1  24
ATOM     24  C   UNL A   1      36.984  21.574  24.348  1.00  0.00     0.188 C 
BRANCH  24  25
ATOM     25  O   UNL A   1      37.697  20.460  24.887  1.00  0.00    -0.376 OA
BRANCH  25  26
ATOM     26  C   UNL A   1      38.965  20.739  25.469  1.00  0.00     0.202 C 
BRANCH  26  27
ATOM     27  C   UNL A   1      39.767  19.501  25.897  1.00  0.00     0.261 C 
BRANCH  27  28
ATOM     28  O   UNL A   1      41.092  19.376  25.356  1.00  0.00    -0.460 OA
BRANCH  28  29
ATOM     29  C   UNL A   1      42.140  19.357  26.208  1.00  0.00     0.338 C 
ATOM     30  O   UNL A   1      42.880  18.420  26.445  1.00  0.00    -0.246 OA
BRANCH  29  31
ATOM     31  C   UNL A   1      42.374  20.756  26.638  1.00  0.00     0.060 A 
ATOM     32  C   UNL A   1      42.129  21.153  27.956  1.00  0.00     0.016 A 
ATOM     33  C   UNL A   1      42.771  21.697  25.681  1.00  0.00     0.016 A 
ATOM     34  C   UNL A   1      42.294  22.493  28.320  1.00  0.00     0.010 A 
ATOM     35  C   UNL A   1      42.913  23.039  26.040  1.00  0.00     0.010 A 
ATOM     36  C   UNL A   1      42.695  23.444  27.366  1.00  0.00    -0.014 A 
BRANCH  36  37
ATOM     37  C   UNL A   1      43.054  24.823  27.777  1.00  0.00     0.031 A 
ATOM     38  C   UNL A   1      44.470  25.223  28.069  1.00  0.00     0.074 A 
ATOM     39  C   UNL A   1      42.052  25.708  27.939  1.00  0.00     0.049 A 
ATOM     40  N   UNL A   1      44.920  26.383  28.477  1.00  0.00    -0.248 NA
ATOM     41  C   UNL A   1      45.512  24.203  27.884  1.00  0.00     0.031 C 
ATOM     42  C   UNL A   1      40.637  25.422  27.687  1.00  0.00     0.029 A 
ATOM     43  N   UNL A   1      42.058  27.012  28.366  1.00  0.00    -0.354 N 
ATOM     44  C   UNL A   1      46.297  26.240  28.587  1.00  0.00     0.074 A 
ATOM     45  C   UNL A   1      46.607  24.872  28.230  1.00  0.00     0.031 C 
ATOM     46  C   UNL A   1      39.913  26.513  27.971  1.00  0.00     0.029 A 
ATOM     47  C   UNL A   1      40.803  27.563  28.458  1.00  0.00     0.049 A 
ATOM     48  H   UNL A   1      42.882  27.504  28.586  1.00  0.00     0.167 HD
ATOM     49  C   UNL A   1      47.210  27.174  28.946  1.00  0.00     0.031 A 
ATOM     50  C   UNL A   1      40.403  28.771  28.902  1.00  0.00     0.031 A 
ATOM     51  C   UNL A   1      46.886  28.530  29.314  1.00  0.00     0.049 A 
ATOM     52  C   UNL A   1      41.435  29.767  29.351  1.00  0.00     0.074 A 
ATOM     53  C   UNL A   1      47.754  29.554  29.653  1.00  0.00     0.029 A 
ATOM     54  N   UNL A   1      45.603  29.047  29.405  1.00  0.00    -0.354 N 
ATOM     55  N   UNL A   1      42.739  29.639  29.378  1.00  0.00    -0.248 NA
ATOM     56  C   UNL A   1      40.951  31.076  29.813  1.00  0.00     0.031 C 
ATOM     57  C   UNL A   1      46.997  30.667  30.016  1.00  0.00     0.029 A 
ATOM     58  C   UNL A   1      45.659  30.364  29.828  1.00  0.00     0.049 A 
ATOM     59  H   UNL A   1      44.777  28.552  29.199  1.00  0.00     0.167 HD
ATOM     60  C   UNL A   1      43.232  30.855  29.831  1.00  0.00     0.074 A 
ATOM     61  C   UNL A   1      42.088  31.714  30.058  1.00  0.00     0.031 C 
ATOM     62  C   UNL A   1      44.518  31.220  30.037  1.00  0.00     0.031 A 
BRANCH  49  63
ATOM     63  C   UNL A   1      48.667  26.799  28.959  1.00  0.00    -0.014 A 
ATOM     64  C   UNL A   1      49.413  26.853  27.769  1.00  0.00     0.009 A 
ATOM     65  C   UNL A   1      49.249  26.225  30.099  1.00  0.00     0.009 A 
ATOM     66  C   UNL A   1      50.700  26.313  27.713  1.00  0.00     0.001 A 
ATOM     67  C   UNL A   1      50.547  25.709  30.047  1.00  0.00     0.001 A 
ATOM     68  C   UNL A   1      51.265  25.742  28.852  1.00  0.00     0.000 A 
ENDBRANCH  49  63
BRANCH  50  69
ATOM     69  C   UNL A   1      38.951  29.094  28.928  1.00  0.00    -0.014 A 
ATOM     70  C   UNL A   1      38.333  29.681  27.811  1.00  0.00     0.009 A 
ATOM     71  C   UNL A   1      38.186  28.865  30.080  1.00  0.00     0.009 A 
ATOM     72  C   UNL A   1      36.988  30.054  27.855  1.00  0.00     0.001 A 
ATOM     73  C   UNL A   1      36.833  29.207  30.111  1.00  0.00     0.001 A 
ATOM     74  C   UNL A   1      36.237  29.811  29.004  1.00  0.00     0.000 A 
ENDBRANCH  50  69
BRANCH  62  75
ATOM     75  C   UNL A   1      44.800  32.620  30.508  1.00  0.00    -0.014 A 
ATOM     76  C   UNL A   1      44.785  32.904  31.884  1.00  0.00     0.009 A 
ATOM     77  C   UNL A   1      44.919  33.679  29.595  1.00  0.00     0.009 A 
ATOM     78  C   UNL A   1      44.847  34.223  32.336  1.00  0.00     0.001 A 
ATOM     79  C   UNL A   1      45.009  34.995  30.053  1.00  0.00     0.001 A 
ATOM     80  C   UNL A   1      44.958  35.268  31.420  1.00  0.00     0.000 A 
ENDBRANCH  62  75
ENDBRANCH  36  37
ENDBRANCH  29  31
ENDBRANCH  28  29
ENDBRANCH  27  28
ENDBRANCH  26  27
ENDBRANCH  25  26
ENDBRANCH  24  25
ENDBRANCH   1  24
TORSDOF 21
ENDMDL
