MODEL 1
REMARK VINA RESULT:     -10.2      0.000      0.000
REMARK SMILES O=C(OCCOCCOCCOCCOC(=O)c1nccnc1C(=O)Nc1n[nH]c2ncccc12)c1ccc(-c2c3nc(c(-c4ccccc4)c4ccc([nH]4)c(-c4ccccc4)c4nc(c(-c5ccccc5)c5ccc2[nH]5)C=C4)C=C3)cc1
REMARK SMILES IDX 9 1 8 2 7 3 6 4 5 5 4 6 3 7 2 8 1 9 36 10 37 11 83 12 38 13
REMARK SMILES IDX 82 14 39 15 40 16 41 17 76 18 42 19 81 20 75 21 77 22 43 23
REMARK SMILES IDX 80 24 74 25 73 26 44 28 66 29 51 30 65 31 52 32 55 33 64 34
REMARK SMILES IDX 78 35 53 36 54 37 63 39 79 40 56 41 45 42 46 43 50 44 47 45
REMARK SMILES IDX 49 46 48 47 67 48 68 49 72 50 69 51 71 52 70 53 57 54 58 55
REMARK SMILES IDX 62 56 59 57 61 58 60 59 10 60 11 61 12 62 13 63 14 64 15 65
REMARK SMILES IDX 16 66 17 67 18 68 19 69 23 70 20 71 22 72 21 73 24 74 25 75
REMARK SMILES IDX 26 76 27 78 28 79 35 80 29 81 30 82 34 83 31 85 33 86 32 87
REMARK H PARENT 77 27 55 38 26 77 29 84
REMARK Flexibility Score: inf
ROOT
ATOM      1  O   UNL A   1      35.464  33.835  27.581  1.00  0.00    -0.377 OA
ENDROOT
BRANCH   1   2
ATOM      2  C   UNL A   1      34.519  34.780  28.074  1.00  0.00     0.188 C 
BRANCH   2   3
ATOM      3  C   UNL A   1      33.106  34.252  28.249  1.00  0.00     0.188 C 
BRANCH   3   4
ATOM      4  O   UNL A   1      32.585  34.621  29.515  1.00  0.00    -0.376 OA
BRANCH   4   5
ATOM      5  C   UNL A   1      32.948  35.914  29.975  1.00  0.00     0.202 C 
BRANCH   5   6
ATOM      6  C   UNL A   1      32.686  35.972  31.478  1.00  0.00     0.261 C 
BRANCH   6   7
ATOM      7  O   UNL A   1      33.437  34.953  32.167  1.00  0.00    -0.460 OA
BRANCH   7   8
ATOM      8  C   UNL A   1      34.637  35.089  32.784  1.00  0.00     0.338 C 
ATOM      9  O   UNL A   1      34.833  36.101  33.460  1.00  0.00    -0.246 OA
BRANCH   8  10
ATOM     10  C   UNL A   1      35.719  34.046  32.788  1.00  0.00     0.060 A 
ATOM     11  C   UNL A   1      35.655  32.778  33.378  1.00  0.00     0.016 A 
ATOM     12  C   UNL A   1      36.866  34.353  32.034  1.00  0.00     0.016 A 
ATOM     13  C   UNL A   1      36.658  31.831  33.196  1.00  0.00     0.010 A 
ATOM     14  C   UNL A   1      37.902  33.428  31.884  1.00  0.00     0.010 A 
ATOM     15  C   UNL A   1      37.795  32.162  32.470  1.00  0.00    -0.014 A 
BRANCH  15  16
ATOM     16  C   UNL A   1      38.958  31.267  32.547  1.00  0.00     0.031 A 
ATOM     17  C   UNL A   1      39.919  31.506  33.670  1.00  0.00     0.074 A 
ATOM     18  C   UNL A   1      39.106  30.244  31.689  1.00  0.00     0.049 A 
ATOM     19  N   UNL A   1      41.095  30.986  33.880  1.00  0.00    -0.248 NA
ATOM     20  C   UNL A   1      39.487  32.465  34.705  1.00  0.00     0.031 C 
ATOM     21  C   UNL A   1      38.142  29.849  30.662  1.00  0.00     0.029 A 
ATOM     22  N   UNL A   1      40.136  29.351  31.548  1.00  0.00    -0.354 N 
ATOM     23  C   UNL A   1      41.563  31.592  35.039  1.00  0.00     0.074 A 
ATOM     24  C   UNL A   1      40.540  32.496  35.504  1.00  0.00     0.031 C 
ATOM     25  C   UNL A   1      38.639  28.803  29.978  1.00  0.00     0.029 A 
ATOM     26  C   UNL A   1      39.980  28.507  30.475  1.00  0.00     0.049 A 
ATOM     27  H   UNL A   1      40.909  29.317  32.154  1.00  0.00     0.167 HD
ATOM     28  C   UNL A   1      42.763  31.425  35.635  1.00  0.00     0.031 A 
ATOM     29  C   UNL A   1      40.860  27.645  29.929  1.00  0.00     0.031 A 
ATOM     30  C   UNL A   1      43.763  30.529  35.133  1.00  0.00     0.049 A 
ATOM     31  C   UNL A   1      42.235  27.558  30.548  1.00  0.00     0.074 A 
ATOM     32  C   UNL A   1      45.033  30.289  35.619  1.00  0.00     0.029 A 
ATOM     33  N   UNL A   1      43.594  29.726  34.013  1.00  0.00    -0.354 N 
ATOM     34  N   UNL A   1      42.699  28.160  31.619  1.00  0.00    -0.248 NA
ATOM     35  C   UNL A   1      43.215  26.699  29.870  1.00  0.00     0.031 C 
ATOM     36  C   UNL A   1      45.656  29.386  34.753  1.00  0.00     0.029 A 
ATOM     37  C   UNL A   1      44.752  29.017  33.766  1.00  0.00     0.049 A 
ATOM     38  H   UNL A   1      42.772  29.671  33.475  1.00  0.00     0.167 HD
ATOM     39  C   UNL A   1      44.017  27.745  31.751  1.00  0.00     0.074 A 
ATOM     40  C   UNL A   1      44.271  26.819  30.664  1.00  0.00     0.031 C 
ATOM     41  C   UNL A   1      44.946  28.099  32.673  1.00  0.00     0.031 A 
BRANCH  28  42
ATOM     42  C   UNL A   1      43.077  32.306  36.809  1.00  0.00    -0.014 A 
ATOM     43  C   UNL A   1      43.658  33.572  36.653  1.00  0.00     0.009 A 
ATOM     44  C   UNL A   1      42.798  31.838  38.103  1.00  0.00     0.009 A 
ATOM     45  C   UNL A   1      43.983  34.341  37.775  1.00  0.00     0.001 A 
ATOM     46  C   UNL A   1      43.101  32.618  39.220  1.00  0.00     0.001 A 
ATOM     47  C   UNL A   1      43.701  33.864  39.056  1.00  0.00     0.000 A 
ENDBRANCH  28  42
BRANCH  29  48
ATOM     48  C   UNL A   1      40.528  26.892  28.687  1.00  0.00    -0.014 A 
ATOM     49  C   UNL A   1      39.757  25.720  28.731  1.00  0.00     0.009 A 
ATOM     50  C   UNL A   1      41.027  27.318  27.444  1.00  0.00     0.009 A 
ATOM     51  C   UNL A   1      39.522  24.978  27.568  1.00  0.00     0.001 A 
ATOM     52  C   UNL A   1      40.763  26.594  26.279  1.00  0.00     0.001 A 
ATOM     53  C   UNL A   1      40.021  25.418  26.343  1.00  0.00     0.000 A 
ENDBRANCH  29  48
BRANCH  41  54
ATOM     54  C   UNL A   1      46.301  27.466  32.557  1.00  0.00    -0.014 A 
ATOM     55  C   UNL A   1      46.539  26.176  33.052  1.00  0.00     0.009 A 
ATOM     56  C   UNL A   1      47.319  28.136  31.863  1.00  0.00     0.009 A 
ATOM     57  C   UNL A   1      47.784  25.574  32.868  1.00  0.00     0.001 A 
ATOM     58  C   UNL A   1      48.552  27.520  31.654  1.00  0.00     0.001 A 
ATOM     59  C   UNL A   1      48.785  26.243  32.162  1.00  0.00     0.000 A 
ENDBRANCH  41  54
ENDBRANCH  15  16
ENDBRANCH   8  10
ENDBRANCH   7   8
ENDBRANCH   6   7
ENDBRANCH   5   6
ENDBRANCH   4   5
ENDBRANCH   3   4
ENDBRANCH   2   3
ENDBRANCH   1   2
BRANCH   1  60
ATOM     60  C   UNL A   1      36.183  32.986  28.487  1.00  0.00     0.188 C 
BRANCH  60  61
ATOM     61  C   UNL A   1      36.326  31.464  28.254  1.00  0.00     0.188 C 
BRANCH  61  62
ATOM     62  O   UNL A   1      35.128  30.730  28.461  1.00  0.00    -0.376 OA
BRANCH  62  63
ATOM     63  C   UNL A   1      34.320  30.439  27.320  1.00  0.00     0.202 C 
BRANCH  63  64
ATOM     64  C   UNL A   1      34.468  28.845  26.831  1.00  0.00     0.261 C 
BRANCH  64  65
ATOM     65  O   UNL A   1      33.016  27.468  26.449  1.00  0.00    -0.458 OA
BRANCH  65  66
ATOM     66  C   UNL A   1      31.747  26.789  26.356  1.00  0.00     0.359 C 
ATOM     67  O   UNL A   1      30.896  26.940  27.230  1.00  0.00    -0.244 OA
BRANCH  66  68
ATOM     68  C   UNL A   1      31.420  25.837  25.221  1.00  0.00     0.179 A 
ATOM     69  N   UNL A   1      31.618  26.480  24.012  1.00  0.00    -0.245 NA
ATOM     70  C   UNL A   1      30.943  24.514  25.268  1.00  0.00     0.161 A 
ATOM     71  C   UNL A   1      31.339  25.794  22.885  1.00  0.00     0.132 A 
ATOM     72  N   UNL A   1      30.633  23.876  24.081  1.00  0.00    -0.247 NA
ATOM     73  C   UNL A   1      30.843  24.516  22.918  1.00  0.00     0.132 A 
BRANCH  70  74
ATOM     74  C   UNL A   1      30.696  23.527  26.398  1.00  0.00     0.278 C 
ATOM     75  O   UNL A   1      29.882  23.845  27.278  1.00  0.00    -0.267 OA
ATOM     76  N   UNL A   1      31.248  22.291  26.576  1.00  0.00    -0.303 N 
ATOM     77  H   UNL A   1      30.823  21.747  27.278  1.00  0.00     0.172 HD
BRANCH  76  78
ATOM     78  C   UNL A   1      32.283  21.692  25.946  1.00  0.00     0.164 A 
ATOM     79  N   UNL A   1      32.013  20.755  25.024  1.00  0.00    -0.155 NA
ATOM     80  C   UNL A   1      33.636  22.030  26.050  1.00  0.00     0.063 A 
ATOM     81  N   UNL A   1      32.994  20.802  24.075  1.00  0.00    -0.259 N 
ATOM     82  C   UNL A   1      34.078  21.544  24.422  1.00  0.00     0.157 A 
ATOM     83  C   UNL A   1      34.736  23.200  26.915  1.00  0.00     0.017 A 
ATOM     84  H   UNL A   1      32.921  20.337  23.209  1.00  0.00     0.192 HD
ATOM     85  N   UNL A   1      35.400  22.175  23.546  1.00  0.00    -0.237 NA
ATOM     86  C   UNL A   1      36.107  23.933  26.025  1.00  0.00     0.021 A 
ATOM     87  C   UNL A   1      36.381  23.369  24.393  1.00  0.00     0.113 A 
ENDBRANCH  76  78
ENDBRANCH  70  74
ENDBRANCH  66  68
ENDBRANCH  65  66
ENDBRANCH  64  65
ENDBRANCH  63  64
ENDBRANCH  62  63
ENDBRANCH  61  62
ENDBRANCH  60  61
ENDBRANCH   1  60
TORSDOF 22
ENDMDL
MODEL 2
REMARK VINA RESULT:      -9.6      4.667      9.964
REMARK SMILES O=C(OCCOCCOCCOCCOC(=O)c1nccnc1C(=O)Nc1n[nH]c2ncccc12)c1ccc(-c2c3nc(c(-c4ccccc4)c4ccc([nH]4)c(-c4ccccc4)c4nc(c(-c5ccccc5)c5ccc2[nH]5)C=C4)C=C3)cc1
REMARK SMILES IDX 9 1 8 2 7 3 6 4 5 5 4 6 3 7 2 8 1 9 36 10 37 11 83 12 38 13
REMARK SMILES IDX 82 14 39 15 40 16 41 17 76 18 42 19 81 20 75 21 77 22 43 23
REMARK SMILES IDX 80 24 74 25 73 26 44 28 66 29 51 30 65 31 52 32 55 33 64 34
REMARK SMILES IDX 78 35 53 36 54 37 63 39 79 40 56 41 45 42 46 43 50 44 47 45
REMARK SMILES IDX 49 46 48 47 67 48 68 49 72 50 69 51 71 52 70 53 57 54 58 55
REMARK SMILES IDX 62 56 59 57 61 58 60 59 10 60 11 61 12 62 13 63 14 64 15 65
REMARK SMILES IDX 16 66 17 67 18 68 19 69 23 70 20 71 22 72 21 73 24 74 25 75
REMARK SMILES IDX 26 76 27 78 28 79 35 80 29 81 30 82 34 83 31 85 33 86 32 87
REMARK H PARENT 77 27 55 38 26 77 29 84
REMARK Flexibility Score: inf
ROOT
ATOM      1  O   UNL A   1      40.655  21.012  27.224  1.00  0.00    -0.377 OA
ENDROOT
BRANCH   1   2
ATOM      2  C   UNL A   1      40.293  20.050  26.238  1.00  0.00     0.188 C 
BRANCH   2   3
ATOM      3  C   UNL A   1      41.346  18.995  25.946  1.00  0.00     0.188 C 
BRANCH   3   4
ATOM      4  O   UNL A   1      42.606  19.384  26.466  1.00  0.00    -0.376 OA
BRANCH   4   5
ATOM      5  C   UNL A   1      43.737  18.813  25.826  1.00  0.00     0.202 C 
BRANCH   5   6
ATOM      6  C   UNL A   1      44.311  19.852  24.865  1.00  0.00     0.261 C 
BRANCH   6   7
ATOM      7  O   UNL A   1      43.744  21.152  25.120  1.00  0.00    -0.460 OA
BRANCH   7   8
ATOM      8  C   UNL A   1      44.133  22.339  24.591  1.00  0.00     0.338 C 
ATOM      9  O   UNL A   1      44.463  22.369  23.404  1.00  0.00    -0.246 OA
BRANCH   8  10
ATOM     10  C   UNL A   1      44.097  23.652  25.321  1.00  0.00     0.060 A 
ATOM     11  C   UNL A   1      43.769  24.901  24.779  1.00  0.00     0.016 A 
ATOM     12  C   UNL A   1      44.320  23.587  26.708  1.00  0.00     0.016 A 
ATOM     13  C   UNL A   1      43.620  26.033  25.575  1.00  0.00     0.010 A 
ATOM     14  C   UNL A   1      44.221  24.726  27.511  1.00  0.00     0.010 A 
ATOM     15  C   UNL A   1      43.870  25.953  26.939  1.00  0.00    -0.014 A 
BRANCH  15  16
ATOM     16  C   UNL A   1      44.004  27.204  27.698  1.00  0.00     0.031 A 
ATOM     17  C   UNL A   1      42.741  27.815  28.219  1.00  0.00     0.074 A 
ATOM     18  C   UNL A   1      45.211  27.731  27.965  1.00  0.00     0.049 A 
ATOM     19  N   UNL A   1      42.547  28.981  28.767  1.00  0.00    -0.248 NA
ATOM     20  C   UNL A   1      41.524  26.987  28.109  1.00  0.00     0.031 C 
ATOM     21  C   UNL A   1      46.498  27.122  27.624  1.00  0.00     0.029 A 
ATOM     22  N   UNL A   1      45.546  28.906  28.584  1.00  0.00    -0.354 N 
ATOM     23  C   UNL A   1      41.183  29.046  29.020  1.00  0.00     0.074 A 
ATOM     24  C   UNL A   1      40.598  27.799  28.593  1.00  0.00     0.031 C 
ATOM     25  C   UNL A   1      47.486  27.944  28.021  1.00  0.00     0.029 A 
ATOM     26  C   UNL A   1      46.896  29.160  28.574  1.00  0.00     0.049 A 
ATOM     27  H   UNL A   1      44.886  29.507  28.995  1.00  0.00     0.167 HD
ATOM     28  C   UNL A   1      40.484  30.081  29.533  1.00  0.00     0.031 A 
ATOM     29  C   UNL A   1      47.558  30.283  28.916  1.00  0.00     0.031 A 
ATOM     30  C   UNL A   1      41.098  31.314  29.930  1.00  0.00     0.049 A 
ATOM     31  C   UNL A   1      46.743  31.466  29.382  1.00  0.00     0.074 A 
ATOM     32  C   UNL A   1      40.504  32.456  30.432  1.00  0.00     0.029 A 
ATOM     33  N   UNL A   1      42.463  31.560  29.859  1.00  0.00    -0.354 N 
ATOM     34  N   UNL A   1      45.447  31.549  29.584  1.00  0.00    -0.248 NA
ATOM     35  C   UNL A   1      47.472  32.714  29.641  1.00  0.00     0.031 C 
ATOM     36  C   UNL A   1      41.505  33.415  30.604  1.00  0.00     0.029 A 
ATOM     37  C   UNL A   1      42.728  32.850  30.270  1.00  0.00     0.049 A 
ATOM     38  H   UNL A   1      43.139  30.911  29.559  1.00  0.00     0.167 HD
ATOM     39  C   UNL A   1      45.208  32.850  30.002  1.00  0.00     0.074 A 
ATOM     40  C   UNL A   1      46.497  33.514  30.051  1.00  0.00     0.031 C 
ATOM     41  C   UNL A   1      44.034  33.457  30.308  1.00  0.00     0.031 A 
BRANCH  28  42
ATOM     42  C   UNL A   1      38.990  29.947  29.578  1.00  0.00    -0.014 A 
ATOM     43  C   UNL A   1      38.181  30.264  28.477  1.00  0.00     0.009 A 
ATOM     44  C   UNL A   1      38.382  29.511  30.766  1.00  0.00     0.009 A 
ATOM     45  C   UNL A   1      36.789  30.176  28.576  1.00  0.00     0.001 A 
ATOM     46  C   UNL A   1      36.994  29.400  30.854  1.00  0.00     0.001 A 
ATOM     47  C   UNL A   1      36.198  29.741  29.763  1.00  0.00     0.000 A 
ENDBRANCH  28  42
BRANCH  29  48
ATOM     48  C   UNL A   1      49.032  30.392  28.728  1.00  0.00    -0.014 A 
ATOM     49  C   UNL A   1      49.923  30.080  29.767  1.00  0.00     0.009 A 
ATOM     50  C   UNL A   1      49.559  30.864  27.513  1.00  0.00     0.009 A 
ATOM     51  C   UNL A   1      51.301  30.266  29.603  1.00  0.00     0.001 A 
ATOM     52  C   UNL A   1      50.937  31.017  27.341  1.00  0.00     0.001 A 
ATOM     53  C   UNL A   1      51.806  30.730  28.389  1.00  0.00     0.000 A 
ENDBRANCH  29  48
BRANCH  41  54
ATOM     54  C   UNL A   1      44.098  34.891  30.744  1.00  0.00    -0.014 A 
ATOM     55  C   UNL A   1      43.985  35.933  29.813  1.00  0.00     0.009 A 
ATOM     56  C   UNL A   1      44.181  35.194  32.112  1.00  0.00     0.009 A 
ATOM     57  C   UNL A   1      43.971  37.260  30.246  1.00  0.00     0.001 A 
ATOM     58  C   UNL A   1      44.135  36.519  32.542  1.00  0.00     0.001 A 
ATOM     59  C   UNL A   1      44.037  37.550  31.609  1.00  0.00     0.000 A 
ENDBRANCH  41  54
ENDBRANCH  15  16
ENDBRANCH   8  10
ENDBRANCH   7   8
ENDBRANCH   6   7
ENDBRANCH   5   6
ENDBRANCH   4   5
ENDBRANCH   3   4
ENDBRANCH   2   3
ENDBRANCH   1   2
BRANCH   1  60
ATOM     60  C   UNL A   1      40.865  22.383  26.860  1.00  0.00     0.188 C 
BRANCH  60  61
ATOM     61  C   UNL A   1      40.773  23.533  27.889  1.00  0.00     0.188 C 
BRANCH  61  62
ATOM     62  O   UNL A   1      39.484  24.124  27.986  1.00  0.00    -0.376 OA
BRANCH  62  63
ATOM     63  C   UNL A   1      38.900  24.647  26.793  1.00  0.00     0.202 C 
BRANCH  63  64
ATOM     64  C   UNL A   1      38.085  23.474  25.921  1.00  0.00     0.261 C 
BRANCH  64  65
ATOM     65  O   UNL A   1      36.179  23.485  25.204  1.00  0.00    -0.458 OA
BRANCH  65  66
ATOM     66  C   UNL A   1      34.773  23.752  25.022  1.00  0.00     0.359 C 
ATOM     67  O   UNL A   1      34.303  24.845  25.332  1.00  0.00    -0.244 OA
BRANCH  66  68
ATOM     68  C   UNL A   1      33.812  22.705  24.492  1.00  0.00     0.179 A 
ATOM     69  N   UNL A   1      33.736  21.655  25.390  1.00  0.00    -0.245 NA
ATOM     70  C   UNL A   1      33.095  22.676  23.281  1.00  0.00     0.161 A 
ATOM     71  C   UNL A   1      32.952  20.607  25.064  1.00  0.00     0.132 A 
ATOM     72  N   UNL A   1      32.341  21.556  22.982  1.00  0.00    -0.247 NA
ATOM     73  C   UNL A   1      32.274  20.553  23.874  1.00  0.00     0.132 A 
BRANCH  70  74
ATOM     74  C   UNL A   1      32.909  23.671  22.147  1.00  0.00     0.278 C 
ATOM     75  O   UNL A   1      33.570  23.500  21.111  1.00  0.00    -0.267 OA
ATOM     76  N   UNL A   1      32.077  24.752  22.099  1.00  0.00    -0.303 N 
ATOM     77  H   UNL A   1      31.984  25.162  21.209  1.00  0.00     0.172 HD
BRANCH  76  78
ATOM     78  C   UNL A   1      31.358  25.351  23.075  1.00  0.00     0.164 A 
ATOM     79  N   UNL A   1      30.251  24.738  23.521  1.00  0.00    -0.155 NA
ATOM     80  C   UNL A   1      31.707  26.505  23.784  1.00  0.00     0.063 A 
ATOM     81  N   UNL A   1      30.099  25.050  24.842  1.00  0.00    -0.259 N 
ATOM     82  C   UNL A   1      30.895  26.063  25.276  1.00  0.00     0.157 A 
ATOM     83  C   UNL A   1      33.028  27.759  23.877  1.00  0.00     0.017 A 
ATOM     84  H   UNL A   1      29.466  24.579  25.432  1.00  0.00     0.192 HD
ATOM     85  N   UNL A   1      31.328  26.636  26.824  1.00  0.00    -0.237 NA
ATOM     86  C   UNL A   1      33.559  28.355  25.480  1.00  0.00     0.021 A 
ATOM     87  C   UNL A   1      32.669  27.779  26.870  1.00  0.00     0.113 A 
ENDBRANCH  76  78
ENDBRANCH  70  74
ENDBRANCH  66  68
ENDBRANCH  65  66
ENDBRANCH  64  65
ENDBRANCH  63  64
ENDBRANCH  62  63
ENDBRANCH  61  62
ENDBRANCH  60  61
ENDBRANCH   1  60
TORSDOF 22
ENDMDL
MODEL 3
REMARK VINA RESULT:      -9.5      1.453      3.008
REMARK SMILES O=C(OCCOCCOCCOCCOC(=O)c1nccnc1C(=O)Nc1n[nH]c2ncccc12)c1ccc(-c2c3nc(c(-c4ccccc4)c4ccc([nH]4)c(-c4ccccc4)c4nc(c(-c5ccccc5)c5ccc2[nH]5)C=C4)C=C3)cc1
REMARK SMILES IDX 9 1 8 2 7 3 6 4 5 5 4 6 3 7 2 8 1 9 36 10 37 11 83 12 38 13
REMARK SMILES IDX 82 14 39 15 40 16 41 17 76 18 42 19 81 20 75 21 77 22 43 23
REMARK SMILES IDX 80 24 74 25 73 26 44 28 66 29 51 30 65 31 52 32 55 33 64 34
REMARK SMILES IDX 78 35 53 36 54 37 63 39 79 40 56 41 45 42 46 43 50 44 47 45
REMARK SMILES IDX 49 46 48 47 67 48 68 49 72 50 69 51 71 52 70 53 57 54 58 55
REMARK SMILES IDX 62 56 59 57 61 58 60 59 10 60 11 61 12 62 13 63 14 64 15 65
REMARK SMILES IDX 16 66 17 67 18 68 19 69 23 70 20 71 22 72 21 73 24 74 25 75
REMARK SMILES IDX 26 76 27 78 28 79 35 80 29 81 30 82 34 83 31 85 33 86 32 87
REMARK H PARENT 77 27 55 38 26 77 29 84
REMARK Flexibility Score: inf
ROOT
ATOM      1  O   UNL A   1      35.514  33.137  28.212  1.00  0.00    -0.377 OA
ENDROOT
BRANCH   1   2
ATOM      2  C   UNL A   1      34.941  34.417  28.459  1.00  0.00     0.188 C 
BRANCH   2   3
ATOM      3  C   UNL A   1      33.547  34.622  27.893  1.00  0.00     0.188 C 
BRANCH   3   4
ATOM      4  O   UNL A   1      32.656  35.072  28.899  1.00  0.00    -0.376 OA
BRANCH   4   5
ATOM      5  C   UNL A   1      33.128  36.143  29.702  1.00  0.00     0.202 C 
BRANCH   5   6
ATOM      6  C   UNL A   1      32.557  35.969  31.108  1.00  0.00     0.261 C 
BRANCH   6   7
ATOM      7  O   UNL A   1      33.221  34.894  31.799  1.00  0.00    -0.460 OA
BRANCH   7   8
ATOM      8  C   UNL A   1      34.309  34.979  32.605  1.00  0.00     0.338 C 
ATOM      9  O   UNL A   1      34.357  35.899  33.424  1.00  0.00    -0.246 OA
BRANCH   8  10
ATOM     10  C   UNL A   1      35.425  33.973  32.646  1.00  0.00     0.060 A 
ATOM     11  C   UNL A   1      35.463  32.798  33.407  1.00  0.00     0.016 A 
ATOM     12  C   UNL A   1      36.484  34.198  31.749  1.00  0.00     0.016 A 
ATOM     13  C   UNL A   1      36.478  31.858  33.258  1.00  0.00     0.010 A 
ATOM     14  C   UNL A   1      37.535  33.285  31.626  1.00  0.00     0.010 A 
ATOM     15  C   UNL A   1      37.529  32.112  32.387  1.00  0.00    -0.014 A 
BRANCH  15  16
ATOM     16  C   UNL A   1      38.726  31.263  32.472  1.00  0.00     0.031 A 
ATOM     17  C   UNL A   1      39.678  31.551  33.591  1.00  0.00     0.074 A 
ATOM     18  C   UNL A   1      38.914  30.238  31.624  1.00  0.00     0.049 A 
ATOM     19  N   UNL A   1      40.874  31.079  33.805  1.00  0.00    -0.248 NA
ATOM     20  C   UNL A   1      39.210  32.503  34.616  1.00  0.00     0.031 C 
ATOM     21  C   UNL A   1      37.965  29.796  30.601  1.00  0.00     0.029 A 
ATOM     22  N   UNL A   1      39.977  29.385  31.490  1.00  0.00    -0.354 N 
ATOM     23  C   UNL A   1      41.318  31.715  34.957  1.00  0.00     0.074 A 
ATOM     24  C   UNL A   1      40.261  32.583  35.415  1.00  0.00     0.031 C 
ATOM     25  C   UNL A   1      38.502  28.763  29.927  1.00  0.00     0.029 A 
ATOM     26  C   UNL A   1      39.854  28.524  30.426  1.00  0.00     0.049 A 
ATOM     27  H   UNL A   1      40.752  29.387  32.095  1.00  0.00     0.167 HD
ATOM     28  C   UNL A   1      42.524  31.600  35.554  1.00  0.00     0.031 A 
ATOM     29  C   UNL A   1      40.767  27.693  29.887  1.00  0.00     0.031 A 
ATOM     30  C   UNL A   1      43.558  30.739  35.059  1.00  0.00     0.049 A 
ATOM     31  C   UNL A   1      42.144  27.665  30.505  1.00  0.00     0.074 A 
ATOM     32  C   UNL A   1      44.837  30.554  35.546  1.00  0.00     0.029 A 
ATOM     33  N   UNL A   1      43.420  29.919  33.948  1.00  0.00    -0.354 N 
ATOM     34  N   UNL A   1      42.586  28.295  31.570  1.00  0.00    -0.248 NA
ATOM     35  C   UNL A   1      43.156  26.838  29.835  1.00  0.00     0.031 C 
ATOM     36  C   UNL A   1      45.494  29.667  34.688  1.00  0.00     0.029 A 
ATOM     37  C   UNL A   1      44.605  29.253  33.706  1.00  0.00     0.049 A 
ATOM     38  H   UNL A   1      42.600  29.827  33.411  1.00  0.00     0.167 HD
ATOM     39  C   UNL A   1      43.918  27.933  31.704  1.00  0.00     0.074 A 
ATOM     40  C   UNL A   1      44.207  27.007  30.626  1.00  0.00     0.031 C 
ATOM     41  C   UNL A   1      44.834  28.333  32.622  1.00  0.00     0.031 A 
BRANCH  28  42
ATOM     42  C   UNL A   1      42.804  32.504  36.718  1.00  0.00    -0.014 A 
ATOM     43  C   UNL A   1      43.341  33.789  36.550  1.00  0.00     0.009 A 
ATOM     44  C   UNL A   1      42.540  32.042  38.017  1.00  0.00     0.009 A 
ATOM     45  C   UNL A   1      43.636  34.581  37.663  1.00  0.00     0.001 A 
ATOM     46  C   UNL A   1      42.813  32.844  39.125  1.00  0.00     0.001 A 
ATOM     47  C   UNL A   1      43.369  34.109  38.949  1.00  0.00     0.000 A 
ENDBRANCH  28  42
BRANCH  29  48
ATOM     48  C   UNL A   1      40.463  26.915  28.654  1.00  0.00    -0.014 A 
ATOM     49  C   UNL A   1      39.712  25.730  28.706  1.00  0.00     0.009 A 
ATOM     50  C   UNL A   1      40.971  27.330  27.410  1.00  0.00     0.009 A 
ATOM     51  C   UNL A   1      39.504  24.966  27.552  1.00  0.00     0.001 A 
ATOM     52  C   UNL A   1      40.734  26.583  26.253  1.00  0.00     0.001 A 
ATOM     53  C   UNL A   1      40.012  25.396  26.326  1.00  0.00     0.000 A 
ENDBRANCH  29  48
BRANCH  41  54
ATOM     54  C   UNL A   1      46.212  27.752  32.511  1.00  0.00    -0.014 A 
ATOM     55  C   UNL A   1      47.235  28.444  31.848  1.00  0.00     0.009 A 
ATOM     56  C   UNL A   1      46.506  26.543  33.159  1.00  0.00     0.009 A 
ATOM     57  C   UNL A   1      48.529  27.923  31.820  1.00  0.00     0.001 A 
ATOM     58  C   UNL A   1      47.807  26.041  33.156  1.00  0.00     0.001 A 
ATOM     59  C   UNL A   1      48.814  26.728  32.482  1.00  0.00     0.000 A 
ENDBRANCH  41  54
ENDBRANCH  15  16
ENDBRANCH   8  10
ENDBRANCH   7   8
ENDBRANCH   6   7
ENDBRANCH   5   6
ENDBRANCH   4   5
ENDBRANCH   3   4
ENDBRANCH   2   3
ENDBRANCH   1   2
BRANCH   1  60
ATOM     60  C   UNL A   1      34.850  31.944  28.653  1.00  0.00     0.188 C 
BRANCH  60  61
ATOM     61  C   UNL A   1      33.540  31.442  28.003  1.00  0.00     0.188 C 
BRANCH  61  62
ATOM     62  O   UNL A   1      33.708  30.904  26.699  1.00  0.00    -0.376 OA
BRANCH  62  63
ATOM     63  C   UNL A   1      34.469  29.704  26.567  1.00  0.00     0.202 C 
BRANCH  63  64
ATOM     64  C   UNL A   1      33.640  28.365  27.132  1.00  0.00     0.261 C 
BRANCH  64  65
ATOM     65  O   UNL A   1      33.593  26.466  26.397  1.00  0.00    -0.458 OA
BRANCH  65  66
ATOM     66  C   UNL A   1      33.883  25.266  25.649  1.00  0.00     0.359 C 
ATOM     67  O   UNL A   1      34.976  25.123  25.105  1.00  0.00    -0.244 OA
BRANCH  66  68
ATOM     68  C   UNL A   1      32.860  24.162  25.463  1.00  0.00     0.179 A 
ATOM     69  N   UNL A   1      32.341  23.804  26.695  1.00  0.00    -0.245 NA
ATOM     70  C   UNL A   1      32.456  23.501  24.288  1.00  0.00     0.161 A 
ATOM     71  C   UNL A   1      31.438  22.803  26.728  1.00  0.00     0.132 A 
ATOM     72  N   UNL A   1      31.559  22.454  24.388  1.00  0.00    -0.247 NA
ATOM     73  C   UNL A   1      31.061  22.130  25.595  1.00  0.00     0.132 A 
BRANCH  70  74
ATOM     74  C   UNL A   1      32.771  23.696  22.813  1.00  0.00     0.278 C 
ATOM     75  O   UNL A   1      33.105  22.700  22.154  1.00  0.00    -0.267 OA
ATOM     76  N   UNL A   1      32.716  24.849  22.083  1.00  0.00    -0.303 N 
ATOM     77  H   UNL A   1      32.791  24.724  21.110  1.00  0.00     0.172 HD
BRANCH  76  78
ATOM     78  C   UNL A   1      32.576  26.134  22.480  1.00  0.00     0.164 A 
ATOM     79  N   UNL A   1      33.520  27.019  22.123  1.00  0.00    -0.155 NA
ATOM     80  C   UNL A   1      31.471  26.695  23.128  1.00  0.00     0.063 A 
ATOM     81  N   UNL A   1      32.921  28.235  21.966  1.00  0.00    -0.259 N 
ATOM     82  C   UNL A   1      31.653  28.305  22.452  1.00  0.00     0.157 A 
ATOM     83  C   UNL A   1      29.835  26.231  23.786  1.00  0.00     0.017 A 
ATOM     84  H   UNL A   1      33.369  28.999  21.536  1.00  0.00     0.192 HD
ATOM     85  N   UNL A   1      30.381  29.426  22.260  1.00  0.00    -0.237 NA
ATOM     86  C   UNL A   1      28.453  27.348  23.563  1.00  0.00     0.021 A 
ATOM     87  C   UNL A   1      28.800  28.897  22.830  1.00  0.00     0.113 A 
ENDBRANCH  76  78
ENDBRANCH  70  74
ENDBRANCH  66  68
ENDBRANCH  65  66
ENDBRANCH  64  65
ENDBRANCH  63  64
ENDBRANCH  62  63
ENDBRANCH  61  62
ENDBRANCH  60  61
ENDBRANCH   1  60
TORSDOF 22
ENDMDL
