MODEL 1
REMARK VINA RESULT:     -12.1      0.000      0.000
REMARK SMILES O=C(OCCOCCOCCOCCOC(=O)[C@@H]1C[NH2+]CCN1C(=O)N[C@@H]1CCOC1)c1ccc(-c2c3nc(c(-c4ccccc4)c4ccc([nH]4)c(-c4ccccc4)c4nc(c(-c5ccccc5)c5ccc2[nH]5)C=C4)C=C3)cc1
REMARK SMILES IDX 9 1 8 2 7 3 6 4 5 5 4 6 3 7 2 8 1 9 32 10 33 11 79 12 34 13
REMARK SMILES IDX 78 14 35 15 36 16 37 17 72 18 38 19 77 20 71 21 73 22 39 23
REMARK SMILES IDX 76 24 70 25 69 26 40 28 62 29 47 30 61 31 48 32 51 33 60 34
REMARK SMILES IDX 74 35 49 36 50 37 59 39 75 40 52 41 41 42 42 43 46 44 43 45
REMARK SMILES IDX 45 46 44 47 63 48 64 49 68 50 65 51 67 52 66 53 53 54 54 55
REMARK SMILES IDX 58 56 55 57 57 58 56 59 10 60 11 61 12 62 13 63 14 64 15 65
REMARK SMILES IDX 16 66 17 67 18 68 19 69 23 70 20 71 22 72 21 73 24 76 25 77
REMARK SMILES IDX 26 78 27 80 28 81 31 82 29 83 30 84
REMARK H PARENT 73 27 51 38 20 74 20 75 26 79
REMARK Flexibility Score: inf
ROOT
ATOM      1  O   UNL A   1      39.921  21.938  26.284  1.00  0.00    -0.377 OA
ENDROOT
BRANCH   1   2
ATOM      2  C   UNL A   1      40.953  21.196  26.922  1.00  0.00     0.188 C 
BRANCH   2   3
ATOM      3  C   UNL A   1      42.256  21.162  26.188  1.00  0.00     0.188 C 
BRANCH   3   4
ATOM      4  O   UNL A   1      42.303  22.225  25.262  1.00  0.00    -0.376 OA
BRANCH   4   5
ATOM      5  C   UNL A   1      43.419  23.031  24.955  1.00  0.00     0.202 C 
BRANCH   5   6
ATOM      6  C   UNL A   1      43.523  24.392  25.573  1.00  0.00     0.261 C 
BRANCH   6   7
ATOM      7  O   UNL A   1      42.523  25.405  25.287  1.00  0.00    -0.460 OA
BRANCH   7   8
ATOM      8  C   UNL A   1      42.334  26.737  25.272  1.00  0.00     0.338 C 
ATOM      9  O   UNL A   1      42.703  27.356  24.274  1.00  0.00    -0.246 OA
BRANCH   8  10
ATOM     10  C   UNL A   1      41.677  27.537  26.339  1.00  0.00     0.060 A 
ATOM     11  C   UNL A   1      41.899  28.877  26.591  1.00  0.00     0.016 A 
ATOM     12  C   UNL A   1      40.666  26.934  27.088  1.00  0.00     0.016 A 
ATOM     13  C   UNL A   1      41.402  29.556  27.666  1.00  0.00     0.010 A 
ATOM     14  C   UNL A   1      40.039  27.632  28.125  1.00  0.00     0.010 A 
ATOM     15  C   UNL A   1      40.477  28.922  28.451  1.00  0.00    -0.014 A 
BRANCH  15  16
ATOM     16  C   UNL A   1      40.245  29.553  29.742  1.00  0.00     0.031 A 
ATOM     17  C   UNL A   1      39.061  30.457  29.817  1.00  0.00     0.074 A 
ATOM     18  C   UNL A   1      40.914  29.133  30.828  1.00  0.00     0.049 A 
ATOM     19  N   UNL A   1      38.713  31.280  30.757  1.00  0.00    -0.248 NA
ATOM     20  C   UNL A   1      38.138  30.428  28.662  1.00  0.00     0.031 C 
ATOM     21  C   UNL A   1      41.887  28.032  30.865  1.00  0.00     0.029 A 
ATOM     22  N   UNL A   1      40.851  29.564  32.118  1.00  0.00    -0.354 N 
ATOM     23  C   UNL A   1      37.590  31.931  30.270  1.00  0.00     0.074 A 
ATOM     24  C   UNL A   1      37.295  31.399  28.963  1.00  0.00     0.031 C 
ATOM     25  C   UNL A   1      42.341  27.891  32.120  1.00  0.00     0.029 A 
ATOM     26  C   UNL A   1      41.773  28.956  32.932  1.00  0.00     0.049 A 
ATOM     27  H   UNL A   1      40.211  30.242  32.434  1.00  0.00     0.167 HD
ATOM     28  C   UNL A   1      36.900  32.920  30.875  1.00  0.00     0.031 A 
ATOM     29  C   UNL A   1      42.160  29.303  34.168  1.00  0.00     0.031 A 
ATOM     30  C   UNL A   1      37.264  33.401  32.175  1.00  0.00     0.049 A 
ATOM     31  C   UNL A   1      41.490  30.509  34.766  1.00  0.00     0.074 A 
ATOM     32  C   UNL A   1      36.736  34.449  32.897  1.00  0.00     0.029 A 
ATOM     33  N   UNL A   1      38.277  32.839  32.948  1.00  0.00    -0.354 N 
ATOM     34  N   UNL A   1      40.518  31.242  34.268  1.00  0.00    -0.248 NA
ATOM     35  C   UNL A   1      41.972  30.948  36.077  1.00  0.00     0.031 C 
ATOM     36  C   UNL A   1      37.477  34.563  34.078  1.00  0.00     0.029 A 
ATOM     37  C   UNL A   1      38.409  33.533  34.132  1.00  0.00     0.049 A 
ATOM     38  H   UNL A   1      38.819  32.060  32.688  1.00  0.00     0.167 HD
ATOM     39  C   UNL A   1      40.247  32.213  35.219  1.00  0.00     0.074 A 
ATOM     40  C   UNL A   1      41.155  31.962  36.325  1.00  0.00     0.031 C 
ATOM     41  C   UNL A   1      39.335  33.219  35.194  1.00  0.00     0.031 A 
BRANCH  28  42
ATOM     42  C   UNL A   1      35.828  33.591  30.067  1.00  0.00    -0.014 A 
ATOM     43  C   UNL A   1      34.527  33.788  30.559  1.00  0.00     0.009 A 
ATOM     44  C   UNL A   1      36.109  33.947  28.738  1.00  0.00     0.009 A 
ATOM     45  C   UNL A   1      33.522  34.281  29.723  1.00  0.00     0.001 A 
ATOM     46  C   UNL A   1      35.111  34.472  27.916  1.00  0.00     0.001 A 
ATOM     47  C   UNL A   1      33.815  34.625  28.404  1.00  0.00     0.000 A 
ENDBRANCH  28  42
BRANCH  29  48
ATOM     48  C   UNL A   1      43.269  28.581  34.845  1.00  0.00    -0.014 A 
ATOM     49  C   UNL A   1      44.600  28.978  34.664  1.00  0.00     0.009 A 
ATOM     50  C   UNL A   1      43.000  27.488  35.688  1.00  0.00     0.009 A 
ATOM     51  C   UNL A   1      45.639  28.280  35.291  1.00  0.00     0.001 A 
ATOM     52  C   UNL A   1      44.036  26.813  36.339  1.00  0.00     0.001 A 
ATOM     53  C   UNL A   1      45.356  27.203  36.130  1.00  0.00     0.000 A 
ENDBRANCH  29  48
BRANCH  41  54
ATOM     54  C   UNL A   1      39.242  34.065  36.428  1.00  0.00    -0.014 A 
ATOM     55  C   UNL A   1      38.566  33.623  37.573  1.00  0.00     0.009 A 
ATOM     56  C   UNL A   1      39.912  35.298  36.454  1.00  0.00     0.009 A 
ATOM     57  C   UNL A   1      38.537  34.421  38.716  1.00  0.00     0.001 A 
ATOM     58  C   UNL A   1      39.916  36.072  37.610  1.00  0.00     0.001 A 
ATOM     59  C   UNL A   1      39.219  35.638  38.736  1.00  0.00     0.000 A 
ENDBRANCH  41  54
ENDBRANCH  15  16
ENDBRANCH   8  10
ENDBRANCH   7   8
ENDBRANCH   6   7
ENDBRANCH   5   6
ENDBRANCH   4   5
ENDBRANCH   3   4
ENDBRANCH   2   3
ENDBRANCH   1   2
BRANCH   1  60
ATOM     60  C   UNL A   1      38.699  21.344  25.756  1.00  0.00     0.188 C 
BRANCH  60  61
ATOM     61  C   UNL A   1      37.538  22.211  24.861  1.00  0.00     0.188 C 
BRANCH  61  62
ATOM     62  O   UNL A   1      36.049  22.343  25.110  1.00  0.00    -0.376 OA
BRANCH  62  63
ATOM     63  C   UNL A   1      35.211  22.952  26.489  1.00  0.00     0.202 C 
BRANCH  63  64
ATOM     64  C   UNL A   1      33.280  23.995  26.284  1.00  0.00     0.261 C 
BRANCH  64  65
ATOM     65  O   UNL A   1      32.860  24.468  24.566  1.00  0.00    -0.462 OA
BRANCH  65  66
ATOM     66  C   UNL A   1      31.533  24.460  24.028  1.00  0.00     0.334 C 
ATOM     67  O   UNL A   1      30.879  23.459  23.754  1.00  0.00    -0.250 OA
BRANCH  66  68
ATOM     68  C   UNL A   1      30.955  25.578  23.314  1.00  0.00     0.252 C 
ATOM     69  C   UNL A   1      32.065  26.623  22.880  1.00  0.00     0.298 C 
ATOM     70  N   UNL A   1      30.122  26.241  24.245  1.00  0.00    -0.300 N 
ATOM     71  N   UNL A   1      31.501  27.756  22.127  1.00  0.00    -0.343 N 
ATOM     72  C   UNL A   1      29.363  27.255  23.511  1.00  0.00     0.183 C 
ATOM     73  C   UNL A   1      30.327  28.297  22.849  1.00  0.00     0.282 C 
ATOM     74  H   UNL A   1      31.215  27.440  21.201  1.00  0.00     0.346 HD
ATOM     75  H   UNL A   1      32.208  28.486  22.035  1.00  0.00     0.346 HD
BRANCH  70  76
ATOM     76  C   UNL A   1      30.464  26.371  25.579  1.00  0.00     0.318 C 
ATOM     77  O   UNL A   1      29.887  25.684  26.428  1.00  0.00    -0.249 OA
ATOM     78  N   UNL A   1      31.468  27.199  26.052  1.00  0.00    -0.333 N 
ATOM     79  H   UNL A   1      31.498  27.065  27.026  1.00  0.00     0.165 HD
BRANCH  78  80
ATOM     80  C   UNL A   1      32.698  28.369  25.686  1.00  0.00     0.112 C 
ATOM     81  C   UNL A   1      34.410  28.916  26.878  1.00  0.00     0.056 C 
ATOM     82  C   UNL A   1      31.576  29.992  25.786  1.00  0.00     0.185 C 
ATOM     83  C   UNL A   1      34.005  30.756  27.515  1.00  0.00     0.162 C 
ATOM     84  O   UNL A   1      32.413  31.191  26.830  1.00  0.00    -0.379 OA
ENDBRANCH  78  80
ENDBRANCH  70  76
ENDBRANCH  66  68
ENDBRANCH  65  66
ENDBRANCH  64  65
ENDBRANCH  63  64
ENDBRANCH  62  63
ENDBRANCH  61  62
ENDBRANCH  60  61
ENDBRANCH   1  60
TORSDOF 22
ENDMDL
MODEL 2
REMARK VINA RESULT:     -11.2      4.405      6.896
REMARK SMILES O=C(OCCOCCOCCOCCOC(=O)[C@@H]1C[NH2+]CCN1C(=O)N[C@@H]1CCOC1)c1ccc(-c2c3nc(c(-c4ccccc4)c4ccc([nH]4)c(-c4ccccc4)c4nc(c(-c5ccccc5)c5ccc2[nH]5)C=C4)C=C3)cc1
REMARK SMILES IDX 9 1 8 2 7 3 6 4 5 5 4 6 3 7 2 8 1 9 32 10 33 11 79 12 34 13
REMARK SMILES IDX 78 14 35 15 36 16 37 17 72 18 38 19 77 20 71 21 73 22 39 23
REMARK SMILES IDX 76 24 70 25 69 26 40 28 62 29 47 30 61 31 48 32 51 33 60 34
REMARK SMILES IDX 74 35 49 36 50 37 59 39 75 40 52 41 41 42 42 43 46 44 43 45
REMARK SMILES IDX 45 46 44 47 63 48 64 49 68 50 65 51 67 52 66 53 53 54 54 55
REMARK SMILES IDX 58 56 55 57 57 58 56 59 10 60 11 61 12 62 13 63 14 64 15 65
REMARK SMILES IDX 16 66 17 67 18 68 19 69 23 70 20 71 22 72 21 73 24 76 25 77
REMARK SMILES IDX 26 78 27 80 28 81 31 82 29 83 30 84
REMARK H PARENT 73 27 51 38 20 74 20 75 26 79
REMARK Flexibility Score: inf
ROOT
ATOM      1  O   UNL A   1      34.514  22.539  26.684  1.00  0.00    -0.377 OA
ENDROOT
BRANCH   1   2
ATOM      2  C   UNL A   1      35.742  22.527  25.966  1.00  0.00     0.188 C 
BRANCH   2   3
ATOM      3  C   UNL A   1      35.701  21.808  24.654  1.00  0.00     0.188 C 
BRANCH   3   4
ATOM      4  O   UNL A   1      36.987  21.315  24.347  1.00  0.00    -0.376 OA
BRANCH   4   5
ATOM      5  C   UNL A   1      38.000  20.968  25.263  1.00  0.00     0.202 C 
BRANCH   5   6
ATOM      6  C   UNL A   1      38.461  19.544  25.331  1.00  0.00     0.261 C 
BRANCH   6   7
ATOM      7  O   UNL A   1      39.854  19.236  25.600  1.00  0.00    -0.460 OA
BRANCH   7   8
ATOM      8  C   UNL A   1      41.013  19.805  25.980  1.00  0.00     0.338 C 
ATOM      9  O   UNL A   1      42.045  19.146  25.846  1.00  0.00    -0.246 OA
BRANCH   8  10
ATOM     10  C   UNL A   1      41.175  21.181  26.516  1.00  0.00     0.060 A 
ATOM     11  C   UNL A   1      41.244  22.336  25.760  1.00  0.00     0.016 A 
ATOM     12  C   UNL A   1      41.145  21.358  27.900  1.00  0.00     0.016 A 
ATOM     13  C   UNL A   1      41.543  23.571  26.257  1.00  0.00     0.010 A 
ATOM     14  C   UNL A   1      41.326  22.629  28.456  1.00  0.00     0.010 A 
ATOM     15  C   UNL A   1      41.603  23.716  27.618  1.00  0.00    -0.014 A 
BRANCH  15  16
ATOM     16  C   UNL A   1      42.244  24.943  28.068  1.00  0.00     0.031 A 
ATOM     17  C   UNL A   1      41.327  26.001  28.582  1.00  0.00     0.074 A 
ATOM     18  C   UNL A   1      43.576  24.987  28.231  1.00  0.00     0.049 A 
ATOM     19  N   UNL A   1      41.583  27.239  28.876  1.00  0.00    -0.248 NA
ATOM     20  C   UNL A   1      39.919  25.604  28.793  1.00  0.00     0.031 C 
ATOM     21  C   UNL A   1      44.505  23.867  28.020  1.00  0.00     0.029 A 
ATOM     22  N   UNL A   1      44.376  26.008  28.645  1.00  0.00    -0.354 N 
ATOM     23  C   UNL A   1      40.357  27.790  29.215  1.00  0.00     0.074 A 
ATOM     24  C   UNL A   1      39.358  26.755  29.114  1.00  0.00     0.031 C 
ATOM     25  C   UNL A   1      45.753  24.278  28.291  1.00  0.00     0.029 A 
ATOM     26  C   UNL A   1      45.711  25.702  28.584  1.00  0.00     0.049 A 
ATOM     27  H   UNL A   1      44.031  26.877  28.956  1.00  0.00     0.167 HD
ATOM     28  C   UNL A   1      40.108  29.074  29.545  1.00  0.00     0.031 A 
ATOM     29  C   UNL A   1      46.767  26.525  28.670  1.00  0.00     0.031 A 
ATOM     30  C   UNL A   1      41.159  30.047  29.614  1.00  0.00     0.049 A 
ATOM     31  C   UNL A   1      46.463  27.983  28.879  1.00  0.00     0.074 A 
ATOM     32  C   UNL A   1      41.079  31.402  29.844  1.00  0.00     0.029 A 
ATOM     33  N   UNL A   1      42.506  29.738  29.443  1.00  0.00    -0.354 N 
ATOM     34  N   UNL A   1      45.297  28.564  29.059  1.00  0.00    -0.248 NA
ATOM     35  C   UNL A   1      47.605  28.899  28.882  1.00  0.00     0.031 C 
ATOM     36  C   UNL A   1      42.374  31.924  29.744  1.00  0.00     0.029 A 
ATOM     37  C   UNL A   1      43.270  30.881  29.538  1.00  0.00     0.049 A 
ATOM     38  H   UNL A   1      42.862  28.835  29.279  1.00  0.00     0.167 HD
ATOM     39  C   UNL A   1      45.564  29.913  29.230  1.00  0.00     0.074 A 
ATOM     40  C   UNL A   1      47.008  30.054  29.140  1.00  0.00     0.031 C 
ATOM     41  C   UNL A   1      44.709  30.944  29.444  1.00  0.00     0.031 A 
BRANCH  28  42
ATOM     42  C   UNL A   1      38.668  29.469  29.694  1.00  0.00    -0.014 A 
ATOM     43  C   UNL A   1      38.000  29.425  30.929  1.00  0.00     0.009 A 
ATOM     44  C   UNL A   1      37.938  29.803  28.543  1.00  0.00     0.009 A 
ATOM     45  C   UNL A   1      36.624  29.657  30.997  1.00  0.00     0.001 A 
ATOM     46  C   UNL A   1      36.571  30.069  28.619  1.00  0.00     0.001 A 
ATOM     47  C   UNL A   1      35.911  29.982  29.844  1.00  0.00     0.000 A 
ENDBRANCH  28  42
BRANCH  29  48
ATOM     48  C   UNL A   1      48.146  26.013  28.459  1.00  0.00    -0.014 A 
ATOM     49  C   UNL A   1      48.953  25.655  29.546  1.00  0.00     0.009 A 
ATOM     50  C   UNL A   1      48.664  25.871  27.159  1.00  0.00     0.009 A 
ATOM     51  C   UNL A   1      50.257  25.191  29.338  1.00  0.00     0.001 A 
ATOM     52  C   UNL A   1      49.955  25.377  26.952  1.00  0.00     0.001 A 
ATOM     53  C   UNL A   1      50.754  25.048  28.044  1.00  0.00     0.000 A 
ENDBRANCH  29  48
BRANCH  41  54
ATOM     54  C   UNL A   1      45.330  32.292  29.662  1.00  0.00    -0.014 A 
ATOM     55  C   UNL A   1      45.643  33.138  28.590  1.00  0.00     0.009 A 
ATOM     56  C   UNL A   1      45.532  32.738  30.977  1.00  0.00     0.009 A 
ATOM     57  C   UNL A   1      46.181  34.401  28.834  1.00  0.00     0.001 A 
ATOM     58  C   UNL A   1      46.029  34.015  31.217  1.00  0.00     0.001 A 
ATOM     59  C   UNL A   1      46.363  34.841  30.146  1.00  0.00     0.000 A 
ENDBRANCH  41  54
ENDBRANCH  15  16
ENDBRANCH   8  10
ENDBRANCH   7   8
ENDBRANCH   6   7
ENDBRANCH   5   6
ENDBRANCH   4   5
ENDBRANCH   3   4
ENDBRANCH   2   3
ENDBRANCH   1   2
BRANCH   1  60
ATOM     60  C   UNL A   1      33.420  23.463  26.411  1.00  0.00     0.188 C 
BRANCH  60  61
ATOM     61  C   UNL A   1      31.778  23.076  26.639  1.00  0.00     0.188 C 
BRANCH  61  62
ATOM     62  O   UNL A   1      30.594  24.009  26.801  1.00  0.00    -0.376 OA
BRANCH  62  63
ATOM     63  C   UNL A   1      30.416  25.659  26.328  1.00  0.00     0.202 C 
BRANCH  63  64
ATOM     64  C   UNL A   1      29.222  26.217  24.561  1.00  0.00     0.261 C 
BRANCH  64  65
ATOM     65  O   UNL A   1      29.809  27.724  23.704  1.00  0.00    -0.462 OA
BRANCH  65  66
ATOM     66  C   UNL A   1      30.415  28.843  24.361  1.00  0.00     0.334 C 
ATOM     67  O   UNL A   1      30.356  30.009  23.987  1.00  0.00    -0.250 OA
BRANCH  66  68
ATOM     68  C   UNL A   1      31.535  28.724  25.270  1.00  0.00     0.252 C 
ATOM     69  C   UNL A   1      32.152  30.142  25.616  1.00  0.00     0.298 C 
ATOM     70  N   UNL A   1      32.533  28.015  24.562  1.00  0.00    -0.300 N 
ATOM     71  N   UNL A   1      33.276  30.047  26.562  1.00  0.00    -0.343 N 
ATOM     72  C   UNL A   1      33.602  27.696  25.511  1.00  0.00     0.183 C 
ATOM     73  C   UNL A   1      34.224  29.005  26.105  1.00  0.00     0.282 C 
ATOM     74  H   UNL A   1      32.922  29.801  27.487  1.00  0.00     0.346 HD
ATOM     75  H   UNL A   1      33.757  30.946  26.609  1.00  0.00     0.346 HD
BRANCH  70  76
ATOM     76  C   UNL A   1      32.754  28.204  23.209  1.00  0.00     0.318 C 
ATOM     77  O   UNL A   1      33.337  29.221  22.821  1.00  0.00    -0.249 OA
ATOM     78  N   UNL A   1      32.411  27.291  22.226  1.00  0.00    -0.333 N 
ATOM     79  H   UNL A   1      32.709  27.680  21.374  1.00  0.00     0.165 HD
BRANCH  78  80
ATOM     80  C   UNL A   1      31.686  25.763  21.832  1.00  0.00     0.112 C 
ATOM     81  C   UNL A   1      31.644  23.964  23.021  1.00  0.00     0.056 C 
ATOM     82  C   UNL A   1      32.886  25.261  20.346  1.00  0.00     0.185 C 
ATOM     83  C   UNL A   1      32.852  22.708  22.064  1.00  0.00     0.162 C 
ATOM     84  O   UNL A   1      33.452  23.578  20.624  1.00  0.00    -0.379 OA
ENDBRANCH  78  80
ENDBRANCH  70  76
ENDBRANCH  66  68
ENDBRANCH  65  66
ENDBRANCH  64  65
ENDBRANCH  63  64
ENDBRANCH  62  63
ENDBRANCH  61  62
ENDBRANCH  60  61
ENDBRANCH   1  60
TORSDOF 22
ENDMDL
MODEL 3
REMARK VINA RESULT:     -11.2      4.584     10.547
REMARK SMILES O=C(OCCOCCOCCOCCOC(=O)[C@@H]1C[NH2+]CCN1C(=O)N[C@@H]1CCOC1)c1ccc(-c2c3nc(c(-c4ccccc4)c4ccc([nH]4)c(-c4ccccc4)c4nc(c(-c5ccccc5)c5ccc2[nH]5)C=C4)C=C3)cc1
REMARK SMILES IDX 9 1 8 2 7 3 6 4 5 5 4 6 3 7 2 8 1 9 32 10 33 11 79 12 34 13
REMARK SMILES IDX 78 14 35 15 36 16 37 17 72 18 38 19 77 20 71 21 73 22 39 23
REMARK SMILES IDX 76 24 70 25 69 26 40 28 62 29 47 30 61 31 48 32 51 33 60 34
REMARK SMILES IDX 74 35 49 36 50 37 59 39 75 40 52 41 41 42 42 43 46 44 43 45
REMARK SMILES IDX 45 46 44 47 63 48 64 49 68 50 65 51 67 52 66 53 53 54 54 55
REMARK SMILES IDX 58 56 55 57 57 58 56 59 10 60 11 61 12 62 13 63 14 64 15 65
REMARK SMILES IDX 16 66 17 67 18 68 19 69 23 70 20 71 22 72 21 73 24 76 25 77
REMARK SMILES IDX 26 78 27 80 28 81 31 82 29 83 30 84
REMARK H PARENT 73 27 51 38 20 74 20 75 26 79
REMARK Flexibility Score: inf
ROOT
ATOM      1  O   UNL A   1      33.961  30.173  27.505  1.00  0.00    -0.377 OA
ENDROOT
BRANCH   1   2
ATOM      2  C   UNL A   1      35.164  30.902  27.716  1.00  0.00     0.188 C 
BRANCH   2   3
ATOM      3  C   UNL A   1      34.980  32.355  28.021  1.00  0.00     0.188 C 
BRANCH   3   4
ATOM      4  O   UNL A   1      35.638  32.670  29.229  1.00  0.00    -0.376 OA
BRANCH   4   5
ATOM      5  C   UNL A   1      35.038  32.888  30.486  1.00  0.00     0.202 C 
BRANCH   5   6
ATOM      6  C   UNL A   1      35.405  31.994  31.631  1.00  0.00     0.261 C 
BRANCH   6   7
ATOM      7  O   UNL A   1      35.909  30.655  31.383  1.00  0.00    -0.460 OA
BRANCH   7   8
ATOM      8  C   UNL A   1      36.789  29.749  31.845  1.00  0.00     0.338 C 
ATOM      9  O   UNL A   1      36.660  29.367  33.008  1.00  0.00    -0.246 OA
BRANCH   8  10
ATOM     10  C   UNL A   1      37.890  29.126  31.066  1.00  0.00     0.060 A 
ATOM     11  C   UNL A   1      38.829  28.242  31.563  1.00  0.00     0.016 A 
ATOM     12  C   UNL A   1      37.933  29.350  29.689  1.00  0.00     0.016 A 
ATOM     13  C   UNL A   1      39.919  27.799  30.872  1.00  0.00     0.010 A 
ATOM     14  C   UNL A   1      38.967  28.813  28.914  1.00  0.00     0.010 A 
ATOM     15  C   UNL A   1      39.999  28.102  29.540  1.00  0.00    -0.014 A 
BRANCH  15  16
ATOM     16  C   UNL A   1      41.314  27.899  28.951  1.00  0.00     0.031 A 
ATOM     17  C   UNL A   1      41.555  26.554  28.352  1.00  0.00     0.074 A 
ATOM     18  C   UNL A   1      42.132  28.945  28.752  1.00  0.00     0.049 A 
ATOM     19  N   UNL A   1      42.663  26.030  27.927  1.00  0.00    -0.248 NA
ATOM     20  C   UNL A   1      40.375  25.674  28.217  1.00  0.00     0.031 C 
ATOM     21  C   UNL A   1      41.821  30.350  29.055  1.00  0.00     0.029 A 
ATOM     22  N   UNL A   1      43.383  28.991  28.216  1.00  0.00    -0.354 N 
ATOM     23  C   UNL A   1      42.333  24.734  27.562  1.00  0.00     0.074 A 
ATOM     24  C   UNL A   1      40.922  24.550  27.792  1.00  0.00     0.031 C 
ATOM     25  C   UNL A   1      42.869  31.114  28.713  1.00  0.00     0.029 A 
ATOM     26  C   UNL A   1      43.947  30.240  28.277  1.00  0.00     0.049 A 
ATOM     27  H   UNL A   1      43.837  28.208  27.826  1.00  0.00     0.167 HD
ATOM     28  C   UNL A   1      43.172  23.781  27.108  1.00  0.00     0.031 A 
ATOM     29  C   UNL A   1      45.226  30.594  28.082  1.00  0.00     0.031 A 
ATOM     30  C   UNL A   1      44.569  24.041  26.915  1.00  0.00     0.049 A 
ATOM     31  C   UNL A   1      46.181  29.488  27.731  1.00  0.00     0.074 A 
ATOM     32  C   UNL A   1      45.575  23.175  26.549  1.00  0.00     0.029 A 
ATOM     33  N   UNL A   1      45.148  25.296  27.085  1.00  0.00    -0.354 N 
ATOM     34  N   UNL A   1      45.926  28.215  27.520  1.00  0.00    -0.248 NA
ATOM     35  C   UNL A   1      47.594  29.853  27.607  1.00  0.00     0.031 C 
ATOM     36  C   UNL A   1      46.776  23.894  26.564  1.00  0.00     0.029 A 
ATOM     37  C   UNL A   1      46.505  25.226  26.855  1.00  0.00     0.049 A 
ATOM     38  H   UNL A   1      44.659  26.114  27.332  1.00  0.00     0.167 HD
ATOM     39  C   UNL A   1      47.141  27.628  27.206  1.00  0.00     0.074 A 
ATOM     40  C   UNL A   1      48.128  28.694  27.246  1.00  0.00     0.031 C 
ATOM     41  C   UNL A   1      47.427  26.335  26.907  1.00  0.00     0.031 A 
BRANCH  28  42
ATOM     42  C   UNL A   1      42.608  22.399  26.954  1.00  0.00    -0.014 A 
ATOM     43  C   UNL A   1      41.939  21.739  27.998  1.00  0.00     0.009 A 
ATOM     44  C   UNL A   1      42.838  21.705  25.756  1.00  0.00     0.009 A 
ATOM     45  C   UNL A   1      41.561  20.400  27.862  1.00  0.00     0.001 A 
ATOM     46  C   UNL A   1      42.429  20.380  25.609  1.00  0.00     0.001 A 
ATOM     47  C   UNL A   1      41.803  19.723  26.667  1.00  0.00     0.000 A 
ENDBRANCH  28  42
BRANCH  29  48
ATOM     48  C   UNL A   1      45.667  31.995  28.312  1.00  0.00    -0.014 A 
ATOM     49  C   UNL A   1      45.664  32.929  27.267  1.00  0.00     0.009 A 
ATOM     50  C   UNL A   1      46.089  32.411  29.587  1.00  0.00     0.009 A 
ATOM     51  C   UNL A   1      46.098  34.241  27.489  1.00  0.00     0.001 A 
ATOM     52  C   UNL A   1      46.491  33.730  29.814  1.00  0.00     0.001 A 
ATOM     53  C   UNL A   1      46.506  34.641  28.761  1.00  0.00     0.000 A 
ENDBRANCH  29  48
BRANCH  41  54
ATOM     54  C   UNL A   1      48.849  26.035  26.537  1.00  0.00    -0.014 A 
ATOM     55  C   UNL A   1      49.339  26.276  25.247  1.00  0.00     0.009 A 
ATOM     56  C   UNL A   1      49.722  25.570  27.533  1.00  0.00     0.009 A 
ATOM     57  C   UNL A   1      50.679  26.023  24.953  1.00  0.00     0.001 A 
ATOM     58  C   UNL A   1      51.067  25.359  27.246  1.00  0.00     0.001 A 
ATOM     59  C   UNL A   1      51.541  25.575  25.954  1.00  0.00     0.000 A 
ENDBRANCH  41  54
ENDBRANCH  15  16
ENDBRANCH   8  10
ENDBRANCH   7   8
ENDBRANCH   6   7
ENDBRANCH   5   6
ENDBRANCH   4   5
ENDBRANCH   3   4
ENDBRANCH   2   3
ENDBRANCH   1   2
BRANCH   1  60
ATOM     60  C   UNL A   1      33.085  30.364  26.355  1.00  0.00     0.188 C 
BRANCH  60  61
ATOM     61  C   UNL A   1      32.306  29.088  25.540  1.00  0.00     0.188 C 
BRANCH  61  62
ATOM     62  O   UNL A   1      30.994  29.104  24.781  1.00  0.00    -0.376 OA
BRANCH  62  63
ATOM     63  C   UNL A   1      30.536  28.256  23.350  1.00  0.00     0.202 C 
BRANCH  63  64
ATOM     64  C   UNL A   1      31.136  26.162  23.022  1.00  0.00     0.261 C 
BRANCH  64  65
ATOM     65  O   UNL A   1      30.658  25.022  24.373  1.00  0.00    -0.462 OA
BRANCH  65  66
ATOM     66  C   UNL A   1      31.101  25.147  25.729  1.00  0.00     0.334 C 
ATOM     67  O   UNL A   1      30.685  25.962  26.545  1.00  0.00    -0.250 OA
BRANCH  66  68
ATOM     68  C   UNL A   1      32.382  24.662  26.198  1.00  0.00     0.252 C 
ATOM     69  C   UNL A   1      33.347  24.318  24.989  1.00  0.00     0.298 C 
ATOM     70  N   UNL A   1      32.114  23.441  26.858  1.00  0.00    -0.300 N 
ATOM     71  N   UNL A   1      34.667  23.849  25.444  1.00  0.00    -0.343 N 
ATOM     72  C   UNL A   1      33.350  23.020  27.521  1.00  0.00     0.183 C 
ATOM     73  C   UNL A   1      34.494  22.800  26.474  1.00  0.00     0.282 C 
ATOM     74  H   UNL A   1      35.187  24.632  25.840  1.00  0.00     0.346 HD
ATOM     75  H   UNL A   1      35.181  23.465  24.651  1.00  0.00     0.346 HD
BRANCH  70  76
ATOM     76  C   UNL A   1      31.159  22.549  26.402  1.00  0.00     0.318 C 
ATOM     77  O   UNL A   1      30.003  22.618  26.832  1.00  0.00    -0.249 OA
ATOM     78  N   UNL A   1      31.388  21.586  25.434  1.00  0.00    -0.333 N 
ATOM     79  H   UNL A   1      30.530  21.124  25.298  1.00  0.00     0.165 HD
BRANCH  78  80
ATOM     80  C   UNL A   1      32.519  20.832  24.353  1.00  0.00     0.112 C 
ATOM     81  C   UNL A   1      32.154  20.059  22.373  1.00  0.00     0.056 C 
ATOM     82  C   UNL A   1      32.849  19.188  25.396  1.00  0.00     0.185 C 
ATOM     83  C   UNL A   1      32.291  18.086  22.577  1.00  0.00     0.162 C 
ATOM     84  O   UNL A   1      32.671  17.778  24.296  1.00  0.00    -0.379 OA
ENDBRANCH  78  80
ENDBRANCH  70  76
ENDBRANCH  66  68
ENDBRANCH  65  66
ENDBRANCH  64  65
ENDBRANCH  63  64
ENDBRANCH  62  63
ENDBRANCH  61  62
ENDBRANCH  60  61
ENDBRANCH   1  60
TORSDOF 22
ENDMDL
