MODEL 1
REMARK VINA RESULT:      -9.7      0.000      0.000
REMARK SMILES O=C(OCCOCCOCCOCCOC(=O)c1ccc(-c2c3nc(c(-c4ccccc4)c4ccc([nH]4)c(-c4ccccc4)c4nc(c(-c5ccccc5)c5ccc2[nH]5)C=C4)C=C3)cc1)c1ccc(/[NH+]=C2\S[C@@H](Cc3ccc(F)cc3)C(=O)N2Cc2ccccc2)cc1
REMARK SMILES IDX 8 1 7 2 6 3 5 4 4 5 3 6 2 7 1 8 66 9 67 10 93 11 68 12 92 13
REMARK SMILES IDX 69 14 70 15 71 16 72 18 84 19 73 20 82 21 83 22 85 23 86 24
REMARK SMILES IDX 87 25 91 26 88 27 90 28 89 29 74 30 75 31 76 32 81 33 77 34
REMARK SMILES IDX 80 35 78 36 79 37 9 38 10 39 11 40 12 41 13 42 14 43 15 44
REMARK SMILES IDX 16 45 17 46 18 47 19 48 65 49 20 50 64 51 21 52 22 53 23 54
REMARK SMILES IDX 58 55 24 56 63 57 57 58 59 59 25 60 62 61 56 62 55 63 26 65
REMARK SMILES IDX 48 66 33 67 47 68 34 69 37 70 46 71 60 72 35 73 36 74 45 76
REMARK SMILES IDX 61 77 38 78 27 79 28 80 32 81 29 82 31 83 30 84 49 85 50 86
REMARK SMILES IDX 54 87 51 88 53 89 52 90 39 91 40 92 44 93 41 94 43 95 42 96
REMARK H PARENT 70 17 59 64 37 75
REMARK Flexibility Score: inf
ROOT
ATOM      1  C   UNL A   1      32.576  29.583  26.194  1.00  0.00     0.188 C 
ENDROOT
BRANCH   1   2
ATOM      2  C   UNL A   1      33.907  28.879  25.923  1.00  0.00     0.188 C 
BRANCH   2   3
ATOM      3  O   UNL A   1      33.826  28.001  24.797  1.00  0.00    -0.376 OA
BRANCH   3   4
ATOM      4  C   UNL A   1      32.516  27.595  24.403  1.00  0.00     0.202 C 
BRANCH   4   5
ATOM      5  C   UNL A   1      32.411  26.199  23.790  1.00  0.00     0.261 C 
BRANCH   5   6
ATOM      6  O   UNL A   1      33.638  25.459  23.853  1.00  0.00    -0.460 OA
BRANCH   6   7
ATOM      7  C   UNL A   1      33.850  24.232  24.389  1.00  0.00     0.338 C 
ATOM      8  O   UNL A   1      32.868  23.553  24.689  1.00  0.00    -0.246 OA
BRANCH   7   9
ATOM      9  C   UNL A   1      35.199  23.639  24.637  1.00  0.00     0.060 A 
ATOM     10  C   UNL A   1      35.980  22.977  23.691  1.00  0.00     0.020 A 
ATOM     11  C   UNL A   1      35.760  23.849  25.909  1.00  0.00     0.020 A 
ATOM     12  C   UNL A   1      37.233  22.479  24.009  1.00  0.00     0.052 A 
ATOM     13  C   UNL A   1      37.023  23.340  26.241  1.00  0.00     0.052 A 
ATOM     14  C   UNL A   1      37.734  22.603  25.298  1.00  0.00     0.125 A 
BRANCH  14  15
ATOM     15  N   UNL A   1      38.866  21.845  25.607  1.00  0.00    -0.235 N 
ATOM     16  C   UNL A   1      39.723  22.394  26.406  1.00  0.00     0.320 C 
ATOM     17  H   UNL A   1      39.004  20.943  25.238  1.00  0.00     0.313 HD
ATOM     18  S   UNL A   1      39.765  24.079  26.884  1.00  0.00    -0.022 SA
ATOM     19  N   UNL A   1      40.711  21.697  27.043  1.00  0.00    -0.186 N 
ATOM     20  C   UNL A   1      41.477  23.931  27.429  1.00  0.00     0.178 C 
ATOM     21  C   UNL A   1      41.635  22.448  27.744  1.00  0.00     0.324 C 
ATOM     22  O   UNL A   1      42.511  21.982  28.462  1.00  0.00    -0.245 OA
BRANCH  19  23
ATOM     23  C   UNL A   1      40.718  20.240  27.097  1.00  0.00     0.283 C 
BRANCH  23  24
ATOM     24  C   UNL A   1      42.020  19.636  26.595  1.00  0.00    -0.006 A 
ATOM     25  C   UNL A   1      42.483  18.406  27.083  1.00  0.00     0.008 A 
ATOM     26  C   UNL A   1      42.792  20.301  25.629  1.00  0.00     0.008 A 
ATOM     27  C   UNL A   1      43.684  17.861  26.612  1.00  0.00     0.000 A 
ATOM     28  C   UNL A   1      43.972  19.742  25.135  1.00  0.00     0.000 A 
ATOM     29  C   UNL A   1      44.422  18.523  25.631  1.00  0.00     0.000 A 
ENDBRANCH  23  24
ENDBRANCH  19  23
BRANCH  20  30
ATOM     30  C   UNL A   1      41.732  24.893  28.584  1.00  0.00     0.063 C 
BRANCH  30  31
ATOM     31  C   UNL A   1      43.076  25.570  28.471  1.00  0.00    -0.046 A 
ATOM     32  C   UNL A   1      44.074  25.296  29.416  1.00  0.00     0.007 A 
ATOM     33  C   UNL A   1      43.351  26.445  27.407  1.00  0.00     0.007 A 
ATOM     34  C   UNL A   1      45.342  25.856  29.275  1.00  0.00     0.039 A 
ATOM     35  C   UNL A   1      44.622  26.994  27.264  1.00  0.00     0.039 A 
ATOM     36  C   UNL A   1      45.608  26.689  28.195  1.00  0.00     0.123 A 
ATOM     37  F   UNL A   1      46.835  27.205  28.047  1.00  0.00    -0.207 F 
ENDBRANCH  30  31
ENDBRANCH  20  30
ENDBRANCH  14  15
ENDBRANCH   7   9
ENDBRANCH   6   7
ENDBRANCH   5   6
ENDBRANCH   4   5
ENDBRANCH   3   4
ENDBRANCH   2   3
ENDBRANCH   1   2
BRANCH   1  38
ATOM     38  O   UNL A   1      32.674  30.929  26.656  1.00  0.00    -0.377 OA
BRANCH  38  39
ATOM     39  C   UNL A   1      33.558  31.157  27.747  1.00  0.00     0.188 C 
BRANCH  39  40
ATOM     40  C   UNL A   1      34.265  32.528  27.848  1.00  0.00     0.188 C 
BRANCH  40  41
ATOM     41  O   UNL A   1      33.415  33.577  28.273  1.00  0.00    -0.376 OA
BRANCH  41  42
ATOM     42  C   UNL A   1      33.772  34.252  29.472  1.00  0.00     0.202 C 
BRANCH  42  43
ATOM     43  C   UNL A   1      32.949  35.466  29.950  1.00  0.00     0.261 C 
BRANCH  43  44
ATOM     44  O   UNL A   1      32.293  35.356  31.222  1.00  0.00    -0.460 OA
BRANCH  44  45
ATOM     45  C   UNL A   1      32.872  35.926  32.310  1.00  0.00     0.338 C 
ATOM     46  O   UNL A   1      32.424  36.801  33.001  1.00  0.00    -0.246 OA
BRANCH  45  47
ATOM     47  C   UNL A   1      34.054  35.077  32.646  1.00  0.00     0.060 A 
ATOM     48  C   UNL A   1      35.336  35.639  32.518  1.00  0.00     0.016 A 
ATOM     49  C   UNL A   1      33.902  33.814  33.226  1.00  0.00     0.016 A 
ATOM     50  C   UNL A   1      36.461  34.941  32.973  1.00  0.00     0.010 A 
ATOM     51  C   UNL A   1      35.031  33.103  33.651  1.00  0.00     0.010 A 
ATOM     52  C   UNL A   1      36.318  33.654  33.511  1.00  0.00    -0.014 A 
BRANCH  52  53
ATOM     53  C   UNL A   1      37.506  32.783  33.697  1.00  0.00     0.031 A 
ATOM     54  C   UNL A   1      38.286  32.950  34.972  1.00  0.00     0.074 A 
ATOM     55  C   UNL A   1      37.911  31.892  32.773  1.00  0.00     0.049 A 
ATOM     56  N   UNL A   1      39.411  32.394  35.340  1.00  0.00    -0.248 NA
ATOM     57  C   UNL A   1      37.718  33.880  35.965  1.00  0.00     0.031 C 
ATOM     58  C   UNL A   1      37.227  31.595  31.516  1.00  0.00     0.029 A 
ATOM     59  N   UNL A   1      39.023  31.082  32.751  1.00  0.00    -0.354 N 
ATOM     60  C   UNL A   1      39.693  32.921  36.594  1.00  0.00     0.074 A 
ATOM     61  C   UNL A   1      38.631  33.847  36.921  1.00  0.00     0.031 C 
ATOM     62  C   UNL A   1      37.948  30.684  30.834  1.00  0.00     0.029 A 
ATOM     63  C   UNL A   1      39.163  30.365  31.585  1.00  0.00     0.049 A 
ATOM     64  H   UNL A   1      39.659  31.022  33.500  1.00  0.00     0.167 HD
ATOM     65  C   UNL A   1      40.746  32.665  37.403  1.00  0.00     0.031 A 
ATOM     66  C   UNL A   1      40.172  29.576  31.162  1.00  0.00     0.031 A 
ATOM     67  C   UNL A   1      41.814  31.763  37.077  1.00  0.00     0.049 A 
ATOM     68  C   UNL A   1      41.382  29.377  32.044  1.00  0.00     0.074 A 
ATOM     69  C   UNL A   1      42.908  31.415  37.846  1.00  0.00     0.029 A 
ATOM     70  N   UNL A   1      41.930  31.083  35.876  1.00  0.00    -0.354 N 
ATOM     71  N   UNL A   1      41.612  29.839  33.251  1.00  0.00    -0.248 NA
ATOM     72  C   UNL A   1      42.473  28.551  31.504  1.00  0.00     0.031 C 
ATOM     73  C   UNL A   1      43.726  30.576  37.083  1.00  0.00     0.029 A 
ATOM     74  C   UNL A   1      43.103  30.350  35.866  1.00  0.00     0.049 A 
ATOM     75  H   UNL A   1      41.276  31.117  35.140  1.00  0.00     0.167 HD
ATOM     76  C   UNL A   1      42.858  29.339  33.619  1.00  0.00     0.074 A 
ATOM     77  C   UNL A   1      43.326  28.525  32.518  1.00  0.00     0.031 C 
ATOM     78  C   UNL A   1      43.553  29.538  34.765  1.00  0.00     0.031 A 
BRANCH  65  79
ATOM     79  C   UNL A   1      40.820  33.416  38.701  1.00  0.00    -0.014 A 
ATOM     80  C   UNL A   1      39.930  33.152  39.753  1.00  0.00     0.009 A 
ATOM     81  C   UNL A   1      41.823  34.381  38.882  1.00  0.00     0.009 A 
ATOM     82  C   UNL A   1      40.029  33.859  40.953  1.00  0.00     0.001 A 
ATOM     83  C   UNL A   1      41.936  35.066  40.092  1.00  0.00     0.001 A 
ATOM     84  C   UNL A   1      41.035  34.810  41.124  1.00  0.00     0.000 A 
ENDBRANCH  65  79
BRANCH  66  85
ATOM     85  C   UNL A   1      40.129  28.950  29.810  1.00  0.00    -0.014 A 
ATOM     86  C   UNL A   1      40.797  29.535  28.722  1.00  0.00     0.009 A 
ATOM     87  C   UNL A   1      39.367  27.793  29.588  1.00  0.00     0.009 A 
ATOM     88  C   UNL A   1      40.677  28.992  27.439  1.00  0.00     0.001 A 
ATOM     89  C   UNL A   1      39.274  27.234  28.310  1.00  0.00     0.001 A 
ATOM     90  C   UNL A   1      39.920  27.840  27.235  1.00  0.00     0.000 A 
ENDBRANCH  66  85
BRANCH  78  91
ATOM     91  C   UNL A   1      44.877  28.842  34.914  1.00  0.00    -0.014 A 
ATOM     92  C   UNL A   1      46.082  29.493  34.608  1.00  0.00     0.009 A 
ATOM     93  C   UNL A   1      44.923  27.542  35.444  1.00  0.00     0.009 A 
ATOM     94  C   UNL A   1      47.304  28.847  34.809  1.00  0.00     0.001 A 
ATOM     95  C   UNL A   1      46.146  26.911  35.672  1.00  0.00     0.001 A 
ATOM     96  C   UNL A   1      47.335  27.560  35.348  1.00  0.00     0.000 A 
ENDBRANCH  78  91
ENDBRANCH  52  53
ENDBRANCH  45  47
ENDBRANCH  44  45
ENDBRANCH  43  44
ENDBRANCH  42  43
ENDBRANCH  41  42
ENDBRANCH  40  41
ENDBRANCH  39  40
ENDBRANCH  38  39
ENDBRANCH   1  38
TORSDOF 25
ENDMDL
MODEL 2
REMARK VINA RESULT:      -9.6      6.582      8.751
REMARK SMILES O=C(OCCOCCOCCOCCOC(=O)c1ccc(-c2c3nc(c(-c4ccccc4)c4ccc([nH]4)c(-c4ccccc4)c4nc(c(-c5ccccc5)c5ccc2[nH]5)C=C4)C=C3)cc1)c1ccc(/[NH+]=C2\S[C@@H](Cc3ccc(F)cc3)C(=O)N2Cc2ccccc2)cc1
REMARK SMILES IDX 8 1 7 2 6 3 5 4 4 5 3 6 2 7 1 8 66 9 67 10 93 11 68 12 92 13
REMARK SMILES IDX 69 14 70 15 71 16 72 18 84 19 73 20 82 21 83 22 85 23 86 24
REMARK SMILES IDX 87 25 91 26 88 27 90 28 89 29 74 30 75 31 76 32 81 33 77 34
REMARK SMILES IDX 80 35 78 36 79 37 9 38 10 39 11 40 12 41 13 42 14 43 15 44
REMARK SMILES IDX 16 45 17 46 18 47 19 48 65 49 20 50 64 51 21 52 22 53 23 54
REMARK SMILES IDX 58 55 24 56 63 57 57 58 59 59 25 60 62 61 56 62 55 63 26 65
REMARK SMILES IDX 48 66 33 67 47 68 34 69 37 70 46 71 60 72 35 73 36 74 45 76
REMARK SMILES IDX 61 77 38 78 27 79 28 80 32 81 29 82 31 83 30 84 49 85 50 86
REMARK SMILES IDX 54 87 51 88 53 89 52 90 39 91 40 92 44 93 41 94 43 95 42 96
REMARK H PARENT 70 17 59 64 37 75
REMARK Flexibility Score: inf
ROOT
ATOM      1  C   UNL A   1      32.588  29.066  26.112  1.00  0.00     0.188 C 
ENDROOT
BRANCH   1   2
ATOM      2  C   UNL A   1      32.663  27.646  26.678  1.00  0.00     0.188 C 
BRANCH   2   3
ATOM      3  O   UNL A   1      32.129  26.682  25.768  1.00  0.00    -0.376 OA
BRANCH   3   4
ATOM      4  C   UNL A   1      31.828  25.396  26.311  1.00  0.00     0.202 C 
BRANCH   4   5
ATOM      5  C   UNL A   1      31.309  24.361  25.313  1.00  0.00     0.261 C 
BRANCH   5   6
ATOM      6  O   UNL A   1      32.332  23.483  24.824  1.00  0.00    -0.460 OA
BRANCH   6   7
ATOM      7  C   UNL A   1      33.406  23.795  24.056  1.00  0.00     0.338 C 
ATOM      8  O   UNL A   1      33.210  24.402  23.003  1.00  0.00    -0.246 OA
BRANCH   7   9
ATOM      9  C   UNL A   1      34.820  23.456  24.403  1.00  0.00     0.060 A 
ATOM     10  C   UNL A   1      35.811  23.086  23.496  1.00  0.00     0.020 A 
ATOM     11  C   UNL A   1      35.198  23.613  25.749  1.00  0.00     0.020 A 
ATOM     12  C   UNL A   1      37.104  22.812  23.910  1.00  0.00     0.052 A 
ATOM     13  C   UNL A   1      36.501  23.326  26.177  1.00  0.00     0.052 A 
ATOM     14  C   UNL A   1      37.440  22.870  25.256  1.00  0.00     0.125 A 
BRANCH  14  15
ATOM     15  N   UNL A   1      38.671  22.319  25.620  1.00  0.00    -0.235 N 
ATOM     16  C   UNL A   1      39.368  22.991  26.479  1.00  0.00     0.320 C 
ATOM     17  H   UNL A   1      38.990  21.467  25.245  1.00  0.00     0.313 HD
ATOM     18  S   UNL A   1      39.078  24.643  26.987  1.00  0.00    -0.022 SA
ATOM     19  N   UNL A   1      40.428  22.466  27.163  1.00  0.00    -0.186 N 
ATOM     20  C   UNL A   1      40.754  24.790  27.632  1.00  0.00     0.178 C 
ATOM     21  C   UNL A   1      41.160  23.351  27.930  1.00  0.00     0.324 C 
ATOM     22  O   UNL A   1      42.065  23.030  28.692  1.00  0.00    -0.245 OA
BRANCH  19  23
ATOM     23  C   UNL A   1      40.696  21.033  27.192  1.00  0.00     0.283 C 
BRANCH  23  24
ATOM     24  C   UNL A   1      41.942  20.648  26.410  1.00  0.00    -0.006 A 
ATOM     25  C   UNL A   1      42.865  21.618  25.995  1.00  0.00     0.008 A 
ATOM     26  C   UNL A   1      42.197  19.306  26.085  1.00  0.00     0.008 A 
ATOM     27  C   UNL A   1      44.008  21.250  25.276  1.00  0.00     0.000 A 
ATOM     28  C   UNL A   1      43.354  18.935  25.397  1.00  0.00     0.000 A 
ATOM     29  C   UNL A   1      44.258  19.909  24.987  1.00  0.00     0.000 A 
ENDBRANCH  23  24
ENDBRANCH  19  23
BRANCH  20  30
ATOM     30  C   UNL A   1      40.766  25.749  28.816  1.00  0.00     0.063 C 
BRANCH  30  31
ATOM     31  C   UNL A   1      40.001  27.017  28.525  1.00  0.00    -0.046 A 
ATOM     32  C   UNL A   1      39.010  27.451  29.416  1.00  0.00     0.007 A 
ATOM     33  C   UNL A   1      40.297  27.789  27.389  1.00  0.00     0.007 A 
ATOM     34  C   UNL A   1      38.353  28.661  29.196  1.00  0.00     0.039 A 
ATOM     35  C   UNL A   1      39.646  29.001  27.179  1.00  0.00     0.039 A 
ATOM     36  C   UNL A   1      38.686  29.429  28.088  1.00  0.00     0.123 A 
ATOM     37  F   UNL A   1      38.072  30.604  27.893  1.00  0.00    -0.207 F 
ENDBRANCH  30  31
ENDBRANCH  20  30
ENDBRANCH  14  15
ENDBRANCH   7   9
ENDBRANCH   6   7
ENDBRANCH   5   6
ENDBRANCH   4   5
ENDBRANCH   3   4
ENDBRANCH   2   3
ENDBRANCH   1   2
BRANCH   1  38
ATOM     38  O   UNL A   1      33.021  30.104  26.991  1.00  0.00    -0.377 OA
BRANCH  38  39
ATOM     39  C   UNL A   1      34.421  30.187  27.226  1.00  0.00     0.188 C 
BRANCH  39  40
ATOM     40  C   UNL A   1      34.986  31.477  27.863  1.00  0.00     0.188 C 
BRANCH  40  41
ATOM     41  O   UNL A   1      35.038  31.437  29.277  1.00  0.00    -0.376 OA
BRANCH  41  42
ATOM     42  C   UNL A   1      34.530  32.567  29.974  1.00  0.00     0.202 C 
BRANCH  42  43
ATOM     43  C   UNL A   1      35.494  33.510  30.722  1.00  0.00     0.261 C 
BRANCH  43  44
ATOM     44  O   UNL A   1      36.895  33.380  30.438  1.00  0.00    -0.460 OA
BRANCH  44  45
ATOM     45  C   UNL A   1      37.791  33.622  31.429  1.00  0.00     0.338 C 
ATOM     46  O   UNL A   1      37.672  33.371  32.598  1.00  0.00    -0.246 OA
BRANCH  45  47
ATOM     47  C   UNL A   1      39.064  34.015  30.754  1.00  0.00     0.060 A 
ATOM     48  C   UNL A   1      39.006  34.427  29.412  1.00  0.00     0.016 A 
ATOM     49  C   UNL A   1      40.262  34.130  31.467  1.00  0.00     0.016 A 
ATOM     50  C   UNL A   1      40.142  34.957  28.787  1.00  0.00     0.010 A 
ATOM     51  C   UNL A   1      41.405  34.629  30.832  1.00  0.00     0.010 A 
ATOM     52  C   UNL A   1      41.356  35.029  29.483  1.00  0.00    -0.014 A 
BRANCH  52  53
ATOM     53  C   UNL A   1      42.625  35.281  28.754  1.00  0.00     0.031 A 
ATOM     54  C   UNL A   1      43.578  34.125  28.614  1.00  0.00     0.074 A 
ATOM     55  C   UNL A   1      42.952  36.486  28.251  1.00  0.00     0.049 A 
ATOM     56  N   UNL A   1      44.787  34.096  28.116  1.00  0.00    -0.248 NA
ATOM     57  C   UNL A   1      43.097  32.823  29.110  1.00  0.00     0.031 C 
ATOM     58  C   UNL A   1      42.108  37.679  28.275  1.00  0.00     0.029 A 
ATOM     59  N   UNL A   1      44.109  36.904  27.634  1.00  0.00    -0.354 N 
ATOM     60  C   UNL A   1      45.216  32.783  28.260  1.00  0.00     0.074 A 
ATOM     61  C   UNL A   1      44.147  32.047  28.898  1.00  0.00     0.031 C 
ATOM     62  C   UNL A   1      42.785  38.702  27.718  1.00  0.00     0.029 A 
ATOM     63  C   UNL A   1      44.123  38.247  27.337  1.00  0.00     0.049 A 
ATOM     64  H   UNL A   1      44.856  36.299  27.425  1.00  0.00     0.167 HD
ATOM     65  C   UNL A   1      46.399  32.235  27.900  1.00  0.00     0.031 A 
ATOM     66  C   UNL A   1      45.115  39.023  26.852  1.00  0.00     0.031 A 
ATOM     67  C   UNL A   1      47.472  32.963  27.284  1.00  0.00     0.049 A 
ATOM     68  C   UNL A   1      46.459  38.407  26.542  1.00  0.00     0.074 A 
ATOM     69  C   UNL A   1      48.697  32.487  26.855  1.00  0.00     0.029 A 
ATOM     70  N   UNL A   1      47.455  34.325  27.030  1.00  0.00    -0.354 N 
ATOM     71  N   UNL A   1      46.836  37.153  26.632  1.00  0.00    -0.248 NA
ATOM     72  C   UNL A   1      47.516  39.314  26.067  1.00  0.00     0.031 C 
ATOM     73  C   UNL A   1      49.451  33.574  26.404  1.00  0.00     0.029 A 
ATOM     74  C   UNL A   1      48.667  34.714  26.490  1.00  0.00     0.049 A 
ATOM     75  H   UNL A   1      46.694  34.925  27.209  1.00  0.00     0.167 HD
ATOM     76  C   UNL A   1      48.159  37.121  26.203  1.00  0.00     0.074 A 
ATOM     77  C   UNL A   1      48.515  38.475  25.836  1.00  0.00     0.031 C 
ATOM     78  C   UNL A   1      49.005  36.064  26.122  1.00  0.00     0.031 A 
BRANCH  65  79
ATOM     79  C   UNL A   1      46.612  30.783  28.214  1.00  0.00    -0.014 A 
ATOM     80  C   UNL A   1      46.417  29.786  27.247  1.00  0.00     0.009 A 
ATOM     81  C   UNL A   1      47.052  30.413  29.495  1.00  0.00     0.009 A 
ATOM     82  C   UNL A   1      46.633  28.443  27.565  1.00  0.00     0.001 A 
ATOM     83  C   UNL A   1      47.294  29.074  29.802  1.00  0.00     0.001 A 
ATOM     84  C   UNL A   1      47.077  28.090  28.838  1.00  0.00     0.000 A 
ENDBRANCH  65  79
BRANCH  66  85
ATOM     85  C   UNL A   1      44.913  40.489  26.675  1.00  0.00    -0.014 A 
ATOM     86  C   UNL A   1      44.293  40.999  25.523  1.00  0.00     0.009 A 
ATOM     87  C   UNL A   1      45.394  41.392  27.636  1.00  0.00     0.009 A 
ATOM     88  C   UNL A   1      44.189  42.379  25.323  1.00  0.00     0.001 A 
ATOM     89  C   UNL A   1      45.260  42.771  27.449  1.00  0.00     0.001 A 
ATOM     90  C   UNL A   1      44.668  43.263  26.288  1.00  0.00     0.000 A 
ENDBRANCH  66  85
BRANCH  78  91
ATOM     91  C   UNL A   1      50.387  36.311  25.587  1.00  0.00    -0.014 A 
ATOM     92  C   UNL A   1      50.655  36.268  24.210  1.00  0.00     0.009 A 
ATOM     93  C   UNL A   1      51.420  36.672  26.468  1.00  0.00     0.009 A 
ATOM     94  C   UNL A   1      51.935  36.558  23.731  1.00  0.00     0.001 A 
ATOM     95  C   UNL A   1      52.689  36.991  25.984  1.00  0.00     0.001 A 
ATOM     96  C   UNL A   1      52.948  36.927  24.616  1.00  0.00     0.000 A 
ENDBRANCH  78  91
ENDBRANCH  52  53
ENDBRANCH  45  47
ENDBRANCH  44  45
ENDBRANCH  43  44
ENDBRANCH  42  43
ENDBRANCH  41  42
ENDBRANCH  40  41
ENDBRANCH  39  40
ENDBRANCH  38  39
ENDBRANCH   1  38
TORSDOF 25
ENDMDL
MODEL 3
REMARK VINA RESULT:      -9.5      0.714      5.368
REMARK SMILES O=C(OCCOCCOCCOCCOC(=O)c1ccc(-c2c3nc(c(-c4ccccc4)c4ccc([nH]4)c(-c4ccccc4)c4nc(c(-c5ccccc5)c5ccc2[nH]5)C=C4)C=C3)cc1)c1ccc(/[NH+]=C2\S[C@@H](Cc3ccc(F)cc3)C(=O)N2Cc2ccccc2)cc1
REMARK SMILES IDX 8 1 7 2 6 3 5 4 4 5 3 6 2 7 1 8 66 9 67 10 93 11 68 12 92 13
REMARK SMILES IDX 69 14 70 15 71 16 72 18 84 19 73 20 82 21 83 22 85 23 86 24
REMARK SMILES IDX 87 25 91 26 88 27 90 28 89 29 74 30 75 31 76 32 81 33 77 34
REMARK SMILES IDX 80 35 78 36 79 37 9 38 10 39 11 40 12 41 13 42 14 43 15 44
REMARK SMILES IDX 16 45 17 46 18 47 19 48 65 49 20 50 64 51 21 52 22 53 23 54
REMARK SMILES IDX 58 55 24 56 63 57 57 58 59 59 25 60 62 61 56 62 55 63 26 65
REMARK SMILES IDX 48 66 33 67 47 68 34 69 37 70 46 71 60 72 35 73 36 74 45 76
REMARK SMILES IDX 61 77 38 78 27 79 28 80 32 81 29 82 31 83 30 84 49 85 50 86
REMARK SMILES IDX 54 87 51 88 53 89 52 90 39 91 40 92 44 93 41 94 43 95 42 96
REMARK H PARENT 70 17 59 64 37 75
REMARK Flexibility Score: inf
ROOT
ATOM      1  C   UNL A   1      32.251  29.198  26.046  1.00  0.00     0.188 C 
ENDROOT
BRANCH   1   2
ATOM      2  C   UNL A   1      33.396  28.240  25.706  1.00  0.00     0.188 C 
BRANCH   2   3
ATOM      3  O   UNL A   1      33.452  27.953  24.306  1.00  0.00    -0.376 OA
BRANCH   3   4
ATOM      4  C   UNL A   1      32.287  27.359  23.734  1.00  0.00     0.202 C 
BRANCH   4   5
ATOM      5  C   UNL A   1      32.482  25.968  23.130  1.00  0.00     0.261 C 
BRANCH   5   6
ATOM      6  O   UNL A   1      33.721  25.354  23.510  1.00  0.00    -0.460 OA
BRANCH   6   7
ATOM      7  C   UNL A   1      33.907  24.234  24.251  1.00  0.00     0.338 C 
ATOM      8  O   UNL A   1      32.913  23.653  24.686  1.00  0.00    -0.246 OA
BRANCH   7   9
ATOM      9  C   UNL A   1      35.244  23.648  24.575  1.00  0.00     0.060 A 
ATOM     10  C   UNL A   1      36.014  22.864  23.718  1.00  0.00     0.020 A 
ATOM     11  C   UNL A   1      35.805  23.995  25.817  1.00  0.00     0.020 A 
ATOM     12  C   UNL A   1      37.256  22.383  24.099  1.00  0.00     0.052 A 
ATOM     13  C   UNL A   1      37.056  23.503  26.213  1.00  0.00     0.052 A 
ATOM     14  C   UNL A   1      37.755  22.647  25.367  1.00  0.00     0.125 A 
BRANCH  14  15
ATOM     15  N   UNL A   1      38.870  21.908  25.769  1.00  0.00    -0.235 N 
ATOM     16  C   UNL A   1      39.755  22.541  26.470  1.00  0.00     0.320 C 
ATOM     17  H   UNL A   1      38.977  20.958  25.534  1.00  0.00     0.313 HD
ATOM     18  S   UNL A   1      39.852  24.276  26.697  1.00  0.00    -0.022 SA
ATOM     19  N   UNL A   1      40.734  21.915  27.189  1.00  0.00    -0.186 N 
ATOM     20  C   UNL A   1      41.567  24.158  27.237  1.00  0.00     0.178 C 
ATOM     21  C   UNL A   1      41.689  22.732  27.762  1.00  0.00     0.324 C 
ATOM     22  O   UNL A   1      42.564  22.349  28.529  1.00  0.00    -0.245 OA
BRANCH  19  23
ATOM     23  C   UNL A   1      40.701  20.482  27.454  1.00  0.00     0.283 C 
BRANCH  23  24
ATOM     24  C   UNL A   1      41.895  19.745  26.867  1.00  0.00    -0.006 A 
ATOM     25  C   UNL A   1      42.353  18.545  27.428  1.00  0.00     0.008 A 
ATOM     26  C   UNL A   1      42.568  20.252  25.744  1.00  0.00     0.008 A 
ATOM     27  C   UNL A   1      43.453  17.876  26.878  1.00  0.00     0.000 A 
ATOM     28  C   UNL A   1      43.644  19.569  25.175  1.00  0.00     0.000 A 
ATOM     29  C   UNL A   1      44.091  18.382  25.746  1.00  0.00     0.000 A 
ENDBRANCH  23  24
ENDBRANCH  19  23
BRANCH  20  30
ATOM     30  C   UNL A   1      41.868  25.268  28.237  1.00  0.00     0.063 C 
BRANCH  30  31
ATOM     31  C   UNL A   1      42.792  26.313  27.662  1.00  0.00    -0.046 A 
ATOM     32  C   UNL A   1      43.325  27.306  28.496  1.00  0.00     0.007 A 
ATOM     33  C   UNL A   1      43.154  26.282  26.305  1.00  0.00     0.007 A 
ATOM     34  C   UNL A   1      44.240  28.227  27.990  1.00  0.00     0.039 A 
ATOM     35  C   UNL A   1      44.076  27.198  25.806  1.00  0.00     0.039 A 
ATOM     36  C   UNL A   1      44.615  28.157  26.654  1.00  0.00     0.123 A 
ATOM     37  F   UNL A   1      45.515  29.028  26.177  1.00  0.00    -0.207 F 
ENDBRANCH  30  31
ENDBRANCH  20  30
ENDBRANCH  14  15
ENDBRANCH   7   9
ENDBRANCH   6   7
ENDBRANCH   5   6
ENDBRANCH   4   5
ENDBRANCH   3   4
ENDBRANCH   2   3
ENDBRANCH   1   2
BRANCH   1  38
ATOM     38  O   UNL A   1      32.634  30.547  26.308  1.00  0.00    -0.377 OA
BRANCH  38  39
ATOM     39  C   UNL A   1      33.273  30.789  27.555  1.00  0.00     0.188 C 
BRANCH  39  40
ATOM     40  C   UNL A   1      34.249  31.983  27.663  1.00  0.00     0.188 C 
BRANCH  40  41
ATOM     41  O   UNL A   1      33.620  33.201  28.020  1.00  0.00    -0.376 OA
BRANCH  41  42
ATOM     42  C   UNL A   1      34.158  33.903  29.132  1.00  0.00     0.202 C 
BRANCH  42  43
ATOM     43  C   UNL A   1      33.411  35.123  29.709  1.00  0.00     0.261 C 
BRANCH  43  44
ATOM     44  O   UNL A   1      32.524  34.890  30.813  1.00  0.00    -0.460 OA
BRANCH  44  45
ATOM     45  C   UNL A   1      32.818  35.440  32.019  1.00  0.00     0.338 C 
ATOM     46  O   UNL A   1      32.105  36.123  32.703  1.00  0.00    -0.246 OA
BRANCH  45  47
ATOM     47  C   UNL A   1      34.102  34.817  32.460  1.00  0.00     0.060 A 
ATOM     48  C   UNL A   1      35.258  35.615  32.479  1.00  0.00     0.016 A 
ATOM     49  C   UNL A   1      34.139  33.524  32.994  1.00  0.00     0.016 A 
ATOM     50  C   UNL A   1      36.446  35.124  33.035  1.00  0.00     0.010 A 
ATOM     51  C   UNL A   1      35.335  33.023  33.520  1.00  0.00     0.010 A 
ATOM     52  C   UNL A   1      36.500  33.812  33.528  1.00  0.00    -0.014 A 
BRANCH  52  53
ATOM     53  C   UNL A   1      37.809  33.174  33.819  1.00  0.00     0.031 A 
ATOM     54  C   UNL A   1      38.333  32.190  32.809  1.00  0.00     0.074 A 
ATOM     55  C   UNL A   1      38.508  33.421  34.942  1.00  0.00     0.049 A 
ATOM     56  N   UNL A   1      39.390  31.423  32.864  1.00  0.00    -0.248 NA
ATOM     57  C   UNL A   1      37.549  32.052  31.569  1.00  0.00     0.031 C 
ATOM     58  C   UNL A   1      38.142  34.381  35.982  1.00  0.00     0.029 A 
ATOM     59  N   UNL A   1      39.676  32.858  35.401  1.00  0.00    -0.354 N 
ATOM     60  C   UNL A   1      39.385  30.699  31.678  1.00  0.00     0.074 A 
ATOM     61  C   UNL A   1      38.219  31.108  30.929  1.00  0.00     0.031 C 
ATOM     62  C   UNL A   1      39.057  34.323  36.969  1.00  0.00     0.029 A 
ATOM     63  C   UNL A   1      40.048  33.295  36.651  1.00  0.00     0.049 A 
ATOM     64  H   UNL A   1      40.197  32.204  34.882  1.00  0.00     0.167 HD
ATOM     65  C   UNL A   1      40.269  29.769  31.251  1.00  0.00     0.031 A 
ATOM     66  C   UNL A   1      41.049  32.882  37.457  1.00  0.00     0.031 A 
ATOM     67  C   UNL A   1      41.418  29.343  31.999  1.00  0.00     0.049 A 
ATOM     68  C   UNL A   1      41.969  31.777  36.997  1.00  0.00     0.074 A 
ATOM     69  C   UNL A   1      42.389  28.429  31.634  1.00  0.00     0.029 A 
ATOM     70  N   UNL A   1      41.739  29.788  33.270  1.00  0.00    -0.354 N 
ATOM     71  N   UNL A   1      41.986  31.137  35.851  1.00  0.00    -0.248 NA
ATOM     72  C   UNL A   1      43.006  31.334  37.942  1.00  0.00     0.031 C 
ATOM     73  C   UNL A   1      43.260  28.267  32.714  1.00  0.00     0.029 A 
ATOM     74  C   UNL A   1      42.870  29.134  33.723  1.00  0.00     0.049 A 
ATOM     75  H   UNL A   1      41.237  30.469  33.775  1.00  0.00     0.167 HD
ATOM     76  C   UNL A   1      43.047  30.239  35.932  1.00  0.00     0.074 A 
ATOM     77  C   UNL A   1      43.660  30.428  37.229  1.00  0.00     0.031 C 
ATOM     78  C   UNL A   1      43.473  29.337  35.014  1.00  0.00     0.031 A 
BRANCH  65  79
ATOM     79  C   UNL A   1      39.993  29.109  29.931  1.00  0.00    -0.014 A 
ATOM     80  C   UNL A   1      40.453  29.659  28.725  1.00  0.00     0.009 A 
ATOM     81  C   UNL A   1      39.291  27.894  29.902  1.00  0.00     0.009 A 
ATOM     82  C   UNL A   1      40.191  29.017  27.513  1.00  0.00     0.001 A 
ATOM     83  C   UNL A   1      39.054  27.241  28.692  1.00  0.00     0.001 A 
ATOM     84  C   UNL A   1      39.498  27.807  27.498  1.00  0.00     0.000 A 
ENDBRANCH  65  79
BRANCH  66  85
ATOM     85  C   UNL A   1      41.215  33.467  38.819  1.00  0.00    -0.014 A 
ATOM     86  C   UNL A   1      40.437  33.016  39.897  1.00  0.00     0.009 A 
ATOM     87  C   UNL A   1      42.114  34.523  39.033  1.00  0.00     0.009 A 
ATOM     88  C   UNL A   1      40.534  33.631  41.150  1.00  0.00     0.001 A 
ATOM     89  C   UNL A   1      42.232  35.114  40.293  1.00  0.00     0.001 A 
ATOM     90  C   UNL A   1      41.434  34.676  41.347  1.00  0.00     0.000 A 
ENDBRANCH  66  85
BRANCH  78  91
ATOM     91  C   UNL A   1      44.678  28.505  35.355  1.00  0.00    -0.014 A 
ATOM     92  C   UNL A   1      45.959  29.073  35.430  1.00  0.00     0.009 A 
ATOM     93  C   UNL A   1      44.516  27.149  35.682  1.00  0.00     0.009 A 
ATOM     94  C   UNL A   1      47.055  28.293  35.806  1.00  0.00     0.001 A 
ATOM     95  C   UNL A   1      45.607  26.380  36.086  1.00  0.00     0.001 A 
ATOM     96  C   UNL A   1      46.878  26.950  36.141  1.00  0.00     0.000 A 
ENDBRANCH  78  91
ENDBRANCH  52  53
ENDBRANCH  45  47
ENDBRANCH  44  45
ENDBRANCH  43  44
ENDBRANCH  42  43
ENDBRANCH  41  42
ENDBRANCH  40  41
ENDBRANCH  39  40
ENDBRANCH  38  39
ENDBRANCH   1  38
TORSDOF 25
ENDMDL
