MODEL 1
REMARK VINA RESULT:      -7.0      0.000      0.000
REMARK SMILES Nc1nc(Nc2ccc(C(=O)OCCOCCOCCOCCOC(=O)c3ccc(-c4c5nc(c(-c6ccccc6)c6ccc([nH]6)c(-c6ccccc6)c6nc(c(-c7ccccc7)c7ccc4[nH]7)C=C6)C=C5)cc3)cc2)ccc1[N+](=O)[O-]
REMARK SMILES IDX 17 1 16 2 15 3 14 4 13 5 12 6 10 7 11 8 9 9 6 10 7 11 76 12
REMARK SMILES IDX 8 13 75 14 5 15 4 17 2 18 3 19 79 20 78 21 77 22 1 23 80 26
REMARK SMILES IDX 81 27 82 28 18 29 19 30 20 31 21 32 22 33 23 34 24 35 25 36
REMARK SMILES IDX 26 37 27 38 28 39 74 40 29 41 73 42 30 43 31 44 32 45 67 46
REMARK SMILES IDX 33 47 72 48 66 49 68 50 34 51 71 52 65 53 64 54 35 56 57 57
REMARK SMILES IDX 42 58 56 59 43 60 46 61 55 62 69 63 44 64 45 65 54 67 70 68
REMARK SMILES IDX 47 69 36 70 37 71 41 72 38 73 40 74 39 75 58 76 59 77 63 78
REMARK SMILES IDX 60 79 62 80 61 81 48 82 49 83 53 84 50 85 52 86 51 87
REMARK H PARENT 5 16 1 24 1 25 68 55 46 66
REMARK Flexibility Score: inf
ROOT
ATOM      1  C   UNL A   1      36.665  33.461  35.113  1.00  0.00     0.188 C 
ENDROOT
BRANCH   1   2
ATOM      2  C   UNL A   1      35.432  34.201  34.548  1.00  0.00     0.188 C 
BRANCH   2   3
ATOM      3  O   UNL A   1      35.718  35.023  33.429  1.00  0.00    -0.376 OA
BRANCH   3   4
ATOM      4  C   UNL A   1      34.673  35.763  32.830  1.00  0.00     0.202 C 
BRANCH   4   5
ATOM      5  C   UNL A   1      33.982  35.196  31.581  1.00  0.00     0.261 C 
BRANCH   5   6
ATOM      6  O   UNL A   1      34.505  33.962  31.083  1.00  0.00    -0.460 OA
BRANCH   6   7
ATOM      7  C   UNL A   1      35.140  34.012  29.892  1.00  0.00     0.338 C 
ATOM      8  O   UNL A   1      34.926  34.795  28.985  1.00  0.00    -0.246 OA
BRANCH   7   9
ATOM      9  C   UNL A   1      36.291  33.082  29.947  1.00  0.00     0.060 A 
ATOM     10  C   UNL A   1      38.554  31.441  30.096  1.00  0.00     0.040 A 
ATOM     11  C   UNL A   1      38.106  32.124  31.234  1.00  0.00     0.027 A 
ATOM     12  C   UNL A   1      37.801  31.515  28.914  1.00  0.00     0.027 A 
ATOM     13  C   UNL A   1      36.988  32.955  31.156  1.00  0.00     0.018 A 
ATOM     14  C   UNL A   1      36.667  32.323  28.837  1.00  0.00     0.018 A 
BRANCH  10  15
ATOM     15  N   UNL A   1      39.868  30.921  30.076  1.00  0.00    -0.340 N 
ATOM     16  H   UNL A   1      40.602  31.464  30.447  1.00  0.00     0.168 HD
BRANCH  15  17
ATOM     17  C   UNL A   1      40.160  29.648  29.542  1.00  0.00     0.133 A 
ATOM     18  C   UNL A   1      41.365  28.359  27.989  1.00  0.00     0.204 A 
ATOM     19  N   UNL A   1      41.029  29.554  28.508  1.00  0.00    -0.207 NA
ATOM     20  C   UNL A   1      40.820  27.191  28.497  1.00  0.00     0.311 A 
ATOM     21  C   UNL A   1      39.897  27.270  29.551  1.00  0.00     0.093 A 
ATOM     22  C   UNL A   1      39.553  28.519  30.069  1.00  0.00     0.054 A 
BRANCH  18  23
ATOM     23  N   UNL A   1      42.189  28.459  26.892  1.00  0.00    -0.378 N 
ATOM     24  H   UNL A   1      42.218  29.293  26.371  1.00  0.00     0.158 HD
ATOM     25  H   UNL A   1      42.751  27.693  26.628  1.00  0.00     0.158 HD
ENDBRANCH  18  23
BRANCH  20  26
ATOM     26  N   UNL A   1      41.212  25.882  27.985  1.00  0.00     0.066 N 
ATOM     27  O   UNL A   1      41.926  25.176  28.715  1.00  0.00    -0.258 OA
ATOM     28  O   UNL A   1      40.853  25.555  26.843  1.00  0.00    -0.258 OA
ENDBRANCH  20  26
ENDBRANCH  15  17
ENDBRANCH  10  15
ENDBRANCH   7   9
ENDBRANCH   6   7
ENDBRANCH   5   6
ENDBRANCH   4   5
ENDBRANCH   3   4
ENDBRANCH   2   3
ENDBRANCH   1   2
BRANCH   1  29
ATOM     29  O   UNL A   1      37.038  32.207  34.556  1.00  0.00    -0.377 OA
BRANCH  29  30
ATOM     30  C   UNL A   1      37.899  31.333  35.281  1.00  0.00     0.188 C 
BRANCH  30  31
ATOM     31  C   UNL A   1      38.868  31.860  36.367  1.00  0.00     0.188 C 
BRANCH  31  32
ATOM     32  O   UNL A   1      38.334  31.874  37.679  1.00  0.00    -0.376 OA
BRANCH  32  33
ATOM     33  C   UNL A   1      38.342  33.100  38.384  1.00  0.00     0.202 C 
BRANCH  33  34
ATOM     34  C   UNL A   1      39.395  34.138  37.976  1.00  0.00     0.261 C 
BRANCH  34  35
ATOM     35  O   UNL A   1      38.984  35.117  37.012  1.00  0.00    -0.460 OA
BRANCH  35  36
ATOM     36  C   UNL A   1      39.943  35.883  36.453  1.00  0.00     0.338 C 
ATOM     37  O   UNL A   1      40.322  36.984  36.824  1.00  0.00    -0.246 OA
BRANCH  36  38
ATOM     38  C   UNL A   1      40.599  35.077  35.404  1.00  0.00     0.060 A 
ATOM     39  C   UNL A   1      39.845  34.622  34.313  1.00  0.00     0.016 A 
ATOM     40  C   UNL A   1      41.962  34.787  35.494  1.00  0.00     0.016 A 
ATOM     41  C   UNL A   1      40.450  33.846  33.322  1.00  0.00     0.010 A 
ATOM     42  C   UNL A   1      42.560  33.992  34.514  1.00  0.00     0.010 A 
ATOM     43  C   UNL A   1      41.800  33.492  33.441  1.00  0.00    -0.014 A 
BRANCH  43  44
ATOM     44  C   UNL A   1      42.370  32.439  32.566  1.00  0.00     0.031 A 
ATOM     45  C   UNL A   1      42.468  31.039  33.111  1.00  0.00     0.074 A 
ATOM     46  C   UNL A   1      42.777  32.706  31.312  1.00  0.00     0.049 A 
ATOM     47  N   UNL A   1      42.982  29.967  32.565  1.00  0.00    -0.248 NA
ATOM     48  C   UNL A   1      41.908  30.821  34.456  1.00  0.00     0.031 C 
ATOM     49  C   UNL A   1      42.681  34.003  30.646  1.00  0.00     0.029 A 
ATOM     50  N   UNL A   1      43.357  31.886  30.375  1.00  0.00    -0.354 N 
ATOM     51  C   UNL A   1      42.810  28.953  33.497  1.00  0.00     0.074 A 
ATOM     52  C   UNL A   1      42.180  29.541  34.658  1.00  0.00     0.031 C 
ATOM     53  C   UNL A   1      43.192  33.894  29.406  1.00  0.00     0.029 A 
ATOM     54  C   UNL A   1      43.685  32.532  29.208  1.00  0.00     0.049 A 
ATOM     55  H   UNL A   1      43.523  30.929  30.527  1.00  0.00     0.167 HD
ATOM     56  C   UNL A   1      43.136  27.642  33.395  1.00  0.00     0.031 A 
ATOM     57  C   UNL A   1      44.333  32.076  28.117  1.00  0.00     0.031 A 
ATOM     58  C   UNL A   1      43.785  27.060  32.252  1.00  0.00     0.049 A 
ATOM     59  C   UNL A   1      44.793  30.640  28.077  1.00  0.00     0.074 A 
ATOM     60  C   UNL A   1      44.169  25.745  32.056  1.00  0.00     0.029 A 
ATOM     61  N   UNL A   1      44.151  27.759  31.113  1.00  0.00    -0.354 N 
ATOM     62  N   UNL A   1      44.614  29.685  28.959  1.00  0.00    -0.248 NA
ATOM     63  C   UNL A   1      45.542  30.219  26.884  1.00  0.00     0.031 C 
ATOM     64  C   UNL A   1      44.821  25.661  30.822  1.00  0.00     0.029 A 
ATOM     65  C   UNL A   1      44.778  26.907  30.219  1.00  0.00     0.049 A 
ATOM     66  H   UNL A   1      43.988  28.718  30.962  1.00  0.00     0.167 HD
ATOM     67  C   UNL A   1      45.190  28.546  28.407  1.00  0.00     0.074 A 
ATOM     68  C   UNL A   1      45.710  28.924  27.111  1.00  0.00     0.031 C 
ATOM     69  C   UNL A   1      45.278  27.296  28.927  1.00  0.00     0.031 A 
BRANCH  56  70
ATOM     70  C   UNL A   1      42.819  26.757  34.567  1.00  0.00    -0.014 A 
ATOM     71  C   UNL A   1      41.545  26.187  34.726  1.00  0.00     0.009 A 
ATOM     72  C   UNL A   1      43.818  26.458  35.507  1.00  0.00     0.009 A 
ATOM     73  C   UNL A   1      41.271  25.362  35.819  1.00  0.00     0.001 A 
ATOM     74  C   UNL A   1      43.550  25.607  36.581  1.00  0.00     0.001 A 
ATOM     75  C   UNL A   1      42.275  25.068  36.741  1.00  0.00     0.000 A 
ENDBRANCH  56  70
BRANCH  57  76
ATOM     76  C   UNL A   1      44.619  32.982  26.971  1.00  0.00    -0.014 A 
ATOM     77  C   UNL A   1      43.769  33.012  25.852  1.00  0.00     0.009 A 
ATOM     78  C   UNL A   1      45.776  33.777  26.959  1.00  0.00     0.009 A 
ATOM     79  C   UNL A   1      44.094  33.784  24.734  1.00  0.00     0.001 A 
ATOM     80  C   UNL A   1      46.080  34.577  25.855  1.00  0.00     0.001 A 
ATOM     81  C   UNL A   1      45.247  34.568  24.737  1.00  0.00     0.000 A 
ENDBRANCH  57  76
BRANCH  69  82
ATOM     82  C   UNL A   1      45.908  26.231  28.069  1.00  0.00    -0.014 A 
ATOM     83  C   UNL A   1      47.274  25.925  28.158  1.00  0.00     0.009 A 
ATOM     84  C   UNL A   1      45.103  25.492  27.186  1.00  0.00     0.009 A 
ATOM     85  C   UNL A   1      47.829  24.928  27.352  1.00  0.00     0.001 A 
ATOM     86  C   UNL A   1      45.654  24.472  26.408  1.00  0.00     0.001 A 
ATOM     87  C   UNL A   1      47.018  24.199  26.484  1.00  0.00     0.000 A 
ENDBRANCH  69  82
ENDBRANCH  43  44
ENDBRANCH  36  38
ENDBRANCH  35  36
ENDBRANCH  34  35
ENDBRANCH  33  34
ENDBRANCH  32  33
ENDBRANCH  31  32
ENDBRANCH  30  31
ENDBRANCH  29  30
ENDBRANCH   1  29
TORSDOF 24
ENDMDL
MODEL 2
REMARK VINA RESULT:      -6.2      4.573     11.763
REMARK SMILES Nc1nc(Nc2ccc(C(=O)OCCOCCOCCOCCOC(=O)c3ccc(-c4c5nc(c(-c6ccccc6)c6ccc([nH]6)c(-c6ccccc6)c6nc(c(-c7ccccc7)c7ccc4[nH]7)C=C6)C=C5)cc3)cc2)ccc1[N+](=O)[O-]
REMARK SMILES IDX 17 1 16 2 15 3 14 4 13 5 12 6 10 7 11 8 9 9 6 10 7 11 76 12
REMARK SMILES IDX 8 13 75 14 5 15 4 17 2 18 3 19 79 20 78 21 77 22 1 23 80 26
REMARK SMILES IDX 81 27 82 28 18 29 19 30 20 31 21 32 22 33 23 34 24 35 25 36
REMARK SMILES IDX 26 37 27 38 28 39 74 40 29 41 73 42 30 43 31 44 32 45 67 46
REMARK SMILES IDX 33 47 72 48 66 49 68 50 34 51 71 52 65 53 64 54 35 56 57 57
REMARK SMILES IDX 42 58 56 59 43 60 46 61 55 62 69 63 44 64 45 65 54 67 70 68
REMARK SMILES IDX 47 69 36 70 37 71 41 72 38 73 40 74 39 75 58 76 59 77 63 78
REMARK SMILES IDX 60 79 62 80 61 81 48 82 49 83 53 84 50 85 52 86 51 87
REMARK H PARENT 5 16 1 24 1 25 68 55 46 66
REMARK Flexibility Score: inf
ROOT
ATOM      1  C   UNL A   1      47.143  27.011  25.130  1.00  0.00     0.188 C 
ENDROOT
BRANCH   1   2
ATOM      2  C   UNL A   1      45.720  27.303  24.603  1.00  0.00     0.188 C 
BRANCH   2   3
ATOM      3  O   UNL A   1      44.832  26.203  24.705  1.00  0.00    -0.376 OA
BRANCH   3   4
ATOM      4  C   UNL A   1      44.994  25.278  25.761  1.00  0.00     0.202 C 
BRANCH   4   5
ATOM      5  C   UNL A   1      43.744  24.677  26.422  1.00  0.00     0.261 C 
BRANCH   5   6
ATOM      6  O   UNL A   1      42.920  25.592  27.148  1.00  0.00    -0.460 OA
BRANCH   6   7
ATOM      7  C   UNL A   1      41.912  26.173  26.463  1.00  0.00     0.338 C 
ATOM      8  O   UNL A   1      41.493  25.846  25.367  1.00  0.00    -0.246 OA
BRANCH   7   9
ATOM      9  C   UNL A   1      41.254  27.152  27.357  1.00  0.00     0.060 A 
ATOM     10  C   UNL A   1      40.103  29.110  28.993  1.00  0.00     0.040 A 
ATOM     11  C   UNL A   1      40.104  29.270  27.602  1.00  0.00     0.027 A 
ATOM     12  C   UNL A   1      40.597  27.918  29.544  1.00  0.00     0.027 A 
ATOM     13  C   UNL A   1      40.693  28.302  26.787  1.00  0.00     0.018 A 
ATOM     14  C   UNL A   1      41.162  26.934  28.733  1.00  0.00     0.018 A 
BRANCH  10  15
ATOM     15  N   UNL A   1      39.863  30.233  29.816  1.00  0.00    -0.340 N 
ATOM     16  H   UNL A   1      40.615  30.634  30.310  1.00  0.00     0.168 HD
BRANCH  15  17
ATOM     17  C   UNL A   1      38.577  30.798  29.952  1.00  0.00     0.133 A 
ATOM     18  C   UNL A   1      37.051  32.473  29.322  1.00  0.00     0.204 A 
ATOM     19  N   UNL A   1      38.275  31.917  29.252  1.00  0.00    -0.207 NA
ATOM     20  C   UNL A   1      36.068  31.914  30.124  1.00  0.00     0.311 A 
ATOM     21  C   UNL A   1      36.370  30.770  30.878  1.00  0.00     0.093 A 
ATOM     22  C   UNL A   1      37.649  30.215  30.800  1.00  0.00     0.054 A 
BRANCH  18  23
ATOM     23  N   UNL A   1      36.949  33.649  28.616  1.00  0.00    -0.378 N 
ATOM     24  H   UNL A   1      37.025  34.512  29.083  1.00  0.00     0.158 HD
ATOM     25  H   UNL A   1      36.801  33.627  27.642  1.00  0.00     0.158 HD
ENDBRANCH  18  23
BRANCH  20  26
ATOM     26  N   UNL A   1      34.719  32.468  30.173  1.00  0.00     0.066 N 
ATOM     27  O   UNL A   1      34.173  32.729  29.090  1.00  0.00    -0.258 OA
ATOM     28  O   UNL A   1      34.204  32.688  31.280  1.00  0.00    -0.258 OA
ENDBRANCH  20  26
ENDBRANCH  15  17
ENDBRANCH  10  15
ENDBRANCH   7   9
ENDBRANCH   6   7
ENDBRANCH   5   6
ENDBRANCH   4   5
ENDBRANCH   3   4
ENDBRANCH   2   3
ENDBRANCH   1   2
BRANCH   1  29
ATOM     29  O   UNL A   1      48.197  27.913  24.823  1.00  0.00    -0.377 OA
BRANCH  29  30
ATOM     30  C   UNL A   1      49.448  27.416  24.355  1.00  0.00     0.188 C 
BRANCH  30  31
ATOM     31  C   UNL A   1      50.793  28.005  24.846  1.00  0.00     0.188 C 
BRANCH  31  32
ATOM     32  O   UNL A   1      51.007  29.361  24.499  1.00  0.00    -0.376 OA
BRANCH  32  33
ATOM     33  C   UNL A   1      52.330  29.857  24.547  1.00  0.00     0.202 C 
BRANCH  33  34
ATOM     34  C   UNL A   1      53.454  28.837  24.776  1.00  0.00     0.261 C 
BRANCH  34  35
ATOM     35  O   UNL A   1      53.885  28.660  26.133  1.00  0.00    -0.460 OA
BRANCH  35  36
ATOM     36  C   UNL A   1      54.203  27.409  26.526  1.00  0.00     0.338 C 
ATOM     37  O   UNL A   1      55.200  26.770  26.230  1.00  0.00    -0.246 OA
BRANCH  36  38
ATOM     38  C   UNL A   1      53.211  26.999  27.541  1.00  0.00     0.060 A 
ATOM     39  C   UNL A   1      52.288  25.990  27.234  1.00  0.00     0.016 A 
ATOM     40  C   UNL A   1      53.208  27.603  28.800  1.00  0.00     0.016 A 
ATOM     41  C   UNL A   1      51.336  25.603  28.179  1.00  0.00     0.010 A 
ATOM     42  C   UNL A   1      52.241  27.232  29.737  1.00  0.00     0.010 A 
ATOM     43  C   UNL A   1      51.281  26.254  29.419  1.00  0.00    -0.014 A 
BRANCH  43  44
ATOM     44  C   UNL A   1      50.106  26.063  30.305  1.00  0.00     0.031 A 
ATOM     45  C   UNL A   1      48.846  26.823  29.985  1.00  0.00     0.074 A 
ATOM     46  C   UNL A   1      50.143  25.226  31.356  1.00  0.00     0.049 A 
ATOM     47  N   UNL A   1      47.715  26.871  30.640  1.00  0.00    -0.248 NA
ATOM     48  C   UNL A   1      48.869  27.640  28.759  1.00  0.00     0.031 C 
ATOM     49  C   UNL A   1      51.278  24.388  31.737  1.00  0.00     0.029 A 
ATOM     50  N   UNL A   1      49.185  24.947  32.300  1.00  0.00    -0.354 N 
ATOM     51  C   UNL A   1      46.895  27.721  29.910  1.00  0.00     0.074 A 
ATOM     52  C   UNL A   1      47.668  28.196  28.784  1.00  0.00     0.031 C 
ATOM     53  C   UNL A   1      50.953  23.691  32.842  1.00  0.00     0.029 A 
ATOM     54  C   UNL A   1      49.605  24.064  33.265  1.00  0.00     0.049 A 
ATOM     55  H   UNL A   1      48.285  25.343  32.287  1.00  0.00     0.167 HD
ATOM     56  C   UNL A   1      45.608  28.068  30.146  1.00  0.00     0.031 A 
ATOM     57  C   UNL A   1      48.977  23.629  34.377  1.00  0.00     0.031 A 
ATOM     58  C   UNL A   1      44.846  27.616  31.278  1.00  0.00     0.049 A 
ATOM     59  C   UNL A   1      47.585  24.126  34.680  1.00  0.00     0.074 A 
ATOM     60  C   UNL A   1      43.538  27.921  31.614  1.00  0.00     0.029 A 
ATOM     61  N   UNL A   1      45.325  26.767  32.262  1.00  0.00    -0.354 N 
ATOM     62  N   UNL A   1      46.814  24.919  33.976  1.00  0.00    -0.248 NA
ATOM     63  C   UNL A   1      46.976  23.658  35.934  1.00  0.00     0.031 C 
ATOM     64  C   UNL A   1      43.247  27.303  32.833  1.00  0.00     0.029 A 
ATOM     65  C   UNL A   1      44.347  26.556  33.219  1.00  0.00     0.049 A 
ATOM     66  H   UNL A   1      46.227  26.373  32.278  1.00  0.00     0.167 HD
ATOM     67  C   UNL A   1      45.618  25.010  34.680  1.00  0.00     0.074 A 
ATOM     68  C   UNL A   1      45.760  24.180  35.857  1.00  0.00     0.031 C 
ATOM     69  C   UNL A   1      44.500  25.716  34.378  1.00  0.00     0.031 A 
BRANCH  56  70
ATOM     70  C   UNL A   1      44.954  29.007  29.171  1.00  0.00    -0.014 A 
ATOM     71  C   UNL A   1      44.704  30.348  29.505  1.00  0.00     0.009 A 
ATOM     72  C   UNL A   1      44.615  28.554  27.886  1.00  0.00     0.009 A 
ATOM     73  C   UNL A   1      44.102  31.206  28.584  1.00  0.00     0.001 A 
ATOM     74  C   UNL A   1      44.043  29.423  26.956  1.00  0.00     0.001 A 
ATOM     75  C   UNL A   1      43.778  30.744  27.308  1.00  0.00     0.000 A 
ENDBRANCH  56  70
BRANCH  57  76
ATOM     76  C   UNL A   1      49.654  22.691  35.313  1.00  0.00    -0.014 A 
ATOM     77  C   UNL A   1      49.486  21.302  35.181  1.00  0.00     0.009 A 
ATOM     78  C   UNL A   1      50.423  23.178  36.382  1.00  0.00     0.009 A 
ATOM     79  C   UNL A   1      50.036  20.428  36.122  1.00  0.00     0.001 A 
ATOM     80  C   UNL A   1      51.003  22.300  37.300  1.00  0.00     0.001 A 
ATOM     81  C   UNL A   1      50.797  20.927  37.178  1.00  0.00     0.000 A 
ENDBRANCH  57  76
BRANCH  69  82
ATOM     82  C   UNL A   1      43.320  25.575  35.302  1.00  0.00    -0.014 A 
ATOM     83  C   UNL A   1      42.367  24.559  35.132  1.00  0.00     0.009 A 
ATOM     84  C   UNL A   1      43.187  26.454  36.390  1.00  0.00     0.009 A 
ATOM     85  C   UNL A   1      41.284  24.451  36.008  1.00  0.00     0.001 A 
ATOM     86  C   UNL A   1      42.123  26.322  37.284  1.00  0.00     0.001 A 
ATOM     87  C   UNL A   1      41.168  25.328  37.086  1.00  0.00     0.000 A 
ENDBRANCH  69  82
ENDBRANCH  43  44
ENDBRANCH  36  38
ENDBRANCH  35  36
ENDBRANCH  34  35
ENDBRANCH  33  34
ENDBRANCH  32  33
ENDBRANCH  31  32
ENDBRANCH  30  31
ENDBRANCH  29  30
ENDBRANCH   1  29
TORSDOF 24
ENDMDL
MODEL 3
REMARK VINA RESULT:      -6.1      4.472     11.203
REMARK SMILES Nc1nc(Nc2ccc(C(=O)OCCOCCOCCOCCOC(=O)c3ccc(-c4c5nc(c(-c6ccccc6)c6ccc([nH]6)c(-c6ccccc6)c6nc(c(-c7ccccc7)c7ccc4[nH]7)C=C6)C=C5)cc3)cc2)ccc1[N+](=O)[O-]
REMARK SMILES IDX 17 1 16 2 15 3 14 4 13 5 12 6 10 7 11 8 9 9 6 10 7 11 76 12
REMARK SMILES IDX 8 13 75 14 5 15 4 17 2 18 3 19 79 20 78 21 77 22 1 23 80 26
REMARK SMILES IDX 81 27 82 28 18 29 19 30 20 31 21 32 22 33 23 34 24 35 25 36
REMARK SMILES IDX 26 37 27 38 28 39 74 40 29 41 73 42 30 43 31 44 32 45 67 46
REMARK SMILES IDX 33 47 72 48 66 49 68 50 34 51 71 52 65 53 64 54 35 56 57 57
REMARK SMILES IDX 42 58 56 59 43 60 46 61 55 62 69 63 44 64 45 65 54 67 70 68
REMARK SMILES IDX 47 69 36 70 37 71 41 72 38 73 40 74 39 75 58 76 59 77 63 78
REMARK SMILES IDX 60 79 62 80 61 81 48 82 49 83 53 84 50 85 52 86 51 87
REMARK H PARENT 5 16 1 24 1 25 68 55 46 66
REMARK Flexibility Score: inf
ROOT
ATOM      1  C   UNL A   1      47.641  20.504  33.992  1.00  0.00     0.188 C 
ENDROOT
BRANCH   1   2
ATOM      2  C   UNL A   1      46.959  20.102  35.318  1.00  0.00     0.188 C 
BRANCH   2   3
ATOM      3  O   UNL A   1      46.931  21.137  36.287  1.00  0.00    -0.376 OA
BRANCH   3   4
ATOM      4  C   UNL A   1      45.684  21.625  36.742  1.00  0.00     0.202 C 
BRANCH   4   5
ATOM      5  C   UNL A   1      45.607  23.049  37.312  1.00  0.00     0.261 C 
BRANCH   5   6
ATOM      6  O   UNL A   1      45.307  24.084  36.371  1.00  0.00    -0.460 OA
BRANCH   6   7
ATOM      7  C   UNL A   1      45.867  25.291  36.602  1.00  0.00     0.338 C 
ATOM      8  O   UNL A   1      46.983  25.505  37.040  1.00  0.00    -0.246 OA
BRANCH   7   9
ATOM      9  C   UNL A   1      44.973  26.327  36.037  1.00  0.00     0.060 A 
ATOM     10  C   UNL A   1      43.202  28.174  34.903  1.00  0.00     0.040 A 
ATOM     11  C   UNL A   1      42.723  27.182  35.766  1.00  0.00     0.027 A 
ATOM     12  C   UNL A   1      44.584  28.288  34.693  1.00  0.00     0.027 A 
ATOM     13  C   UNL A   1      43.603  26.250  36.319  1.00  0.00     0.018 A 
ATOM     14  C   UNL A   1      45.473  27.377  35.264  1.00  0.00     0.018 A 
BRANCH  10  15
ATOM     15  N   UNL A   1      42.293  28.857  34.064  1.00  0.00    -0.340 N 
ATOM     16  H   UNL A   1      42.341  28.714  33.091  1.00  0.00     0.168 HD
BRANCH  15  17
ATOM     17  C   UNL A   1      41.317  29.736  34.579  1.00  0.00     0.133 A 
ATOM     18  C   UNL A   1      39.044  30.305  34.783  1.00  0.00     0.204 A 
ATOM     19  N   UNL A   1      40.013  29.514  34.287  1.00  0.00    -0.207 NA
ATOM     20  C   UNL A   1      39.360  31.377  35.603  1.00  0.00     0.311 A 
ATOM     21  C   UNL A   1      40.707  31.640  35.895  1.00  0.00     0.093 A 
ATOM     22  C   UNL A   1      41.698  30.815  35.361  1.00  0.00     0.054 A 
BRANCH  18  23
ATOM     23  N   UNL A   1      37.791  29.985  34.314  1.00  0.00    -0.378 N 
ATOM     24  H   UNL A   1      37.077  29.738  34.945  1.00  0.00     0.158 HD
ATOM     25  H   UNL A   1      37.609  30.004  33.346  1.00  0.00     0.158 HD
ENDBRANCH  18  23
BRANCH  20  26
ATOM     26  N   UNL A   1      38.322  32.214  36.195  1.00  0.00     0.066 N 
ATOM     27  O   UNL A   1      37.365  31.636  36.733  1.00  0.00    -0.258 OA
ATOM     28  O   UNL A   1      38.422  33.447  36.099  1.00  0.00    -0.258 OA
ENDBRANCH  20  26
ENDBRANCH  15  17
ENDBRANCH  10  15
ENDBRANCH   7   9
ENDBRANCH   6   7
ENDBRANCH   5   6
ENDBRANCH   4   5
ENDBRANCH   3   4
ENDBRANCH   2   3
ENDBRANCH   1   2
BRANCH   1  29
ATOM     29  O   UNL A   1      49.041  20.309  33.844  1.00  0.00    -0.377 OA
BRANCH  29  30
ATOM     30  C   UNL A   1      49.882  20.268  34.995  1.00  0.00     0.188 C 
BRANCH  30  31
ATOM     31  C   UNL A   1      50.624  21.527  35.506  1.00  0.00     0.188 C 
BRANCH  31  32
ATOM     32  O   UNL A   1      51.875  21.768  34.886  1.00  0.00    -0.376 OA
BRANCH  32  33
ATOM     33  C   UNL A   1      52.095  21.216  33.603  1.00  0.00     0.202 C 
BRANCH  33  34
ATOM     34  C   UNL A   1      52.266  22.198  32.436  1.00  0.00     0.261 C 
BRANCH  34  35
ATOM     35  O   UNL A   1      51.169  23.091  32.190  1.00  0.00    -0.460 OA
BRANCH  35  36
ATOM     36  C   UNL A   1      51.458  24.395  32.003  1.00  0.00     0.338 C 
ATOM     37  O   UNL A   1      52.565  24.908  31.947  1.00  0.00    -0.246 OA
BRANCH  36  38
ATOM     38  C   UNL A   1      50.192  25.088  31.690  1.00  0.00     0.060 A 
ATOM     39  C   UNL A   1      49.230  25.251  32.696  1.00  0.00     0.016 A 
ATOM     40  C   UNL A   1      49.968  25.591  30.407  1.00  0.00     0.016 A 
ATOM     41  C   UNL A   1      48.023  25.892  32.410  1.00  0.00     0.010 A 
ATOM     42  C   UNL A   1      48.751  26.211  30.116  1.00  0.00     0.010 A 
ATOM     43  C   UNL A   1      47.760  26.336  31.107  1.00  0.00    -0.014 A 
BRANCH  43  44
ATOM     44  C   UNL A   1      46.387  26.743  30.725  1.00  0.00     0.031 A 
ATOM     45  C   UNL A   1      45.911  28.111  31.139  1.00  0.00     0.074 A 
ATOM     46  C   UNL A   1      45.582  25.935  30.014  1.00  0.00     0.049 A 
ATOM     47  N   UNL A   1      44.739  28.668  30.979  1.00  0.00    -0.248 NA
ATOM     48  C   UNL A   1      46.895  28.963  31.830  1.00  0.00     0.031 C 
ATOM     49  C   UNL A   1      45.942  24.615  29.500  1.00  0.00     0.029 A 
ATOM     50  N   UNL A   1      44.284  26.116  29.602  1.00  0.00    -0.354 N 
ATOM     51  C   UNL A   1      44.844  29.931  31.547  1.00  0.00     0.074 A 
ATOM     52  C   UNL A   1      46.179  30.045  32.091  1.00  0.00     0.031 C 
ATOM     53  C   UNL A   1      44.885  24.100  28.845  1.00  0.00     0.029 A 
ATOM     54  C   UNL A   1      43.766  25.037  28.928  1.00  0.00     0.049 A 
ATOM     55  H   UNL A   1      43.775  26.940  29.774  1.00  0.00     0.167 HD
ATOM     56  C   UNL A   1      43.915  30.915  31.604  1.00  0.00     0.031 A 
ATOM     57  C   UNL A   1      42.520  24.824  28.457  1.00  0.00     0.031 A 
ATOM     58  C   UNL A   1      42.580  30.795  31.086  1.00  0.00     0.049 A 
ATOM     59  C   UNL A   1      41.470  25.892  28.639  1.00  0.00     0.074 A 
ATOM     60  C   UNL A   1      41.560  31.730  31.105  1.00  0.00     0.029 A 
ATOM     61  N   UNL A   1      42.076  29.665  30.461  1.00  0.00    -0.354 N 
ATOM     62  N   UNL A   1      41.583  27.087  29.166  1.00  0.00    -0.248 NA
ATOM     63  C   UNL A   1      40.118  25.578  28.153  1.00  0.00     0.031 C 
ATOM     64  C   UNL A   1      40.422  31.145  30.544  1.00  0.00     0.029 A 
ATOM     65  C   UNL A   1      40.753  29.872  30.111  1.00  0.00     0.049 A 
ATOM     66  H   UNL A   1      42.585  28.840  30.291  1.00  0.00     0.167 HD
ATOM     67  C   UNL A   1      40.331  27.680  29.036  1.00  0.00     0.074 A 
ATOM     68  C   UNL A   1      39.480  26.719  28.367  1.00  0.00     0.031 C 
ATOM     69  C   UNL A   1      39.923  28.910  29.433  1.00  0.00     0.031 A 
BRANCH  56  70
ATOM     70  C   UNL A   1      44.310  32.200  32.276  1.00  0.00    -0.014 A 
ATOM     71  C   UNL A   1      44.833  33.276  31.540  1.00  0.00     0.009 A 
ATOM     72  C   UNL A   1      44.123  32.351  33.659  1.00  0.00     0.009 A 
ATOM     73  C   UNL A   1      45.189  34.464  32.182  1.00  0.00     0.001 A 
ATOM     74  C   UNL A   1      44.449  33.552  34.292  1.00  0.00     0.001 A 
ATOM     75  C   UNL A   1      44.990  34.603  33.555  1.00  0.00     0.000 A 
ENDBRANCH  56  70
BRANCH  57  76
ATOM     76  C   UNL A   1      42.171  23.542  27.787  1.00  0.00    -0.014 A 
ATOM     77  C   UNL A   1      41.489  22.531  28.486  1.00  0.00     0.009 A 
ATOM     78  C   UNL A   1      42.572  23.294  26.464  1.00  0.00     0.009 A 
ATOM     79  C   UNL A   1      41.255  21.290  27.889  1.00  0.00     0.001 A 
ATOM     80  C   UNL A   1      42.303  22.064  25.858  1.00  0.00     0.001 A 
ATOM     81  C   UNL A   1      41.659  21.058  26.575  1.00  0.00     0.000 A 
ENDBRANCH  57  76
BRANCH  69  82
ATOM     82  C   UNL A   1      38.511  29.314  29.101  1.00  0.00    -0.014 A 
ATOM     83  C   UNL A   1      37.495  29.303  30.069  1.00  0.00     0.009 A 
ATOM     84  C   UNL A   1      38.207  29.754  27.802  1.00  0.00     0.009 A 
ATOM     85  C   UNL A   1      36.194  29.687  29.732  1.00  0.00     0.001 A 
ATOM     86  C   UNL A   1      36.914  30.171  27.478  1.00  0.00     0.001 A 
ATOM     87  C   UNL A   1      35.908  30.126  28.440  1.00  0.00     0.000 A 
ENDBRANCH  69  82
ENDBRANCH  43  44
ENDBRANCH  36  38
ENDBRANCH  35  36
ENDBRANCH  34  35
ENDBRANCH  33  34
ENDBRANCH  32  33
ENDBRANCH  31  32
ENDBRANCH  30  31
ENDBRANCH  29  30
ENDBRANCH   1  29
TORSDOF 24
ENDMDL
