MODEL 1
REMARK VINA RESULT:     -10.3      0.000      0.000
REMARK SMILES O=C(OCCOCCOCCOCCOC(=O)[C@H]1C[N@H+](Cc2ccc(Cl)c(Cl)c2)CC12CCCCC2)c1ccc(-c2c3nc(c(-c4ccccc4)c4ccc([nH]4)c(-c4ccccc4)c4nc(c(-c5ccccc5)c5ccc2[nH]5)C=C4)C=C3)cc1
REMARK SMILES IDX 9 1 8 2 7 3 6 4 5 5 4 6 3 7 2 8 1 9 37 10 38 11 84 12 39 13
REMARK SMILES IDX 83 14 40 15 41 16 42 17 77 18 43 19 82 20 76 21 78 22 44 23
REMARK SMILES IDX 81 24 75 25 74 26 45 28 67 29 52 30 66 31 53 32 56 33 65 34
REMARK SMILES IDX 79 35 54 36 55 37 64 39 80 40 57 41 46 42 47 43 51 44 48 45
REMARK SMILES IDX 50 46 49 47 68 48 69 49 73 50 70 51 72 52 71 53 58 54 59 55
REMARK SMILES IDX 63 56 60 57 62 58 61 59 10 60 11 61 12 62 13 63 14 64 15 65
REMARK SMILES IDX 16 66 17 67 18 68 19 69 31 70 20 71 30 72 32 73 36 74 33 76
REMARK SMILES IDX 35 77 34 78 21 79 22 80 23 81 29 82 24 83 27 84 25 85 28 86
REMARK SMILES IDX 26 87
REMARK H PARENT 78 27 56 38 20 75
REMARK Flexibility Score: inf
ROOT
ATOM      1  O   UNL A   1      33.158  29.637  26.419  1.00  0.00    -0.377 OA
ENDROOT
BRANCH   1   2
ATOM      2  C   UNL A   1      33.948  30.405  27.315  1.00  0.00     0.188 C 
BRANCH   2   3
ATOM      3  C   UNL A   1      33.373  31.790  27.610  1.00  0.00     0.188 C 
BRANCH   3   4
ATOM      4  O   UNL A   1      34.451  32.665  27.943  1.00  0.00    -0.376 OA
BRANCH   4   5
ATOM      5  C   UNL A   1      34.101  33.890  28.590  1.00  0.00     0.202 C 
BRANCH   5   6
ATOM      6  C   UNL A   1      34.275  33.837  30.104  1.00  0.00     0.261 C 
BRANCH   6   7
ATOM      7  O   UNL A   1      34.470  32.493  30.563  1.00  0.00    -0.460 OA
BRANCH   7   8
ATOM      8  C   UNL A   1      35.479  32.039  31.348  1.00  0.00     0.338 C 
ATOM      9  O   UNL A   1      35.438  32.283  32.554  1.00  0.00    -0.246 OA
BRANCH   8  10
ATOM     10  C   UNL A   1      36.630  31.221  30.847  1.00  0.00     0.060 A 
ATOM     11  C   UNL A   1      37.478  30.433  31.629  1.00  0.00     0.016 A 
ATOM     12  C   UNL A   1      36.839  31.221  29.458  1.00  0.00     0.016 A 
ATOM     13  C   UNL A   1      38.526  29.720  31.089  1.00  0.00     0.010 A 
ATOM     14  C   UNL A   1      37.894  30.501  28.893  1.00  0.00     0.010 A 
ATOM     15  C   UNL A   1      38.753  29.776  29.725  1.00  0.00    -0.014 A 
BRANCH  15  16
ATOM     16  C   UNL A   1      40.046  29.269  29.266  1.00  0.00     0.031 A 
ATOM     17  C   UNL A   1      41.212  30.199  29.374  1.00  0.00     0.074 A 
ATOM     18  C   UNL A   1      40.185  27.966  28.973  1.00  0.00     0.049 A 
ATOM     19  N   UNL A   1      42.429  30.055  28.939  1.00  0.00    -0.248 NA
ATOM     20  C   UNL A   1      40.971  31.471  30.086  1.00  0.00     0.031 C 
ATOM     21  C   UNL A   1      39.129  26.953  29.080  1.00  0.00     0.029 A 
ATOM     22  N   UNL A   1      41.282  27.264  28.567  1.00  0.00    -0.354 N 
ATOM     23  C   UNL A   1      43.080  31.237  29.267  1.00  0.00     0.074 A 
ATOM     24  C   UNL A   1      42.134  32.085  29.950  1.00  0.00     0.031 C 
ATOM     25  C   UNL A   1      39.638  25.755  28.755  1.00  0.00     0.029 A 
ATOM     26  C   UNL A   1      41.018  25.938  28.328  1.00  0.00     0.049 A 
ATOM     27  H   UNL A   1      42.173  27.666  28.457  1.00  0.00     0.167 HD
ATOM     28  C   UNL A   1      44.357  31.576  28.988  1.00  0.00     0.031 A 
ATOM     29  C   UNL A   1      41.804  25.007  27.760  1.00  0.00     0.031 A 
ATOM     30  C   UNL A   1      45.247  30.689  28.297  1.00  0.00     0.049 A 
ATOM     31  C   UNL A   1      43.172  25.452  27.320  1.00  0.00     0.074 A 
ATOM     32  C   UNL A   1      46.533  30.914  27.850  1.00  0.00     0.029 A 
ATOM     33  N   UNL A   1      44.920  29.379  27.958  1.00  0.00    -0.354 N 
ATOM     34  N   UNL A   1      43.759  26.615  27.497  1.00  0.00    -0.248 NA
ATOM     35  C   UNL A   1      43.977  24.475  26.582  1.00  0.00     0.031 C 
ATOM     36  C   UNL A   1      46.962  29.757  27.192  1.00  0.00     0.029 A 
ATOM     37  C   UNL A   1      45.971  28.787  27.289  1.00  0.00     0.049 A 
ATOM     38  H   UNL A   1      44.063  28.940  28.164  1.00  0.00     0.167 HD
ATOM     39  C   UNL A   1      45.010  26.506  26.913  1.00  0.00     0.074 A 
ATOM     40  C   UNL A   1      45.101  25.152  26.394  1.00  0.00     0.031 C 
ATOM     41  C   UNL A   1      45.998  27.429  26.805  1.00  0.00     0.031 A 
BRANCH  28  42
ATOM     42  C   UNL A   1      44.778  32.978  29.326  1.00  0.00    -0.014 A 
ATOM     43  C   UNL A   1      44.558  34.054  28.451  1.00  0.00     0.009 A 
ATOM     44  C   UNL A   1      45.475  33.210  30.522  1.00  0.00     0.009 A 
ATOM     45  C   UNL A   1      45.070  35.321  28.747  1.00  0.00     0.001 A 
ATOM     46  C   UNL A   1      45.960  34.483  30.828  1.00  0.00     0.001 A 
ATOM     47  C   UNL A   1      45.768  35.534  29.935  1.00  0.00     0.000 A 
ENDBRANCH  28  42
BRANCH  29  48
ATOM     48  C   UNL A   1      41.293  23.637  27.493  1.00  0.00    -0.014 A 
ATOM     49  C   UNL A   1      41.778  22.532  28.208  1.00  0.00     0.009 A 
ATOM     50  C   UNL A   1      40.318  23.419  26.502  1.00  0.00     0.009 A 
ATOM     51  C   UNL A   1      41.321  21.243  27.919  1.00  0.00     0.001 A 
ATOM     52  C   UNL A   1      39.838  22.134  26.239  1.00  0.00     0.001 A 
ATOM     53  C   UNL A   1      40.349  21.044  26.940  1.00  0.00     0.000 A 
ENDBRANCH  29  48
BRANCH  41  54
ATOM     54  C   UNL A   1      47.267  26.975  26.150  1.00  0.00    -0.014 A 
ATOM     55  C   UNL A   1      47.484  27.153  24.776  1.00  0.00     0.009 A 
ATOM     56  C   UNL A   1      48.280  26.411  26.941  1.00  0.00     0.009 A 
ATOM     57  C   UNL A   1      48.686  26.745  24.201  1.00  0.00     0.001 A 
ATOM     58  C   UNL A   1      49.494  26.039  26.369  1.00  0.00     0.001 A 
ATOM     59  C   UNL A   1      49.691  26.197  24.998  1.00  0.00     0.000 A 
ENDBRANCH  41  54
ENDBRANCH  15  16
ENDBRANCH   8  10
ENDBRANCH   7   8
ENDBRANCH   6   7
ENDBRANCH   5   6
ENDBRANCH   4   5
ENDBRANCH   3   4
ENDBRANCH   2   3
ENDBRANCH   1   2
BRANCH   1  60
ATOM     60  C   UNL A   1      31.812  29.436  26.803  1.00  0.00     0.188 C 
BRANCH  60  61
ATOM     61  C   UNL A   1      31.414  28.203  27.646  1.00  0.00     0.188 C 
BRANCH  61  62
ATOM     62  O   UNL A   1      31.564  26.887  27.152  1.00  0.00    -0.376 OA
BRANCH  62  63
ATOM     63  C   UNL A   1      30.554  26.363  26.316  1.00  0.00     0.202 C 
BRANCH  63  64
ATOM     64  C   UNL A   1      30.515  24.846  26.052  1.00  0.00     0.261 C 
BRANCH  64  65
ATOM     65  O   UNL A   1      30.786  23.982  27.176  1.00  0.00    -0.463 OA
BRANCH  65  66
ATOM     66  C   UNL A   1      31.904  23.188  27.182  1.00  0.00     0.315 C 
ATOM     67  O   UNL A   1      32.266  22.502  28.130  1.00  0.00    -0.252 OA
BRANCH  66  68
ATOM     68  C   UNL A   1      32.648  23.323  25.846  1.00  0.00     0.166 C 
ATOM     69  C   UNL A   1      34.055  23.798  26.211  1.00  0.00     0.278 C 
ATOM     70  C   UNL A   1      32.844  22.140  24.804  1.00  0.00     0.038 C 
ATOM     71  N   UNL A   1      34.918  23.378  25.125  1.00  0.00    -0.330 N 
ATOM     72  C   UNL A   1      34.391  22.103  24.652  1.00  0.00     0.270 C 
ATOM     73  C   UNL A   1      32.284  20.745  25.170  1.00  0.00     0.014 C 
ATOM     74  C   UNL A   1      32.158  22.477  23.446  1.00  0.00     0.014 C 
ATOM     75  H   UNL A   1      35.870  23.221  25.457  1.00  0.00     0.348 HD
ATOM     76  C   UNL A   1      32.495  19.674  24.080  1.00  0.00     0.001 C 
ATOM     77  C   UNL A   1      32.436  21.486  22.317  1.00  0.00     0.001 C 
ATOM     78  C   UNL A   1      31.979  20.092  22.703  1.00  0.00     0.000 C 
BRANCH  71  79
ATOM     79  C   UNL A   1      35.361  24.393  24.166  1.00  0.00     0.299 C 
BRANCH  79  80
ATOM     80  C   UNL A   1      34.339  25.358  23.599  1.00  0.00     0.008 A 
ATOM     81  C   UNL A   1      33.828  26.423  24.359  1.00  0.00     0.011 A 
ATOM     82  C   UNL A   1      33.831  25.163  22.300  1.00  0.00     0.031 A 
ATOM     83  C   UNL A   1      32.742  27.176  23.897  1.00  0.00     0.022 A 
ATOM     84  C   UNL A   1      32.756  25.929  21.825  1.00  0.00     0.060 A 
ATOM     85  C   UNL A   1      32.188  26.914  22.641  1.00  0.00     0.059 A 
ATOM     86  Cl  UNL A   1      32.124  25.543  20.265  1.00  0.00    -0.083 Cl
ATOM     87  Cl  UNL A   1      30.767  27.787  22.189  1.00  0.00    -0.083 Cl
ENDBRANCH  79  80
ENDBRANCH  71  79
ENDBRANCH  66  68
ENDBRANCH  65  66
ENDBRANCH  64  65
ENDBRANCH  63  64
ENDBRANCH  62  63
ENDBRANCH  61  62
ENDBRANCH  60  61
ENDBRANCH   1  60
TORSDOF 22
ENDMDL
MODEL 2
REMARK VINA RESULT:     -10.0      4.914      9.934
REMARK SMILES O=C(OCCOCCOCCOCCOC(=O)[C@H]1C[N@H+](Cc2ccc(Cl)c(Cl)c2)CC12CCCCC2)c1ccc(-c2c3nc(c(-c4ccccc4)c4ccc([nH]4)c(-c4ccccc4)c4nc(c(-c5ccccc5)c5ccc2[nH]5)C=C4)C=C3)cc1
REMARK SMILES IDX 9 1 8 2 7 3 6 4 5 5 4 6 3 7 2 8 1 9 37 10 38 11 84 12 39 13
REMARK SMILES IDX 83 14 40 15 41 16 42 17 77 18 43 19 82 20 76 21 78 22 44 23
REMARK SMILES IDX 81 24 75 25 74 26 45 28 67 29 52 30 66 31 53 32 56 33 65 34
REMARK SMILES IDX 79 35 54 36 55 37 64 39 80 40 57 41 46 42 47 43 51 44 48 45
REMARK SMILES IDX 50 46 49 47 68 48 69 49 73 50 70 51 72 52 71 53 58 54 59 55
REMARK SMILES IDX 63 56 60 57 62 58 61 59 10 60 11 61 12 62 13 63 14 64 15 65
REMARK SMILES IDX 16 66 17 67 18 68 19 69 31 70 20 71 30 72 32 73 36 74 33 76
REMARK SMILES IDX 35 77 34 78 21 79 22 80 23 81 29 82 24 83 27 84 25 85 28 86
REMARK SMILES IDX 26 87
REMARK H PARENT 78 27 56 38 20 75
REMARK Flexibility Score: inf
ROOT
ATOM      1  O   UNL A   1      42.438  18.696  25.773  1.00  0.00    -0.377 OA
ENDROOT
BRANCH   1   2
ATOM      2  C   UNL A   1      43.704  19.040  25.229  1.00  0.00     0.188 C 
BRANCH   2   3
ATOM      3  C   UNL A   1      44.131  20.477  25.526  1.00  0.00     0.188 C 
BRANCH   3   4
ATOM      4  O   UNL A   1      44.119  21.215  24.303  1.00  0.00    -0.376 OA
BRANCH   4   5
ATOM      5  C   UNL A   1      43.888  22.620  24.408  1.00  0.00     0.202 C 
BRANCH   5   6
ATOM      6  C   UNL A   1      42.918  22.984  25.528  1.00  0.00     0.261 C 
BRANCH   6   7
ATOM      7  O   UNL A   1      43.232  24.261  26.099  1.00  0.00    -0.460 OA
BRANCH   7   8
ATOM      8  C   UNL A   1      42.645  25.450  25.808  1.00  0.00     0.338 C 
ATOM      9  O   UNL A   1      42.500  25.758  24.626  1.00  0.00    -0.246 OA
BRANCH   8  10
ATOM     10  C   UNL A   1      42.126  26.404  26.840  1.00  0.00     0.060 A 
ATOM     11  C   UNL A   1      42.510  27.739  26.989  1.00  0.00     0.016 A 
ATOM     12  C   UNL A   1      41.132  25.913  27.703  1.00  0.00     0.016 A 
ATOM     13  C   UNL A   1      41.993  28.548  27.977  1.00  0.00     0.010 A 
ATOM     14  C   UNL A   1      40.594  26.720  28.706  1.00  0.00     0.010 A 
ATOM     15  C   UNL A   1      41.055  28.031  28.854  1.00  0.00    -0.014 A 
BRANCH  15  16
ATOM     16  C   UNL A   1      40.790  28.827  30.054  1.00  0.00     0.031 A 
ATOM     17  C   UNL A   1      39.600  29.731  30.014  1.00  0.00     0.074 A 
ATOM     18  C   UNL A   1      41.470  28.575  31.184  1.00  0.00     0.049 A 
ATOM     19  N   UNL A   1      39.207  30.621  30.878  1.00  0.00    -0.248 NA
ATOM     20  C   UNL A   1      38.719  29.603  28.835  1.00  0.00     0.031 C 
ATOM     21  C   UNL A   1      42.489  27.531  31.349  1.00  0.00     0.029 A 
ATOM     22  N   UNL A   1      41.377  29.148  32.418  1.00  0.00    -0.354 N 
ATOM     23  C   UNL A   1      38.075  31.200  30.320  1.00  0.00     0.074 A 
ATOM     24  C   UNL A   1      37.830  30.556  29.053  1.00  0.00     0.031 C 
ATOM     25  C   UNL A   1      42.918  27.537  32.620  1.00  0.00     0.029 A 
ATOM     26  C   UNL A   1      42.277  28.640  33.321  1.00  0.00     0.049 A 
ATOM     27  H   UNL A   1      40.729  29.855  32.639  1.00  0.00     0.167 HD
ATOM     28  C   UNL A   1      37.330  32.205  30.831  1.00  0.00     0.031 A 
ATOM     29  C   UNL A   1      42.580  29.081  34.554  1.00  0.00     0.031 A 
ATOM     30  C   UNL A   1      37.632  32.809  32.096  1.00  0.00     0.049 A 
ATOM     31  C   UNL A   1      41.841  30.297  35.040  1.00  0.00     0.074 A 
ATOM     32  C   UNL A   1      37.044  33.897  32.707  1.00  0.00     0.029 A 
ATOM     33  N   UNL A   1      38.630  32.351  32.950  1.00  0.00    -0.354 N 
ATOM     34  N   UNL A   1      40.856  30.950  34.463  1.00  0.00    -0.248 NA
ATOM     35  C   UNL A   1      42.264  30.857  36.326  1.00  0.00     0.031 C 
ATOM     36  C   UNL A   1      37.724  34.129  33.907  1.00  0.00     0.029 A 
ATOM     37  C   UNL A   1      38.689  33.144  34.078  1.00  0.00     0.049 A 
ATOM     38  H   UNL A   1      39.210  31.575  32.776  1.00  0.00     0.167 HD
ATOM     39  C   UNL A   1      40.525  31.984  35.324  1.00  0.00     0.074 A 
ATOM     40  C   UNL A   1      41.406  31.855  36.473  1.00  0.00     0.031 C 
ATOM     41  C   UNL A   1      39.588  32.955  35.189  1.00  0.00     0.031 A 
BRANCH  28  42
ATOM     42  C   UNL A   1      36.236  32.751  29.959  1.00  0.00    -0.014 A 
ATOM     43  C   UNL A   1      34.977  32.136  29.869  1.00  0.00     0.009 A 
ATOM     44  C   UNL A   1      36.502  33.869  29.153  1.00  0.00     0.009 A 
ATOM     45  C   UNL A   1      34.026  32.603  28.958  1.00  0.00     0.001 A 
ATOM     46  C   UNL A   1      35.539  34.351  28.264  1.00  0.00     0.001 A 
ATOM     47  C   UNL A   1      34.307  33.710  28.158  1.00  0.00     0.000 A 
ENDBRANCH  28  42
BRANCH  29  48
ATOM     48  C   UNL A   1      43.669  28.448  35.344  1.00  0.00    -0.014 A 
ATOM     49  C   UNL A   1      43.401  27.393  36.228  1.00  0.00     0.009 A 
ATOM     50  C   UNL A   1      44.994  28.908  35.230  1.00  0.00     0.009 A 
ATOM     51  C   UNL A   1      44.426  26.834  36.998  1.00  0.00     0.001 A 
ATOM     52  C   UNL A   1      46.022  28.326  35.975  1.00  0.00     0.001 A 
ATOM     53  C   UNL A   1      45.735  27.296  36.868  1.00  0.00     0.000 A 
ENDBRANCH  29  48
BRANCH  41  54
ATOM     54  C   UNL A   1      39.445  33.908  36.338  1.00  0.00    -0.014 A 
ATOM     55  C   UNL A   1      38.684  33.580  37.468  1.00  0.00     0.009 A 
ATOM     56  C   UNL A   1      40.137  35.129  36.301  1.00  0.00     0.009 A 
ATOM     57  C   UNL A   1      38.594  34.476  38.533  1.00  0.00     0.001 A 
ATOM     58  C   UNL A   1      40.074  36.005  37.382  1.00  0.00     0.001 A 
ATOM     59  C   UNL A   1      39.295  35.681  38.491  1.00  0.00     0.000 A 
ENDBRANCH  41  54
ENDBRANCH  15  16
ENDBRANCH   8  10
ENDBRANCH   7   8
ENDBRANCH   6   7
ENDBRANCH   5   6
ENDBRANCH   4   5
ENDBRANCH   3   4
ENDBRANCH   2   3
ENDBRANCH   1   2
BRANCH   1  60
ATOM     60  C   UNL A   1      41.857  19.655  26.635  1.00  0.00     0.188 C 
BRANCH  60  61
ATOM     61  C   UNL A   1      40.346  19.968  26.552  1.00  0.00     0.188 C 
BRANCH  61  62
ATOM     62  O   UNL A   1      39.504  19.315  25.624  1.00  0.00    -0.376 OA
BRANCH  62  63
ATOM     63  C   UNL A   1      38.532  20.080  24.942  1.00  0.00     0.202 C 
BRANCH  63  64
ATOM     64  C   UNL A   1      38.288  21.537  25.376  1.00  0.00     0.261 C 
BRANCH  64  65
ATOM     65  O   UNL A   1      36.922  22.003  25.351  1.00  0.00    -0.463 OA
BRANCH  65  66
ATOM     66  C   UNL A   1      36.407  22.568  24.213  1.00  0.00     0.315 C 
ATOM     67  O   UNL A   1      37.078  23.074  23.321  1.00  0.00    -0.252 OA
BRANCH  66  68
ATOM     68  C   UNL A   1      34.873  22.509  24.247  1.00  0.00     0.166 C 
ATOM     69  C   UNL A   1      34.522  21.837  25.575  1.00  0.00     0.278 C 
ATOM     70  C   UNL A   1      33.924  23.778  24.136  1.00  0.00     0.038 C 
ATOM     71  N   UNL A   1      33.184  22.283  25.912  1.00  0.00    -0.330 N 
ATOM     72  C   UNL A   1      33.078  23.657  25.435  1.00  0.00     0.270 C 
ATOM     73  C   UNL A   1      34.582  25.174  24.026  1.00  0.00     0.014 C 
ATOM     74  C   UNL A   1      33.020  23.686  22.871  1.00  0.00     0.014 C 
ATOM     75  H   UNL A   1      33.048  22.290  26.923  1.00  0.00     0.348 HD
ATOM     76  C   UNL A   1      33.578  26.337  23.889  1.00  0.00     0.001 C 
ATOM     77  C   UNL A   1      31.945  24.767  22.763  1.00  0.00     0.001 C 
ATOM     78  C   UNL A   1      32.574  26.148  22.751  1.00  0.00     0.000 C 
BRANCH  71  79
ATOM     79  C   UNL A   1      32.076  21.347  25.713  1.00  0.00     0.299 C 
BRANCH  79  80
ATOM     80  C   UNL A   1      32.365  19.992  25.097  1.00  0.00     0.008 A 
ATOM     81  C   UNL A   1      32.900  18.936  25.854  1.00  0.00     0.011 A 
ATOM     82  C   UNL A   1      32.157  19.786  23.720  1.00  0.00     0.031 A 
ATOM     83  C   UNL A   1      33.350  17.766  25.230  1.00  0.00     0.022 A 
ATOM     84  C   UNL A   1      32.588  18.607  23.095  1.00  0.00     0.060 A 
ATOM     85  C   UNL A   1      33.219  17.609  23.848  1.00  0.00     0.059 A 
ATOM     86  Cl  UNL A   1      32.395  18.488  21.383  1.00  0.00    -0.083 Cl
ATOM     87  Cl  UNL A   1      33.917  16.203  23.127  1.00  0.00    -0.083 Cl
ENDBRANCH  79  80
ENDBRANCH  71  79
ENDBRANCH  66  68
ENDBRANCH  65  66
ENDBRANCH  64  65
ENDBRANCH  63  64
ENDBRANCH  62  63
ENDBRANCH  61  62
ENDBRANCH  60  61
ENDBRANCH   1  60
TORSDOF 22
ENDMDL
MODEL 3
REMARK VINA RESULT:      -9.5      4.540      9.212
REMARK SMILES O=C(OCCOCCOCCOCCOC(=O)[C@H]1C[N@H+](Cc2ccc(Cl)c(Cl)c2)CC12CCCCC2)c1ccc(-c2c3nc(c(-c4ccccc4)c4ccc([nH]4)c(-c4ccccc4)c4nc(c(-c5ccccc5)c5ccc2[nH]5)C=C4)C=C3)cc1
REMARK SMILES IDX 9 1 8 2 7 3 6 4 5 5 4 6 3 7 2 8 1 9 37 10 38 11 84 12 39 13
REMARK SMILES IDX 83 14 40 15 41 16 42 17 77 18 43 19 82 20 76 21 78 22 44 23
REMARK SMILES IDX 81 24 75 25 74 26 45 28 67 29 52 30 66 31 53 32 56 33 65 34
REMARK SMILES IDX 79 35 54 36 55 37 64 39 80 40 57 41 46 42 47 43 51 44 48 45
REMARK SMILES IDX 50 46 49 47 68 48 69 49 73 50 70 51 72 52 71 53 58 54 59 55
REMARK SMILES IDX 63 56 60 57 62 58 61 59 10 60 11 61 12 62 13 63 14 64 15 65
REMARK SMILES IDX 16 66 17 67 18 68 19 69 31 70 20 71 30 72 32 73 36 74 33 76
REMARK SMILES IDX 35 77 34 78 21 79 22 80 23 81 29 82 24 83 27 84 25 85 28 86
REMARK SMILES IDX 26 87
REMARK H PARENT 78 27 56 38 20 75
REMARK Flexibility Score: inf
ROOT
ATOM      1  O   UNL A   1      41.419  20.708  25.814  1.00  0.00    -0.377 OA
ENDROOT
BRANCH   1   2
ATOM      2  C   UNL A   1      42.109  19.630  26.429  1.00  0.00     0.188 C 
BRANCH   2   3
ATOM      3  C   UNL A   1      43.381  19.213  25.692  1.00  0.00     0.188 C 
BRANCH   3   4
ATOM      4  O   UNL A   1      43.661  20.187  24.686  1.00  0.00    -0.376 OA
BRANCH   4   5
ATOM      5  C   UNL A   1      45.037  20.507  24.474  1.00  0.00     0.202 C 
BRANCH   5   6
ATOM      6  C   UNL A   1      45.381  21.943  24.857  1.00  0.00     0.261 C 
BRANCH   6   7
ATOM      7  O   UNL A   1      44.558  22.410  25.934  1.00  0.00    -0.460 OA
BRANCH   7   8
ATOM      8  C   UNL A   1      43.666  23.432  25.893  1.00  0.00     0.338 C 
ATOM      9  O   UNL A   1      43.025  23.609  24.858  1.00  0.00    -0.246 OA
BRANCH   8  10
ATOM     10  C   UNL A   1      43.381  24.343  27.048  1.00  0.00     0.060 A 
ATOM     11  C   UNL A   1      42.684  24.002  28.209  1.00  0.00     0.016 A 
ATOM     12  C   UNL A   1      43.904  25.644  26.961  1.00  0.00     0.016 A 
ATOM     13  C   UNL A   1      42.452  24.907  29.221  1.00  0.00     0.010 A 
ATOM     14  C   UNL A   1      43.683  26.573  27.980  1.00  0.00     0.010 A 
ATOM     15  C   UNL A   1      42.926  26.201  29.096  1.00  0.00    -0.014 A 
BRANCH  15  16
ATOM     16  C   UNL A   1      42.381  27.180  30.037  1.00  0.00     0.031 A 
ATOM     17  C   UNL A   1      43.202  27.479  31.250  1.00  0.00     0.074 A 
ATOM     18  C   UNL A   1      41.307  27.909  29.692  1.00  0.00     0.049 A 
ATOM     19  N   UNL A   1      42.909  28.204  32.290  1.00  0.00    -0.248 NA
ATOM     20  C   UNL A   1      44.553  26.883  31.290  1.00  0.00     0.031 C 
ATOM     21  C   UNL A   1      40.600  27.827  28.409  1.00  0.00     0.029 A 
ATOM     22  N   UNL A   1      40.650  28.890  30.374  1.00  0.00    -0.354 N 
ATOM     23  C   UNL A   1      44.008  28.101  33.132  1.00  0.00     0.074 A 
ATOM     24  C   UNL A   1      44.983  27.259  32.482  1.00  0.00     0.031 C 
ATOM     25  C   UNL A   1      39.610  28.732  28.397  1.00  0.00     0.029 A 
ATOM     26  C   UNL A   1      39.559  29.380  29.700  1.00  0.00     0.049 A 
ATOM     27  H   UNL A   1      40.929  29.215  31.260  1.00  0.00     0.167 HD
ATOM     28  C   UNL A   1      44.161  28.652  34.355  1.00  0.00     0.031 A 
ATOM     29  C   UNL A   1      38.598  30.212  30.137  1.00  0.00     0.031 A 
ATOM     30  C   UNL A   1      43.149  29.476  34.950  1.00  0.00     0.049 A 
ATOM     31  C   UNL A   1      38.711  30.693  31.557  1.00  0.00     0.074 A 
ATOM     32  C   UNL A   1      43.102  30.027  36.214  1.00  0.00     0.029 A 
ATOM     33  N   UNL A   1      41.989  29.870  34.289  1.00  0.00    -0.354 N 
ATOM     34  N   UNL A   1      39.680  30.491  32.422  1.00  0.00    -0.248 NA
ATOM     35  C   UNL A   1      37.596  31.491  32.074  1.00  0.00     0.031 C 
ATOM     36  C   UNL A   1      41.886  30.708  36.336  1.00  0.00     0.029 A 
ATOM     37  C   UNL A   1      41.207  30.641  35.125  1.00  0.00     0.049 A 
ATOM     38  H   UNL A   1      41.759  29.632  33.362  1.00  0.00     0.167 HD
ATOM     39  C   UNL A   1      39.304  31.154  33.580  1.00  0.00     0.074 A 
ATOM     40  C   UNL A   1      38.025  31.781  33.294  1.00  0.00     0.031 C 
ATOM     41  C   UNL A   1      39.944  31.241  34.773  1.00  0.00     0.031 A 
BRANCH  28  42
ATOM     42  C   UNL A   1      45.391  28.268  35.126  1.00  0.00    -0.014 A 
ATOM     43  C   UNL A   1      45.426  27.138  35.960  1.00  0.00     0.009 A 
ATOM     44  C   UNL A   1      46.519  29.101  35.069  1.00  0.00     0.009 A 
ATOM     45  C   UNL A   1      46.548  26.880  36.753  1.00  0.00     0.001 A 
ATOM     46  C   UNL A   1      47.649  28.825  35.841  1.00  0.00     0.001 A 
ATOM     47  C   UNL A   1      47.658  27.722  36.691  1.00  0.00     0.000 A 
ENDBRANCH  28  42
BRANCH  29  48
ATOM     48  C   UNL A   1      37.431  30.548  29.277  1.00  0.00    -0.014 A 
ATOM     49  C   UNL A   1      37.254  31.844  28.773  1.00  0.00     0.009 A 
ATOM     50  C   UNL A   1      36.470  29.569  28.964  1.00  0.00     0.009 A 
ATOM     51  C   UNL A   1      36.131  32.159  28.002  1.00  0.00     0.001 A 
ATOM     52  C   UNL A   1      35.367  29.877  28.165  1.00  0.00     0.001 A 
ATOM     53  C   UNL A   1      35.192  31.176  27.694  1.00  0.00     0.000 A 
ENDBRANCH  29  48
BRANCH  41  54
ATOM     54  C   UNL A   1      39.287  32.086  35.821  1.00  0.00    -0.014 A 
ATOM     55  C   UNL A   1      38.347  31.546  36.710  1.00  0.00     0.009 A 
ATOM     56  C   UNL A   1      39.665  33.432  35.950  1.00  0.00     0.009 A 
ATOM     57  C   UNL A   1      37.773  32.352  37.694  1.00  0.00     0.001 A 
ATOM     58  C   UNL A   1      39.118  34.223  36.957  1.00  0.00     0.001 A 
ATOM     59  C   UNL A   1      38.165  33.684  37.820  1.00  0.00     0.000 A 
ENDBRANCH  41  54
ENDBRANCH  15  16
ENDBRANCH   8  10
ENDBRANCH   7   8
ENDBRANCH   6   7
ENDBRANCH   5   6
ENDBRANCH   4   5
ENDBRANCH   3   4
ENDBRANCH   2   3
ENDBRANCH   1   2
BRANCH   1  60
ATOM     60  C   UNL A   1      40.313  21.220  26.531  1.00  0.00     0.188 C 
BRANCH  60  61
ATOM     61  C   UNL A   1      39.309  22.174  25.844  1.00  0.00     0.188 C 
BRANCH  61  62
ATOM     62  O   UNL A   1      37.918  22.072  26.067  1.00  0.00    -0.376 OA
BRANCH  62  63
ATOM     63  C   UNL A   1      37.170  21.190  25.256  1.00  0.00     0.202 C 
BRANCH  63  64
ATOM     64  C   UNL A   1      35.748  21.596  24.824  1.00  0.00     0.261 C 
BRANCH  64  65
ATOM     65  O   UNL A   1      34.753  20.550  24.797  1.00  0.00    -0.463 OA
BRANCH  65  66
ATOM     66  C   UNL A   1      33.640  20.678  24.006  1.00  0.00     0.315 C 
ATOM     67  O   UNL A   1      33.098  19.754  23.411  1.00  0.00    -0.252 OA
BRANCH  66  68
ATOM     68  C   UNL A   1      33.209  22.151  23.943  1.00  0.00     0.166 C 
ATOM     69  C   UNL A   1      32.925  22.428  22.466  1.00  0.00     0.278 C 
ATOM     70  C   UNL A   1      31.983  22.761  24.745  1.00  0.00     0.038 C 
ATOM     71  N   UNL A   1      31.993  23.537  22.435  1.00  0.00    -0.330 N 
ATOM     72  C   UNL A   1      31.130  23.380  23.601  1.00  0.00     0.270 C 
ATOM     73  C   UNL A   1      31.135  21.807  25.620  1.00  0.00     0.014 C 
ATOM     74  C   UNL A   1      32.461  23.860  25.740  1.00  0.00     0.014 C 
ATOM     75  H   UNL A   1      31.406  23.495  21.602  1.00  0.00     0.348 HD
ATOM     76  C   UNL A   1      29.988  22.501  26.384  1.00  0.00     0.001 C 
ATOM     77  C   UNL A   1      31.343  24.636  26.435  1.00  0.00     0.001 C 
ATOM     78  C   UNL A   1      30.446  23.697  27.219  1.00  0.00     0.000 C 
BRANCH  71  79
ATOM     79  C   UNL A   1      32.508  24.859  22.074  1.00  0.00     0.299 C 
BRANCH  79  80
ATOM     80  C   UNL A   1      32.112  26.055  22.918  1.00  0.00     0.008 A 
ATOM     81  C   UNL A   1      30.818  26.597  22.868  1.00  0.00     0.011 A 
ATOM     82  C   UNL A   1      33.069  26.689  23.734  1.00  0.00     0.031 A 
ATOM     83  C   UNL A   1      30.528  27.816  23.492  1.00  0.00     0.022 A 
ATOM     84  C   UNL A   1      32.776  27.900  24.377  1.00  0.00     0.060 A 
ATOM     85  C   UNL A   1      31.513  28.483  24.226  1.00  0.00     0.059 A 
ATOM     86  Cl  UNL A   1      34.046  28.666  25.263  1.00  0.00    -0.083 Cl
ATOM     87  Cl  UNL A   1      31.129  30.045  24.856  1.00  0.00    -0.083 Cl
ENDBRANCH  79  80
ENDBRANCH  71  79
ENDBRANCH  66  68
ENDBRANCH  65  66
ENDBRANCH  64  65
ENDBRANCH  63  64
ENDBRANCH  62  63
ENDBRANCH  61  62
ENDBRANCH  60  61
ENDBRANCH   1  60
TORSDOF 22
ENDMDL
