MODEL 1
REMARK VINA RESULT:      -7.9      0.000      0.000
REMARK SMILES C[C@H](C(=O)OCCOCCOCCOCCOC(=O)c1ccc(-c2c3nc(c(-c4ccccc4)c4ccc([nH]4)c(-c4ccccc4)c4nc(c(-c5ccccc5)c5ccc2[nH]5)C=C4)C=C3)cc1)c1ccc2c3cc(Cl)ccc3n(C(=O)c3ccc(Cl)cc3)c2c1
REMARK SMILES IDX 10 1 9 2 8 3 7 4 6 5 5 6 3 7 4 8 2 9 1 10 68 11 69 12 90 13
REMARK SMILES IDX 70 14 89 15 71 16 79 17 72 18 78 19 73 20 77 21 74 22 76 23
REMARK SMILES IDX 75 24 80 25 81 26 82 27 83 28 88 29 84 30 87 31 85 32 86 33
REMARK SMILES IDX 11 34 12 35 13 36 14 37 15 38 16 39 17 40 18 41 19 42 20 43
REMARK SMILES IDX 21 44 67 45 22 46 66 47 23 48 24 49 25 50 60 51 26 52 65 53
REMARK SMILES IDX 59 54 61 55 27 56 64 57 58 58 57 59 28 61 50 62 35 63 49 64
REMARK SMILES IDX 36 65 39 66 48 67 62 68 37 69 38 70 47 72 63 73 40 74 29 75
REMARK SMILES IDX 30 76 34 77 31 78 33 79 32 80 51 81 52 82 56 83 53 84 55 85
REMARK SMILES IDX 54 86 41 87 42 88 46 89 43 90 45 91 44 92
REMARK H PARENT 61 60 39 71
REMARK Flexibility Score: inf
ROOT
ATOM      1  C   UNL A   1      37.130  31.782  42.792  1.00  0.00     0.188 C 
ENDROOT
BRANCH   1   2
ATOM      2  C   UNL A   1      35.782  32.318  42.256  1.00  0.00     0.188 C 
BRANCH   2   3
ATOM      3  O   UNL A   1      35.144  31.698  41.147  1.00  0.00    -0.376 OA
BRANCH   3   4
ATOM      4  C   UNL A   1      35.316  32.214  39.837  1.00  0.00     0.202 C 
BRANCH   4   5
ATOM      5  C   UNL A   1      36.708  32.459  39.226  1.00  0.00     0.261 C 
BRANCH   5   6
ATOM      6  O   UNL A   1      36.821  32.355  37.804  1.00  0.00    -0.463 OA
BRANCH   6   7
ATOM      7  C   UNL A   1      37.482  31.294  37.287  1.00  0.00     0.313 C 
ATOM      8  O   UNL A   1      37.364  30.147  37.706  1.00  0.00    -0.252 OA
BRANCH   7   9
ATOM      9  C   UNL A   1      38.357  31.657  36.080  1.00  0.00     0.126 C 
ATOM     10  C   UNL A   1      39.437  30.648  35.682  1.00  0.00     0.025 C 
BRANCH   9  11
ATOM     11  C   UNL A   1      37.628  32.120  34.826  1.00  0.00    -0.032 A 
ATOM     12  C   UNL A   1      37.010  33.372  34.869  1.00  0.00     0.005 A 
ATOM     13  C   UNL A   1      37.620  31.389  33.623  1.00  0.00     0.032 A 
ATOM     14  C   UNL A   1      36.389  33.906  33.743  1.00  0.00     0.011 A 
ATOM     15  C   UNL A   1      36.869  31.869  32.530  1.00  0.00     0.057 A 
ATOM     16  C   UNL A   1      36.306  33.138  32.566  1.00  0.00     0.008 A 
ATOM     17  N   UNL A   1      36.561  31.286  31.289  1.00  0.00    -0.276 N 
ATOM     18  C   UNL A   1      35.682  33.364  31.317  1.00  0.00     0.009 A 
ATOM     19  C   UNL A   1      35.698  32.157  30.611  1.00  0.00     0.057 A 
ATOM     20  C   UNL A   1      35.000  34.482  30.797  1.00  0.00     0.031 A 
ATOM     21  C   UNL A   1      34.866  31.988  29.487  1.00  0.00     0.029 A 
ATOM     22  C   UNL A   1      34.237  34.330  29.645  1.00  0.00     0.041 A 
ATOM     23  C   UNL A   1      34.135  33.092  29.024  1.00  0.00     0.023 A 
ATOM     24  Cl  UNL A   1      33.363  35.680  29.035  1.00  0.00    -0.084 Cl
BRANCH  17  25
ATOM     25  C   UNL A   1      36.988  29.992  30.887  1.00  0.00     0.262 C 
ATOM     26  O   UNL A   1      36.545  29.046  31.541  1.00  0.00    -0.268 OA
BRANCH  25  27
ATOM     27  C   UNL A   1      37.941  29.633  29.793  1.00  0.00     0.040 A 
ATOM     28  C   UNL A   1      39.263  29.337  30.171  1.00  0.00     0.015 A 
ATOM     29  C   UNL A   1      37.641  29.704  28.427  1.00  0.00     0.015 A 
ATOM     30  C   UNL A   1      40.246  29.117  29.207  1.00  0.00     0.021 A 
ATOM     31  C   UNL A   1      38.631  29.448  27.464  1.00  0.00     0.021 A 
ATOM     32  C   UNL A   1      39.935  29.170  27.858  1.00  0.00     0.041 A 
ATOM     33  Cl  UNL A   1      41.171  28.921  26.691  1.00  0.00    -0.084 Cl
ENDBRANCH  25  27
ENDBRANCH  17  25
ENDBRANCH   9  11
ENDBRANCH   7   9
ENDBRANCH   6   7
ENDBRANCH   5   6
ENDBRANCH   4   5
ENDBRANCH   3   4
ENDBRANCH   2   3
ENDBRANCH   1   2
BRANCH   1  34
ATOM     34  O   UNL A   1      38.266  32.351  42.164  1.00  0.00    -0.377 OA
BRANCH  34  35
ATOM     35  C   UNL A   1      38.868  33.427  42.869  1.00  0.00     0.188 C 
BRANCH  35  36
ATOM     36  C   UNL A   1      38.569  34.848  42.350  1.00  0.00     0.188 C 
BRANCH  36  37
ATOM     37  O   UNL A   1      39.714  35.507  41.823  1.00  0.00    -0.376 OA
BRANCH  37  38
ATOM     38  C   UNL A   1      40.706  34.752  41.150  1.00  0.00     0.202 C 
BRANCH  38  39
ATOM     39  C   UNL A   1      41.630  35.528  40.199  1.00  0.00     0.261 C 
BRANCH  39  40
ATOM     40  O   UNL A   1      41.175  36.835  39.820  1.00  0.00    -0.460 OA
BRANCH  40  41
ATOM     41  C   UNL A   1      40.251  36.898  38.839  1.00  0.00     0.338 C 
ATOM     42  O   UNL A   1      39.242  37.584  38.825  1.00  0.00    -0.246 OA
BRANCH  41  43
ATOM     43  C   UNL A   1      40.765  36.155  37.668  1.00  0.00     0.060 A 
ATOM     44  C   UNL A   1      39.873  35.347  36.949  1.00  0.00     0.016 A 
ATOM     45  C   UNL A   1      42.101  36.251  37.276  1.00  0.00     0.016 A 
ATOM     46  C   UNL A   1      40.322  34.594  35.865  1.00  0.00     0.010 A 
ATOM     47  C   UNL A   1      42.556  35.478  36.202  1.00  0.00     0.010 A 
ATOM     48  C   UNL A   1      41.676  34.612  35.519  1.00  0.00    -0.014 A 
BRANCH  48  49
ATOM     49  C   UNL A   1      42.224  33.572  34.614  1.00  0.00     0.031 A 
ATOM     50  C   UNL A   1      42.333  33.896  33.148  1.00  0.00     0.074 A 
ATOM     51  C   UNL A   1      42.666  32.381  35.059  1.00  0.00     0.049 A 
ATOM     52  N   UNL A   1      42.666  33.120  32.151  1.00  0.00    -0.248 NA
ATOM     53  C   UNL A   1      42.071  35.294  32.764  1.00  0.00     0.031 C 
ATOM     54  C   UNL A   1      42.791  31.975  36.457  1.00  0.00     0.029 A 
ATOM     55  N   UNL A   1      43.036  31.263  34.349  1.00  0.00    -0.354 N 
ATOM     56  C   UNL A   1      42.701  33.944  31.033  1.00  0.00     0.074 A 
ATOM     57  C   UNL A   1      42.281  35.260  31.456  1.00  0.00     0.031 C 
ATOM     58  C   UNL A   1      43.091  30.663  36.502  1.00  0.00     0.029 A 
ATOM     59  C   UNL A   1      43.135  30.142  35.138  1.00  0.00     0.049 A 
ATOM     60  H   UNL A   1      43.212  31.265  33.381  1.00  0.00     0.167 HD
ATOM     61  C   UNL A   1      43.092  33.638  29.775  1.00  0.00     0.031 A 
ATOM     62  C   UNL A   1      43.168  28.840  34.795  1.00  0.00     0.031 A 
ATOM     63  C   UNL A   1      43.491  32.325  29.350  1.00  0.00     0.049 A 
ATOM     64  C   UNL A   1      43.304  28.461  33.349  1.00  0.00     0.074 A 
ATOM     65  C   UNL A   1      43.953  31.922  28.110  1.00  0.00     0.029 A 
ATOM     66  N   UNL A   1      43.450  31.194  30.151  1.00  0.00    -0.354 N 
ATOM     67  N   UNL A   1      43.362  29.240  32.297  1.00  0.00    -0.248 NA
ATOM     68  C   UNL A   1      43.448  27.030  33.051  1.00  0.00     0.031 C 
ATOM     69  C   UNL A   1      44.118  30.534  28.138  1.00  0.00     0.029 A 
ATOM     70  C   UNL A   1      43.834  30.084  29.419  1.00  0.00     0.049 A 
ATOM     71  H   UNL A   1      43.187  31.183  31.100  1.00  0.00     0.167 HD
ATOM     72  C   UNL A   1      43.643  28.403  31.225  1.00  0.00     0.074 A 
ATOM     73  C   UNL A   1      43.697  27.053  31.748  1.00  0.00     0.031 C 
ATOM     74  C   UNL A   1      43.890  28.740  29.935  1.00  0.00     0.031 A 
BRANCH  61  75
ATOM     75  C   UNL A   1      43.104  34.747  28.761  1.00  0.00    -0.014 A 
ATOM     76  C   UNL A   1      41.911  35.347  28.327  1.00  0.00     0.009 A 
ATOM     77  C   UNL A   1      44.326  35.238  28.279  1.00  0.00     0.009 A 
ATOM     78  C   UNL A   1      41.942  36.402  27.413  1.00  0.00     0.001 A 
ATOM     79  C   UNL A   1      44.356  36.310  27.386  1.00  0.00     0.001 A 
ATOM     80  C   UNL A   1      43.165  36.887  26.949  1.00  0.00     0.000 A 
ENDBRANCH  61  75
BRANCH  62  81
ATOM     81  C   UNL A   1      43.008  27.794  35.836  1.00  0.00    -0.014 A 
ATOM     82  C   UNL A   1      44.109  27.275  36.527  1.00  0.00     0.009 A 
ATOM     83  C   UNL A   1      41.729  27.286  36.117  1.00  0.00     0.009 A 
ATOM     84  C   UNL A   1      43.932  26.261  37.473  1.00  0.00     0.001 A 
ATOM     85  C   UNL A   1      41.551  26.291  37.079  1.00  0.00     0.001 A 
ATOM     86  C   UNL A   1      42.654  25.774  37.752  1.00  0.00     0.000 A 
ENDBRANCH  62  81
BRANCH  74  87
ATOM     87  C   UNL A   1      44.343  27.649  29.007  1.00  0.00    -0.014 A 
ATOM     88  C   UNL A   1      43.438  26.893  28.248  1.00  0.00     0.009 A 
ATOM     89  C   UNL A   1      45.720  27.404  28.865  1.00  0.00     0.009 A 
ATOM     90  C   UNL A   1      43.903  25.891  27.392  1.00  0.00     0.001 A 
ATOM     91  C   UNL A   1      46.183  26.429  27.983  1.00  0.00     0.001 A 
ATOM     92  C   UNL A   1      45.273  25.665  27.255  1.00  0.00     0.000 A 
ENDBRANCH  74  87
ENDBRANCH  48  49
ENDBRANCH  41  43
ENDBRANCH  40  41
ENDBRANCH  39  40
ENDBRANCH  38  39
ENDBRANCH  37  38
ENDBRANCH  36  37
ENDBRANCH  35  36
ENDBRANCH  34  35
ENDBRANCH   1  34
TORSDOF 23
ENDMDL
MODEL 2
REMARK VINA RESULT:      -7.6      2.166      6.536
REMARK SMILES C[C@H](C(=O)OCCOCCOCCOCCOC(=O)c1ccc(-c2c3nc(c(-c4ccccc4)c4ccc([nH]4)c(-c4ccccc4)c4nc(c(-c5ccccc5)c5ccc2[nH]5)C=C4)C=C3)cc1)c1ccc2c3cc(Cl)ccc3n(C(=O)c3ccc(Cl)cc3)c2c1
REMARK SMILES IDX 10 1 9 2 8 3 7 4 6 5 5 6 3 7 4 8 2 9 1 10 68 11 69 12 90 13
REMARK SMILES IDX 70 14 89 15 71 16 79 17 72 18 78 19 73 20 77 21 74 22 76 23
REMARK SMILES IDX 75 24 80 25 81 26 82 27 83 28 88 29 84 30 87 31 85 32 86 33
REMARK SMILES IDX 11 34 12 35 13 36 14 37 15 38 16 39 17 40 18 41 19 42 20 43
REMARK SMILES IDX 21 44 67 45 22 46 66 47 23 48 24 49 25 50 60 51 26 52 65 53
REMARK SMILES IDX 59 54 61 55 27 56 64 57 58 58 57 59 28 61 50 62 35 63 49 64
REMARK SMILES IDX 36 65 39 66 48 67 62 68 37 69 38 70 47 72 63 73 40 74 29 75
REMARK SMILES IDX 30 76 34 77 31 78 33 79 32 80 51 81 52 82 56 83 53 84 55 85
REMARK SMILES IDX 54 86 41 87 42 88 46 89 43 90 45 91 44 92
REMARK H PARENT 61 60 39 71
REMARK Flexibility Score: inf
ROOT
ATOM      1  C   UNL A   1      39.748  32.517  40.763  1.00  0.00     0.188 C 
ENDROOT
BRANCH   1   2
ATOM      2  C   UNL A   1      38.611  33.076  39.877  1.00  0.00     0.188 C 
BRANCH   2   3
ATOM      3  O   UNL A   1      38.810  33.276  38.484  1.00  0.00    -0.376 OA
BRANCH   3   4
ATOM      4  C   UNL A   1      37.846  32.824  37.546  1.00  0.00     0.202 C 
BRANCH   4   5
ATOM      5  C   UNL A   1      37.090  33.788  36.614  1.00  0.00     0.261 C 
BRANCH   5   6
ATOM      6  O   UNL A   1      36.208  33.204  35.652  1.00  0.00    -0.463 OA
BRANCH   6   7
ATOM      7  C   UNL A   1      36.117  33.778  34.430  1.00  0.00     0.313 C 
ATOM      8  O   UNL A   1      36.631  34.856  34.143  1.00  0.00    -0.252 OA
BRANCH   7   9
ATOM      9  C   UNL A   1      35.354  32.920  33.414  1.00  0.00     0.126 C 
ATOM     10  C   UNL A   1      34.273  33.624  32.588  1.00  0.00     0.025 C 
BRANCH   9  11
ATOM     11  C   UNL A   1      36.196  32.053  32.487  1.00  0.00    -0.032 A 
ATOM     12  C   UNL A   1      37.370  31.507  33.011  1.00  0.00     0.005 A 
ATOM     13  C   UNL A   1      35.807  31.719  31.176  1.00  0.00     0.032 A 
ATOM     14  C   UNL A   1      38.158  30.641  32.258  1.00  0.00     0.011 A 
ATOM     15  C   UNL A   1      36.679  30.958  30.371  1.00  0.00     0.057 A 
ATOM     16  C   UNL A   1      37.815  30.376  30.919  1.00  0.00     0.008 A 
ATOM     17  N   UNL A   1      36.623  30.615  29.009  1.00  0.00    -0.276 N 
ATOM     18  C   UNL A   1      38.445  29.626  29.899  1.00  0.00     0.009 A 
ATOM     19  C   UNL A   1      37.799  29.922  28.695  1.00  0.00     0.057 A 
ATOM     20  C   UNL A   1      39.596  28.813  29.906  1.00  0.00     0.031 A 
ATOM     21  C   UNL A   1      38.406  29.587  27.469  1.00  0.00     0.029 A 
ATOM     22  C   UNL A   1      40.153  28.423  28.694  1.00  0.00     0.041 A 
ATOM     23  C   UNL A   1      39.593  28.839  27.493  1.00  0.00     0.023 A 
ATOM     24  Cl  UNL A   1      41.585  27.471  28.698  1.00  0.00    -0.084 Cl
BRANCH  17  25
ATOM     25  C   UNL A   1      35.584  31.018  28.128  1.00  0.00     0.262 C 
ATOM     26  O   UNL A   1      35.455  32.232  27.959  1.00  0.00    -0.268 OA
BRANCH  25  27
ATOM     27  C   UNL A   1      34.599  30.156  27.406  1.00  0.00     0.040 A 
ATOM     28  C   UNL A   1      33.311  30.686  27.213  1.00  0.00     0.015 A 
ATOM     29  C   UNL A   1      34.832  28.825  27.038  1.00  0.00     0.015 A 
ATOM     30  C   UNL A   1      32.296  29.904  26.664  1.00  0.00     0.021 A 
ATOM     31  C   UNL A   1      33.811  28.056  26.457  1.00  0.00     0.021 A 
ATOM     32  C   UNL A   1      32.541  28.594  26.285  1.00  0.00     0.041 A 
ATOM     33  Cl  UNL A   1      31.265  27.644  25.637  1.00  0.00    -0.084 Cl
ENDBRANCH  25  27
ENDBRANCH  17  25
ENDBRANCH   9  11
ENDBRANCH   7   9
ENDBRANCH   6   7
ENDBRANCH   5   6
ENDBRANCH   4   5
ENDBRANCH   3   4
ENDBRANCH   2   3
ENDBRANCH   1   2
BRANCH   1  34
ATOM     34  O   UNL A   1      39.927  33.219  41.982  1.00  0.00    -0.377 OA
BRANCH  34  35
ATOM     35  C   UNL A   1      40.677  34.421  41.880  1.00  0.00     0.188 C 
BRANCH  35  36
ATOM     36  C   UNL A   1      42.142  34.286  41.417  1.00  0.00     0.188 C 
BRANCH  36  37
ATOM     37  O   UNL A   1      42.526  35.273  40.469  1.00  0.00    -0.376 OA
BRANCH  37  38
ATOM     38  C   UNL A   1      41.702  35.517  39.342  1.00  0.00     0.202 C 
BRANCH  38  39
ATOM     39  C   UNL A   1      41.946  36.833  38.587  1.00  0.00     0.261 C 
BRANCH  39  40
ATOM     40  O   UNL A   1      41.828  36.760  37.158  1.00  0.00    -0.460 OA
BRANCH  40  41
ATOM     41  C   UNL A   1      40.757  36.102  36.669  1.00  0.00     0.338 C 
ATOM     42  O   UNL A   1      39.589  36.268  36.981  1.00  0.00    -0.246 OA
BRANCH  41  43
ATOM     43  C   UNL A   1      41.200  35.281  35.521  1.00  0.00     0.060 A 
ATOM     44  C   UNL A   1      40.237  34.543  34.820  1.00  0.00     0.016 A 
ATOM     45  C   UNL A   1      42.540  35.238  35.133  1.00  0.00     0.016 A 
ATOM     46  C   UNL A   1      40.614  33.721  33.759  1.00  0.00     0.010 A 
ATOM     47  C   UNL A   1      42.921  34.396  34.083  1.00  0.00     0.010 A 
ATOM     48  C   UNL A   1      41.964  33.600  33.419  1.00  0.00    -0.014 A 
BRANCH  48  49
ATOM     49  C   UNL A   1      42.413  32.488  32.545  1.00  0.00     0.031 A 
ATOM     50  C   UNL A   1      42.617  31.135  33.173  1.00  0.00     0.074 A 
ATOM     51  C   UNL A   1      42.596  32.633  31.220  1.00  0.00     0.049 A 
ATOM     52  N   UNL A   1      43.113  30.045  32.648  1.00  0.00    -0.248 NA
ATOM     53  C   UNL A   1      42.161  30.981  34.566  1.00  0.00     0.031 C 
ATOM     54  C   UNL A   1      42.280  33.821  30.431  1.00  0.00     0.029 A 
ATOM     55  N   UNL A   1      43.162  31.768  30.314  1.00  0.00    -0.354 N 
ATOM     56  C   UNL A   1      42.984  29.068  33.627  1.00  0.00     0.074 A 
ATOM     57  C   UNL A   1      42.436  29.707  34.802  1.00  0.00     0.031 C 
ATOM     58  C   UNL A   1      42.768  33.657  29.187  1.00  0.00     0.029 A 
ATOM     59  C   UNL A   1      43.459  32.373  29.117  1.00  0.00     0.049 A 
ATOM     60  H   UNL A   1      43.336  30.817  30.502  1.00  0.00     0.167 HD
ATOM     61  C   UNL A   1      43.256  27.746  33.538  1.00  0.00     0.031 A 
ATOM     62  C   UNL A   1      44.270  31.970  28.119  1.00  0.00     0.031 A 
ATOM     63  C   UNL A   1      43.818  27.116  32.376  1.00  0.00     0.049 A 
ATOM     64  C   UNL A   1      44.839  30.581  28.145  1.00  0.00     0.074 A 
ATOM     65  C   UNL A   1      44.085  25.774  32.166  1.00  0.00     0.029 A 
ATOM     66  N   UNL A   1      44.224  27.789  31.235  1.00  0.00    -0.354 N 
ATOM     67  N   UNL A   1      44.696  29.651  29.057  1.00  0.00    -0.248 NA
ATOM     68  C   UNL A   1      45.622  30.164  26.973  1.00  0.00     0.031 C 
ATOM     69  C   UNL A   1      44.724  25.647  30.929  1.00  0.00     0.029 A 
ATOM     70  C   UNL A   1      44.783  26.898  30.335  1.00  0.00     0.049 A 
ATOM     71  H   UNL A   1      44.129  28.758  31.086  1.00  0.00     0.167 HD
ATOM     72  C   UNL A   1      45.289  28.512  28.529  1.00  0.00     0.074 A 
ATOM     73  C   UNL A   1      45.833  28.881  27.238  1.00  0.00     0.031 C 
ATOM     74  C   UNL A   1      45.324  27.261  29.050  1.00  0.00     0.031 A 
BRANCH  61  75
ATOM     75  C   UNL A   1      42.953  26.891  34.735  1.00  0.00    -0.014 A 
ATOM     76  C   UNL A   1      43.940  26.602  35.691  1.00  0.00     0.009 A 
ATOM     77  C   UNL A   1      41.648  26.417  34.940  1.00  0.00     0.009 A 
ATOM     78  C   UNL A   1      43.631  25.837  36.817  1.00  0.00     0.001 A 
ATOM     79  C   UNL A   1      41.336  25.675  36.080  1.00  0.00     0.001 A 
ATOM     80  C   UNL A   1      42.328  25.380  37.014  1.00  0.00     0.000 A 
ENDBRANCH  61  75
BRANCH  62  81
ATOM     81  C   UNL A   1      44.643  32.916  27.038  1.00  0.00    -0.014 A 
ATOM     82  C   UNL A   1      45.707  33.814  27.186  1.00  0.00     0.009 A 
ATOM     83  C   UNL A   1      43.897  32.938  25.848  1.00  0.00     0.009 A 
ATOM     84  C   UNL A   1      46.009  34.721  26.167  1.00  0.00     0.001 A 
ATOM     85  C   UNL A   1      44.216  33.828  24.821  1.00  0.00     0.001 A 
ATOM     86  C   UNL A   1      45.268  34.724  24.984  1.00  0.00     0.000 A 
ENDBRANCH  62  81
BRANCH  74  87
ATOM     87  C   UNL A   1      45.882  26.165  28.187  1.00  0.00    -0.014 A 
ATOM     88  C   UNL A   1      45.097  25.484  27.246  1.00  0.00     0.009 A 
ATOM     89  C   UNL A   1      47.245  25.837  28.299  1.00  0.00     0.009 A 
ATOM     90  C   UNL A   1      45.658  24.475  26.460  1.00  0.00     0.001 A 
ATOM     91  C   UNL A   1      47.811  24.855  27.488  1.00  0.00     0.001 A 
ATOM     92  C   UNL A   1      47.013  24.167  26.575  1.00  0.00     0.000 A 
ENDBRANCH  74  87
ENDBRANCH  48  49
ENDBRANCH  41  43
ENDBRANCH  40  41
ENDBRANCH  39  40
ENDBRANCH  38  39
ENDBRANCH  37  38
ENDBRANCH  36  37
ENDBRANCH  35  36
ENDBRANCH  34  35
ENDBRANCH   1  34
TORSDOF 23
ENDMDL
MODEL 3
REMARK VINA RESULT:      -7.2      6.280     12.051
REMARK SMILES C[C@H](C(=O)OCCOCCOCCOCCOC(=O)c1ccc(-c2c3nc(c(-c4ccccc4)c4ccc([nH]4)c(-c4ccccc4)c4nc(c(-c5ccccc5)c5ccc2[nH]5)C=C4)C=C3)cc1)c1ccc2c3cc(Cl)ccc3n(C(=O)c3ccc(Cl)cc3)c2c1
REMARK SMILES IDX 10 1 9 2 8 3 7 4 6 5 5 6 3 7 4 8 2 9 1 10 68 11 69 12 90 13
REMARK SMILES IDX 70 14 89 15 71 16 79 17 72 18 78 19 73 20 77 21 74 22 76 23
REMARK SMILES IDX 75 24 80 25 81 26 82 27 83 28 88 29 84 30 87 31 85 32 86 33
REMARK SMILES IDX 11 34 12 35 13 36 14 37 15 38 16 39 17 40 18 41 19 42 20 43
REMARK SMILES IDX 21 44 67 45 22 46 66 47 23 48 24 49 25 50 60 51 26 52 65 53
REMARK SMILES IDX 59 54 61 55 27 56 64 57 58 58 57 59 28 61 50 62 35 63 49 64
REMARK SMILES IDX 36 65 39 66 48 67 62 68 37 69 38 70 47 72 63 73 40 74 29 75
REMARK SMILES IDX 30 76 34 77 31 78 33 79 32 80 51 81 52 82 56 83 53 84 55 85
REMARK SMILES IDX 54 86 41 87 42 88 46 89 43 90 45 91 44 92
REMARK H PARENT 61 60 39 71
REMARK Flexibility Score: inf
ROOT
ATOM      1  C   UNL A   1      41.173  26.735  27.719  1.00  0.00     0.188 C 
ENDROOT
BRANCH   1   2
ATOM      2  C   UNL A   1      40.345  25.682  28.493  1.00  0.00     0.188 C 
BRANCH   2   3
ATOM      3  O   UNL A   1      40.746  24.319  28.515  1.00  0.00    -0.376 OA
BRANCH   3   4
ATOM      4  C   UNL A   1      41.591  23.799  27.501  1.00  0.00     0.202 C 
BRANCH   4   5
ATOM      5  C   UNL A   1      41.036  23.102  26.246  1.00  0.00     0.261 C 
BRANCH   5   6
ATOM      6  O   UNL A   1      39.664  22.701  26.278  1.00  0.00    -0.463 OA
BRANCH   6   7
ATOM      7  C   UNL A   1      39.371  21.393  26.092  1.00  0.00     0.313 C 
ATOM      8  O   UNL A   1      39.913  20.479  26.707  1.00  0.00    -0.252 OA
BRANCH   7   9
ATOM      9  C   UNL A   1      38.248  21.165  25.073  1.00  0.00     0.126 C 
ATOM     10  C   UNL A   1      37.796  19.718  24.856  1.00  0.00     0.025 C 
BRANCH   9  11
ATOM     11  C   UNL A   1      37.017  22.051  25.207  1.00  0.00    -0.032 A 
ATOM     12  C   UNL A   1      37.150  23.224  25.953  1.00  0.00     0.005 A 
ATOM     13  C   UNL A   1      35.799  21.785  24.554  1.00  0.00     0.032 A 
ATOM     14  C   UNL A   1      36.099  24.130  26.062  1.00  0.00     0.011 A 
ATOM     15  C   UNL A   1      34.695  22.632  24.783  1.00  0.00     0.057 A 
ATOM     16  C   UNL A   1      34.854  23.822  25.482  1.00  0.00     0.008 A 
ATOM     17  N   UNL A   1      33.347  22.524  24.399  1.00  0.00    -0.276 N 
ATOM     18  C   UNL A   1      33.603  24.483  25.491  1.00  0.00     0.009 A 
ATOM     19  C   UNL A   1      32.652  23.596  24.975  1.00  0.00     0.057 A 
ATOM     20  C   UNL A   1      33.202  25.727  26.017  1.00  0.00     0.031 A 
ATOM     21  C   UNL A   1      31.280  23.848  25.164  1.00  0.00     0.029 A 
ATOM     22  C   UNL A   1      31.845  26.002  26.136  1.00  0.00     0.041 A 
ATOM     23  C   UNL A   1      30.897  25.060  25.757  1.00  0.00     0.023 A 
ATOM     24  Cl  UNL A   1      31.352  27.500  26.823  1.00  0.00    -0.084 Cl
BRANCH  17  25
ATOM     25  C   UNL A   1      32.816  21.441  23.649  1.00  0.00     0.262 C 
ATOM     26  O   UNL A   1      32.370  21.720  22.534  1.00  0.00    -0.268 OA
BRANCH  25  27
ATOM     27  C   UNL A   1      32.694  20.008  24.055  1.00  0.00     0.040 A 
ATOM     28  C   UNL A   1      32.706  19.733  25.434  1.00  0.00     0.015 A 
ATOM     29  C   UNL A   1      32.706  18.929  23.163  1.00  0.00     0.015 A 
ATOM     30  C   UNL A   1      32.725  18.419  25.897  1.00  0.00     0.021 A 
ATOM     31  C   UNL A   1      32.692  17.608  23.639  1.00  0.00     0.021 A 
ATOM     32  C   UNL A   1      32.717  17.357  25.006  1.00  0.00     0.041 A 
ATOM     33  Cl  UNL A   1      32.768  15.747  25.603  1.00  0.00    -0.084 Cl
ENDBRANCH  25  27
ENDBRANCH  17  25
ENDBRANCH   9  11
ENDBRANCH   7   9
ENDBRANCH   6   7
ENDBRANCH   5   6
ENDBRANCH   4   5
ENDBRANCH   3   4
ENDBRANCH   2   3
ENDBRANCH   1   2
BRANCH   1  34
ATOM     34  O   UNL A   1      40.405  27.813  27.211  1.00  0.00    -0.377 OA
BRANCH  34  35
ATOM     35  C   UNL A   1      39.309  28.207  28.025  1.00  0.00     0.188 C 
BRANCH  35  36
ATOM     36  C   UNL A   1      38.557  29.485  27.601  1.00  0.00     0.188 C 
BRANCH  36  37
ATOM     37  O   UNL A   1      37.329  29.671  28.294  1.00  0.00    -0.376 OA
BRANCH  37  38
ATOM     38  C   UNL A   1      36.626  30.893  28.153  1.00  0.00     0.202 C 
BRANCH  38  39
ATOM     39  C   UNL A   1      37.232  32.118  28.855  1.00  0.00     0.261 C 
BRANCH  39  40
ATOM     40  O   UNL A   1      37.554  31.942  30.243  1.00  0.00    -0.460 OA
BRANCH  40  41
ATOM     41  C   UNL A   1      38.862  31.955  30.571  1.00  0.00     0.338 C 
ATOM     42  O   UNL A   1      39.807  31.769  29.822  1.00  0.00    -0.246 OA
BRANCH  41  43
ATOM     43  C   UNL A   1      38.988  32.448  31.960  1.00  0.00     0.060 A 
ATOM     44  C   UNL A   1      38.406  33.681  32.283  1.00  0.00     0.016 A 
ATOM     45  C   UNL A   1      39.662  31.709  32.934  1.00  0.00     0.016 A 
ATOM     46  C   UNL A   1      38.538  34.207  33.568  1.00  0.00     0.010 A 
ATOM     47  C   UNL A   1      39.812  32.247  34.217  1.00  0.00     0.010 A 
ATOM     48  C   UNL A   1      39.287  33.519  34.527  1.00  0.00    -0.014 A 
BRANCH  48  49
ATOM     49  C   UNL A   1      39.724  34.213  35.764  1.00  0.00     0.031 A 
ATOM     50  C   UNL A   1      40.941  35.095  35.687  1.00  0.00     0.074 A 
ATOM     51  C   UNL A   1      39.051  34.120  36.925  1.00  0.00     0.049 A 
ATOM     52  N   UNL A   1      41.582  35.708  36.647  1.00  0.00    -0.248 NA
ATOM     53  C   UNL A   1      41.481  35.354  34.340  1.00  0.00     0.031 C 
ATOM     54  C   UNL A   1      37.768  33.452  37.128  1.00  0.00     0.029 A 
ATOM     55  N   UNL A   1      39.408  34.551  38.181  1.00  0.00    -0.354 N 
ATOM     56  C   UNL A   1      42.566  36.459  36.018  1.00  0.00     0.074 A 
ATOM     57  C   UNL A   1      42.491  36.169  34.604  1.00  0.00     0.031 C 
ATOM     58  C   UNL A   1      37.504  33.411  38.448  1.00  0.00     0.029 A 
ATOM     59  C   UNL A   1      38.621  34.012  39.171  1.00  0.00     0.049 A 
ATOM     60  H   UNL A   1      40.147  35.177  38.354  1.00  0.00     0.167 HD
ATOM     61  C   UNL A   1      43.426  37.347  36.567  1.00  0.00     0.031 A 
ATOM     62  C   UNL A   1      38.827  33.939  40.500  1.00  0.00     0.031 A 
ATOM     63  C   UNL A   1      43.514  37.620  37.975  1.00  0.00     0.049 A 
ATOM     64  C   UNL A   1      39.976  34.688  41.111  1.00  0.00     0.074 A 
ATOM     65  C   UNL A   1      44.317  38.538  38.627  1.00  0.00     0.029 A 
ATOM     66  N   UNL A   1      42.788  36.956  38.951  1.00  0.00    -0.354 N 
ATOM     67  N   UNL A   1      40.889  35.418  40.520  1.00  0.00    -0.248 NA
ATOM     68  C   UNL A   1      40.079  34.660  42.577  1.00  0.00     0.031 C 
ATOM     69  C   UNL A   1      44.133  38.376  40.004  1.00  0.00     0.029 A 
ATOM     70  C   UNL A   1      43.158  37.411  40.205  1.00  0.00     0.049 A 
ATOM     71  H   UNL A   1      42.110  36.264  38.778  1.00  0.00     0.167 HD
ATOM     72  C   UNL A   1      41.618  36.011  41.542  1.00  0.00     0.074 A 
ATOM     73  C   UNL A   1      41.068  35.519  42.789  1.00  0.00     0.031 C 
ATOM     74  C   UNL A   1      42.614  36.925  41.447  1.00  0.00     0.031 A 
BRANCH  61  75
ATOM     75  C   UNL A   1      44.349  38.086  35.640  1.00  0.00    -0.014 A 
ATOM     76  C   UNL A   1      45.503  37.476  35.123  1.00  0.00     0.009 A 
ATOM     77  C   UNL A   1      44.029  39.390  35.232  1.00  0.00     0.009 A 
ATOM     78  C   UNL A   1      46.329  38.164  34.233  1.00  0.00     0.001 A 
ATOM     79  C   UNL A   1      44.842  40.066  34.322  1.00  0.00     0.001 A 
ATOM     80  C   UNL A   1      45.993  39.456  33.828  1.00  0.00     0.000 A 
ENDBRANCH  61  75
BRANCH  62  81
ATOM     81  C   UNL A   1      37.961  33.074  41.339  1.00  0.00    -0.014 A 
ATOM     82  C   UNL A   1      36.810  33.573  41.959  1.00  0.00     0.009 A 
ATOM     83  C   UNL A   1      38.316  31.731  41.546  1.00  0.00     0.009 A 
ATOM     84  C   UNL A   1      36.036  32.744  42.777  1.00  0.00     0.001 A 
ATOM     85  C   UNL A   1      37.529  30.898  42.343  1.00  0.00     0.001 A 
ATOM     86  C   UNL A   1      36.392  31.408  42.963  1.00  0.00     0.000 A 
ENDBRANCH  62  81
BRANCH  74  87
ATOM     87  C   UNL A   1      43.117  37.539  42.723  1.00  0.00    -0.014 A 
ATOM     88  C   UNL A   1      44.195  36.996  43.436  1.00  0.00     0.009 A 
ATOM     89  C   UNL A   1      42.513  38.717  43.196  1.00  0.00     0.009 A 
ATOM     90  C   UNL A   1      44.635  37.603  44.616  1.00  0.00     0.001 A 
ATOM     91  C   UNL A   1      42.977  39.341  44.353  1.00  0.00     0.001 A 
ATOM     92  C   UNL A   1      44.031  38.777  45.068  1.00  0.00     0.000 A 
ENDBRANCH  74  87
ENDBRANCH  48  49
ENDBRANCH  41  43
ENDBRANCH  40  41
ENDBRANCH  39  40
ENDBRANCH  38  39
ENDBRANCH  37  38
ENDBRANCH  36  37
ENDBRANCH  35  36
ENDBRANCH  34  35
ENDBRANCH   1  34
TORSDOF 23
ENDMDL
