MODEL 1
REMARK VINA RESULT:      -9.6      0.000      0.000
REMARK SMILES C[C@H](NC(=O)N1CCN(/C=C/c2ccccc2)CC1)C(=O)OCCOCCOCCOCCOC(=O)c1ccc(-c2c3nc(c(-c4ccccc4)c4ccc([nH]4)c(-c4ccccc4)c4nc(c(-c5ccccc5)c5ccc2[nH]5)C=C4)C=C3)cc1
REMARK SMILES IDX 27 1 26 2 25 3 24 4 23 5 22 6 20 7 21 8 2 9 1 10 3 11 4 12
REMARK SMILES IDX 5 14 6 15 7 16 19 17 8 18 18 19 9 20 10 21 11 22 12 23 13 24
REMARK SMILES IDX 17 25 14 26 16 27 15 28 28 29 29 30 30 31 31 32 32 33 33 34
REMARK SMILES IDX 34 35 35 36 36 37 37 38 38 39 84 40 39 41 83 42 40 43 41 44
REMARK SMILES IDX 42 45 77 46 43 47 82 48 76 49 78 50 44 51 81 52 75 53 74 54
REMARK SMILES IDX 45 56 67 57 52 58 66 59 53 60 56 61 65 62 79 63 54 64 55 65
REMARK SMILES IDX 64 67 80 68 57 69 46 70 47 71 51 72 48 73 50 74 49 75 68 76
REMARK SMILES IDX 69 77 73 78 70 79 72 80 71 81 58 82 59 83 63 84 60 85 62 86
REMARK SMILES IDX 61 87
REMARK H PARENT 3 13 78 55 56 66
REMARK Flexibility Score: inf
ROOT
ATOM      1  C   UNL A   1      33.920  27.978  24.940  1.00  0.00     0.188 C 
ENDROOT
BRANCH   1   2
ATOM      2  C   UNL A   1      33.041  28.707  23.910  1.00  0.00     0.188 C 
BRANCH   2   3
ATOM      3  O   UNL A   1      32.995  28.312  22.552  1.00  0.00    -0.376 OA
BRANCH   3   4
ATOM      4  C   UNL A   1      33.535  27.140  21.978  1.00  0.00     0.202 C 
BRANCH   4   5
ATOM      5  C   UNL A   1      32.756  26.037  21.249  1.00  0.00     0.261 C 
BRANCH   5   6
ATOM      6  O   UNL A   1      32.368  24.893  21.999  1.00  0.00    -0.462 OA
BRANCH   6   7
ATOM      7  C   UNL A   1      33.034  23.750  21.703  1.00  0.00     0.328 C 
ATOM      8  O   UNL A   1      33.469  23.478  20.590  1.00  0.00    -0.250 OA
BRANCH   7   9
ATOM      9  C   UNL A   1      33.003  22.743  22.869  1.00  0.00     0.190 C 
ATOM     10  C   UNL A   1      32.180  21.610  22.283  1.00  0.00     0.043 C 
BRANCH   9  11
ATOM     11  N   UNL A   1      32.543  23.264  24.171  1.00  0.00    -0.325 N 
ATOM     12  C   UNL A   1      33.060  23.573  25.368  1.00  0.00     0.318 C 
ATOM     13  H   UNL A   1      31.573  23.433  24.156  1.00  0.00     0.166 HD
ATOM     14  O   UNL A   1      32.261  23.782  26.282  1.00  0.00    -0.249 OA
ATOM     15  N   UNL A   1      34.390  23.563  25.571  1.00  0.00    -0.321 N 
ATOM     16  C   UNL A   1      34.909  23.066  26.832  1.00  0.00     0.143 C 
ATOM     17  C   UNL A   1      35.386  24.199  24.732  1.00  0.00     0.143 C 
ATOM     18  C   UNL A   1      35.902  21.947  26.521  1.00  0.00     0.137 C 
ATOM     19  C   UNL A   1      36.636  23.334  24.518  1.00  0.00     0.137 C 
ATOM     20  N   UNL A   1      36.984  22.409  25.623  1.00  0.00    -0.374 N 
BRANCH  20  21
ATOM     21  C   UNL A   1      38.228  21.812  25.596  1.00  0.00     0.081 C 
ATOM     22  C   UNL A   1      39.195  21.777  26.518  1.00  0.00     0.025 C 
BRANCH  22  23
ATOM     23  C   UNL A   1      40.520  21.240  26.200  1.00  0.00    -0.024 A 
ATOM     24  C   UNL A   1      40.742  19.862  26.223  1.00  0.00     0.008 A 
ATOM     25  C   UNL A   1      41.604  22.103  25.968  1.00  0.00     0.008 A 
ATOM     26  C   UNL A   1      42.025  19.357  26.002  1.00  0.00     0.001 A 
ATOM     27  C   UNL A   1      42.880  21.600  25.739  1.00  0.00     0.001 A 
ATOM     28  C   UNL A   1      43.091  20.225  25.761  1.00  0.00     0.000 A 
ENDBRANCH  22  23
ENDBRANCH  20  21
ENDBRANCH   9  11
ENDBRANCH   7   9
ENDBRANCH   6   7
ENDBRANCH   5   6
ENDBRANCH   4   5
ENDBRANCH   3   4
ENDBRANCH   2   3
ENDBRANCH   1   2
BRANCH   1  29
ATOM     29  O   UNL A   1      33.441  27.626  26.213  1.00  0.00    -0.377 OA
BRANCH  29  30
ATOM     30  C   UNL A   1      32.035  27.670  26.334  1.00  0.00     0.188 C 
BRANCH  30  31
ATOM     31  C   UNL A   1      31.637  28.738  27.353  1.00  0.00     0.188 C 
BRANCH  31  32
ATOM     32  O   UNL A   1      32.408  29.921  27.235  1.00  0.00    -0.376 OA
BRANCH  32  33
ATOM     33  C   UNL A   1      31.882  31.067  26.573  1.00  0.00     0.202 C 
BRANCH  33  34
ATOM     34  C   UNL A   1      31.673  32.468  27.203  1.00  0.00     0.261 C 
BRANCH  34  35
ATOM     35  O   UNL A   1      32.718  33.444  27.123  1.00  0.00    -0.460 OA
BRANCH  35  36
ATOM     36  C   UNL A   1      33.223  33.954  28.258  1.00  0.00     0.338 C 
ATOM     37  O   UNL A   1      32.693  34.753  29.012  1.00  0.00    -0.246 OA
BRANCH  36  38
ATOM     38  C   UNL A   1      34.464  33.199  28.552  1.00  0.00     0.060 A 
ATOM     39  C   UNL A   1      34.356  31.884  29.022  1.00  0.00     0.016 A 
ATOM     40  C   UNL A   1      35.725  33.760  28.315  1.00  0.00     0.016 A 
ATOM     41  C   UNL A   1      35.501  31.140  29.299  1.00  0.00     0.010 A 
ATOM     42  C   UNL A   1      36.874  33.027  28.627  1.00  0.00     0.010 A 
ATOM     43  C   UNL A   1      36.764  31.729  29.158  1.00  0.00    -0.014 A 
BRANCH  43  44
ATOM     44  C   UNL A   1      37.927  31.086  29.814  1.00  0.00     0.031 A 
ATOM     45  C   UNL A   1      38.163  31.392  31.268  1.00  0.00     0.074 A 
ATOM     46  C   UNL A   1      38.717  30.214  29.167  1.00  0.00     0.049 A 
ATOM     47  N   UNL A   1      39.101  30.955  32.069  1.00  0.00    -0.248 NA
ATOM     48  C   UNL A   1      37.206  32.314  31.905  1.00  0.00     0.031 C 
ATOM     49  C   UNL A   1      38.558  29.790  27.777  1.00  0.00     0.029 A 
ATOM     50  N   UNL A   1      39.819  29.523  29.608  1.00  0.00    -0.354 N 
ATOM     51  C   UNL A   1      38.849  31.554  33.298  1.00  0.00     0.074 A 
ATOM     52  C   UNL A   1      37.694  32.406  33.133  1.00  0.00     0.031 C 
ATOM     53  C   UNL A   1      39.533  28.912  27.477  1.00  0.00     0.029 A 
ATOM     54  C   UNL A   1      40.400  28.739  28.642  1.00  0.00     0.049 A 
ATOM     55  H   UNL A   1      40.159  29.584  30.529  1.00  0.00     0.167 HD
ATOM     56  C   UNL A   1      39.517  31.404  34.466  1.00  0.00     0.031 A 
ATOM     57  C   UNL A   1      41.517  27.987  28.691  1.00  0.00     0.031 A 
ATOM     58  C   UNL A   1      40.679  30.575  34.626  1.00  0.00     0.049 A 
ATOM     59  C   UNL A   1      42.299  27.909  29.978  1.00  0.00     0.074 A 
ATOM     60  C   UNL A   1      41.428  30.352  35.769  1.00  0.00     0.029 A 
ATOM     61  N   UNL A   1      41.269  29.841  33.609  1.00  0.00    -0.354 N 
ATOM     62  N   UNL A   1      42.041  28.459  31.140  1.00  0.00    -0.248 NA
ATOM     63  C   UNL A   1      43.524  27.097  29.960  1.00  0.00     0.031 C 
ATOM     64  C   UNL A   1      42.508  29.533  35.427  1.00  0.00     0.029 A 
ATOM     65  C   UNL A   1      42.391  29.187  34.090  1.00  0.00     0.049 A 
ATOM     66  H   UNL A   1      40.939  29.792  32.683  1.00  0.00     0.167 HD
ATOM     67  C   UNL A   1      43.049  28.033  31.997  1.00  0.00     0.074 A 
ATOM     68  C   UNL A   1      43.915  27.167  31.224  1.00  0.00     0.031 C 
ATOM     69  C   UNL A   1      43.241  28.328  33.307  1.00  0.00     0.031 A 
BRANCH  56  70
ATOM     70  C   UNL A   1      39.027  32.195  35.646  1.00  0.00    -0.014 A 
ATOM     71  C   UNL A   1      38.123  31.649  36.572  1.00  0.00     0.009 A 
ATOM     72  C   UNL A   1      39.493  33.503  35.844  1.00  0.00     0.009 A 
ATOM     73  C   UNL A   1      37.669  32.410  37.650  1.00  0.00     0.001 A 
ATOM     74  C   UNL A   1      39.061  34.252  36.940  1.00  0.00     0.001 A 
ATOM     75  C   UNL A   1      38.142  33.708  37.836  1.00  0.00     0.000 A 
ENDBRANCH  56  70
BRANCH  57  76
ATOM     76  C   UNL A   1      41.985  27.259  27.481  1.00  0.00    -0.014 A 
ATOM     77  C   UNL A   1      42.799  27.893  26.529  1.00  0.00     0.009 A 
ATOM     78  C   UNL A   1      41.591  25.930  27.255  1.00  0.00     0.009 A 
ATOM     79  C   UNL A   1      43.182  27.223  25.364  1.00  0.00     0.001 A 
ATOM     80  C   UNL A   1      42.001  25.252  26.105  1.00  0.00     0.001 A 
ATOM     81  C   UNL A   1      42.787  25.902  25.156  1.00  0.00     0.000 A 
ENDBRANCH  57  76
BRANCH  69  82
ATOM     82  C   UNL A   1      44.405  27.674  34.001  1.00  0.00    -0.014 A 
ATOM     83  C   UNL A   1      45.661  28.295  34.077  1.00  0.00     0.009 A 
ATOM     84  C   UNL A   1      44.224  26.431  34.629  1.00  0.00     0.009 A 
ATOM     85  C   UNL A   1      46.722  27.666  34.733  1.00  0.00     0.001 A 
ATOM     86  C   UNL A   1      45.276  25.821  35.313  1.00  0.00     0.001 A 
ATOM     87  C   UNL A   1      46.528  26.433  35.354  1.00  0.00     0.000 A 
ENDBRANCH  69  82
ENDBRANCH  43  44
ENDBRANCH  36  38
ENDBRANCH  35  36
ENDBRANCH  34  35
ENDBRANCH  33  34
ENDBRANCH  32  33
ENDBRANCH  31  32
ENDBRANCH  30  31
ENDBRANCH  29  30
ENDBRANCH   1  29
TORSDOF 23
ENDMDL
MODEL 2
REMARK VINA RESULT:      -9.2      3.891      9.787
REMARK SMILES C[C@H](NC(=O)N1CCN(/C=C/c2ccccc2)CC1)C(=O)OCCOCCOCCOCCOC(=O)c1ccc(-c2c3nc(c(-c4ccccc4)c4ccc([nH]4)c(-c4ccccc4)c4nc(c(-c5ccccc5)c5ccc2[nH]5)C=C4)C=C3)cc1
REMARK SMILES IDX 27 1 26 2 25 3 24 4 23 5 22 6 20 7 21 8 2 9 1 10 3 11 4 12
REMARK SMILES IDX 5 14 6 15 7 16 19 17 8 18 18 19 9 20 10 21 11 22 12 23 13 24
REMARK SMILES IDX 17 25 14 26 16 27 15 28 28 29 29 30 30 31 31 32 32 33 33 34
REMARK SMILES IDX 34 35 35 36 36 37 37 38 38 39 84 40 39 41 83 42 40 43 41 44
REMARK SMILES IDX 42 45 77 46 43 47 82 48 76 49 78 50 44 51 81 52 75 53 74 54
REMARK SMILES IDX 45 56 67 57 52 58 66 59 53 60 56 61 65 62 79 63 54 64 55 65
REMARK SMILES IDX 64 67 80 68 57 69 46 70 47 71 51 72 48 73 50 74 49 75 68 76
REMARK SMILES IDX 69 77 73 78 70 79 72 80 71 81 58 82 59 83 63 84 60 85 62 86
REMARK SMILES IDX 61 87
REMARK H PARENT 3 13 78 55 56 66
REMARK Flexibility Score: inf
ROOT
ATOM      1  C   UNL A   1      33.914  19.995  25.475  1.00  0.00     0.188 C 
ENDROOT
BRANCH   1   2
ATOM      2  C   UNL A   1      32.675  19.735  24.604  1.00  0.00     0.188 C 
BRANCH   2   3
ATOM      3  O   UNL A   1      32.604  20.161  23.257  1.00  0.00    -0.376 OA
BRANCH   3   4
ATOM      4  C   UNL A   1      32.117  21.394  22.769  1.00  0.00     0.202 C 
BRANCH   4   5
ATOM      5  C   UNL A   1      32.922  22.688  22.588  1.00  0.00     0.261 C 
BRANCH   5   6
ATOM      6  O   UNL A   1      32.305  23.911  22.968  1.00  0.00    -0.462 OA
BRANCH   6   7
ATOM      7  C   UNL A   1      31.284  23.796  23.854  1.00  0.00     0.328 C 
ATOM      8  O   UNL A   1      30.158  24.239  23.662  1.00  0.00    -0.250 OA
BRANCH   7   9
ATOM      9  C   UNL A   1      31.753  23.232  25.208  1.00  0.00     0.190 C 
ATOM     10  C   UNL A   1      30.612  23.632  26.126  1.00  0.00     0.043 C 
BRANCH   9  11
ATOM     11  N   UNL A   1      33.103  23.630  25.651  1.00  0.00    -0.325 N 
ATOM     12  C   UNL A   1      33.815  24.753  25.820  1.00  0.00     0.318 C 
ATOM     13  H   UNL A   1      33.638  22.839  25.893  1.00  0.00     0.166 HD
ATOM     14  O   UNL A   1      35.024  24.622  26.012  1.00  0.00    -0.249 OA
ATOM     15  N   UNL A   1      33.239  25.962  25.694  1.00  0.00    -0.321 N 
ATOM     16  C   UNL A   1      33.980  27.035  25.056  1.00  0.00     0.143 C 
ATOM     17  C   UNL A   1      32.004  26.390  26.321  1.00  0.00     0.143 C 
ATOM     18  C   UNL A   1      33.137  27.561  23.896  1.00  0.00     0.137 C 
ATOM     19  C   UNL A   1      31.104  27.210  25.387  1.00  0.00     0.137 C 
ATOM     20  N   UNL A   1      31.800  28.008  24.349  1.00  0.00    -0.374 N 
BRANCH  20  21
ATOM     21  C   UNL A   1      31.066  28.955  23.665  1.00  0.00     0.081 C 
ATOM     22  C   UNL A   1      30.170  29.844  24.105  1.00  0.00     0.025 C 
BRANCH  22  23
ATOM     23  C   UNL A   1      29.366  30.631  23.167  1.00  0.00    -0.024 A 
ATOM     24  C   UNL A   1      29.137  30.158  21.873  1.00  0.00     0.008 A 
ATOM     25  C   UNL A   1      28.903  31.909  23.519  1.00  0.00     0.008 A 
ATOM     26  C   UNL A   1      28.441  30.947  20.955  1.00  0.00     0.001 A 
ATOM     27  C   UNL A   1      28.203  32.691  22.607  1.00  0.00     0.001 A 
ATOM     28  C   UNL A   1      27.976  32.211  21.321  1.00  0.00     0.000 A 
ENDBRANCH  22  23
ENDBRANCH  20  21
ENDBRANCH   9  11
ENDBRANCH   7   9
ENDBRANCH   6   7
ENDBRANCH   5   6
ENDBRANCH   4   5
ENDBRANCH   3   4
ENDBRANCH   2   3
ENDBRANCH   1   2
BRANCH   1  29
ATOM     29  O   UNL A   1      34.605  21.219  25.443  1.00  0.00    -0.377 OA
BRANCH  29  30
ATOM     30  C   UNL A   1      35.594  21.298  24.439  1.00  0.00     0.188 C 
BRANCH  30  31
ATOM     31  C   UNL A   1      36.930  20.798  24.988  1.00  0.00     0.188 C 
BRANCH  31  32
ATOM     32  O   UNL A   1      37.804  21.853  25.350  1.00  0.00    -0.376 OA
BRANCH  32  33
ATOM     33  C   UNL A   1      39.035  21.581  26.011  1.00  0.00     0.202 C 
BRANCH  33  34
ATOM     34  C   UNL A   1      39.780  20.222  26.028  1.00  0.00     0.261 C 
BRANCH  34  35
ATOM     35  O   UNL A   1      40.994  20.088  26.778  1.00  0.00    -0.460 OA
BRANCH  35  36
ATOM     36  C   UNL A   1      42.162  20.388  26.186  1.00  0.00     0.338 C 
ATOM     37  O   UNL A   1      42.712  19.779  25.284  1.00  0.00    -0.246 OA
BRANCH  36  38
ATOM     38  C   UNL A   1      42.561  21.727  26.678  1.00  0.00     0.060 A 
ATOM     39  C   UNL A   1      42.553  21.965  28.059  1.00  0.00     0.016 A 
ATOM     40  C   UNL A   1      42.992  22.724  25.794  1.00  0.00     0.016 A 
ATOM     41  C   UNL A   1      42.933  23.209  28.559  1.00  0.00     0.010 A 
ATOM     42  C   UNL A   1      43.338  23.983  26.293  1.00  0.00     0.010 A 
ATOM     43  C   UNL A   1      43.271  24.241  27.674  1.00  0.00    -0.014 A 
BRANCH  43  44
ATOM     44  C   UNL A   1      43.287  25.635  28.178  1.00  0.00     0.031 A 
ATOM     45  C   UNL A   1      44.621  26.227  28.544  1.00  0.00     0.074 A 
ATOM     46  C   UNL A   1      42.170  26.377  28.256  1.00  0.00     0.049 A 
ATOM     47  N   UNL A   1      44.905  27.421  28.999  1.00  0.00    -0.248 NA
ATOM     48  C   UNL A   1      45.794  25.354  28.366  1.00  0.00     0.031 C 
ATOM     49  C   UNL A   1      40.828  25.938  27.877  1.00  0.00     0.029 A 
ATOM     50  N   UNL A   1      41.996  27.670  28.685  1.00  0.00    -0.354 N 
ATOM     51  C   UNL A   1      46.285  27.436  29.167  1.00  0.00     0.074 A 
ATOM     52  C   UNL A   1      46.777  26.130  28.796  1.00  0.00     0.031 C 
ATOM     53  C   UNL A   1      39.964  26.947  28.094  1.00  0.00     0.029 A 
ATOM     54  C   UNL A   1      40.687  28.087  28.657  1.00  0.00     0.049 A 
ATOM     55  H   UNL A   1      42.738  28.243  28.982  1.00  0.00     0.167 HD
ATOM     56  C   UNL A   1      47.075  28.451  29.588  1.00  0.00     0.031 A 
ATOM     57  C   UNL A   1      40.139  29.250  29.060  1.00  0.00     0.031 A 
ATOM     58  C   UNL A   1      46.584  29.743  29.979  1.00  0.00     0.049 A 
ATOM     59  C   UNL A   1      41.029  30.333  29.615  1.00  0.00     0.074 A 
ATOM     60  C   UNL A   1      47.302  30.842  30.418  1.00  0.00     0.029 A 
ATOM     61  N   UNL A   1      45.247  30.107  29.989  1.00  0.00    -0.354 N 
ATOM     62  N   UNL A   1      42.334  30.347  29.748  1.00  0.00    -0.248 NA
ATOM     63  C   UNL A   1      40.368  31.566  30.067  1.00  0.00     0.031 C 
ATOM     64  C   UNL A   1      46.393  31.849  30.754  1.00  0.00     0.029 A 
ATOM     65  C   UNL A   1      45.115  31.404  30.456  1.00  0.00     0.049 A 
ATOM     66  H   UNL A   1      44.501  29.530  29.707  1.00  0.00     0.167 HD
ATOM     67  C   UNL A   1      42.651  31.598  30.266  1.00  0.00     0.074 A 
ATOM     68  C   UNL A   1      41.403  32.320  30.408  1.00  0.00     0.031 C 
ATOM     69  C   UNL A   1      43.866  32.107  30.591  1.00  0.00     0.031 A 
BRANCH  56  70
ATOM     70  C   UNL A   1      48.550  28.179  29.690  1.00  0.00    -0.014 A 
ATOM     71  C   UNL A   1      49.122  27.667  30.866  1.00  0.00     0.009 A 
ATOM     72  C   UNL A   1      49.376  28.421  28.582  1.00  0.00     0.009 A 
ATOM     73  C   UNL A   1      50.497  27.439  30.941  1.00  0.00     0.001 A 
ATOM     74  C   UNL A   1      50.746  28.162  28.650  1.00  0.00     0.001 A 
ATOM     75  C   UNL A   1      51.307  27.681  29.832  1.00  0.00     0.000 A 
ENDBRANCH  56  70
BRANCH  57  76
ATOM     76  C   UNL A   1      38.667  29.452  28.981  1.00  0.00    -0.014 A 
ATOM     77  C   UNL A   1      37.845  29.207  30.092  1.00  0.00     0.009 A 
ATOM     78  C   UNL A   1      38.071  29.862  27.777  1.00  0.00     0.009 A 
ATOM     79  C   UNL A   1      36.458  29.339  29.991  1.00  0.00     0.001 A 
ATOM     80  C   UNL A   1      36.687  30.023  27.687  1.00  0.00     0.001 A 
ATOM     81  C   UNL A   1      35.880  29.751  28.791  1.00  0.00     0.000 A 
ENDBRANCH  57  76
BRANCH  69  82
ATOM     82  C   UNL A   1      43.911  33.527  31.088  1.00  0.00    -0.014 A 
ATOM     83  C   UNL A   1      43.933  34.616  30.205  1.00  0.00     0.009 A 
ATOM     84  C   UNL A   1      43.888  33.774  32.470  1.00  0.00     0.009 A 
ATOM     85  C   UNL A   1      43.970  35.923  30.696  1.00  0.00     0.001 A 
ATOM     86  C   UNL A   1      43.889  35.082  32.958  1.00  0.00     0.001 A 
ATOM     87  C   UNL A   1      43.943  36.155  32.070  1.00  0.00     0.000 A 
ENDBRANCH  69  82
ENDBRANCH  43  44
ENDBRANCH  36  38
ENDBRANCH  35  36
ENDBRANCH  34  35
ENDBRANCH  33  34
ENDBRANCH  32  33
ENDBRANCH  31  32
ENDBRANCH  30  31
ENDBRANCH  29  30
ENDBRANCH   1  29
TORSDOF 23
ENDMDL
MODEL 3
REMARK VINA RESULT:      -9.2      3.847      8.274
REMARK SMILES C[C@H](NC(=O)N1CCN(/C=C/c2ccccc2)CC1)C(=O)OCCOCCOCCOCCOC(=O)c1ccc(-c2c3nc(c(-c4ccccc4)c4ccc([nH]4)c(-c4ccccc4)c4nc(c(-c5ccccc5)c5ccc2[nH]5)C=C4)C=C3)cc1
REMARK SMILES IDX 27 1 26 2 25 3 24 4 23 5 22 6 20 7 21 8 2 9 1 10 3 11 4 12
REMARK SMILES IDX 5 14 6 15 7 16 19 17 8 18 18 19 9 20 10 21 11 22 12 23 13 24
REMARK SMILES IDX 17 25 14 26 16 27 15 28 28 29 29 30 30 31 31 32 32 33 33 34
REMARK SMILES IDX 34 35 35 36 36 37 37 38 38 39 84 40 39 41 83 42 40 43 41 44
REMARK SMILES IDX 42 45 77 46 43 47 82 48 76 49 78 50 44 51 81 52 75 53 74 54
REMARK SMILES IDX 45 56 67 57 52 58 66 59 53 60 56 61 65 62 79 63 54 64 55 65
REMARK SMILES IDX 64 67 80 68 57 69 46 70 47 71 51 72 48 73 50 74 49 75 68 76
REMARK SMILES IDX 69 77 73 78 70 79 72 80 71 81 58 82 59 83 63 84 60 85 62 86
REMARK SMILES IDX 61 87
REMARK H PARENT 3 13 78 55 56 66
REMARK Flexibility Score: inf
ROOT
ATOM      1  C   UNL A   1      34.013  28.226  25.272  1.00  0.00     0.188 C 
ENDROOT
BRANCH   1   2
ATOM      2  C   UNL A   1      33.938  28.210  23.737  1.00  0.00     0.188 C 
BRANCH   2   3
ATOM      3  O   UNL A   1      33.419  27.103  23.025  1.00  0.00    -0.376 OA
BRANCH   3   4
ATOM      4  C   UNL A   1      34.008  25.829  22.867  1.00  0.00     0.202 C 
BRANCH   4   5
ATOM      5  C   UNL A   1      34.319  24.821  23.982  1.00  0.00     0.261 C 
BRANCH   5   6
ATOM      6  O   UNL A   1      34.697  23.505  23.599  1.00  0.00    -0.462 OA
BRANCH   6   7
ATOM      7  C   UNL A   1      33.672  22.669  23.296  1.00  0.00     0.328 C 
ATOM      8  O   UNL A   1      32.714  22.984  22.601  1.00  0.00    -0.250 OA
BRANCH   7   9
ATOM      9  C   UNL A   1      33.745  21.353  24.093  1.00  0.00     0.190 C 
ATOM     10  C   UNL A   1      32.460  20.662  23.674  1.00  0.00     0.043 C 
BRANCH   9  11
ATOM     11  N   UNL A   1      33.962  21.478  25.548  1.00  0.00    -0.325 N 
ATOM     12  C   UNL A   1      33.451  22.156  26.584  1.00  0.00     0.318 C 
ATOM     13  H   UNL A   1      34.698  20.894  25.842  1.00  0.00     0.166 HD
ATOM     14  O   UNL A   1      34.089  22.127  27.637  1.00  0.00    -0.249 OA
ATOM     15  N   UNL A   1      32.340  22.902  26.443  1.00  0.00    -0.321 N 
ATOM     16  C   UNL A   1      32.251  24.176  27.134  1.00  0.00     0.143 C 
ATOM     17  C   UNL A   1      31.099  22.477  25.826  1.00  0.00     0.143 C 
ATOM     18  C   UNL A   1      31.967  25.255  26.090  1.00  0.00     0.137 C 
ATOM     19  C   UNL A   1      30.470  23.554  24.931  1.00  0.00     0.137 C 
ATOM     20  N   UNL A   1      30.739  24.960  25.318  1.00  0.00    -0.374 N 
BRANCH  20  21
ATOM     21  C   UNL A   1      29.990  25.949  24.713  1.00  0.00     0.081 C 
ATOM     22  C   UNL A   1      30.284  26.758  23.691  1.00  0.00     0.025 C 
BRANCH  22  23
ATOM     23  C   UNL A   1      29.403  27.873  23.334  1.00  0.00    -0.024 A 
ATOM     24  C   UNL A   1      28.023  27.760  23.517  1.00  0.00     0.008 A 
ATOM     25  C   UNL A   1      29.919  29.022  22.714  1.00  0.00     0.008 A 
ATOM     26  C   UNL A   1      27.178  28.790  23.099  1.00  0.00     0.001 A 
ATOM     27  C   UNL A   1      29.078  30.051  22.306  1.00  0.00     0.001 A 
ATOM     28  C   UNL A   1      27.705  29.932  22.495  1.00  0.00     0.000 A 
ENDBRANCH  22  23
ENDBRANCH  20  21
ENDBRANCH   9  11
ENDBRANCH   7   9
ENDBRANCH   6   7
ENDBRANCH   5   6
ENDBRANCH   4   5
ENDBRANCH   3   4
ENDBRANCH   2   3
ENDBRANCH   1   2
BRANCH   1  29
ATOM     29  O   UNL A   1      32.924  28.617  26.069  1.00  0.00    -0.377 OA
BRANCH  29  30
ATOM     30  C   UNL A   1      32.290  29.803  25.637  1.00  0.00     0.188 C 
BRANCH  30  31
ATOM     31  C   UNL A   1      32.290  30.831  26.768  1.00  0.00     0.188 C 
BRANCH  31  32
ATOM     32  O   UNL A   1      33.425  30.718  27.610  1.00  0.00    -0.376 OA
BRANCH  32  33
ATOM     33  C   UNL A   1      34.252  31.848  27.867  1.00  0.00     0.202 C 
BRANCH  33  34
ATOM     34  C   UNL A   1      34.610  32.417  29.264  1.00  0.00     0.261 C 
BRANCH  34  35
ATOM     35  O   UNL A   1      35.965  32.361  29.727  1.00  0.00    -0.460 OA
BRANCH  35  36
ATOM     36  C   UNL A   1      36.280  31.514  30.721  1.00  0.00     0.338 C 
ATOM     37  O   UNL A   1      35.621  31.261  31.715  1.00  0.00    -0.246 OA
BRANCH  36  38
ATOM     38  C   UNL A   1      37.484  30.769  30.284  1.00  0.00     0.060 A 
ATOM     39  C   UNL A   1      38.361  30.276  31.261  1.00  0.00     0.016 A 
ATOM     40  C   UNL A   1      37.722  30.509  28.930  1.00  0.00     0.016 A 
ATOM     41  C   UNL A   1      39.497  29.561  30.888  1.00  0.00     0.010 A 
ATOM     42  C   UNL A   1      38.881  29.823  28.553  1.00  0.00     0.010 A 
ATOM     43  C   UNL A   1      39.792  29.383  29.530  1.00  0.00    -0.014 A 
BRANCH  43  44
ATOM     44  C   UNL A   1      41.166  28.981  29.147  1.00  0.00     0.031 A 
ATOM     45  C   UNL A   1      41.380  27.556  28.713  1.00  0.00     0.074 A 
ATOM     46  C   UNL A   1      42.184  29.858  29.125  1.00  0.00     0.049 A 
ATOM     47  N   UNL A   1      42.478  26.960  28.324  1.00  0.00    -0.248 NA
ATOM     48  C   UNL A   1      40.189  26.688  28.714  1.00  0.00     0.031 C 
ATOM     49  C   UNL A   1      42.094  31.276  29.465  1.00  0.00     0.029 A 
ATOM     50  N   UNL A   1      43.504  29.671  28.795  1.00  0.00    -0.354 N 
ATOM     51  C   UNL A   1      42.110  25.650  28.042  1.00  0.00     0.074 A 
ATOM     52  C   UNL A   1      40.699  25.528  28.332  1.00  0.00     0.031 C 
ATOM     53  C   UNL A   1      43.312  31.833  29.329  1.00  0.00     0.029 A 
ATOM     54  C   UNL A   1      44.269  30.804  28.926  1.00  0.00     0.049 A 
ATOM     55  H   UNL A   1      43.867  28.808  28.491  1.00  0.00     0.167 HD
ATOM     56  C   UNL A   1      42.877  24.636  27.577  1.00  0.00     0.031 A 
ATOM     57  C   UNL A   1      45.594  30.980  28.757  1.00  0.00     0.031 A 
ATOM     58  C   UNL A   1      44.284  24.750  27.310  1.00  0.00     0.049 A 
ATOM     59  C   UNL A   1      46.446  29.812  28.329  1.00  0.00     0.074 A 
ATOM     60  C   UNL A   1      45.152  23.783  26.834  1.00  0.00     0.029 A 
ATOM     61  N   UNL A   1      45.032  25.899  27.509  1.00  0.00    -0.354 N 
ATOM     62  N   UNL A   1      46.086  28.584  28.043  1.00  0.00    -0.248 NA
ATOM     63  C   UNL A   1      47.889  30.060  28.193  1.00  0.00     0.031 C 
ATOM     64  C   UNL A   1      46.438  24.330  26.805  1.00  0.00     0.029 A 
ATOM     65  C   UNL A   1      46.358  25.658  27.194  1.00  0.00     0.049 A 
ATOM     66  H   UNL A   1      44.674  26.759  27.828  1.00  0.00     0.167 HD
ATOM     67  C   UNL A   1      47.249  27.924  27.660  1.00  0.00     0.074 A 
ATOM     68  C   UNL A   1      48.323  28.893  27.738  1.00  0.00     0.031 C 
ATOM     69  C   UNL A   1      47.414  26.633  27.276  1.00  0.00     0.031 A 
BRANCH  56  70
ATOM     70  C   UNL A   1      42.209  23.305  27.375  1.00  0.00    -0.014 A 
ATOM     71  C   UNL A   1      41.970  22.433  28.450  1.00  0.00     0.009 A 
ATOM     72  C   UNL A   1      41.797  22.925  26.089  1.00  0.00     0.009 A 
ATOM     73  C   UNL A   1      41.363  21.194  28.234  1.00  0.00     0.001 A 
ATOM     74  C   UNL A   1      41.163  21.699  25.880  1.00  0.00     0.001 A 
ATOM     75  C   UNL A   1      40.956  20.831  26.950  1.00  0.00     0.000 A 
ENDBRANCH  56  70
BRANCH  57  76
ATOM     76  C   UNL A   1      46.214  32.309  29.015  1.00  0.00    -0.014 A 
ATOM     77  C   UNL A   1      46.462  32.746  30.325  1.00  0.00     0.009 A 
ATOM     78  C   UNL A   1      46.530  33.163  27.946  1.00  0.00     0.009 A 
ATOM     79  C   UNL A   1      46.984  34.020  30.561  1.00  0.00     0.001 A 
ATOM     80  C   UNL A   1      47.082  34.424  28.183  1.00  0.00     0.001 A 
ATOM     81  C   UNL A   1      47.299  34.855  29.490  1.00  0.00     0.000 A 
ENDBRANCH  57  76
BRANCH  69  82
ATOM     82  C   UNL A   1      48.797  26.205  26.865  1.00  0.00    -0.014 A 
ATOM     83  C   UNL A   1      49.326  26.532  25.607  1.00  0.00     0.009 A 
ATOM     84  C   UNL A   1      49.599  25.497  27.775  1.00  0.00     0.009 A 
ATOM     85  C   UNL A   1      50.615  26.125  25.256  1.00  0.00     0.001 A 
ATOM     86  C   UNL A   1      50.900  25.122  27.434  1.00  0.00     0.001 A 
ATOM     87  C   UNL A   1      51.402  25.426  26.170  1.00  0.00     0.000 A 
ENDBRANCH  69  82
ENDBRANCH  43  44
ENDBRANCH  36  38
ENDBRANCH  35  36
ENDBRANCH  34  35
ENDBRANCH  33  34
ENDBRANCH  32  33
ENDBRANCH  31  32
ENDBRANCH  30  31
ENDBRANCH  29  30
ENDBRANCH   1  29
TORSDOF 23
ENDMDL
