MODEL 1
REMARK VINA RESULT:     -10.0      0.000      0.000
REMARK SMILES O=C(OCCOCCOCCOCCOC(=O)c1ccc(-c2c3nc(c(-c4ccccc4)c4ccc([nH]4)c(-c4ccccc4)c4nc(c(-c5ccccc5)c5ccc2[nH]5)C=C4)C=C3)cc1)C1=Cc2cc(Cl)ccc2O[C@@H]1C(F)(F)F
REMARK SMILES IDX 10 1 9 2 8 3 7 4 6 5 5 6 4 7 3 8 2 9 1 10 66 11 67 12 76 13
REMARK SMILES IDX 68 14 75 15 69 16 74 17 70 18 73 19 71 20 72 21 77 22 78 23
REMARK SMILES IDX 79 24 80 25 11 26 12 27 13 28 14 29 15 30 16 31 17 32 18 33
REMARK SMILES IDX 19 34 65 35 20 36 64 37 21 38 22 39 23 40 58 41 24 42 63 43
REMARK SMILES IDX 57 44 59 45 25 46 62 47 56 48 55 49 26 51 48 52 33 53 47 54
REMARK SMILES IDX 34 55 37 56 46 57 60 58 35 59 36 60 45 62 61 63 38 64 27 65
REMARK SMILES IDX 28 66 32 67 29 68 31 69 30 70 49 71 50 72 54 73 51 74 53 75
REMARK SMILES IDX 52 76 39 77 40 78 44 79 41 80 43 81 42 82
REMARK H PARENT 59 50 37 61
REMARK Flexibility Score: inf
ROOT
ATOM      1  C   UNL A   1      42.961  18.729  26.281  1.00  0.00     0.188 C 
ENDROOT
BRANCH   1   2
ATOM      2  O   UNL A   1      42.475  19.926  26.871  1.00  0.00    -0.377 OA
BRANCH   2   3
ATOM      3  C   UNL A   1      41.465  20.604  26.134  1.00  0.00     0.188 C 
BRANCH   3   4
ATOM      4  C   UNL A   1      40.168  19.812  26.073  1.00  0.00     0.188 C 
BRANCH   4   5
ATOM      5  O   UNL A   1      39.033  20.609  25.764  1.00  0.00    -0.376 OA
BRANCH   5   6
ATOM      6  C   UNL A   1      39.039  21.982  26.121  1.00  0.00     0.202 C 
BRANCH   6   7
ATOM      7  C   UNL A   1      37.880  22.808  25.562  1.00  0.00     0.261 C 
BRANCH   7   8
ATOM      8  O   UNL A   1      36.754  21.976  25.234  1.00  0.00    -0.460 OA
BRANCH   8   9
ATOM      9  C   UNL A   1      36.026  22.365  24.167  1.00  0.00     0.338 C 
ATOM     10  O   UNL A   1      36.526  22.659  23.092  1.00  0.00    -0.246 OA
BRANCH   9  11
ATOM     11  C   UNL A   1      34.572  22.480  24.461  1.00  0.00     0.087 C 
ATOM     12  C   UNL A   1      34.353  23.359  25.455  1.00  0.00     0.027 C 
ATOM     13  C   UNL A   1      33.603  22.358  23.306  1.00  0.00     0.316 C 
ATOM     14  C   UNL A   1      33.812  24.635  24.969  1.00  0.00     0.019 A 
ATOM     15  O   UNL A   1      32.906  23.588  22.970  1.00  0.00    -0.475 OA
ATOM     16  C   UNL A   1      34.031  25.802  25.707  1.00  0.00     0.032 A 
ATOM     17  C   UNL A   1      33.172  24.696  23.727  1.00  0.00     0.128 A 
ATOM     18  C   UNL A   1      33.656  27.032  25.172  1.00  0.00     0.041 A 
ATOM     19  C   UNL A   1      32.799  25.932  23.198  1.00  0.00     0.048 A 
ATOM     20  Cl  UNL A   1      33.957  28.474  26.061  1.00  0.00    -0.084 Cl
ATOM     21  C   UNL A   1      33.061  27.104  23.913  1.00  0.00     0.024 A 
BRANCH  13  22
ATOM     22  C   UNL A   1      32.633  21.189  23.495  1.00  0.00     0.430 C 
ATOM     23  F   UNL A   1      33.285  20.069  23.887  1.00  0.00    -0.167 F 
ATOM     24  F   UNL A   1      31.723  21.464  24.463  1.00  0.00    -0.167 F 
ATOM     25  F   UNL A   1      31.948  20.899  22.368  1.00  0.00    -0.167 F 
ENDBRANCH  13  22
ENDBRANCH   9  11
ENDBRANCH   8   9
ENDBRANCH   7   8
ENDBRANCH   6   7
ENDBRANCH   5   6
ENDBRANCH   4   5
ENDBRANCH   3   4
ENDBRANCH   2   3
ENDBRANCH   1   2
BRANCH   1  26
ATOM     26  C   UNL A   1      43.772  18.875  24.970  1.00  0.00     0.188 C 
BRANCH  26  27
ATOM     27  O   UNL A   1      44.425  20.076  24.578  1.00  0.00    -0.376 OA
BRANCH  27  28
ATOM     28  C   UNL A   1      45.516  20.565  25.333  1.00  0.00     0.202 C 
BRANCH  28  29
ATOM     29  C   UNL A   1      45.675  22.093  25.332  1.00  0.00     0.261 C 
BRANCH  29  30
ATOM     30  O   UNL A   1      44.697  22.786  26.128  1.00  0.00    -0.460 OA
BRANCH  30  31
ATOM     31  C   UNL A   1      43.753  23.481  25.437  1.00  0.00     0.338 C 
ATOM     32  O   UNL A   1      43.358  23.263  24.313  1.00  0.00    -0.246 OA
BRANCH  31  33
ATOM     33  C   UNL A   1      43.108  24.473  26.347  1.00  0.00     0.060 A 
ATOM     34  C   UNL A   1      43.600  25.787  26.331  1.00  0.00     0.016 A 
ATOM     35  C   UNL A   1      42.010  24.156  27.152  1.00  0.00     0.016 A 
ATOM     36  C   UNL A   1      43.010  26.778  27.122  1.00  0.00     0.010 A 
ATOM     37  C   UNL A   1      41.431  25.145  27.961  1.00  0.00     0.010 A 
ATOM     38  C   UNL A   1      41.945  26.455  27.971  1.00  0.00    -0.014 A 
BRANCH  38  39
ATOM     39  C   UNL A   1      41.529  27.409  29.034  1.00  0.00     0.031 A 
ATOM     40  C   UNL A   1      42.268  27.357  30.346  1.00  0.00     0.074 A 
ATOM     41  C   UNL A   1      40.543  28.308  28.860  1.00  0.00     0.049 A 
ATOM     42  N   UNL A   1      42.051  28.025  31.451  1.00  0.00    -0.248 NA
ATOM     43  C   UNL A   1      43.405  26.424  30.419  1.00  0.00     0.031 C 
ATOM     44  C   UNL A   1      39.783  28.518  27.629  1.00  0.00     0.029 A 
ATOM     45  N   UNL A   1      40.003  29.215  29.744  1.00  0.00    -0.354 N 
ATOM     46  C   UNL A   1      43.014  27.583  32.349  1.00  0.00     0.074 A 
ATOM     47  C   UNL A   1      43.806  26.581  31.671  1.00  0.00     0.031 C 
ATOM     48  C   UNL A   1      38.863  29.477  27.842  1.00  0.00     0.029 A 
ATOM     49  C   UNL A   1      38.942  29.924  29.233  1.00  0.00     0.049 A 
ATOM     50  H   UNL A   1      40.346  29.343  30.658  1.00  0.00     0.167 HD
ATOM     51  C   UNL A   1      43.225  27.972  33.628  1.00  0.00     0.031 A 
ATOM     52  C   UNL A   1      38.112  30.806  29.828  1.00  0.00     0.031 A 
ATOM     53  C   UNL A   1      42.439  28.958  34.317  1.00  0.00     0.049 A 
ATOM     54  C   UNL A   1      38.307  31.148  31.286  1.00  0.00     0.074 A 
ATOM     55  C   UNL A   1      42.593  29.427  35.610  1.00  0.00     0.029 A 
ATOM     56  N   UNL A   1      41.348  29.615  33.777  1.00  0.00    -0.354 N 
ATOM     57  N   UNL A   1      39.240  30.746  32.115  1.00  0.00    -0.248 NA
ATOM     58  C   UNL A   1      37.327  32.066  31.891  1.00  0.00     0.031 C 
ATOM     59  C   UNL A   1      41.553  30.323  35.874  1.00  0.00     0.029 A 
ATOM     60  C   UNL A   1      40.791  30.456  34.725  1.00  0.00     0.049 A 
ATOM     61  H   UNL A   1      41.016  29.499  32.857  1.00  0.00     0.167 HD
ATOM     62  C   UNL A   1      38.973  31.379  33.325  1.00  0.00     0.074 A 
ATOM     63  C   UNL A   1      37.806  32.209  33.119  1.00  0.00     0.031 C 
ATOM     64  C   UNL A   1      39.632  31.279  34.506  1.00  0.00     0.031 A 
BRANCH  51  65
ATOM     65  C   UNL A   1      44.329  27.295  34.385  1.00  0.00    -0.014 A 
ATOM     66  C   UNL A   1      44.106  26.106  35.097  1.00  0.00     0.009 A 
ATOM     67  C   UNL A   1      45.626  27.829  34.340  1.00  0.00     0.009 A 
ATOM     68  C   UNL A   1      45.157  25.477  35.766  1.00  0.00     0.001 A 
ATOM     69  C   UNL A   1      46.681  27.185  34.988  1.00  0.00     0.001 A 
ATOM     70  C   UNL A   1      46.444  26.013  35.705  1.00  0.00     0.000 A 
ENDBRANCH  51  65
BRANCH  52  71
ATOM     71  C   UNL A   1      36.968  31.400  29.080  1.00  0.00    -0.014 A 
ATOM     72  C   UNL A   1      37.023  32.719  28.604  1.00  0.00     0.009 A 
ATOM     73  C   UNL A   1      35.781  30.670  28.907  1.00  0.00     0.009 A 
ATOM     74  C   UNL A   1      35.903  33.305  28.006  1.00  0.00     0.001 A 
ATOM     75  C   UNL A   1      34.674  31.247  28.280  1.00  0.00     0.001 A 
ATOM     76  C   UNL A   1      34.731  32.568  27.843  1.00  0.00     0.000 A 
ENDBRANCH  52  71
BRANCH  64  77
ATOM     77  C   UNL A   1      39.130  32.105  35.658  1.00  0.00    -0.014 A 
ATOM     78  C   UNL A   1      38.193  31.594  36.568  1.00  0.00     0.009 A 
ATOM     79  C   UNL A   1      39.647  33.395  35.867  1.00  0.00     0.009 A 
ATOM     80  C   UNL A   1      37.759  32.368  37.647  1.00  0.00     0.001 A 
ATOM     81  C   UNL A   1      39.234  34.154  36.964  1.00  0.00     0.001 A 
ATOM     82  C   UNL A   1      38.285  33.644  37.847  1.00  0.00     0.000 A 
ENDBRANCH  64  77
ENDBRANCH  38  39
ENDBRANCH  31  33
ENDBRANCH  30  31
ENDBRANCH  29  30
ENDBRANCH  28  29
ENDBRANCH  27  28
ENDBRANCH  26  27
ENDBRANCH   1  26
TORSDOF 21
ENDMDL
MODEL 2
REMARK VINA RESULT:      -9.8      4.461      9.860
REMARK SMILES O=C(OCCOCCOCCOCCOC(=O)c1ccc(-c2c3nc(c(-c4ccccc4)c4ccc([nH]4)c(-c4ccccc4)c4nc(c(-c5ccccc5)c5ccc2[nH]5)C=C4)C=C3)cc1)C1=Cc2cc(Cl)ccc2O[C@@H]1C(F)(F)F
REMARK SMILES IDX 10 1 9 2 8 3 7 4 6 5 5 6 4 7 3 8 2 9 1 10 66 11 67 12 76 13
REMARK SMILES IDX 68 14 75 15 69 16 74 17 70 18 73 19 71 20 72 21 77 22 78 23
REMARK SMILES IDX 79 24 80 25 11 26 12 27 13 28 14 29 15 30 16 31 17 32 18 33
REMARK SMILES IDX 19 34 65 35 20 36 64 37 21 38 22 39 23 40 58 41 24 42 63 43
REMARK SMILES IDX 57 44 59 45 25 46 62 47 56 48 55 49 26 51 48 52 33 53 47 54
REMARK SMILES IDX 34 55 37 56 46 57 60 58 35 59 36 60 45 62 61 63 38 64 27 65
REMARK SMILES IDX 28 66 32 67 29 68 31 69 30 70 49 71 50 72 54 73 51 74 53 75
REMARK SMILES IDX 52 76 39 77 40 78 44 79 41 80 43 81 42 82
REMARK H PARENT 59 50 37 61
REMARK Flexibility Score: inf
ROOT
ATOM      1  C   UNL A   1      34.394  32.125  28.014  1.00  0.00     0.188 C 
ENDROOT
BRANCH   1   2
ATOM      2  O   UNL A   1      33.376  31.486  27.257  1.00  0.00    -0.377 OA
BRANCH   2   3
ATOM      3  C   UNL A   1      33.373  30.065  27.314  1.00  0.00     0.188 C 
BRANCH   3   4
ATOM      4  C   UNL A   1      32.086  29.470  26.765  1.00  0.00     0.188 C 
BRANCH   4   5
ATOM      5  O   UNL A   1      32.233  28.136  26.297  1.00  0.00    -0.376 OA
BRANCH   5   6
ATOM      6  C   UNL A   1      31.167  27.219  26.486  1.00  0.00     0.202 C 
BRANCH   6   7
ATOM      7  C   UNL A   1      31.563  25.743  26.467  1.00  0.00     0.261 C 
BRANCH   7   8
ATOM      8  O   UNL A   1      30.647  24.964  25.680  1.00  0.00    -0.460 OA
BRANCH   8   9
ATOM      9  C   UNL A   1      31.149  23.834  25.139  1.00  0.00     0.338 C 
ATOM     10  O   UNL A   1      31.229  22.782  25.753  1.00  0.00    -0.246 OA
BRANCH   9  11
ATOM     11  C   UNL A   1      31.667  24.028  23.758  1.00  0.00     0.087 C 
ATOM     12  C   UNL A   1      30.844  24.816  23.043  1.00  0.00     0.027 C 
ATOM     13  C   UNL A   1      33.166  24.096  23.566  1.00  0.00     0.316 C 
ATOM     14  C   UNL A   1      31.380  26.171  22.862  1.00  0.00     0.019 A 
ATOM     15  O   UNL A   1      33.666  25.402  23.172  1.00  0.00    -0.475 OA
ATOM     16  C   UNL A   1      30.500  27.237  22.657  1.00  0.00     0.032 A 
ATOM     17  C   UNL A   1      32.752  26.405  22.996  1.00  0.00     0.128 A 
ATOM     18  C   UNL A   1      30.993  28.540  22.641  1.00  0.00     0.041 A 
ATOM     19  C   UNL A   1      33.239  27.713  22.979  1.00  0.00     0.048 A 
ATOM     20  Cl  UNL A   1      29.909  29.859  22.426  1.00  0.00    -0.084 Cl
ATOM     21  C   UNL A   1      32.355  28.784  22.823  1.00  0.00     0.024 A 
BRANCH  13  22
ATOM     22  C   UNL A   1      33.675  22.990  22.639  1.00  0.00     0.430 C 
ATOM     23  F   UNL A   1      35.022  22.873  22.707  1.00  0.00    -0.167 F 
ATOM     24  F   UNL A   1      33.165  21.784  22.994  1.00  0.00    -0.167 F 
ATOM     25  F   UNL A   1      33.340  23.204  21.348  1.00  0.00    -0.167 F 
ENDBRANCH  13  22
ENDBRANCH   9  11
ENDBRANCH   8   9
ENDBRANCH   7   8
ENDBRANCH   6   7
ENDBRANCH   5   6
ENDBRANCH   4   5
ENDBRANCH   3   4
ENDBRANCH   2   3
ENDBRANCH   1   2
BRANCH   1  26
ATOM     26  C   UNL A   1      34.169  33.614  28.371  1.00  0.00     0.188 C 
BRANCH  26  27
ATOM     27  O   UNL A   1      34.734  34.243  29.515  1.00  0.00    -0.376 OA
BRANCH  27  28
ATOM     28  C   UNL A   1      33.889  34.812  30.497  1.00  0.00     0.202 C 
BRANCH  28  29
ATOM     29  C   UNL A   1      34.064  34.245  31.913  1.00  0.00     0.261 C 
BRANCH  29  30
ATOM     30  O   UNL A   1      34.500  32.875  31.949  1.00  0.00    -0.460 OA
BRANCH  30  31
ATOM     31  C   UNL A   1      35.526  32.600  32.800  1.00  0.00     0.338 C 
ATOM     32  O   UNL A   1      35.549  32.769  33.999  1.00  0.00    -0.246 OA
BRANCH  31  33
ATOM     33  C   UNL A   1      36.591  31.859  32.063  1.00  0.00     0.060 A 
ATOM     34  C   UNL A   1      37.543  31.161  32.822  1.00  0.00     0.016 A 
ATOM     35  C   UNL A   1      36.633  31.787  30.667  1.00  0.00     0.016 A 
ATOM     36  C   UNL A   1      38.540  30.407  32.196  1.00  0.00     0.010 A 
ATOM     37  C   UNL A   1      37.645  31.047  30.039  1.00  0.00     0.010 A 
ATOM     38  C   UNL A   1      38.621  30.374  30.799  1.00  0.00    -0.014 A 
BRANCH  38  39
ATOM     39  C   UNL A   1      39.845  29.848  30.139  1.00  0.00     0.031 A 
ATOM     40  C   UNL A   1      40.999  30.799  29.949  1.00  0.00     0.074 A 
ATOM     41  C   UNL A   1      39.960  28.572  29.727  1.00  0.00     0.049 A 
ATOM     42  N   UNL A   1      42.141  30.611  29.339  1.00  0.00    -0.248 NA
ATOM     43  C   UNL A   1      40.838  32.144  30.525  1.00  0.00     0.031 C 
ATOM     44  C   UNL A   1      38.955  27.524  29.900  1.00  0.00     0.029 A 
ATOM     45  N   UNL A   1      40.987  27.944  29.061  1.00  0.00    -0.354 N 
ATOM     46  C   UNL A   1      42.826  31.815  29.448  1.00  0.00     0.074 A 
ATOM     47  C   UNL A   1      41.969  32.731  30.166  1.00  0.00     0.031 C 
ATOM     48  C   UNL A   1      39.407  26.389  29.335  1.00  0.00     0.029 A 
ATOM     49  C   UNL A   1      40.716  26.637  28.730  1.00  0.00     0.049 A 
ATOM     50  H   UNL A   1      41.837  28.389  28.841  1.00  0.00     0.167 HD
ATOM     51  C   UNL A   1      44.059  32.134  28.992  1.00  0.00     0.031 A 
ATOM     52  C   UNL A   1      41.428  25.756  27.996  1.00  0.00     0.031 A 
ATOM     53  C   UNL A   1      44.916  31.238  28.268  1.00  0.00     0.049 A 
ATOM     54  C   UNL A   1      42.757  26.172  27.412  1.00  0.00     0.074 A 
ATOM     55  C   UNL A   1      46.190  31.473  27.782  1.00  0.00     0.029 A 
ATOM     56  N   UNL A   1      44.583  29.942  27.916  1.00  0.00    -0.354 N 
ATOM     57  N   UNL A   1      43.406  27.303  27.548  1.00  0.00    -0.248 NA
ATOM     58  C   UNL A   1      43.450  25.185  26.567  1.00  0.00     0.031 C 
ATOM     59  C   UNL A   1      46.603  30.338  27.079  1.00  0.00     0.029 A 
ATOM     60  C   UNL A   1      45.611  29.377  27.182  1.00  0.00     0.049 A 
ATOM     61  H   UNL A   1      43.740  29.490  28.151  1.00  0.00     0.167 HD
ATOM     62  C   UNL A   1      44.588  27.153  26.830  1.00  0.00     0.074 A 
ATOM     63  C   UNL A   1      44.580  25.815  26.278  1.00  0.00     0.031 C 
ATOM     64  C   UNL A   1      45.592  28.044  26.640  1.00  0.00     0.031 A 
BRANCH  51  65
ATOM     65  C   UNL A   1      44.541  33.537  29.225  1.00  0.00    -0.014 A 
ATOM     66  C   UNL A   1      45.128  33.915  30.443  1.00  0.00     0.009 A 
ATOM     67  C   UNL A   1      44.453  34.478  28.188  1.00  0.00     0.009 A 
ATOM     68  C   UNL A   1      45.599  35.217  30.623  1.00  0.00     0.001 A 
ATOM     69  C   UNL A   1      44.948  35.771  28.362  1.00  0.00     0.001 A 
ATOM     70  C   UNL A   1      45.515  36.141  29.581  1.00  0.00     0.000 A 
ENDBRANCH  51  65
BRANCH  52  71
ATOM     71  C   UNL A   1      40.888  24.398  27.704  1.00  0.00    -0.014 A 
ATOM     72  C   UNL A   1      41.469  23.252  28.269  1.00  0.00     0.009 A 
ATOM     73  C   UNL A   1      39.834  24.237  26.790  1.00  0.00     0.009 A 
ATOM     74  C   UNL A   1      41.031  21.977  27.899  1.00  0.00     0.001 A 
ATOM     75  C   UNL A   1      39.376  22.962  26.447  1.00  0.00     0.001 A 
ATOM     76  C   UNL A   1      39.985  21.833  26.990  1.00  0.00     0.000 A 
ENDBRANCH  52  71
BRANCH  64  77
ATOM     77  C   UNL A   1      46.776  27.600  25.827  1.00  0.00    -0.014 A 
ATOM     78  C   UNL A   1      47.847  26.910  26.416  1.00  0.00     0.009 A 
ATOM     79  C   UNL A   1      46.794  27.826  24.441  1.00  0.00     0.009 A 
ATOM     80  C   UNL A   1      48.926  26.483  25.639  1.00  0.00     0.001 A 
ATOM     81  C   UNL A   1      47.860  27.371  23.662  1.00  0.00     0.001 A 
ATOM     82  C   UNL A   1      48.928  26.708  24.262  1.00  0.00     0.000 A 
ENDBRANCH  64  77
ENDBRANCH  38  39
ENDBRANCH  31  33
ENDBRANCH  30  31
ENDBRANCH  29  30
ENDBRANCH  28  29
ENDBRANCH  27  28
ENDBRANCH  26  27
ENDBRANCH   1  26
TORSDOF 21
ENDMDL
MODEL 3
REMARK VINA RESULT:      -9.7      1.420      2.412
REMARK SMILES O=C(OCCOCCOCCOCCOC(=O)c1ccc(-c2c3nc(c(-c4ccccc4)c4ccc([nH]4)c(-c4ccccc4)c4nc(c(-c5ccccc5)c5ccc2[nH]5)C=C4)C=C3)cc1)C1=Cc2cc(Cl)ccc2O[C@@H]1C(F)(F)F
REMARK SMILES IDX 10 1 9 2 8 3 7 4 6 5 5 6 4 7 3 8 2 9 1 10 66 11 67 12 76 13
REMARK SMILES IDX 68 14 75 15 69 16 74 17 70 18 73 19 71 20 72 21 77 22 78 23
REMARK SMILES IDX 79 24 80 25 11 26 12 27 13 28 14 29 15 30 16 31 17 32 18 33
REMARK SMILES IDX 19 34 65 35 20 36 64 37 21 38 22 39 23 40 58 41 24 42 63 43
REMARK SMILES IDX 57 44 59 45 25 46 62 47 56 48 55 49 26 51 48 52 33 53 47 54
REMARK SMILES IDX 34 55 37 56 46 57 60 58 35 59 36 60 45 62 61 63 38 64 27 65
REMARK SMILES IDX 28 66 32 67 29 68 31 69 30 70 49 71 50 72 54 73 51 74 53 75
REMARK SMILES IDX 52 76 39 77 40 78 44 79 41 80 43 81 42 82
REMARK H PARENT 59 50 37 61
REMARK Flexibility Score: inf
ROOT
ATOM      1  C   UNL A   1      39.501  22.429  26.473  1.00  0.00     0.188 C 
ENDROOT
BRANCH   1   2
ATOM      2  O   UNL A   1      38.110  22.483  26.188  1.00  0.00    -0.377 OA
BRANCH   2   3
ATOM      3  C   UNL A   1      37.723  21.937  24.933  1.00  0.00     0.188 C 
BRANCH   3   4
ATOM      4  C   UNL A   1      36.646  20.873  25.076  1.00  0.00     0.188 C 
BRANCH   4   5
ATOM      5  O   UNL A   1      35.684  21.171  26.079  1.00  0.00    -0.376 OA
BRANCH   5   6
ATOM      6  C   UNL A   1      34.311  21.210  25.723  1.00  0.00     0.202 C 
BRANCH   6   7
ATOM      7  C   UNL A   1      33.416  22.020  26.662  1.00  0.00     0.261 C 
BRANCH   7   8
ATOM      8  O   UNL A   1      33.990  23.304  26.956  1.00  0.00    -0.460 OA
BRANCH   8   9
ATOM      9  C   UNL A   1      33.916  24.222  25.970  1.00  0.00     0.338 C 
ATOM     10  O   UNL A   1      34.895  24.806  25.532  1.00  0.00    -0.246 OA
BRANCH   9  11
ATOM     11  C   UNL A   1      32.521  24.506  25.538  1.00  0.00     0.087 C 
ATOM     12  C   UNL A   1      31.940  25.401  26.357  1.00  0.00     0.027 C 
ATOM     13  C   UNL A   1      32.224  24.504  24.055  1.00  0.00     0.316 C 
ATOM     14  C   UNL A   1      31.833  26.733  25.748  1.00  0.00     0.019 A 
ATOM     15  O   UNL A   1      31.904  25.809  23.501  1.00  0.00    -0.475 OA
ATOM     16  C   UNL A   1      31.784  27.863  26.570  1.00  0.00     0.032 A 
ATOM     17  C   UNL A   1      31.882  26.875  24.358  1.00  0.00     0.128 A 
ATOM     18  C   UNL A   1      31.841  29.131  25.997  1.00  0.00     0.041 A 
ATOM     19  C   UNL A   1      31.939  28.148  23.791  1.00  0.00     0.048 A 
ATOM     20  Cl  UNL A   1      31.820  30.525  27.006  1.00  0.00    -0.084 Cl
ATOM     21  C   UNL A   1      31.939  29.278  24.613  1.00  0.00     0.024 A 
BRANCH  13  22
ATOM     22  C   UNL A   1      31.171  23.456  23.685  1.00  0.00     0.430 C 
ATOM     23  F   UNL A   1      30.715  22.809  24.783  1.00  0.00    -0.167 F 
ATOM     24  F   UNL A   1      30.092  24.036  23.103  1.00  0.00    -0.167 F 
ATOM     25  F   UNL A   1      31.645  22.531  22.823  1.00  0.00    -0.167 F 
ENDBRANCH  13  22
ENDBRANCH   9  11
ENDBRANCH   8   9
ENDBRANCH   7   8
ENDBRANCH   6   7
ENDBRANCH   5   6
ENDBRANCH   4   5
ENDBRANCH   3   4
ENDBRANCH   2   3
ENDBRANCH   1   2
BRANCH   1  26
ATOM     26  C   UNL A   1      40.159  21.028  26.486  1.00  0.00     0.188 C 
BRANCH  26  27
ATOM     27  O   UNL A   1      41.474  20.780  26.966  1.00  0.00    -0.376 OA
BRANCH  27  28
ATOM     28  C   UNL A   1      42.440  20.199  26.111  1.00  0.00     0.202 C 
BRANCH  28  29
ATOM     29  C   UNL A   1      43.431  21.190  25.482  1.00  0.00     0.261 C 
BRANCH  29  30
ATOM     30  O   UNL A   1      42.863  22.475  25.173  1.00  0.00    -0.460 OA
BRANCH  30  31
ATOM     31  C   UNL A   1      43.739  23.515  25.120  1.00  0.00     0.338 C 
ATOM     32  O   UNL A   1      44.535  23.759  24.240  1.00  0.00    -0.246 OA
BRANCH  31  33
ATOM     33  C   UNL A   1      43.452  24.457  26.241  1.00  0.00     0.060 A 
ATOM     34  C   UNL A   1      42.713  23.970  27.329  1.00  0.00     0.016 A 
ATOM     35  C   UNL A   1      43.941  25.767  26.270  1.00  0.00     0.016 A 
ATOM     36  C   UNL A   1      42.450  24.784  28.435  1.00  0.00     0.010 A 
ATOM     37  C   UNL A   1      43.660  26.591  27.369  1.00  0.00     0.010 A 
ATOM     38  C   UNL A   1      42.890  26.113  28.446  1.00  0.00    -0.014 A 
BRANCH  38  39
ATOM     39  C   UNL A   1      42.350  27.064  29.454  1.00  0.00     0.031 A 
ATOM     40  C   UNL A   1      43.074  27.171  30.771  1.00  0.00     0.074 A 
ATOM     41  C   UNL A   1      41.263  27.826  29.227  1.00  0.00     0.049 A 
ATOM     42  N   UNL A   1      42.764  27.864  31.837  1.00  0.00    -0.248 NA
ATOM     43  C   UNL A   1      44.314  26.388  30.900  1.00  0.00     0.031 C 
ATOM     44  C   UNL A   1      40.499  27.877  27.982  1.00  0.00     0.029 A 
ATOM     45  N   UNL A   1      40.608  28.706  30.058  1.00  0.00    -0.354 N 
ATOM     46  C   UNL A   1      43.763  27.590  32.763  1.00  0.00     0.074 A 
ATOM     47  C   UNL A   1      44.678  26.659  32.144  1.00  0.00     0.031 C 
ATOM     48  C   UNL A   1      39.467  28.727  28.139  1.00  0.00     0.029 A 
ATOM     49  C   UNL A   1      39.475  29.253  29.504  1.00  0.00     0.049 A 
ATOM     50  H   UNL A   1      40.922  28.922  30.965  1.00  0.00     0.167 HD
ATOM     51  C   UNL A   1      43.910  28.069  34.020  1.00  0.00     0.031 A 
ATOM     52  C   UNL A   1      38.537  30.057  30.047  1.00  0.00     0.031 A 
ATOM     53  C   UNL A   1      43.003  28.987  34.652  1.00  0.00     0.049 A 
ATOM     54  C   UNL A   1      38.672  30.496  31.486  1.00  0.00     0.074 A 
ATOM     55  C   UNL A   1      43.083  29.538  35.918  1.00  0.00     0.029 A 
ATOM     56  N   UNL A   1      41.846  29.477  34.071  1.00  0.00    -0.354 N 
ATOM     57  N   UNL A   1      39.637  30.254  32.340  1.00  0.00    -0.248 NA
ATOM     58  C   UNL A   1      37.581  31.319  32.035  1.00  0.00     0.031 C 
ATOM     59  C   UNL A   1      41.939  30.313  36.128  1.00  0.00     0.029 A 
ATOM     60  C   UNL A   1      41.181  30.293  34.969  1.00  0.00     0.049 A 
ATOM     61  H   UNL A   1      41.542  29.274  33.157  1.00  0.00     0.167 HD
ATOM     62  C   UNL A   1      39.281  30.913  33.513  1.00  0.00     0.074 A 
ATOM     63  C   UNL A   1      38.024  31.583  33.256  1.00  0.00     0.031 C 
ATOM     64  C   UNL A   1      39.933  30.956  34.701  1.00  0.00     0.031 A 
BRANCH  51  65
ATOM     65  C   UNL A   1      45.079  27.572  34.819  1.00  0.00    -0.014 A 
ATOM     66  C   UNL A   1      44.986  26.417  35.610  1.00  0.00     0.009 A 
ATOM     67  C   UNL A   1      46.309  28.243  34.734  1.00  0.00     0.009 A 
ATOM     68  C   UNL A   1      46.097  25.956  36.317  1.00  0.00     0.001 A 
ATOM     69  C   UNL A   1      47.425  27.765  35.421  1.00  0.00     0.001 A 
ATOM     70  C   UNL A   1      47.317  26.625  36.216  1.00  0.00     0.000 A 
ENDBRANCH  51  65
BRANCH  52  71
ATOM     71  C   UNL A   1      37.339  30.467  29.261  1.00  0.00    -0.014 A 
ATOM     72  C   UNL A   1      36.340  29.539  28.930  1.00  0.00     0.009 A 
ATOM     73  C   UNL A   1      37.229  31.778  28.771  1.00  0.00     0.009 A 
ATOM     74  C   UNL A   1      35.279  29.905  28.096  1.00  0.00     0.001 A 
ATOM     75  C   UNL A   1      36.151  32.150  27.965  1.00  0.00     0.001 A 
ATOM     76  C   UNL A   1      35.184  31.210  27.616  1.00  0.00     0.000 A 
ENDBRANCH  52  71
BRANCH  64  77
ATOM     77  C   UNL A   1      39.321  31.774  35.804  1.00  0.00    -0.014 A 
ATOM     78  C   UNL A   1      39.765  33.077  36.078  1.00  0.00     0.009 A 
ATOM     79  C   UNL A   1      38.246  31.254  36.544  1.00  0.00     0.009 A 
ATOM     80  C   UNL A   1      39.166  33.830  37.091  1.00  0.00     0.001 A 
ATOM     81  C   UNL A   1      37.629  32.020  37.534  1.00  0.00     0.001 A 
ATOM     82  C   UNL A   1      38.096  33.304  37.812  1.00  0.00     0.000 A 
ENDBRANCH  64  77
ENDBRANCH  38  39
ENDBRANCH  31  33
ENDBRANCH  30  31
ENDBRANCH  29  30
ENDBRANCH  28  29
ENDBRANCH  27  28
ENDBRANCH  26  27
ENDBRANCH   1  26
TORSDOF 21
ENDMDL
