MODEL 1
REMARK VINA RESULT:      -8.1      0.000      0.000
REMARK SMILES Cc1csc(C[N@H+]2CCC[C@@H](CC(=O)OCCOCCOCCOCCOC(=O)c3ccc(-c4c5nc(c(-c6ccccc6)c6ccc([nH]6)c(-c6ccccc6)c6nc(c(-c7ccccc7)c7ccc4[nH]7)C=C6)C=C5)cc3)C2)n1
REMARK SMILES IDX 20 1 19 2 18 3 17 4 16 5 15 6 13 7 14 8 12 9 11 10 7 11 8 12
REMARK SMILES IDX 78 13 9 15 10 16 6 17 5 18 1 19 2 20 3 21 79 22 4 23 21 24
REMARK SMILES IDX 22 25 23 26 24 27 25 28 26 29 27 30 28 31 29 32 30 33 31 34
REMARK SMILES IDX 77 35 32 36 76 37 33 38 34 39 35 40 70 41 36 42 75 43 69 44
REMARK SMILES IDX 71 45 37 46 74 47 68 48 67 49 38 51 60 52 45 53 59 54 46 55
REMARK SMILES IDX 49 56 58 57 72 58 47 59 48 60 57 62 73 63 50 64 39 65 40 66
REMARK SMILES IDX 44 67 41 68 43 69 42 70 61 71 62 72 66 73 63 74 65 75 64 76
REMARK SMILES IDX 51 77 52 78 56 79 53 80 55 81 54 82
REMARK H PARENT 7 14 71 50 49 61
REMARK Flexibility Score: inf
ROOT
ATOM      1  C   UNL A   1      34.276  32.991  29.160  1.00  0.00     0.188 C 
ENDROOT
BRANCH   1   2
ATOM      2  C   UNL A   1      35.429  31.985  29.167  1.00  0.00     0.188 C 
BRANCH   2   3
ATOM      3  O   UNL A   1      36.042  31.702  27.916  1.00  0.00    -0.376 OA
BRANCH   3   4
ATOM      4  C   UNL A   1      36.267  30.337  27.573  1.00  0.00     0.202 C 
BRANCH   4   5
ATOM      5  C   UNL A   1      35.073  29.366  27.575  1.00  0.00     0.261 C 
BRANCH   5   6
ATOM      6  O   UNL A   1      34.084  29.670  26.566  1.00  0.00    -0.463 OA
BRANCH   6   7
ATOM      7  C   UNL A   1      32.798  29.721  26.991  1.00  0.00     0.306 C 
ATOM      8  O   UNL A   1      32.169  30.771  27.112  1.00  0.00    -0.252 OA
BRANCH   7   9
ATOM      9  C   UNL A   1      32.090  28.379  27.100  1.00  0.00     0.132 C 
BRANCH   9  10
ATOM     10  C   UNL A   1      31.501  27.544  25.933  1.00  0.00     0.055 C 
ATOM     11  N   UNL A   1      32.259  26.117  23.991  1.00  0.00    -0.329 N 
ATOM     12  C   UNL A   1      31.470  24.990  24.484  1.00  0.00     0.262 C 
ATOM     13  C   UNL A   1      32.679  26.968  25.108  1.00  0.00     0.266 C 
ATOM     14  H   UNL A   1      31.661  26.669  23.376  1.00  0.00     0.348 HD
ATOM     15  C   UNL A   1      30.182  25.504  25.128  1.00  0.00     0.062 C 
ATOM     16  C   UNL A   1      30.437  26.495  26.270  1.00  0.00     0.016 C 
BRANCH  11  17
ATOM     17  C   UNL A   1      33.405  25.687  23.150  1.00  0.00     0.331 C 
BRANCH  17  18
ATOM     18  C   UNL A   1      34.271  24.557  23.677  1.00  0.00     0.147 A 
ATOM     19  C   UNL A   1      36.798  23.383  25.967  1.00  0.00     0.067 C 
ATOM     20  C   UNL A   1      35.789  23.460  24.881  1.00  0.00     0.049 A 
ATOM     21  C   UNL A   1      35.376  22.431  24.058  1.00  0.00     0.090 A 
ATOM     22  N   UNL A   1      35.170  24.674  24.637  1.00  0.00    -0.240 NA
ATOM     23  S   UNL A   1      34.167  22.986  22.977  1.00  0.00    -0.121 S 
ENDBRANCH  17  18
ENDBRANCH  11  17
ENDBRANCH   9  10
ENDBRANCH   7   9
ENDBRANCH   6   7
ENDBRANCH   5   6
ENDBRANCH   4   5
ENDBRANCH   3   4
ENDBRANCH   2   3
ENDBRANCH   1   2
BRANCH   1  24
ATOM     24  O   UNL A   1      34.661  34.353  29.156  1.00  0.00    -0.377 OA
BRANCH  24  25
ATOM     25  C   UNL A   1      33.758  35.366  28.729  1.00  0.00     0.188 C 
BRANCH  25  26
ATOM     26  C   UNL A   1      32.885  36.061  29.775  1.00  0.00     0.188 C 
BRANCH  26  27
ATOM     27  O   UNL A   1      33.480  37.076  30.587  1.00  0.00    -0.376 OA
BRANCH  27  28
ATOM     28  C   UNL A   1      33.048  37.217  31.935  1.00  0.00     0.202 C 
BRANCH  28  29
ATOM     29  C   UNL A   1      34.063  36.812  33.003  1.00  0.00     0.261 C 
BRANCH  29  30
ATOM     30  O   UNL A   1      34.971  35.798  32.547  1.00  0.00    -0.460 OA
BRANCH  30  31
ATOM     31  C   UNL A   1      34.538  34.528  32.707  1.00  0.00     0.338 C 
ATOM     32  O   UNL A   1      33.389  34.146  32.885  1.00  0.00    -0.246 OA
BRANCH  31  33
ATOM     33  C   UNL A   1      35.662  33.604  32.501  1.00  0.00     0.060 A 
ATOM     34  C   UNL A   1      35.548  32.296  32.988  1.00  0.00     0.016 A 
ATOM     35  C   UNL A   1      36.843  34.043  31.901  1.00  0.00     0.016 A 
ATOM     36  C   UNL A   1      36.630  31.424  32.902  1.00  0.00     0.010 A 
ATOM     37  C   UNL A   1      37.932  33.176  31.830  1.00  0.00     0.010 A 
ATOM     38  C   UNL A   1      37.838  31.875  32.355  1.00  0.00    -0.014 A 
BRANCH  38  39
ATOM     39  C   UNL A   1      39.056  31.044  32.450  1.00  0.00     0.031 A 
ATOM     40  C   UNL A   1      40.049  31.343  33.534  1.00  0.00     0.074 A 
ATOM     41  C   UNL A   1      39.279  30.060  31.562  1.00  0.00     0.049 A 
ATOM     42  N   UNL A   1      41.241  30.842  33.726  1.00  0.00    -0.248 NA
ATOM     43  C   UNL A   1      39.648  32.349  34.533  1.00  0.00     0.031 C 
ATOM     44  C   UNL A   1      38.357  29.650  30.505  1.00  0.00     0.029 A 
ATOM     45  N   UNL A   1      40.369  29.245  31.399  1.00  0.00    -0.354 N 
ATOM     46  C   UNL A   1      41.740  31.482  34.854  1.00  0.00     0.074 A 
ATOM     47  C   UNL A   1      40.731  32.421  35.292  1.00  0.00     0.031 C 
ATOM     48  C   UNL A   1      38.931  28.671  29.785  1.00  0.00     0.029 A 
ATOM     49  C   UNL A   1      40.276  28.426  30.301  1.00  0.00     0.049 A 
ATOM     50  H   UNL A   1      41.142  29.247  32.009  1.00  0.00     0.167 HD
ATOM     51  C   UNL A   1      42.934  31.302  35.464  1.00  0.00     0.031 A 
ATOM     52  C   UNL A   1      41.191  27.604  29.753  1.00  0.00     0.031 A 
ATOM     53  C   UNL A   1      43.937  30.379  35.004  1.00  0.00     0.049 A 
ATOM     54  C   UNL A   1      42.553  27.500  30.389  1.00  0.00     0.074 A 
ATOM     55  C   UNL A   1      45.173  30.102  35.560  1.00  0.00     0.029 A 
ATOM     56  N   UNL A   1      43.820  29.592  33.868  1.00  0.00    -0.354 N 
ATOM     57  N   UNL A   1      43.006  28.084  31.473  1.00  0.00    -0.248 NA
ATOM     58  C   UNL A   1      43.530  26.629  29.723  1.00  0.00     0.031 C 
ATOM     59  C   UNL A   1      45.833  29.201  34.719  1.00  0.00     0.029 A 
ATOM     60  C   UNL A   1      44.981  28.864  33.680  1.00  0.00     0.049 A 
ATOM     61  H   UNL A   1      43.029  29.557  33.283  1.00  0.00     0.167 HD
ATOM     62  C   UNL A   1      44.311  27.634  31.630  1.00  0.00     0.074 A 
ATOM     63  C   UNL A   1      44.570  26.714  30.542  1.00  0.00     0.031 C 
ATOM     64  C   UNL A   1      45.218  27.956  32.586  1.00  0.00     0.031 A 
BRANCH  51  65
ATOM     65  C   UNL A   1      43.240  32.155  36.663  1.00  0.00    -0.014 A 
ATOM     66  C   UNL A   1      43.859  33.409  36.535  1.00  0.00     0.009 A 
ATOM     67  C   UNL A   1      42.872  31.709  37.943  1.00  0.00     0.009 A 
ATOM     68  C   UNL A   1      44.130  34.182  37.665  1.00  0.00     0.001 A 
ATOM     69  C   UNL A   1      43.116  32.498  39.068  1.00  0.00     0.001 A 
ATOM     70  C   UNL A   1      43.754  33.730  38.930  1.00  0.00     0.000 A 
ENDBRANCH  51  65
BRANCH  52  71
ATOM     71  C   UNL A   1      40.871  26.853  28.511  1.00  0.00    -0.014 A 
ATOM     72  C   UNL A   1      40.202  25.623  28.571  1.00  0.00     0.009 A 
ATOM     73  C   UNL A   1      41.247  27.359  27.255  1.00  0.00     0.009 A 
ATOM     74  C   UNL A   1      39.937  24.903  27.403  1.00  0.00     0.001 A 
ATOM     75  C   UNL A   1      40.952  26.653  26.088  1.00  0.00     0.001 A 
ATOM     76  C   UNL A   1      40.306  25.421  26.162  1.00  0.00     0.000 A 
ENDBRANCH  52  71
BRANCH  64  77
ATOM     77  C   UNL A   1      46.565  27.294  32.512  1.00  0.00    -0.014 A 
ATOM     78  C   UNL A   1      47.656  27.933  31.903  1.00  0.00     0.009 A 
ATOM     79  C   UNL A   1      46.761  26.045  33.122  1.00  0.00     0.009 A 
ATOM     80  C   UNL A   1      48.911  27.322  31.886  1.00  0.00     0.001 A 
ATOM     81  C   UNL A   1      48.023  25.452  33.133  1.00  0.00     0.001 A 
ATOM     82  C   UNL A   1      49.097  26.088  32.509  1.00  0.00     0.000 A 
ENDBRANCH  64  77
ENDBRANCH  38  39
ENDBRANCH  31  33
ENDBRANCH  30  31
ENDBRANCH  29  30
ENDBRANCH  28  29
ENDBRANCH  27  28
ENDBRANCH  26  27
ENDBRANCH  25  26
ENDBRANCH  24  25
ENDBRANCH   1  24
TORSDOF 23
ENDMDL
MODEL 2
REMARK VINA RESULT:      -7.8      3.533      6.878
REMARK SMILES Cc1csc(C[N@H+]2CCC[C@@H](CC(=O)OCCOCCOCCOCCOC(=O)c3ccc(-c4c5nc(c(-c6ccccc6)c6ccc([nH]6)c(-c6ccccc6)c6nc(c(-c7ccccc7)c7ccc4[nH]7)C=C6)C=C5)cc3)C2)n1
REMARK SMILES IDX 20 1 19 2 18 3 17 4 16 5 15 6 13 7 14 8 12 9 11 10 7 11 8 12
REMARK SMILES IDX 78 13 9 15 10 16 6 17 5 18 1 19 2 20 3 21 79 22 4 23 21 24
REMARK SMILES IDX 22 25 23 26 24 27 25 28 26 29 27 30 28 31 29 32 30 33 31 34
REMARK SMILES IDX 77 35 32 36 76 37 33 38 34 39 35 40 70 41 36 42 75 43 69 44
REMARK SMILES IDX 71 45 37 46 74 47 68 48 67 49 38 51 60 52 45 53 59 54 46 55
REMARK SMILES IDX 49 56 58 57 72 58 47 59 48 60 57 62 73 63 50 64 39 65 40 66
REMARK SMILES IDX 44 67 41 68 43 69 42 70 61 71 62 72 66 73 63 74 65 75 64 76
REMARK SMILES IDX 51 77 52 78 56 79 53 80 55 81 54 82
REMARK H PARENT 7 14 71 50 49 61
REMARK Flexibility Score: inf
ROOT
ATOM      1  C   UNL A   1      33.766  31.728  27.858  1.00  0.00     0.188 C 
ENDROOT
BRANCH   1   2
ATOM      2  C   UNL A   1      33.031  30.573  27.175  1.00  0.00     0.188 C 
BRANCH   2   3
ATOM      3  O   UNL A   1      33.825  29.659  26.430  1.00  0.00    -0.376 OA
BRANCH   3   4
ATOM      4  C   UNL A   1      33.266  29.094  25.246  1.00  0.00     0.202 C 
BRANCH   4   5
ATOM      5  C   UNL A   1      31.765  29.289  24.971  1.00  0.00     0.261 C 
BRANCH   5   6
ATOM      6  O   UNL A   1      31.423  29.208  23.568  1.00  0.00    -0.463 OA
BRANCH   6   7
ATOM      7  C   UNL A   1      30.391  28.387  23.255  1.00  0.00     0.306 C 
ATOM      8  O   UNL A   1      29.237  28.783  23.100  1.00  0.00    -0.252 OA
BRANCH   7   9
ATOM      9  C   UNL A   1      30.777  26.963  22.881  1.00  0.00     0.132 C 
BRANCH   9  10
ATOM     10  C   UNL A   1      30.921  25.757  23.847  1.00  0.00     0.055 C 
ATOM     11  N   UNL A   1      32.690  24.524  25.162  1.00  0.00    -0.329 N 
ATOM     12  C   UNL A   1      31.948  24.740  26.402  1.00  0.00     0.262 C 
ATOM     13  C   UNL A   1      32.419  25.609  24.214  1.00  0.00     0.266 C 
ATOM     14  H   UNL A   1      32.360  23.651  24.751  1.00  0.00     0.348 HD
ATOM     15  C   UNL A   1      30.447  24.687  26.121  1.00  0.00     0.062 C 
ATOM     16  C   UNL A   1      29.996  25.704  25.066  1.00  0.00     0.016 C 
BRANCH  11  17
ATOM     17  C   UNL A   1      34.144  24.330  25.392  1.00  0.00     0.331 C 
BRANCH  17  18
ATOM     18  C   UNL A   1      34.691  22.922  25.242  1.00  0.00     0.147 A 
ATOM     19  C   UNL A   1      37.509  20.704  24.860  1.00  0.00     0.067 C 
ATOM     20  C   UNL A   1      36.132  21.244  24.982  1.00  0.00     0.049 A 
ATOM     21  C   UNL A   1      34.956  20.522  25.004  1.00  0.00     0.090 A 
ATOM     22  N   UNL A   1      35.966  22.614  25.093  1.00  0.00    -0.240 NA
ATOM     23  S   UNL A   1      33.617  21.575  25.197  1.00  0.00    -0.121 S 
ENDBRANCH  17  18
ENDBRANCH  11  17
ENDBRANCH   9  10
ENDBRANCH   7   9
ENDBRANCH   6   7
ENDBRANCH   5   6
ENDBRANCH   4   5
ENDBRANCH   3   4
ENDBRANCH   2   3
ENDBRANCH   1   2
BRANCH   1  24
ATOM     24  O   UNL A   1      35.122  31.888  27.487  1.00  0.00    -0.377 OA
BRANCH  24  25
ATOM     25  C   UNL A   1      35.998  32.705  28.254  1.00  0.00     0.188 C 
BRANCH  25  26
ATOM     26  C   UNL A   1      35.446  33.986  28.883  1.00  0.00     0.188 C 
BRANCH  26  27
ATOM     27  O   UNL A   1      35.535  34.135  30.302  1.00  0.00    -0.376 OA
BRANCH  27  28
ATOM     28  C   UNL A   1      34.418  33.764  31.102  1.00  0.00     0.202 C 
BRANCH  28  29
ATOM     29  C   UNL A   1      34.684  32.686  32.152  1.00  0.00     0.261 C 
BRANCH  29  30
ATOM     30  O   UNL A   1      35.921  31.991  31.930  1.00  0.00    -0.460 OA
BRANCH  30  31
ATOM     31  C   UNL A   1      36.910  32.290  32.802  1.00  0.00     0.338 C 
ATOM     32  O   UNL A   1      36.798  32.658  33.963  1.00  0.00    -0.246 OA
BRANCH  31  33
ATOM     33  C   UNL A   1      38.207  31.978  32.186  1.00  0.00     0.060 A 
ATOM     34  C   UNL A   1      38.510  32.548  30.943  1.00  0.00     0.016 A 
ATOM     35  C   UNL A   1      39.084  31.077  32.792  1.00  0.00     0.016 A 
ATOM     36  C   UNL A   1      39.685  32.196  30.284  1.00  0.00     0.010 A 
ATOM     37  C   UNL A   1      40.252  30.712  32.124  1.00  0.00     0.010 A 
ATOM     38  C   UNL A   1      40.541  31.248  30.856  1.00  0.00    -0.014 A 
BRANCH  38  39
ATOM     39  C   UNL A   1      41.674  30.702  30.082  1.00  0.00     0.031 A 
ATOM     40  C   UNL A   1      41.514  29.366  29.415  1.00  0.00     0.074 A 
ATOM     41  C   UNL A   1      42.834  31.377  30.003  1.00  0.00     0.049 A 
ATOM     42  N   UNL A   1      42.408  28.633  28.805  1.00  0.00    -0.248 NA
ATOM     43  C   UNL A   1      40.166  28.774  29.450  1.00  0.00     0.031 C 
ATOM     44  C   UNL A   1      43.079  32.703  30.565  1.00  0.00     0.029 A 
ATOM     45  N   UNL A   1      44.030  31.020  29.436  1.00  0.00    -0.354 N 
ATOM     46  C   UNL A   1      41.736  27.487  28.397  1.00  0.00     0.074 A 
ATOM     47  C   UNL A   1      40.368  27.611  28.847  1.00  0.00     0.031 C 
ATOM     48  C   UNL A   1      44.359  33.042  30.334  1.00  0.00     0.029 A 
ATOM     49  C   UNL A   1      45.029  31.935  29.654  1.00  0.00     0.049 A 
ATOM     50  H   UNL A   1      44.158  30.190  28.923  1.00  0.00     0.167 HD
ATOM     51  C   UNL A   1      42.223  26.426  27.713  1.00  0.00     0.031 A 
ATOM     52  C   UNL A   1      46.344  31.865  29.374  1.00  0.00     0.031 A 
ATOM     53  C   UNL A   1      43.593  26.306  27.290  1.00  0.00     0.049 A 
ATOM     54  C   UNL A   1      46.884  30.627  28.707  1.00  0.00     0.074 A 
ATOM     55  C   UNL A   1      44.187  25.284  26.573  1.00  0.00     0.029 A 
ATOM     56  N   UNL A   1      44.584  27.238  27.561  1.00  0.00    -0.354 N 
ATOM     57  N   UNL A   1      46.238  29.561  28.296  1.00  0.00    -0.248 NA
ATOM     58  C   UNL A   1      48.333  30.580  28.469  1.00  0.00     0.031 C 
ATOM     59  C   UNL A   1      45.554  25.563  26.472  1.00  0.00     0.029 A 
ATOM     60  C   UNL A   1      45.796  26.792  27.065  1.00  0.00     0.049 A 
ATOM     61  H   UNL A   1      44.446  28.089  28.035  1.00  0.00     0.167 HD
ATOM     62  C   UNL A   1      47.198  28.728  27.734  1.00  0.00     0.074 A 
ATOM     63  C   UNL A   1      48.466  29.422  27.837  1.00  0.00     0.031 C 
ATOM     64  C   UNL A   1      47.046  27.498  27.184  1.00  0.00     0.031 A 
BRANCH  51  65
ATOM     65  C   UNL A   1      41.282  25.291  27.424  1.00  0.00    -0.014 A 
ATOM     66  C   UNL A   1      41.362  24.074  28.120  1.00  0.00     0.009 A 
ATOM     67  C   UNL A   1      40.275  25.454  26.458  1.00  0.00     0.009 A 
ATOM     68  C   UNL A   1      40.472  23.036  27.833  1.00  0.00     0.001 A 
ATOM     69  C   UNL A   1      39.368  24.426  26.196  1.00  0.00     0.001 A 
ATOM     70  C   UNL A   1      39.473  23.214  26.876  1.00  0.00     0.000 A 
ENDBRANCH  51  65
BRANCH  52  71
ATOM     71  C   UNL A   1      47.251  32.976  29.766  1.00  0.00    -0.014 A 
ATOM     72  C   UNL A   1      47.863  32.988  31.027  1.00  0.00     0.009 A 
ATOM     73  C   UNL A   1      47.500  34.039  28.882  1.00  0.00     0.009 A 
ATOM     74  C   UNL A   1      48.685  34.053  31.405  1.00  0.00     0.001 A 
ATOM     75  C   UNL A   1      48.348  35.085  29.249  1.00  0.00     0.001 A 
ATOM     76  C   UNL A   1      48.932  35.097  30.514  1.00  0.00     0.000 A 
ENDBRANCH  52  71
BRANCH  64  77
ATOM     77  C   UNL A   1      48.276  26.831  26.633  1.00  0.00    -0.014 A 
ATOM     78  C   UNL A   1      48.705  27.070  25.318  1.00  0.00     0.009 A 
ATOM     79  C   UNL A   1      49.053  26.009  27.464  1.00  0.00     0.009 A 
ATOM     80  C   UNL A   1      49.875  26.478  24.841  1.00  0.00     0.001 A 
ATOM     81  C   UNL A   1      50.240  25.446  26.995  1.00  0.00     0.001 A 
ATOM     82  C   UNL A   1      50.647  25.675  25.680  1.00  0.00     0.000 A 
ENDBRANCH  64  77
ENDBRANCH  38  39
ENDBRANCH  31  33
ENDBRANCH  30  31
ENDBRANCH  29  30
ENDBRANCH  28  29
ENDBRANCH  27  28
ENDBRANCH  26  27
ENDBRANCH  25  26
ENDBRANCH  24  25
ENDBRANCH   1  24
TORSDOF 23
ENDMDL
MODEL 3
REMARK VINA RESULT:      -7.7      5.716      7.887
REMARK SMILES Cc1csc(C[N@H+]2CCC[C@@H](CC(=O)OCCOCCOCCOCCOC(=O)c3ccc(-c4c5nc(c(-c6ccccc6)c6ccc([nH]6)c(-c6ccccc6)c6nc(c(-c7ccccc7)c7ccc4[nH]7)C=C6)C=C5)cc3)C2)n1
REMARK SMILES IDX 20 1 19 2 18 3 17 4 16 5 15 6 13 7 14 8 12 9 11 10 7 11 8 12
REMARK SMILES IDX 78 13 9 15 10 16 6 17 5 18 1 19 2 20 3 21 79 22 4 23 21 24
REMARK SMILES IDX 22 25 23 26 24 27 25 28 26 29 27 30 28 31 29 32 30 33 31 34
REMARK SMILES IDX 77 35 32 36 76 37 33 38 34 39 35 40 70 41 36 42 75 43 69 44
REMARK SMILES IDX 71 45 37 46 74 47 68 48 67 49 38 51 60 52 45 53 59 54 46 55
REMARK SMILES IDX 49 56 58 57 72 58 47 59 48 60 57 62 73 63 50 64 39 65 40 66
REMARK SMILES IDX 44 67 41 68 43 69 42 70 61 71 62 72 66 73 63 74 65 75 64 76
REMARK SMILES IDX 51 77 52 78 56 79 53 80 55 81 54 82
REMARK H PARENT 7 14 71 50 49 61
REMARK Flexibility Score: inf
ROOT
ATOM      1  C   UNL A   1      35.683  31.796  29.586  1.00  0.00     0.188 C 
ENDROOT
BRANCH   1   2
ATOM      2  C   UNL A   1      35.450  31.359  28.138  1.00  0.00     0.188 C 
BRANCH   2   3
ATOM      3  O   UNL A   1      35.274  29.968  27.908  1.00  0.00    -0.376 OA
BRANCH   3   4
ATOM      4  C   UNL A   1      34.376  29.566  26.876  1.00  0.00     0.202 C 
BRANCH   4   5
ATOM      5  C   UNL A   1      32.949  30.142  26.872  1.00  0.00     0.261 C 
BRANCH   5   6
ATOM      6  O   UNL A   1      31.928  29.151  27.130  1.00  0.00    -0.463 OA
BRANCH   6   7
ATOM      7  C   UNL A   1      31.537  28.410  26.064  1.00  0.00     0.306 C 
ATOM      8  O   UNL A   1      31.521  28.840  24.913  1.00  0.00    -0.252 OA
BRANCH   7   9
ATOM      9  C   UNL A   1      31.328  26.928  26.339  1.00  0.00     0.132 C 
BRANCH   9  10
ATOM     10  C   UNL A   1      32.345  25.784  26.081  1.00  0.00     0.055 C 
ATOM     11  N   UNL A   1      32.621  23.716  24.657  1.00  0.00    -0.329 N 
ATOM     12  C   UNL A   1      33.878  24.230  24.118  1.00  0.00     0.262 C 
ATOM     13  C   UNL A   1      31.737  24.826  25.026  1.00  0.00     0.266 C 
ATOM     14  H   UNL A   1      32.838  23.187  25.501  1.00  0.00     0.348 HD
ATOM     15  C   UNL A   1      34.620  25.016  25.199  1.00  0.00     0.062 C 
ATOM     16  C   UNL A   1      33.794  26.173  25.774  1.00  0.00     0.016 C 
BRANCH  11  17
ATOM     17  C   UNL A   1      31.959  22.752  23.743  1.00  0.00     0.331 C 
BRANCH  17  18
ATOM     18  C   UNL A   1      32.281  21.280  23.931  1.00  0.00     0.147 A 
ATOM     19  C   UNL A   1      32.523  17.950  22.568  1.00  0.00     0.067 C 
ATOM     20  C   UNL A   1      32.537  19.112  23.491  1.00  0.00     0.049 A 
ATOM     21  C   UNL A   1      32.890  19.108  24.825  1.00  0.00     0.090 A 
ATOM     22  N   UNL A   1      32.167  20.352  22.999  1.00  0.00    -0.240 NA
ATOM     23  S   UNL A   1      32.786  20.693  25.470  1.00  0.00    -0.121 S 
ENDBRANCH  17  18
ENDBRANCH  11  17
ENDBRANCH   9  10
ENDBRANCH   7   9
ENDBRANCH   6   7
ENDBRANCH   5   6
ENDBRANCH   4   5
ENDBRANCH   3   4
ENDBRANCH   2   3
ENDBRANCH   1   2
BRANCH   1  24
ATOM     24  O   UNL A   1      35.863  33.186  29.778  1.00  0.00    -0.377 OA
BRANCH  24  25
ATOM     25  C   UNL A   1      34.770  34.021  30.145  1.00  0.00     0.188 C 
BRANCH  25  26
ATOM     26  C   UNL A   1      34.359  34.087  31.617  1.00  0.00     0.188 C 
BRANCH  26  27
ATOM     27  O   UNL A   1      35.384  34.254  32.599  1.00  0.00    -0.376 OA
BRANCH  27  28
ATOM     28  C   UNL A   1      35.460  33.327  33.676  1.00  0.00     0.202 C 
BRANCH  28  29
ATOM     29  C   UNL A   1      36.812  32.639  33.863  1.00  0.00     0.261 C 
BRANCH  29  30
ATOM     30  O   UNL A   1      37.105  31.701  32.817  1.00  0.00    -0.460 OA
BRANCH  30  31
ATOM     31  C   UNL A   1      38.065  30.797  33.110  1.00  0.00     0.338 C 
ATOM     32  O   UNL A   1      37.977  29.824  33.848  1.00  0.00    -0.246 OA
BRANCH  31  33
ATOM     33  C   UNL A   1      39.254  31.070  32.290  1.00  0.00     0.060 A 
ATOM     34  C   UNL A   1      40.387  31.604  32.915  1.00  0.00     0.016 A 
ATOM     35  C   UNL A   1      39.226  30.871  30.909  1.00  0.00     0.016 A 
ATOM     36  C   UNL A   1      41.494  31.971  32.154  1.00  0.00     0.010 A 
ATOM     37  C   UNL A   1      40.328  31.253  30.145  1.00  0.00     0.010 A 
ATOM     38  C   UNL A   1      41.453  31.830  30.762  1.00  0.00    -0.014 A 
BRANCH  38  39
ATOM     39  C   UNL A   1      42.521  32.407  29.921  1.00  0.00     0.031 A 
ATOM     40  C   UNL A   1      43.758  31.596  29.670  1.00  0.00     0.074 A 
ATOM     41  C   UNL A   1      42.395  33.646  29.416  1.00  0.00     0.049 A 
ATOM     42  N   UNL A   1      44.873  31.946  29.084  1.00  0.00    -0.248 NA
ATOM     43  C   UNL A   1      43.740  30.205  30.154  1.00  0.00     0.031 C 
ATOM     44  C   UNL A   1      41.216  34.499  29.552  1.00  0.00     0.029 A 
ATOM     45  N   UNL A   1      43.287  34.409  28.708  1.00  0.00    -0.354 N 
ATOM     46  C   UNL A   1      45.694  30.826  29.143  1.00  0.00     0.074 A 
ATOM     47  C   UNL A   1      44.959  29.794  29.839  1.00  0.00     0.031 C 
ATOM     48  C   UNL A   1      41.465  35.681  28.963  1.00  0.00     0.029 A 
ATOM     49  C   UNL A   1      42.836  35.681  28.457  1.00  0.00     0.049 A 
ATOM     50  H   UNL A   1      44.164  34.077  28.408  1.00  0.00     0.167 HD
ATOM     51  C   UNL A   1      46.950  30.679  28.662  1.00  0.00     0.031 A 
ATOM     52  C   UNL A   1      43.476  36.737  27.919  1.00  0.00     0.031 A 
ATOM     53  C   UNL A   1      47.678  31.723  27.989  1.00  0.00     0.049 A 
ATOM     54  C   UNL A   1      44.910  36.579  27.487  1.00  0.00     0.074 A 
ATOM     55  C   UNL A   1      48.948  31.673  27.444  1.00  0.00     0.029 A 
ATOM     56  N   UNL A   1      47.201  33.009  27.786  1.00  0.00    -0.354 N 
ATOM     57  N   UNL A   1      45.670  35.510  27.517  1.00  0.00    -0.248 NA
ATOM     58  C   UNL A   1      45.577  37.775  26.954  1.00  0.00     0.031 C 
ATOM     59  C   UNL A   1      49.266  32.951  26.974  1.00  0.00     0.029 A 
ATOM     60  C   UNL A   1      48.169  33.776  27.163  1.00  0.00     0.049 A 
ATOM     61  H   UNL A   1      46.307  33.328  28.046  1.00  0.00     0.167 HD
ATOM     62  C   UNL A   1      46.894  35.898  26.987  1.00  0.00     0.074 A 
ATOM     63  C   UNL A   1      46.769  37.295  26.625  1.00  0.00     0.031 C 
ATOM     64  C   UNL A   1      48.023  35.167  26.818  1.00  0.00     0.031 A 
BRANCH  51  65
ATOM     65  C   UNL A   1      47.634  29.360  28.889  1.00  0.00    -0.014 A 
ATOM     66  C   UNL A   1      48.225  29.041  30.122  1.00  0.00     0.009 A 
ATOM     67  C   UNL A   1      47.658  28.405  27.858  1.00  0.00     0.009 A 
ATOM     68  C   UNL A   1      48.852  27.807  30.307  1.00  0.00     0.001 A 
ATOM     69  C   UNL A   1      48.258  27.161  28.057  1.00  0.00     0.001 A 
ATOM     70  C   UNL A   1      48.863  26.866  29.277  1.00  0.00     0.000 A 
ENDBRANCH  51  65
BRANCH  52  71
ATOM     71  C   UNL A   1      42.785  38.048  27.803  1.00  0.00    -0.014 A 
ATOM     72  C   UNL A   1      42.816  38.970  28.859  1.00  0.00     0.009 A 
ATOM     73  C   UNL A   1      42.078  38.380  26.635  1.00  0.00     0.009 A 
ATOM     74  C   UNL A   1      42.134  40.184  28.759  1.00  0.00     0.001 A 
ATOM     75  C   UNL A   1      41.424  39.609  26.525  1.00  0.00     0.001 A 
ATOM     76  C   UNL A   1      41.444  40.506  27.591  1.00  0.00     0.000 A 
ENDBRANCH  52  71
BRANCH  64  77
ATOM     77  C   UNL A   1      49.206  35.856  26.196  1.00  0.00    -0.014 A 
ATOM     78  C   UNL A   1      50.164  36.510  26.986  1.00  0.00     0.009 A 
ATOM     79  C   UNL A   1      49.400  35.787  24.807  1.00  0.00     0.009 A 
ATOM     80  C   UNL A   1      51.280  37.103  26.394  1.00  0.00     0.001 A 
ATOM     81  C   UNL A   1      50.534  36.351  24.222  1.00  0.00     0.001 A 
ATOM     82  C   UNL A   1      51.470  37.015  25.014  1.00  0.00     0.000 A 
ENDBRANCH  64  77
ENDBRANCH  38  39
ENDBRANCH  31  33
ENDBRANCH  30  31
ENDBRANCH  29  30
ENDBRANCH  28  29
ENDBRANCH  27  28
ENDBRANCH  26  27
ENDBRANCH  25  26
ENDBRANCH  24  25
ENDBRANCH   1  24
TORSDOF 23
ENDMDL
