MODEL 1
REMARK VINA RESULT:      -7.8      0.000      0.000
REMARK SMILES CCCC[C@H](C(=O)OCCOCCOCCOCCOC(=O)c1ccc(-c2c3nc(c(-c4ccccc4)c4ccc([nH]4)c(-c4ccccc4)c4nc(c(-c5ccccc5)c5ccc2[nH]5)C=C4)C=C3)cc1)[C@H](C)O
REMARK SMILES IDX 13 1 12 2 11 3 10 4 9 5 8 6 6 7 7 8 5 9 4 10 3 11 2 12 1 13
REMARK SMILES IDX 71 14 72 15 73 16 14 18 15 19 16 20 17 21 18 22 19 23 20 24
REMARK SMILES IDX 21 25 22 26 23 27 24 28 70 29 25 30 69 31 26 32 27 33 28 34
REMARK SMILES IDX 63 35 29 36 68 37 62 38 64 39 30 40 67 41 61 42 60 43 31 45
REMARK SMILES IDX 53 46 38 47 52 48 39 49 42 50 51 51 65 52 40 53 41 54 50 56
REMARK SMILES IDX 66 57 43 58 32 59 33 60 37 61 34 62 36 63 35 64 54 65 55 66
REMARK SMILES IDX 59 67 56 68 58 69 57 70 44 71 45 72 49 73 46 74 48 75 47 76
REMARK H PARENT 73 17 64 44 42 55
REMARK Flexibility Score: inf
ROOT
ATOM      1  C   UNL A   1      37.844  21.482  25.577  1.00  0.00     0.188 C 
ENDROOT
BRANCH   1   2
ATOM      2  C   UNL A   1      36.580  22.362  25.461  1.00  0.00     0.188 C 
BRANCH   2   3
ATOM      3  O   UNL A   1      35.353  21.656  25.447  1.00  0.00    -0.376 OA
BRANCH   3   4
ATOM      4  C   UNL A   1      34.111  22.284  25.725  1.00  0.00     0.202 C 
BRANCH   4   5
ATOM      5  C   UNL A   1      32.817  21.579  26.180  1.00  0.00     0.261 C 
BRANCH   5   6
ATOM      6  O   UNL A   1      31.596  22.107  25.672  1.00  0.00    -0.463 OA
BRANCH   6   7
ATOM      7  C   UNL A   1      31.087  23.234  26.230  1.00  0.00     0.311 C 
ATOM      8  O   UNL A   1      30.744  23.347  27.398  1.00  0.00    -0.252 OA
BRANCH   7   9
ATOM      9  C   UNL A   1      31.170  24.374  25.214  1.00  0.00     0.127 C 
BRANCH   9  10
ATOM     10  C   UNL A   1      31.059  23.847  23.766  1.00  0.00     0.018 C 
BRANCH  10  11
ATOM     11  C   UNL A   1      32.243  23.950  22.812  1.00  0.00     0.001 C 
BRANCH  11  12
ATOM     12  C   UNL A   1      32.290  25.143  21.854  1.00  0.00    -0.003 C 
ATOM     13  C   UNL A   1      32.155  26.514  22.503  1.00  0.00     0.004 C 
ENDBRANCH  11  12
ENDBRANCH  10  11
ENDBRANCH   9  10
BRANCH   9  14
ATOM     14  C   UNL A   1      30.392  25.612  25.666  1.00  0.00     0.125 C 
ATOM     15  C   UNL A   1      31.254  26.546  26.527  1.00  0.00     0.039 C 
BRANCH  14  16
ATOM     16  O   UNL A   1      29.202  25.275  26.360  1.00  0.00    -0.393 OA
ATOM     17  H   UNL A   1      28.544  24.938  25.731  1.00  0.00     0.210 HD
ENDBRANCH  14  16
ENDBRANCH   9  14
ENDBRANCH   7   9
ENDBRANCH   6   7
ENDBRANCH   5   6
ENDBRANCH   4   5
ENDBRANCH   3   4
ENDBRANCH   2   3
ENDBRANCH   1   2
BRANCH   1  18
ATOM     18  O   UNL A   1      38.912  22.114  26.255  1.00  0.00    -0.377 OA
BRANCH  18  19
ATOM     19  C   UNL A   1      40.205  21.537  26.123  1.00  0.00     0.188 C 
BRANCH  19  20
ATOM     20  C   UNL A   1      41.404  22.003  26.989  1.00  0.00     0.188 C 
BRANCH  20  21
ATOM     21  O   UNL A   1      42.277  20.976  27.439  1.00  0.00    -0.376 OA
BRANCH  21  22
ATOM     22  C   UNL A   1      41.949  19.622  27.185  1.00  0.00     0.202 C 
BRANCH  22  23
ATOM     23  C   UNL A   1      42.785  18.894  26.120  1.00  0.00     0.261 C 
BRANCH  23  24
ATOM     24  O   UNL A   1      43.049  19.648  24.930  1.00  0.00    -0.460 OA
BRANCH  24  25
ATOM     25  C   UNL A   1      44.343  19.749  24.569  1.00  0.00     0.338 C 
ATOM     26  O   UNL A   1      45.020  18.903  24.002  1.00  0.00    -0.246 OA
BRANCH  25  27
ATOM     27  C   UNL A   1      44.783  21.136  24.794  1.00  0.00     0.060 A 
ATOM     28  C   UNL A   1      45.703  21.385  25.821  1.00  0.00     0.016 A 
ATOM     29  C   UNL A   1      44.277  22.184  24.021  1.00  0.00     0.016 A 
ATOM     30  C   UNL A   1      46.063  22.692  26.127  1.00  0.00     0.010 A 
ATOM     31  C   UNL A   1      44.622  23.499  24.343  1.00  0.00     0.010 A 
ATOM     32  C   UNL A   1      45.469  23.757  25.437  1.00  0.00    -0.014 A 
BRANCH  32  33
ATOM     33  C   UNL A   1      45.527  25.106  26.045  1.00  0.00     0.031 A 
ATOM     34  C   UNL A   1      46.846  25.836  26.014  1.00  0.00     0.074 A 
ATOM     35  C   UNL A   1      44.428  25.708  26.530  1.00  0.00     0.049 A 
ATOM     36  N   UNL A   1      47.141  27.038  26.436  1.00  0.00    -0.248 NA
ATOM     37  C   UNL A   1      47.983  25.109  25.424  1.00  0.00     0.031 C 
ATOM     38  C   UNL A   1      43.086  25.130  26.564  1.00  0.00     0.029 A 
ATOM     39  N   UNL A   1      44.274  26.957  27.078  1.00  0.00    -0.354 N 
ATOM     40  C   UNL A   1      48.495  27.207  26.169  1.00  0.00     0.074 A 
ATOM     41  C   UNL A   1      48.972  25.974  25.585  1.00  0.00     0.031 C 
ATOM     42  C   UNL A   1      42.241  26.025  27.105  1.00  0.00     0.029 A 
ATOM     43  C   UNL A   1      42.989  27.225  27.480  1.00  0.00     0.049 A 
ATOM     44  H   UNL A   1      45.014  27.598  27.175  1.00  0.00     0.167 HD
ATOM     45  C   UNL A   1      49.271  28.294  26.379  1.00  0.00     0.031 A 
ATOM     46  C   UNL A   1      42.481  28.313  28.091  1.00  0.00     0.031 A 
ATOM     47  C   UNL A   1      48.801  29.517  26.971  1.00  0.00     0.049 A 
ATOM     48  C   UNL A   1      43.386  29.484  28.381  1.00  0.00     0.074 A 
ATOM     49  C   UNL A   1      49.507  30.679  27.223  1.00  0.00     0.029 A 
ATOM     50  N   UNL A   1      47.503  29.731  27.407  1.00  0.00    -0.354 N 
ATOM     51  N   UNL A   1      44.658  29.641  28.105  1.00  0.00    -0.248 NA
ATOM     52  C   UNL A   1      42.771  30.639  29.051  1.00  0.00     0.031 C 
ATOM     53  C   UNL A   1      48.651  31.576  27.872  1.00  0.00     0.029 A 
ATOM     54  C   UNL A   1      47.393  31.001  27.949  1.00  0.00     0.049 A 
ATOM     55  H   UNL A   1      46.769  29.079  27.340  1.00  0.00     0.167 HD
ATOM     56  C   UNL A   1      44.984  30.925  28.528  1.00  0.00     0.074 A 
ATOM     57  C   UNL A   1      43.771  31.507  29.063  1.00  0.00     0.031 C 
ATOM     58  C   UNL A   1      46.177  31.568  28.474  1.00  0.00     0.031 A 
BRANCH  45  59
ATOM     59  C   UNL A   1      50.724  28.190  26.004  1.00  0.00    -0.014 A 
ATOM     60  C   UNL A   1      51.180  28.534  24.721  1.00  0.00     0.009 A 
ATOM     61  C   UNL A   1      51.657  27.764  26.963  1.00  0.00     0.009 A 
ATOM     62  C   UNL A   1      52.534  28.422  24.398  1.00  0.00     0.001 A 
ATOM     63  C   UNL A   1      53.015  27.686  26.647  1.00  0.00     0.001 A 
ATOM     64  C   UNL A   1      53.450  28.005  25.362  1.00  0.00     0.000 A 
ENDBRANCH  45  59
BRANCH  46  65
ATOM     65  C   UNL A   1      41.047  28.353  28.487  1.00  0.00    -0.014 A 
ATOM     66  C   UNL A   1      40.613  27.774  29.689  1.00  0.00     0.009 A 
ATOM     67  C   UNL A   1      40.096  28.935  27.634  1.00  0.00     0.009 A 
ATOM     68  C   UNL A   1      39.253  27.742  30.009  1.00  0.00     0.001 A 
ATOM     69  C   UNL A   1      38.741  28.932  27.973  1.00  0.00     0.001 A 
ATOM     70  C   UNL A   1      38.319  28.323  29.153  1.00  0.00     0.000 A 
ENDBRANCH  46  65
BRANCH  58  71
ATOM     71  C   UNL A   1      46.212  32.998  28.944  1.00  0.00    -0.014 A 
ATOM     72  C   UNL A   1      45.947  34.070  28.079  1.00  0.00     0.009 A 
ATOM     73  C   UNL A   1      46.504  33.271  30.291  1.00  0.00     0.009 A 
ATOM     74  C   UNL A   1      46.030  35.387  28.539  1.00  0.00     0.001 A 
ATOM     75  C   UNL A   1      46.547  34.585  30.757  1.00  0.00     0.001 A 
ATOM     76  C   UNL A   1      46.328  35.643  29.878  1.00  0.00     0.000 A 
ENDBRANCH  58  71
ENDBRANCH  32  33
ENDBRANCH  25  27
ENDBRANCH  24  25
ENDBRANCH  23  24
ENDBRANCH  22  23
ENDBRANCH  21  22
ENDBRANCH  20  21
ENDBRANCH  19  20
ENDBRANCH  18  19
ENDBRANCH   1  18
TORSDOF 25
ENDMDL
MODEL 2
REMARK VINA RESULT:      -7.6      4.509      7.970
REMARK SMILES CCCC[C@H](C(=O)OCCOCCOCCOCCOC(=O)c1ccc(-c2c3nc(c(-c4ccccc4)c4ccc([nH]4)c(-c4ccccc4)c4nc(c(-c5ccccc5)c5ccc2[nH]5)C=C4)C=C3)cc1)[C@H](C)O
REMARK SMILES IDX 13 1 12 2 11 3 10 4 9 5 8 6 6 7 7 8 5 9 4 10 3 11 2 12 1 13
REMARK SMILES IDX 71 14 72 15 73 16 14 18 15 19 16 20 17 21 18 22 19 23 20 24
REMARK SMILES IDX 21 25 22 26 23 27 24 28 70 29 25 30 69 31 26 32 27 33 28 34
REMARK SMILES IDX 63 35 29 36 68 37 62 38 64 39 30 40 67 41 61 42 60 43 31 45
REMARK SMILES IDX 53 46 38 47 52 48 39 49 42 50 51 51 65 52 40 53 41 54 50 56
REMARK SMILES IDX 66 57 43 58 32 59 33 60 37 61 34 62 36 63 35 64 54 65 55 66
REMARK SMILES IDX 59 67 56 68 58 69 57 70 44 71 45 72 49 73 46 74 48 75 47 76
REMARK H PARENT 73 17 64 44 42 55
REMARK Flexibility Score: inf
ROOT
ATOM      1  C   UNL A   1      37.824  21.725  25.477  1.00  0.00     0.188 C 
ENDROOT
BRANCH   1   2
ATOM      2  C   UNL A   1      36.337  22.100  25.663  1.00  0.00     0.188 C 
BRANCH   2   3
ATOM      3  O   UNL A   1      36.092  23.458  25.980  1.00  0.00    -0.376 OA
BRANCH   3   4
ATOM      4  C   UNL A   1      35.220  24.273  25.213  1.00  0.00     0.202 C 
BRANCH   4   5
ATOM      5  C   UNL A   1      34.191  25.279  25.767  1.00  0.00     0.261 C 
BRANCH   5   6
ATOM      6  O   UNL A   1      32.853  25.137  25.303  1.00  0.00    -0.463 OA
BRANCH   6   7
ATOM      7  C   UNL A   1      31.832  25.406  26.156  1.00  0.00     0.311 C 
ATOM      8  O   UNL A   1      31.834  26.294  26.996  1.00  0.00    -0.252 OA
BRANCH   7   9
ATOM      9  C   UNL A   1      30.630  24.536  25.785  1.00  0.00     0.127 C 
BRANCH   9  10
ATOM     10  C   UNL A   1      30.352  24.577  24.266  1.00  0.00     0.018 C 
BRANCH  10  11
ATOM     11  C   UNL A   1      30.692  23.383  23.384  1.00  0.00     0.001 C 
BRANCH  11  12
ATOM     12  C   UNL A   1      32.166  23.130  23.056  1.00  0.00    -0.003 C 
ATOM     13  C   UNL A   1      32.720  21.787  23.515  1.00  0.00     0.004 C 
ENDBRANCH  11  12
ENDBRANCH  10  11
ENDBRANCH   9  10
BRANCH   9  14
ATOM     14  C   UNL A   1      30.609  23.215  26.557  1.00  0.00     0.125 C 
ATOM     15  C   UNL A   1      29.245  22.955  27.210  1.00  0.00     0.039 C 
BRANCH  14  16
ATOM     16  O   UNL A   1      31.635  23.147  27.534  1.00  0.00    -0.393 OA
ATOM     17  H   UNL A   1      32.500  23.235  27.103  1.00  0.00     0.210 HD
ENDBRANCH  14  16
ENDBRANCH   9  14
ENDBRANCH   7   9
ENDBRANCH   6   7
ENDBRANCH   5   6
ENDBRANCH   4   5
ENDBRANCH   3   4
ENDBRANCH   2   3
ENDBRANCH   1   2
BRANCH   1  18
ATOM     18  O   UNL A   1      38.016  20.472  24.850  1.00  0.00    -0.377 OA
BRANCH  18  19
ATOM     19  C   UNL A   1      39.034  19.627  25.373  1.00  0.00     0.188 C 
BRANCH  19  20
ATOM     20  C   UNL A   1      40.216  20.185  26.207  1.00  0.00     0.188 C 
BRANCH  20  21
ATOM     21  O   UNL A   1      41.499  20.082  25.605  1.00  0.00    -0.376 OA
BRANCH  21  22
ATOM     22  C   UNL A   1      42.658  20.172  26.415  1.00  0.00     0.202 C 
BRANCH  22  23
ATOM     23  C   UNL A   1      43.910  20.785  25.769  1.00  0.00     0.261 C 
BRANCH  23  24
ATOM     24  O   UNL A   1      44.138  22.168  26.070  1.00  0.00    -0.460 OA
BRANCH  24  25
ATOM     25  C   UNL A   1      43.545  23.058  25.249  1.00  0.00     0.338 C 
ATOM     26  O   UNL A   1      43.386  22.956  24.041  1.00  0.00    -0.246 OA
BRANCH  25  27
ATOM     27  C   UNL A   1      42.933  24.115  26.072  1.00  0.00     0.060 A 
ATOM     28  C   UNL A   1      43.424  25.421  25.952  1.00  0.00     0.016 A 
ATOM     29  C   UNL A   1      41.903  23.820  26.970  1.00  0.00     0.016 A 
ATOM     30  C   UNL A   1      42.939  26.424  26.785  1.00  0.00     0.010 A 
ATOM     31  C   UNL A   1      41.431  24.822  27.821  1.00  0.00     0.010 A 
ATOM     32  C   UNL A   1      41.993  26.111  27.770  1.00  0.00    -0.014 A 
BRANCH  32  33
ATOM     33  C   UNL A   1      41.815  27.057  28.896  1.00  0.00     0.031 A 
ATOM     34  C   UNL A   1      40.596  27.943  28.884  1.00  0.00     0.074 A 
ATOM     35  C   UNL A   1      42.656  27.071  29.943  1.00  0.00     0.049 A 
ATOM     36  N   UNL A   1      40.193  28.815  29.772  1.00  0.00    -0.248 NA
ATOM     37  C   UNL A   1      39.710  27.825  27.713  1.00  0.00     0.031 C 
ATOM     38  C   UNL A   1      43.837  26.224  30.098  1.00  0.00     0.029 A 
ATOM     39  N   UNL A   1      42.629  27.828  31.088  1.00  0.00    -0.354 N 
ATOM     40  C   UNL A   1      39.016  29.352  29.263  1.00  0.00     0.074 A 
ATOM     41  C   UNL A   1      38.788  28.737  27.975  1.00  0.00     0.031 C 
ATOM     42  C   UNL A   1      44.424  26.508  31.274  1.00  0.00     0.029 A 
ATOM     43  C   UNL A   1      43.676  27.574  31.939  1.00  0.00     0.049 A 
ATOM     44  H   UNL A   1      41.927  28.491  31.280  1.00  0.00     0.167 HD
ATOM     45  C   UNL A   1      38.190  30.266  29.821  1.00  0.00     0.031 A 
ATOM     46  C   UNL A   1      43.995  28.148  33.116  1.00  0.00     0.031 A 
ATOM     47  C   UNL A   1      38.421  30.887  31.098  1.00  0.00     0.049 A 
ATOM     48  C   UNL A   1      43.096  29.218  33.680  1.00  0.00     0.074 A 
ATOM     49  C   UNL A   1      37.642  31.823  31.754  1.00  0.00     0.029 A 
ATOM     50  N   UNL A   1      39.518  30.636  31.907  1.00  0.00    -0.354 N 
ATOM     51  N   UNL A   1      41.976  29.702  33.202  1.00  0.00    -0.248 NA
ATOM     52  C   UNL A   1      43.502  29.806  34.966  1.00  0.00     0.031 C 
ATOM     53  C   UNL A   1      38.301  32.186  32.933  1.00  0.00     0.029 A 
ATOM     54  C   UNL A   1      39.448  31.417  33.048  1.00  0.00     0.049 A 
ATOM     55  H   UNL A   1      40.238  29.998  31.702  1.00  0.00     0.167 HD
ATOM     56  C   UNL A   1      41.521  30.617  34.145  1.00  0.00     0.074 A 
ATOM     57  C   UNL A   1      42.480  30.607  35.230  1.00  0.00     0.031 C 
ATOM     58  C   UNL A   1      40.409  31.393  34.122  1.00  0.00     0.031 A 
BRANCH  45  59
ATOM     59  C   UNL A   1      36.980  30.681  29.029  1.00  0.00    -0.014 A 
ATOM     60  C   UNL A   1      36.828  31.992  28.552  1.00  0.00     0.009 A 
ATOM     61  C   UNL A   1      35.989  29.732  28.734  1.00  0.00     0.009 A 
ATOM     62  C   UNL A   1      35.690  32.353  27.825  1.00  0.00     0.001 A 
ATOM     63  C   UNL A   1      34.870  30.087  27.978  1.00  0.00     0.001 A 
ATOM     64  C   UNL A   1      34.717  31.398  27.532  1.00  0.00     0.000 A 
ENDBRANCH  45  59
BRANCH  46  65
ATOM     65  C   UNL A   1      45.228  27.739  33.841  1.00  0.00    -0.014 A 
ATOM     66  C   UNL A   1      46.476  28.292  33.514  1.00  0.00     0.009 A 
ATOM     67  C   UNL A   1      45.166  26.754  34.840  1.00  0.00     0.009 A 
ATOM     68  C   UNL A   1      47.639  27.838  34.142  1.00  0.00     0.001 A 
ATOM     69  C   UNL A   1      46.325  26.328  35.490  1.00  0.00     0.001 A 
ATOM     70  C   UNL A   1      47.562  26.860  35.132  1.00  0.00     0.000 A 
ENDBRANCH  46  65
BRANCH  58  71
ATOM     71  C   UNL A   1      40.134  32.242  35.333  1.00  0.00    -0.014 A 
ATOM     72  C   UNL A   1      40.703  33.514  35.492  1.00  0.00     0.009 A 
ATOM     73  C   UNL A   1      39.272  31.757  36.331  1.00  0.00     0.009 A 
ATOM     74  C   UNL A   1      40.461  34.257  36.650  1.00  0.00     0.001 A 
ATOM     75  C   UNL A   1      39.000  32.518  37.468  1.00  0.00     0.001 A 
ATOM     76  C   UNL A   1      39.607  33.760  37.635  1.00  0.00     0.000 A 
ENDBRANCH  58  71
ENDBRANCH  32  33
ENDBRANCH  25  27
ENDBRANCH  24  25
ENDBRANCH  23  24
ENDBRANCH  22  23
ENDBRANCH  21  22
ENDBRANCH  20  21
ENDBRANCH  19  20
ENDBRANCH  18  19
ENDBRANCH   1  18
TORSDOF 25
ENDMDL
MODEL 3
REMARK VINA RESULT:      -7.0      3.701      6.452
REMARK SMILES CCCC[C@H](C(=O)OCCOCCOCCOCCOC(=O)c1ccc(-c2c3nc(c(-c4ccccc4)c4ccc([nH]4)c(-c4ccccc4)c4nc(c(-c5ccccc5)c5ccc2[nH]5)C=C4)C=C3)cc1)[C@H](C)O
REMARK SMILES IDX 13 1 12 2 11 3 10 4 9 5 8 6 6 7 7 8 5 9 4 10 3 11 2 12 1 13
REMARK SMILES IDX 71 14 72 15 73 16 14 18 15 19 16 20 17 21 18 22 19 23 20 24
REMARK SMILES IDX 21 25 22 26 23 27 24 28 70 29 25 30 69 31 26 32 27 33 28 34
REMARK SMILES IDX 63 35 29 36 68 37 62 38 64 39 30 40 67 41 61 42 60 43 31 45
REMARK SMILES IDX 53 46 38 47 52 48 39 49 42 50 51 51 65 52 40 53 41 54 50 56
REMARK SMILES IDX 66 57 43 58 32 59 33 60 37 61 34 62 36 63 35 64 54 65 55 66
REMARK SMILES IDX 59 67 56 68 58 69 57 70 44 71 45 72 49 73 46 74 48 75 47 76
REMARK H PARENT 73 17 64 44 42 55
REMARK Flexibility Score: inf
ROOT
ATOM      1  C   UNL A   1      38.196  20.816  25.252  1.00  0.00     0.188 C 
ENDROOT
BRANCH   1   2
ATOM      2  C   UNL A   1      36.653  20.809  25.323  1.00  0.00     0.188 C 
BRANCH   2   3
ATOM      3  O   UNL A   1      36.030  22.049  25.043  1.00  0.00    -0.376 OA
BRANCH   3   4
ATOM      4  C   UNL A   1      36.053  23.135  25.956  1.00  0.00     0.202 C 
BRANCH   4   5
ATOM      5  C   UNL A   1      37.151  24.212  26.062  1.00  0.00     0.261 C 
BRANCH   5   6
ATOM      6  O   UNL A   1      38.405  23.789  26.588  1.00  0.00    -0.463 OA
BRANCH   6   7
ATOM      7  C   UNL A   1      39.006  24.547  27.538  1.00  0.00     0.311 C 
ATOM      8  O   UNL A   1      38.444  25.035  28.508  1.00  0.00    -0.252 OA
BRANCH   7   9
ATOM      9  C   UNL A   1      40.516  24.552  27.291  1.00  0.00     0.127 C 
BRANCH   9  10
ATOM     10  C   UNL A   1      41.236  25.547  28.227  1.00  0.00     0.018 C 
BRANCH  10  11
ATOM     11  C   UNL A   1      41.526  26.971  27.769  1.00  0.00     0.001 C 
BRANCH  11  12
ATOM     12  C   UNL A   1      40.376  27.981  27.796  1.00  0.00    -0.003 C 
ATOM     13  C   UNL A   1      39.608  28.067  29.109  1.00  0.00     0.004 C 
ENDBRANCH  11  12
ENDBRANCH  10  11
ENDBRANCH   9  10
BRANCH   9  14
ATOM     14  C   UNL A   1      41.070  23.144  27.056  1.00  0.00     0.125 C 
ATOM     15  C   UNL A   1      42.370  22.905  27.834  1.00  0.00     0.039 C 
BRANCH  14  16
ATOM     16  O   UNL A   1      41.272  22.870  25.679  1.00  0.00    -0.393 OA
ATOM     17  H   UNL A   1      40.754  23.493  25.145  1.00  0.00     0.210 HD
ENDBRANCH  14  16
ENDBRANCH   9  14
ENDBRANCH   7   9
ENDBRANCH   6   7
ENDBRANCH   5   6
ENDBRANCH   4   5
ENDBRANCH   3   4
ENDBRANCH   2   3
ENDBRANCH   1   2
BRANCH   1  18
ATOM     18  O   UNL A   1      38.748  19.581  24.842  1.00  0.00    -0.377 OA
BRANCH  18  19
ATOM     19  C   UNL A   1      39.664  18.947  25.726  1.00  0.00     0.188 C 
BRANCH  19  20
ATOM     20  C   UNL A   1      40.956  19.652  26.214  1.00  0.00     0.188 C 
BRANCH  20  21
ATOM     21  O   UNL A   1      42.117  19.430  25.426  1.00  0.00    -0.376 OA
BRANCH  21  22
ATOM     22  C   UNL A   1      43.324  20.089  25.763  1.00  0.00     0.202 C 
BRANCH  22  23
ATOM     23  C   UNL A   1      44.436  20.085  24.703  1.00  0.00     0.261 C 
BRANCH  23  24
ATOM     24  O   UNL A   1      45.302  21.227  24.721  1.00  0.00    -0.460 OA
BRANCH  24  25
ATOM     25  C   UNL A   1      44.889  22.295  24.011  1.00  0.00     0.338 C 
ATOM     26  O   UNL A   1      44.337  22.288  22.920  1.00  0.00    -0.246 OA
BRANCH  25  27
ATOM     27  C   UNL A   1      45.033  23.497  24.850  1.00  0.00     0.060 A 
ATOM     28  C   UNL A   1      46.201  23.643  25.609  1.00  0.00     0.016 A 
ATOM     29  C   UNL A   1      44.019  24.457  24.909  1.00  0.00     0.016 A 
ATOM     30  C   UNL A   1      46.328  24.713  26.488  1.00  0.00     0.010 A 
ATOM     31  C   UNL A   1      44.137  25.520  25.809  1.00  0.00     0.010 A 
ATOM     32  C   UNL A   1      45.266  25.614  26.643  1.00  0.00    -0.014 A 
BRANCH  32  33
ATOM     33  C   UNL A   1      45.238  26.464  27.856  1.00  0.00     0.031 A 
ATOM     34  C   UNL A   1      45.291  27.959  27.669  1.00  0.00     0.074 A 
ATOM     35  C   UNL A   1      45.082  25.937  29.082  1.00  0.00     0.049 A 
ATOM     36  N   UNL A   1      45.234  28.911  28.564  1.00  0.00    -0.248 NA
ATOM     37  C   UNL A   1      45.421  28.442  26.284  1.00  0.00     0.031 C 
ATOM     38  C   UNL A   1      44.962  24.512  29.387  1.00  0.00     0.029 A 
ATOM     39  N   UNL A   1      44.983  26.555  30.303  1.00  0.00    -0.354 N 
ATOM     40  C   UNL A   1      45.329  30.101  27.851  1.00  0.00     0.074 A 
ATOM     41  C   UNL A   1      45.485  29.752  26.457  1.00  0.00     0.031 C 
ATOM     42  C   UNL A   1      44.804  24.364  30.714  1.00  0.00     0.029 A 
ATOM     43  C   UNL A   1      44.841  25.680  31.351  1.00  0.00     0.049 A 
ATOM     44  H   UNL A   1      45.013  27.532  30.417  1.00  0.00     0.167 HD
ATOM     45  C   UNL A   1      45.280  31.371  28.312  1.00  0.00     0.031 A 
ATOM     46  C   UNL A   1      44.760  25.919  32.675  1.00  0.00     0.031 A 
ATOM     47  C   UNL A   1      45.137  31.720  29.700  1.00  0.00     0.049 A 
ATOM     48  C   UNL A   1      44.782  27.343  33.169  1.00  0.00     0.074 A 
ATOM     49  C   UNL A   1      45.072  32.978  30.270  1.00  0.00     0.029 A 
ATOM     50  N   UNL A   1      45.043  30.803  30.735  1.00  0.00    -0.354 N 
ATOM     51  N   UNL A   1      44.850  28.460  32.485  1.00  0.00    -0.248 NA
ATOM     52  C   UNL A   1      44.693  27.536  34.624  1.00  0.00     0.031 C 
ATOM     53  C   UNL A   1      45.003  32.823  31.659  1.00  0.00     0.029 A 
ATOM     54  C   UNL A   1      44.943  31.469  31.945  1.00  0.00     0.049 A 
ATOM     55  H   UNL A   1      45.045  29.825  30.626  1.00  0.00     0.167 HD
ATOM     56  C   UNL A   1      44.770  29.485  33.421  1.00  0.00     0.074 A 
ATOM     57  C   UNL A   1      44.630  28.855  34.717  1.00  0.00     0.031 C 
ATOM     58  C   UNL A   1      44.801  30.827  33.227  1.00  0.00     0.031 A 
BRANCH  45  59
ATOM     59  C   UNL A   1      45.426  32.479  27.305  1.00  0.00    -0.014 A 
ATOM     60  C   UNL A   1      46.670  33.076  27.043  1.00  0.00     0.009 A 
ATOM     61  C   UNL A   1      44.301  32.914  26.587  1.00  0.00     0.009 A 
ATOM     62  C   UNL A   1      46.777  34.108  26.107  1.00  0.00     0.001 A 
ATOM     63  C   UNL A   1      44.417  33.922  25.628  1.00  0.00     0.001 A 
ATOM     64  C   UNL A   1      45.653  34.524  25.396  1.00  0.00     0.000 A 
ENDBRANCH  45  59
BRANCH  46  65
ATOM     65  C   UNL A   1      44.664  24.789  33.639  1.00  0.00    -0.014 A 
ATOM     66  C   UNL A   1      45.818  24.148  34.118  1.00  0.00     0.009 A 
ATOM     67  C   UNL A   1      43.408  24.316  34.049  1.00  0.00     0.009 A 
ATOM     68  C   UNL A   1      45.713  23.034  34.954  1.00  0.00     0.001 A 
ATOM     69  C   UNL A   1      43.308  23.223  34.913  1.00  0.00     0.001 A 
ATOM     70  C   UNL A   1      44.459  22.574  35.354  1.00  0.00     0.000 A 
ENDBRANCH  46  65
BRANCH  58  71
ATOM     71  C   UNL A   1      44.615  31.703  34.437  1.00  0.00    -0.014 A 
ATOM     72  C   UNL A   1      43.351  31.929  35.003  1.00  0.00     0.009 A 
ATOM     73  C   UNL A   1      45.738  32.305  35.029  1.00  0.00     0.009 A 
ATOM     74  C   UNL A   1      43.209  32.783  36.099  1.00  0.00     0.001 A 
ATOM     75  C   UNL A   1      45.598  33.125  36.149  1.00  0.00     0.001 A 
ATOM     76  C   UNL A   1      44.333  33.378  36.673  1.00  0.00     0.000 A 
ENDBRANCH  58  71
ENDBRANCH  32  33
ENDBRANCH  25  27
ENDBRANCH  24  25
ENDBRANCH  23  24
ENDBRANCH  22  23
ENDBRANCH  21  22
ENDBRANCH  20  21
ENDBRANCH  19  20
ENDBRANCH  18  19
ENDBRANCH   1  18
TORSDOF 25
ENDMDL
