MODEL 1
REMARK VINA RESULT:      -9.3      0.000      0.000
REMARK SMILES O=C(OCCOCCOCCOCCOC(=O)[C@@H]1CCC[N@@H+](Cc2ccc(F)cc2Cl)C1)c1ccc(-c2c3nc(c(-c4ccccc4)c4ccc([nH]4)c(-c4ccccc4)c4nc(c(-c5ccccc5)c5ccc2[nH]5)C=C4)C=C3)cc1
REMARK SMILES IDX 9 1 8 2 7 3 6 4 5 5 4 6 3 7 2 8 1 9 33 10 34 11 80 12 35 13
REMARK SMILES IDX 79 14 36 15 37 16 38 17 73 18 39 19 78 20 72 21 74 22 40 23
REMARK SMILES IDX 77 24 71 25 70 26 41 28 63 29 48 30 62 31 49 32 52 33 61 34
REMARK SMILES IDX 75 35 50 36 51 37 60 39 76 40 53 41 42 42 43 43 47 44 44 45
REMARK SMILES IDX 46 46 45 47 64 48 65 49 69 50 66 51 68 52 67 53 54 54 55 55
REMARK SMILES IDX 59 56 56 57 58 58 57 59 10 60 11 61 12 62 13 63 14 64 15 65
REMARK SMILES IDX 16 66 17 67 18 68 19 69 32 70 20 71 22 72 21 73 23 75 24 76
REMARK SMILES IDX 25 77 30 78 26 79 29 80 31 81 27 82 28 83
REMARK H PARENT 74 27 52 38 22 74
REMARK Flexibility Score: inf
ROOT
ATOM      1  O   UNL A   1      31.622  25.417  25.964  1.00  0.00    -0.377 OA
ENDROOT
BRANCH   1   2
ATOM      2  C   UNL A   1      31.143  26.585  25.304  1.00  0.00     0.188 C 
BRANCH   2   3
ATOM      3  C   UNL A   1      31.905  27.854  25.691  1.00  0.00     0.188 C 
BRANCH   3   4
ATOM      4  O   UNL A   1      33.201  27.480  26.166  1.00  0.00    -0.376 OA
BRANCH   4   5
ATOM      5  C   UNL A   1      34.073  28.555  26.505  1.00  0.00     0.202 C 
BRANCH   5   6
ATOM      6  C   UNL A   1      33.360  29.897  26.667  1.00  0.00     0.261 C 
BRANCH   6   7
ATOM      7  O   UNL A   1      33.746  30.563  27.879  1.00  0.00    -0.460 OA
BRANCH   7   8
ATOM      8  C   UNL A   1      34.933  31.162  28.134  1.00  0.00     0.338 C 
ATOM      9  O   UNL A   1      34.975  32.397  28.162  1.00  0.00    -0.246 OA
BRANCH   8  10
ATOM     10  C   UNL A   1      36.195  30.424  28.441  1.00  0.00     0.060 A 
ATOM     11  C   UNL A   1      36.432  29.650  29.581  1.00  0.00     0.016 A 
ATOM     12  C   UNL A   1      37.196  30.463  27.458  1.00  0.00     0.016 A 
ATOM     13  C   UNL A   1      37.639  29.001  29.788  1.00  0.00     0.010 A 
ATOM     14  C   UNL A   1      38.405  29.788  27.640  1.00  0.00     0.010 A 
ATOM     15  C   UNL A   1      38.636  29.080  28.825  1.00  0.00    -0.014 A 
BRANCH  15  16
ATOM     16  C   UNL A   1      39.975  28.576  29.164  1.00  0.00     0.031 A 
ATOM     17  C   UNL A   1      40.836  29.442  30.030  1.00  0.00     0.074 A 
ATOM     18  C   UNL A   1      40.354  27.340  28.797  1.00  0.00     0.049 A 
ATOM     19  N   UNL A   1      42.101  29.327  30.321  1.00  0.00    -0.248 NA
ATOM     20  C   UNL A   1      40.174  30.604  30.652  1.00  0.00     0.031 C 
ATOM     21  C   UNL A   1      39.513  26.367  28.094  1.00  0.00     0.029 A 
ATOM     22  N   UNL A   1      41.539  26.684  28.985  1.00  0.00    -0.354 N 
ATOM     23  C   UNL A   1      42.401  30.435  31.101  1.00  0.00     0.074 A 
ATOM     24  C   UNL A   1      41.187  31.203  31.255  1.00  0.00     0.031 C 
ATOM     25  C   UNL A   1      40.209  25.231  27.923  1.00  0.00     0.029 A 
ATOM     26  C   UNL A   1      41.564  25.431  28.422  1.00  0.00     0.049 A 
ATOM     27  H   UNL A   1      42.299  27.071  29.475  1.00  0.00     0.167 HD
ATOM     28  C   UNL A   1      43.601  30.784  31.618  1.00  0.00     0.031 A 
ATOM     29  C   UNL A   1      42.594  24.577  28.281  1.00  0.00     0.031 A 
ATOM     30  C   UNL A   1      44.780  29.983  31.444  1.00  0.00     0.049 A 
ATOM     31  C   UNL A   1      43.939  25.023  28.788  1.00  0.00     0.074 A 
ATOM     32  C   UNL A   1      46.075  30.242  31.845  1.00  0.00     0.029 A 
ATOM     33  N   UNL A   1      44.787  28.744  30.816  1.00  0.00    -0.354 N 
ATOM     34  N   UNL A   1      44.257  26.126  29.425  1.00  0.00    -0.248 NA
ATOM     35  C   UNL A   1      45.072  24.124  28.535  1.00  0.00     0.031 C 
ATOM     36  C   UNL A   1      46.875  29.173  31.423  1.00  0.00     0.029 A 
ATOM     37  C   UNL A   1      46.066  28.225  30.810  1.00  0.00     0.049 A 
ATOM     38  H   UNL A   1      43.996  28.300  30.433  1.00  0.00     0.167 HD
ATOM     39  C   UNL A   1      45.622  26.051  29.663  1.00  0.00     0.074 A 
ATOM     40  C   UNL A   1      46.064  24.779  29.120  1.00  0.00     0.031 C 
ATOM     41  C   UNL A   1      46.444  26.946  30.263  1.00  0.00     0.031 A 
BRANCH  28  42
ATOM     42  C   UNL A   1      43.685  32.112  32.312  1.00  0.00    -0.014 A 
ATOM     43  C   UNL A   1      43.804  33.317  31.601  1.00  0.00     0.009 A 
ATOM     44  C   UNL A   1      43.698  32.150  33.715  1.00  0.00     0.009 A 
ATOM     45  C   UNL A   1      43.978  34.526  32.282  1.00  0.00     0.001 A 
ATOM     46  C   UNL A   1      43.845  33.361  34.394  1.00  0.00     0.001 A 
ATOM     47  C   UNL A   1      43.997  34.547  33.677  1.00  0.00     0.000 A 
ENDBRANCH  28  42
BRANCH  29  48
ATOM     48  C   UNL A   1      42.417  23.283  27.568  1.00  0.00    -0.014 A 
ATOM     49  C   UNL A   1      42.566  23.197  26.176  1.00  0.00     0.009 A 
ATOM     50  C   UNL A   1      42.081  22.117  28.279  1.00  0.00     0.009 A 
ATOM     51  C   UNL A   1      42.362  21.982  25.512  1.00  0.00     0.001 A 
ATOM     52  C   UNL A   1      41.909  20.899  27.619  1.00  0.00     0.001 A 
ATOM     53  C   UNL A   1      42.039  20.834  26.234  1.00  0.00     0.000 A 
ENDBRANCH  29  48
BRANCH  41  54
ATOM     54  C   UNL A   1      47.883  26.550  30.401  1.00  0.00    -0.014 A 
ATOM     55  C   UNL A   1      48.827  26.894  29.424  1.00  0.00     0.009 A 
ATOM     56  C   UNL A   1      48.301  25.870  31.554  1.00  0.00     0.009 A 
ATOM     57  C   UNL A   1      50.166  26.538  29.588  1.00  0.00     0.001 A 
ATOM     58  C   UNL A   1      49.644  25.541  31.729  1.00  0.00     0.001 A 
ATOM     59  C   UNL A   1      50.573  25.869  30.743  1.00  0.00     0.000 A 
ENDBRANCH  41  54
ENDBRANCH  15  16
ENDBRANCH   8  10
ENDBRANCH   7   8
ENDBRANCH   6   7
ENDBRANCH   5   6
ENDBRANCH   4   5
ENDBRANCH   3   4
ENDBRANCH   2   3
ENDBRANCH   1   2
BRANCH   1  60
ATOM     60  C   UNL A   1      30.978  24.206  25.597  1.00  0.00     0.188 C 
BRANCH  60  61
ATOM     61  C   UNL A   1      30.616  23.220  26.718  1.00  0.00     0.188 C 
BRANCH  61  62
ATOM     62  O   UNL A   1      31.563  22.964  27.728  1.00  0.00    -0.376 OA
BRANCH  62  63
ATOM     63  C   UNL A   1      32.788  22.322  27.440  1.00  0.00     0.202 C 
BRANCH  63  64
ATOM     64  C   UNL A   1      34.189  22.977  27.454  1.00  0.00     0.261 C 
BRANCH  64  65
ATOM     65  O   UNL A   1      34.648  23.659  26.279  1.00  0.00    -0.463 OA
BRANCH  65  66
ATOM     66  C   UNL A   1      35.622  23.094  25.540  1.00  0.00     0.314 C 
ATOM     67  O   UNL A   1      36.742  22.812  25.982  1.00  0.00    -0.252 OA
BRANCH  66  68
ATOM     68  C   UNL A   1      35.200  22.720  24.115  1.00  0.00     0.154 C 
ATOM     69  C   UNL A   1      34.630  23.816  23.192  1.00  0.00     0.027 C 
ATOM     70  C   UNL A   1      34.403  21.406  24.139  1.00  0.00     0.277 C 
ATOM     71  C   UNL A   1      33.185  23.643  22.697  1.00  0.00     0.062 C 
ATOM     72  N   UNL A   1      32.968  21.577  23.939  1.00  0.00    -0.330 N 
ATOM     73  C   UNL A   1      32.675  22.200  22.659  1.00  0.00     0.262 C 
ATOM     74  H   UNL A   1      32.692  22.247  24.659  1.00  0.00     0.348 HD
BRANCH  72  75
ATOM     75  C   UNL A   1      32.092  20.463  24.323  1.00  0.00     0.300 C 
BRANCH  75  76
ATOM     76  C   UNL A   1      32.621  19.045  24.423  1.00  0.00     0.025 A 
ATOM     77  C   UNL A   1      32.856  18.479  25.693  1.00  0.00     0.014 A 
ATOM     78  C   UNL A   1      32.704  18.184  23.307  1.00  0.00     0.052 A 
ATOM     79  C   UNL A   1      33.201  17.136  25.846  1.00  0.00     0.040 A 
ATOM     80  C   UNL A   1      33.032  16.831  23.463  1.00  0.00     0.060 A 
ATOM     81  Cl  UNL A   1      32.344  18.709  21.698  1.00  0.00    -0.084 Cl
ATOM     82  C   UNL A   1      33.281  16.324  24.729  1.00  0.00     0.124 A 
ATOM     83  F   UNL A   1      33.574  15.026  24.878  1.00  0.00    -0.207 F 
ENDBRANCH  75  76
ENDBRANCH  72  75
ENDBRANCH  66  68
ENDBRANCH  65  66
ENDBRANCH  64  65
ENDBRANCH  63  64
ENDBRANCH  62  63
ENDBRANCH  61  62
ENDBRANCH  60  61
ENDBRANCH   1  60
TORSDOF 22
ENDMDL
MODEL 2
REMARK VINA RESULT:      -9.3      2.681      3.896
REMARK SMILES O=C(OCCOCCOCCOCCOC(=O)[C@@H]1CCC[N@@H+](Cc2ccc(F)cc2Cl)C1)c1ccc(-c2c3nc(c(-c4ccccc4)c4ccc([nH]4)c(-c4ccccc4)c4nc(c(-c5ccccc5)c5ccc2[nH]5)C=C4)C=C3)cc1
REMARK SMILES IDX 9 1 8 2 7 3 6 4 5 5 4 6 3 7 2 8 1 9 33 10 34 11 80 12 35 13
REMARK SMILES IDX 79 14 36 15 37 16 38 17 73 18 39 19 78 20 72 21 74 22 40 23
REMARK SMILES IDX 77 24 71 25 70 26 41 28 63 29 48 30 62 31 49 32 52 33 61 34
REMARK SMILES IDX 75 35 50 36 51 37 60 39 76 40 53 41 42 42 43 43 47 44 44 45
REMARK SMILES IDX 46 46 45 47 64 48 65 49 69 50 66 51 68 52 67 53 54 54 55 55
REMARK SMILES IDX 59 56 56 57 58 58 57 59 10 60 11 61 12 62 13 63 14 64 15 65
REMARK SMILES IDX 16 66 17 67 18 68 19 69 32 70 20 71 22 72 21 73 23 75 24 76
REMARK SMILES IDX 25 77 30 78 26 79 29 80 31 81 27 82 28 83
REMARK H PARENT 74 27 52 38 22 74
REMARK Flexibility Score: inf
ROOT
ATOM      1  O   UNL A   1      29.517  31.174  23.945  1.00  0.00    -0.377 OA
ENDROOT
BRANCH   1   2
ATOM      2  C   UNL A   1      30.201  29.945  23.721  1.00  0.00     0.188 C 
BRANCH   2   3
ATOM      3  C   UNL A   1      31.402  29.743  24.645  1.00  0.00     0.188 C 
BRANCH   3   4
ATOM      4  O   UNL A   1      31.412  30.794  25.615  1.00  0.00    -0.376 OA
BRANCH   4   5
ATOM      5  C   UNL A   1      31.957  30.461  26.889  1.00  0.00     0.202 C 
BRANCH   5   6
ATOM      6  C   UNL A   1      33.221  31.244  27.241  1.00  0.00     0.261 C 
BRANCH   6   7
ATOM      7  O   UNL A   1      33.915  30.663  28.355  1.00  0.00    -0.460 OA
BRANCH   7   8
ATOM      8  C   UNL A   1      35.061  31.110  28.921  1.00  0.00     0.338 C 
ATOM      9  O   UNL A   1      35.041  32.197  29.510  1.00  0.00    -0.246 OA
BRANCH   8  10
ATOM     10  C   UNL A   1      36.345  30.348  28.927  1.00  0.00     0.060 A 
ATOM     11  C   UNL A   1      36.869  29.640  30.013  1.00  0.00     0.016 A 
ATOM     12  C   UNL A   1      37.043  30.289  27.711  1.00  0.00     0.016 A 
ATOM     13  C   UNL A   1      38.075  28.962  29.932  1.00  0.00     0.010 A 
ATOM     14  C   UNL A   1      38.244  29.583  27.608  1.00  0.00     0.010 A 
ATOM     15  C   UNL A   1      38.775  28.944  28.733  1.00  0.00    -0.014 A 
BRANCH  15  16
ATOM     16  C   UNL A   1      40.147  28.414  28.734  1.00  0.00     0.031 A 
ATOM     17  C   UNL A   1      41.243  29.347  29.144  1.00  0.00     0.074 A 
ATOM     18  C   UNL A   1      40.378  27.115  28.481  1.00  0.00     0.049 A 
ATOM     19  N   UNL A   1      42.535  29.198  29.057  1.00  0.00    -0.248 NA
ATOM     20  C   UNL A   1      40.819  30.631  29.735  1.00  0.00     0.031 C 
ATOM     21  C   UNL A   1      39.349  26.101  28.235  1.00  0.00     0.029 A 
ATOM     22  N   UNL A   1      41.555  26.422  28.411  1.00  0.00    -0.354 N 
ATOM     23  C   UNL A   1      43.074  30.392  29.516  1.00  0.00     0.074 A 
ATOM     24  C   UNL A   1      41.976  31.250  29.897  1.00  0.00     0.031 C 
ATOM     25  C   UNL A   1      39.944  24.910  28.055  1.00  0.00     0.029 A 
ATOM     26  C   UNL A   1      41.390  25.098  28.083  1.00  0.00     0.049 A 
ATOM     27  H   UNL A   1      42.434  26.831  28.578  1.00  0.00     0.167 HD
ATOM     28  C   UNL A   1      44.379  30.740  29.583  1.00  0.00     0.031 A 
ATOM     29  C   UNL A   1      42.315  24.168  27.783  1.00  0.00     0.031 A 
ATOM     30  C   UNL A   1      45.437  29.849  29.200  1.00  0.00     0.049 A 
ATOM     31  C   UNL A   1      43.757  24.601  27.782  1.00  0.00     0.074 A 
ATOM     32  C   UNL A   1      46.797  30.084  29.144  1.00  0.00     0.029 A 
ATOM     33  N   UNL A   1      45.235  28.529  28.814  1.00  0.00    -0.354 N 
ATOM     34  N   UNL A   1      44.269  25.767  28.102  1.00  0.00    -0.248 NA
ATOM     35  C   UNL A   1      44.745  23.604  27.354  1.00  0.00     0.031 C 
ATOM     36  C   UNL A   1      47.414  28.914  28.686  1.00  0.00     0.029 A 
ATOM     37  C   UNL A   1      46.444  27.935  28.510  1.00  0.00     0.049 A 
ATOM     38  H   UNL A   1      44.359  28.083  28.765  1.00  0.00     0.167 HD
ATOM     39  C   UNL A   1      45.641  25.643  27.928  1.00  0.00     0.074 A 
ATOM     40  C   UNL A   1      45.879  24.277  27.497  1.00  0.00     0.031 C 
ATOM     41  C   UNL A   1      46.619  26.566  28.096  1.00  0.00     0.031 A 
BRANCH  28  42
ATOM     42  C   UNL A   1      44.689  32.151  29.989  1.00  0.00    -0.014 A 
ATOM     43  C   UNL A   1      44.765  33.195  29.053  1.00  0.00     0.009 A 
ATOM     44  C   UNL A   1      44.964  32.429  31.338  1.00  0.00     0.009 A 
ATOM     45  C   UNL A   1      45.153  34.477  29.454  1.00  0.00     0.001 A 
ATOM     46  C   UNL A   1      45.325  33.717  31.740  1.00  0.00     0.001 A 
ATOM     47  C   UNL A   1      45.431  34.737  30.796  1.00  0.00     0.000 A 
ENDBRANCH  28  42
BRANCH  29  48
ATOM     48  C   UNL A   1      41.911  22.794  27.383  1.00  0.00    -0.014 A 
ATOM     49  C   UNL A   1      41.691  22.469  26.036  1.00  0.00     0.009 A 
ATOM     50  C   UNL A   1      41.728  21.793  28.352  1.00  0.00     0.009 A 
ATOM     51  C   UNL A   1      41.276  21.182  25.673  1.00  0.00     0.001 A 
ATOM     52  C   UNL A   1      41.345  20.501  27.987  1.00  0.00     0.001 A 
ATOM     53  C   UNL A   1      41.109  20.199  26.648  1.00  0.00     0.000 A 
ENDBRANCH  29  48
BRANCH  41  54
ATOM     54  C   UNL A   1      48.025  26.105  27.859  1.00  0.00    -0.014 A 
ATOM     55  C   UNL A   1      48.806  25.591  28.904  1.00  0.00     0.009 A 
ATOM     56  C   UNL A   1      48.549  26.139  26.559  1.00  0.00     0.009 A 
ATOM     57  C   UNL A   1      50.103  25.142  28.653  1.00  0.00     0.001 A 
ATOM     58  C   UNL A   1      49.834  25.662  26.306  1.00  0.00     0.001 A 
ATOM     59  C   UNL A   1      50.612  25.172  27.354  1.00  0.00     0.000 A 
ENDBRANCH  41  54
ENDBRANCH  15  16
ENDBRANCH   8  10
ENDBRANCH   7   8
ENDBRANCH   6   7
ENDBRANCH   5   6
ENDBRANCH   4   5
ENDBRANCH   3   4
ENDBRANCH   2   3
ENDBRANCH   1   2
BRANCH   1  60
ATOM     60  C   UNL A   1      28.216  31.255  23.381  1.00  0.00     0.188 C 
BRANCH  60  61
ATOM     61  C   UNL A   1      27.653  30.000  22.697  1.00  0.00     0.188 C 
BRANCH  61  62
ATOM     62  O   UNL A   1      26.877  29.104  23.456  1.00  0.00    -0.376 OA
BRANCH  62  63
ATOM     63  C   UNL A   1      27.177  27.724  23.497  1.00  0.00     0.202 C 
BRANCH  63  64
ATOM     64  C   UNL A   1      28.550  27.098  23.836  1.00  0.00     0.261 C 
BRANCH  64  65
ATOM     65  O   UNL A   1      28.832  25.763  23.395  1.00  0.00    -0.463 OA
BRANCH  65  66
ATOM     66  C   UNL A   1      30.059  25.253  23.616  1.00  0.00     0.314 C 
ATOM     67  O   UNL A   1      30.299  24.041  23.663  1.00  0.00    -0.252 OA
BRANCH  66  68
ATOM     68  C   UNL A   1      31.175  26.300  23.703  1.00  0.00     0.154 C 
ATOM     69  C   UNL A   1      31.923  26.705  22.417  1.00  0.00     0.027 C 
ATOM     70  C   UNL A   1      32.073  25.998  24.914  1.00  0.00     0.277 C 
ATOM     71  C   UNL A   1      33.432  26.419  22.356  1.00  0.00     0.062 C 
ATOM     72  N   UNL A   1      33.371  25.433  24.565  1.00  0.00    -0.330 N 
ATOM     73  C   UNL A   1      34.135  26.328  23.712  1.00  0.00     0.262 C 
ATOM     74  H   UNL A   1      33.145  24.613  23.999  1.00  0.00     0.348 HD
BRANCH  72  75
ATOM     75  C   UNL A   1      34.128  24.764  25.631  1.00  0.00     0.300 C 
BRANCH  75  76
ATOM     76  C   UNL A   1      35.219  23.759  25.310  1.00  0.00     0.025 A 
ATOM     77  C   UNL A   1      36.518  23.959  25.820  1.00  0.00     0.014 A 
ATOM     78  C   UNL A   1      34.953  22.521  24.686  1.00  0.00     0.052 A 
ATOM     79  C   UNL A   1      37.518  22.996  25.679  1.00  0.00     0.040 A 
ATOM     80  C   UNL A   1      35.952  21.547  24.562  1.00  0.00     0.060 A 
ATOM     81  Cl  UNL A   1      33.381  22.092  24.102  1.00  0.00    -0.084 Cl
ATOM     82  C   UNL A   1      37.223  21.797  25.055  1.00  0.00     0.124 A 
ATOM     83  F   UNL A   1      38.171  20.857  24.953  1.00  0.00    -0.207 F 
ENDBRANCH  75  76
ENDBRANCH  72  75
ENDBRANCH  66  68
ENDBRANCH  65  66
ENDBRANCH  64  65
ENDBRANCH  63  64
ENDBRANCH  62  63
ENDBRANCH  61  62
ENDBRANCH  60  61
ENDBRANCH   1  60
TORSDOF 22
ENDMDL
MODEL 3
REMARK VINA RESULT:      -8.9      3.327      6.987
REMARK SMILES O=C(OCCOCCOCCOCCOC(=O)[C@@H]1CCC[N@@H+](Cc2ccc(F)cc2Cl)C1)c1ccc(-c2c3nc(c(-c4ccccc4)c4ccc([nH]4)c(-c4ccccc4)c4nc(c(-c5ccccc5)c5ccc2[nH]5)C=C4)C=C3)cc1
REMARK SMILES IDX 9 1 8 2 7 3 6 4 5 5 4 6 3 7 2 8 1 9 33 10 34 11 80 12 35 13
REMARK SMILES IDX 79 14 36 15 37 16 38 17 73 18 39 19 78 20 72 21 74 22 40 23
REMARK SMILES IDX 77 24 71 25 70 26 41 28 63 29 48 30 62 31 49 32 52 33 61 34
REMARK SMILES IDX 75 35 50 36 51 37 60 39 76 40 53 41 42 42 43 43 47 44 44 45
REMARK SMILES IDX 46 46 45 47 64 48 65 49 69 50 66 51 68 52 67 53 54 54 55 55
REMARK SMILES IDX 59 56 56 57 58 58 57 59 10 60 11 61 12 62 13 63 14 64 15 65
REMARK SMILES IDX 16 66 17 67 18 68 19 69 32 70 20 71 22 72 21 73 23 75 24 76
REMARK SMILES IDX 25 77 30 78 26 79 29 80 31 81 27 82 28 83
REMARK H PARENT 74 27 52 38 22 74
REMARK Flexibility Score: inf
ROOT
ATOM      1  O   UNL A   1      32.588  26.742  23.590  1.00  0.00    -0.377 OA
ENDROOT
BRANCH   1   2
ATOM      2  C   UNL A   1      32.809  28.082  24.018  1.00  0.00     0.188 C 
BRANCH   2   3
ATOM      3  C   UNL A   1      31.614  28.686  24.757  1.00  0.00     0.188 C 
BRANCH   3   4
ATOM      4  O   UNL A   1      31.691  30.111  24.660  1.00  0.00    -0.376 OA
BRANCH   4   5
ATOM      5  C   UNL A   1      30.675  30.837  25.346  1.00  0.00     0.202 C 
BRANCH   5   6
ATOM      6  C   UNL A   1      31.214  31.805  26.399  1.00  0.00     0.261 C 
BRANCH   6   7
ATOM      7  O   UNL A   1      32.480  31.375  26.919  1.00  0.00    -0.460 OA
BRANCH   7   8
ATOM      8  C   UNL A   1      33.436  32.154  27.479  1.00  0.00     0.338 C 
ATOM      9  O   UNL A   1      33.246  33.374  27.528  1.00  0.00    -0.246 OA
BRANCH   8  10
ATOM     10  C   UNL A   1      34.692  31.628  28.093  1.00  0.00     0.060 A 
ATOM     11  C   UNL A   1      34.939  30.295  28.433  1.00  0.00     0.016 A 
ATOM     12  C   UNL A   1      35.732  32.552  28.278  1.00  0.00     0.016 A 
ATOM     13  C   UNL A   1      36.135  29.894  29.006  1.00  0.00     0.010 A 
ATOM     14  C   UNL A   1      36.954  32.156  28.826  1.00  0.00     0.010 A 
ATOM     15  C   UNL A   1      37.142  30.826  29.219  1.00  0.00    -0.014 A 
BRANCH  15  16
ATOM     16  C   UNL A   1      38.304  30.427  30.027  1.00  0.00     0.031 A 
ATOM     17  C   UNL A   1      39.377  29.637  29.344  1.00  0.00     0.074 A 
ATOM     18  C   UNL A   1      38.434  30.855  31.293  1.00  0.00     0.049 A 
ATOM     19  N   UNL A   1      40.399  29.011  29.856  1.00  0.00    -0.248 NA
ATOM     20  C   UNL A   1      39.280  29.540  27.876  1.00  0.00     0.031 C 
ATOM     21  C   UNL A   1      37.515  31.766  31.982  1.00  0.00     0.029 A 
ATOM     22  N   UNL A   1      39.407  30.597  32.220  1.00  0.00    -0.354 N 
ATOM     23  C   UNL A   1      41.025  28.391  28.784  1.00  0.00     0.074 A 
ATOM     24  C   UNL A   1      40.283  28.726  27.591  1.00  0.00     0.031 C 
ATOM     25  C   UNL A   1      37.980  32.000  33.221  1.00  0.00     0.029 A 
ATOM     26  C   UNL A   1      39.171  31.189  33.438  1.00  0.00     0.049 A 
ATOM     27  H   UNL A   1      40.198  30.042  32.034  1.00  0.00     0.167 HD
ATOM     28  C   UNL A   1      42.112  27.588  28.811  1.00  0.00     0.031 A 
ATOM     29  C   UNL A   1      39.822  31.033  34.605  1.00  0.00     0.031 A 
ATOM     30  C   UNL A   1      42.822  27.289  30.023  1.00  0.00     0.049 A 
ATOM     31  C   UNL A   1      40.978  30.069  34.631  1.00  0.00     0.074 A 
ATOM     32  C   UNL A   1      43.893  26.439  30.218  1.00  0.00     0.029 A 
ATOM     33  N   UNL A   1      42.523  27.858  31.255  1.00  0.00    -0.354 N 
ATOM     34  N   UNL A   1      41.505  29.385  33.642  1.00  0.00    -0.248 NA
ATOM     35  C   UNL A   1      41.612  29.834  35.934  1.00  0.00     0.031 C 
ATOM     36  C   UNL A   1      44.216  26.465  31.580  1.00  0.00     0.029 A 
ATOM     37  C   UNL A   1      43.383  27.374  32.220  1.00  0.00     0.049 A 
ATOM     38  H   UNL A   1      41.804  28.511  31.415  1.00  0.00     0.167 HD
ATOM     39  C   UNL A   1      42.541  28.648  34.197  1.00  0.00     0.074 A 
ATOM     40  C   UNL A   1      42.581  28.990  35.607  1.00  0.00     0.031 C 
ATOM     41  C   UNL A   1      43.381  27.761  33.608  1.00  0.00     0.031 A 
BRANCH  28  42
ATOM     42  C   UNL A   1      42.506  26.928  27.522  1.00  0.00    -0.014 A 
ATOM     43  C   UNL A   1      43.443  27.502  26.648  1.00  0.00     0.009 A 
ATOM     44  C   UNL A   1      41.880  25.728  27.150  1.00  0.00     0.009 A 
ATOM     45  C   UNL A   1      43.711  26.910  25.410  1.00  0.00     0.001 A 
ATOM     46  C   UNL A   1      42.170  25.123  25.925  1.00  0.00     0.001 A 
ATOM     47  C   UNL A   1      43.076  25.721  25.051  1.00  0.00     0.000 A 
ENDBRANCH  28  42
BRANCH  29  48
ATOM     48  C   UNL A   1      39.352  31.724  35.836  1.00  0.00    -0.014 A 
ATOM     49  C   UNL A   1      40.001  32.872  36.314  1.00  0.00     0.009 A 
ATOM     50  C   UNL A   1      38.250  31.229  36.555  1.00  0.00     0.009 A 
ATOM     51  C   UNL A   1      39.573  33.493  37.493  1.00  0.00     0.001 A 
ATOM     52  C   UNL A   1      37.804  31.868  37.714  1.00  0.00     0.001 A 
ATOM     53  C   UNL A   1      38.472  32.994  38.188  1.00  0.00     0.000 A 
ENDBRANCH  29  48
BRANCH  41  54
ATOM     54  C   UNL A   1      44.432  27.149  34.483  1.00  0.00    -0.014 A 
ATOM     55  C   UNL A   1      44.190  25.960  35.185  1.00  0.00     0.009 A 
ATOM     56  C   UNL A   1      45.699  27.747  34.556  1.00  0.00     0.009 A 
ATOM     57  C   UNL A   1      45.194  25.394  35.971  1.00  0.00     0.001 A 
ATOM     58  C   UNL A   1      46.709  27.164  35.319  1.00  0.00     0.001 A 
ATOM     59  C   UNL A   1      46.453  25.993  36.031  1.00  0.00     0.000 A 
ENDBRANCH  41  54
ENDBRANCH  15  16
ENDBRANCH   8  10
ENDBRANCH   7   8
ENDBRANCH   6   7
ENDBRANCH   5   6
ENDBRANCH   4   5
ENDBRANCH   3   4
ENDBRANCH   2   3
ENDBRANCH   1   2
BRANCH   1  60
ATOM     60  C   UNL A   1      33.352  26.330  22.467  1.00  0.00     0.188 C 
BRANCH  60  61
ATOM     61  C   UNL A   1      32.847  25.124  21.660  1.00  0.00     0.188 C 
BRANCH  61  62
ATOM     62  O   UNL A   1      32.356  24.002  22.354  1.00  0.00    -0.376 OA
BRANCH  62  63
ATOM     63  C   UNL A   1      32.941  22.726  22.195  1.00  0.00     0.202 C 
BRANCH  63  64
ATOM     64  C   UNL A   1      32.488  21.420  22.889  1.00  0.00     0.261 C 
BRANCH  64  65
ATOM     65  O   UNL A   1      31.711  21.507  24.091  1.00  0.00    -0.463 OA
BRANCH  65  66
ATOM     66  C   UNL A   1      32.184  20.928  25.212  1.00  0.00     0.314 C 
ATOM     67  O   UNL A   1      32.196  19.706  25.400  1.00  0.00    -0.252 OA
BRANCH  66  68
ATOM     68  C   UNL A   1      32.814  21.904  26.211  1.00  0.00     0.154 C 
ATOM     69  C   UNL A   1      32.046  23.185  26.592  1.00  0.00     0.027 C 
ATOM     70  C   UNL A   1      34.299  22.109  25.868  1.00  0.00     0.277 C 
ATOM     71  C   UNL A   1      32.701  24.532  26.244  1.00  0.00     0.062 C 
ATOM     72  N   UNL A   1      34.593  23.397  25.251  1.00  0.00    -0.330 N 
ATOM     73  C   UNL A   1      34.226  24.505  26.118  1.00  0.00     0.262 C 
ATOM     74  H   UNL A   1      33.969  23.439  24.444  1.00  0.00     0.348 HD
BRANCH  72  75
ATOM     75  C   UNL A   1      35.874  23.535  24.547  1.00  0.00     0.300 C 
BRANCH  75  76
ATOM     76  C   UNL A   1      37.191  23.260  25.248  1.00  0.00     0.025 A 
ATOM     77  C   UNL A   1      37.754  24.249  26.080  1.00  0.00     0.014 A 
ATOM     78  C   UNL A   1      37.790  21.981  25.269  1.00  0.00     0.052 A 
ATOM     79  C   UNL A   1      38.883  23.997  26.860  1.00  0.00     0.040 A 
ATOM     80  C   UNL A   1      38.911  21.723  26.068  1.00  0.00     0.060 A 
ATOM     81  Cl  UNL A   1      37.151  20.641  24.380  1.00  0.00    -0.084 Cl
ATOM     82  C   UNL A   1      39.447  22.734  26.850  1.00  0.00     0.124 A 
ATOM     83  F   UNL A   1      40.507  22.480  27.628  1.00  0.00    -0.207 F 
ENDBRANCH  75  76
ENDBRANCH  72  75
ENDBRANCH  66  68
ENDBRANCH  65  66
ENDBRANCH  64  65
ENDBRANCH  63  64
ENDBRANCH  62  63
ENDBRANCH  61  62
ENDBRANCH  60  61
ENDBRANCH   1  60
TORSDOF 22
ENDMDL
