MODEL 1
REMARK VINA RESULT:      -9.3      0.000      0.000
REMARK SMILES COc1ccc2c(c1)CC[C@@](C)(CCC(=O)OCCOCCOCCOCCOC(=O)c1ccc(-c3c4nc(c(-c5ccccc5)c5ccc([nH]5)c(-c5ccccc5)c5nc(c(-c6ccccc6)c6ccc3[nH]6)C=C5)C=C4)cc1)C2=O
REMARK SMILES IDX 22 1 21 2 20 3 19 4 18 5 17 6 15 7 16 8 14 9 13 10 11 11
REMARK SMILES IDX 3 12 4 13 8 14 5 15 7 16 6 17 9 18 80 19 10 20 81 21 12 22
REMARK SMILES IDX 2 23 1 24 23 25 24 26 25 27 26 28 27 29 28 30 29 31 30 32
REMARK SMILES IDX 31 33 32 34 33 35 79 36 34 37 78 38 35 39 36 40 37 41 72 42
REMARK SMILES IDX 38 43 77 44 71 45 73 46 39 47 76 48 70 49 69 50 40 52 62 53
REMARK SMILES IDX 47 54 61 55 48 56 51 57 60 58 74 59 49 60 50 61 59 63 75 64
REMARK SMILES IDX 52 65 41 66 42 67 46 68 43 69 45 70 44 71 63 72 64 73 68 74
REMARK SMILES IDX 65 75 67 76 66 77 53 78 54 79 58 80 55 81 57 82 56 83
REMARK H PARENT 73 51 51 62
REMARK Flexibility Score: inf
ROOT
ATOM      1  C   UNL A   1      39.333  21.757  25.969  1.00  0.00     0.188 C 
ENDROOT
BRANCH   1   2
ATOM      2  C   UNL A   1      38.128  22.707  25.904  1.00  0.00     0.188 C 
BRANCH   2   3
ATOM      3  O   UNL A   1      37.429  22.910  24.693  1.00  0.00    -0.376 OA
BRANCH   3   4
ATOM      4  C   UNL A   1      36.305  22.132  24.305  1.00  0.00     0.202 C 
BRANCH   4   5
ATOM      5  C   UNL A   1      35.902  20.829  25.002  1.00  0.00     0.261 C 
BRANCH   5   6
ATOM      6  O   UNL A   1      34.632  20.868  25.678  1.00  0.00    -0.463 OA
BRANCH   6   7
ATOM      7  C   UNL A   1      33.567  20.507  24.925  1.00  0.00     0.305 C 
ATOM      8  O   UNL A   1      33.339  19.356  24.564  1.00  0.00    -0.252 OA
BRANCH   7   9
ATOM      9  C   UNL A   1      32.680  21.645  24.467  1.00  0.00     0.124 C 
BRANCH   9  10
ATOM     10  C   UNL A   1      32.007  22.630  25.432  1.00  0.00     0.026 C 
BRANCH  10  11
ATOM     11  C   UNL A   1      32.409  24.135  25.452  1.00  0.00     0.032 C 
ATOM     12  C   UNL A   1      30.399  28.514  23.460  1.00  0.00     0.119 A 
ATOM     13  C   UNL A   1      30.829  27.761  22.371  1.00  0.00     0.047 A 
ATOM     14  C   UNL A   1      30.649  28.060  24.767  1.00  0.00     0.050 A 
ATOM     15  C   UNL A   1      31.478  26.553  22.587  1.00  0.00     0.016 A 
ATOM     16  C   UNL A   1      31.318  26.853  24.996  1.00  0.00    -0.033 A 
ATOM     17  C   UNL A   1      31.690  26.090  23.892  1.00  0.00     0.022 A 
ATOM     18  C   UNL A   1      31.708  26.416  26.380  1.00  0.00     0.037 C 
ATOM     19  C   UNL A   1      32.331  24.776  24.074  1.00  0.00     0.169 C 
ATOM     20  C   UNL A   1      31.583  24.902  26.501  1.00  0.00     0.020 C 
ATOM     21  O   UNL A   1      32.863  24.268  23.096  1.00  0.00    -0.294 OA
ATOM     22  C   UNL A   1      33.924  24.198  25.783  1.00  0.00     0.020 C 
BRANCH  12  23
ATOM     23  O   UNL A   1      29.782  29.731  23.371  1.00  0.00    -0.497 OA
ATOM     24  C   UNL A   1      28.454  29.735  22.855  1.00  0.00     0.278 C 
ENDBRANCH  12  23
ENDBRANCH  10  11
ENDBRANCH   9  10
ENDBRANCH   7   9
ENDBRANCH   6   7
ENDBRANCH   5   6
ENDBRANCH   4   5
ENDBRANCH   3   4
ENDBRANCH   2   3
ENDBRANCH   1   2
BRANCH   1  25
ATOM     25  O   UNL A   1      39.238  20.359  25.842  1.00  0.00    -0.377 OA
BRANCH  25  26
ATOM     26  C   UNL A   1      40.406  19.566  25.896  1.00  0.00     0.188 C 
BRANCH  26  27
ATOM     27  C   UNL A   1      41.220  19.912  27.144  1.00  0.00     0.188 C 
BRANCH  27  28
ATOM     28  O   UNL A   1      42.645  19.957  27.005  1.00  0.00    -0.376 OA
BRANCH  28  29
ATOM     29  C   UNL A   1      43.162  20.112  25.688  1.00  0.00     0.202 C 
BRANCH  29  30
ATOM     30  C   UNL A   1      43.681  21.538  25.396  1.00  0.00     0.261 C 
BRANCH  30  31
ATOM     31  O   UNL A   1      42.833  22.624  25.820  1.00  0.00    -0.460 OA
BRANCH  31  32
ATOM     32  C   UNL A   1      43.187  23.865  25.400  1.00  0.00     0.338 C 
ATOM     33  O   UNL A   1      43.883  24.162  24.450  1.00  0.00    -0.246 OA
BRANCH  32  34
ATOM     34  C   UNL A   1      42.555  24.875  26.287  1.00  0.00     0.060 A 
ATOM     35  C   UNL A   1      41.521  24.499  27.146  1.00  0.00     0.016 A 
ATOM     36  C   UNL A   1      43.063  26.180  26.334  1.00  0.00     0.016 A 
ATOM     37  C   UNL A   1      41.029  25.412  28.088  1.00  0.00     0.010 A 
ATOM     38  C   UNL A   1      42.556  27.101  27.266  1.00  0.00     0.010 A 
ATOM     39  C   UNL A   1      41.559  26.713  28.177  1.00  0.00    -0.014 A 
BRANCH  39  40
ATOM     40  C   UNL A   1      41.225  27.569  29.352  1.00  0.00     0.031 A 
ATOM     41  C   UNL A   1      42.057  27.617  30.598  1.00  0.00     0.074 A 
ATOM     42  C   UNL A   1      40.177  28.408  29.252  1.00  0.00     0.049 A 
ATOM     43  N   UNL A   1      41.796  28.177  31.757  1.00  0.00    -0.248 NA
ATOM     44  C   UNL A   1      43.369  26.974  30.524  1.00  0.00     0.031 C 
ATOM     45  C   UNL A   1      39.360  28.583  28.054  1.00  0.00     0.029 A 
ATOM     46  N   UNL A   1      39.662  29.306  30.151  1.00  0.00    -0.354 N 
ATOM     47  C   UNL A   1      42.865  27.854  32.589  1.00  0.00     0.074 A 
ATOM     48  C   UNL A   1      43.817  27.161  31.760  1.00  0.00     0.031 C 
ATOM     49  C   UNL A   1      38.491  29.581  28.267  1.00  0.00     0.029 A 
ATOM     50  C   UNL A   1      38.635  30.060  29.642  1.00  0.00     0.049 A 
ATOM     51  H   UNL A   1      39.997  29.402  31.072  1.00  0.00     0.167 HD
ATOM     52  C   UNL A   1      43.007  28.088  33.920  1.00  0.00     0.031 A 
ATOM     53  C   UNL A   1      37.890  31.027  30.212  1.00  0.00     0.031 A 
ATOM     54  C   UNL A   1      42.148  28.981  34.658  1.00  0.00     0.049 A 
ATOM     55  C   UNL A   1      38.149  31.425  31.639  1.00  0.00     0.074 A 
ATOM     56  C   UNL A   1      42.237  29.353  35.991  1.00  0.00     0.029 A 
ATOM     57  N   UNL A   1      41.105  29.706  34.109  1.00  0.00    -0.354 N 
ATOM     58  N   UNL A   1      39.042  30.951  32.473  1.00  0.00    -0.248 NA
ATOM     59  C   UNL A   1      37.304  32.486  32.206  1.00  0.00     0.031 C 
ATOM     60  C   UNL A   1      41.227  30.276  36.256  1.00  0.00     0.029 A 
ATOM     61  C   UNL A   1      40.564  30.541  35.069  1.00  0.00     0.049 A 
ATOM     62  H   UNL A   1      40.795  29.637  33.178  1.00  0.00     0.167 HD
ATOM     63  C   UNL A   1      38.870  31.659  33.658  1.00  0.00     0.074 A 
ATOM     64  C   UNL A   1      37.812  32.616  33.426  1.00  0.00     0.031 C 
ATOM     65  C   UNL A   1      39.526  31.509  34.832  1.00  0.00     0.031 A 
BRANCH  52  66
ATOM     66  C   UNL A   1      44.064  27.351  34.722  1.00  0.00    -0.014 A 
ATOM     67  C   UNL A   1      43.716  26.107  35.297  1.00  0.00     0.009 A 
ATOM     68  C   UNL A   1      45.328  27.873  35.016  1.00  0.00     0.009 A 
ATOM     69  C   UNL A   1      44.596  25.409  36.127  1.00  0.00     0.001 A 
ATOM     70  C   UNL A   1      46.229  27.152  35.814  1.00  0.00     0.001 A 
ATOM     71  C   UNL A   1      45.861  25.928  36.374  1.00  0.00     0.000 A 
ENDBRANCH  52  66
BRANCH  53  72
ATOM     72  C   UNL A   1      36.848  31.700  29.391  1.00  0.00    -0.014 A 
ATOM     73  C   UNL A   1      37.122  32.918  28.749  1.00  0.00     0.009 A 
ATOM     74  C   UNL A   1      35.548  31.179  29.331  1.00  0.00     0.009 A 
ATOM     75  C   UNL A   1      36.106  33.625  28.105  1.00  0.00     0.001 A 
ATOM     76  C   UNL A   1      34.542  31.869  28.651  1.00  0.00     0.001 A 
ATOM     77  C   UNL A   1      34.817  33.098  28.054  1.00  0.00     0.000 A 
ENDBRANCH  53  72
BRANCH  65  78
ATOM     78  C   UNL A   1      39.157  32.389  35.994  1.00  0.00    -0.014 A 
ATOM     79  C   UNL A   1      38.038  32.066  36.782  1.00  0.00     0.009 A 
ATOM     80  C   UNL A   1      39.784  33.628  36.179  1.00  0.00     0.009 A 
ATOM     81  C   UNL A   1      37.532  32.983  37.704  1.00  0.00     0.001 A 
ATOM     82  C   UNL A   1      39.292  34.533  37.121  1.00  0.00     0.001 A 
ATOM     83  C   UNL A   1      38.158  34.217  37.871  1.00  0.00     0.000 A 
ENDBRANCH  65  78
ENDBRANCH  39  40
ENDBRANCH  32  34
ENDBRANCH  31  32
ENDBRANCH  30  31
ENDBRANCH  29  30
ENDBRANCH  28  29
ENDBRANCH  27  28
ENDBRANCH  26  27
ENDBRANCH  25  26
ENDBRANCH   1  25
TORSDOF 23
ENDMDL
MODEL 2
REMARK VINA RESULT:      -9.2      1.750      6.301
REMARK SMILES COc1ccc2c(c1)CC[C@@](C)(CCC(=O)OCCOCCOCCOCCOC(=O)c1ccc(-c3c4nc(c(-c5ccccc5)c5ccc([nH]5)c(-c5ccccc5)c5nc(c(-c6ccccc6)c6ccc3[nH]6)C=C5)C=C4)cc1)C2=O
REMARK SMILES IDX 22 1 21 2 20 3 19 4 18 5 17 6 15 7 16 8 14 9 13 10 11 11
REMARK SMILES IDX 3 12 4 13 8 14 5 15 7 16 6 17 9 18 80 19 10 20 81 21 12 22
REMARK SMILES IDX 2 23 1 24 23 25 24 26 25 27 26 28 27 29 28 30 29 31 30 32
REMARK SMILES IDX 31 33 32 34 33 35 79 36 34 37 78 38 35 39 36 40 37 41 72 42
REMARK SMILES IDX 38 43 77 44 71 45 73 46 39 47 76 48 70 49 69 50 40 52 62 53
REMARK SMILES IDX 47 54 61 55 48 56 51 57 60 58 74 59 49 60 50 61 59 63 75 64
REMARK SMILES IDX 52 65 41 66 42 67 46 68 43 69 45 70 44 71 63 72 64 73 68 74
REMARK SMILES IDX 65 75 67 76 66 77 53 78 54 79 58 80 55 81 57 82 56 83
REMARK H PARENT 73 51 51 62
REMARK Flexibility Score: inf
ROOT
ATOM      1  C   UNL A   1      35.760  21.853  26.016  1.00  0.00     0.188 C 
ENDROOT
BRANCH   1   2
ATOM      2  C   UNL A   1      34.804  22.888  26.629  1.00  0.00     0.188 C 
BRANCH   2   3
ATOM      3  O   UNL A   1      33.593  22.486  27.237  1.00  0.00    -0.376 OA
BRANCH   3   4
ATOM      4  C   UNL A   1      32.543  21.846  26.526  1.00  0.00     0.202 C 
BRANCH   4   5
ATOM      5  C   UNL A   1      32.049  22.310  25.154  1.00  0.00     0.261 C 
BRANCH   5   6
ATOM      6  O   UNL A   1      32.806  21.814  24.034  1.00  0.00    -0.463 OA
BRANCH   6   7
ATOM      7  C   UNL A   1      33.269  22.761  23.186  1.00  0.00     0.305 C 
ATOM      8  O   UNL A   1      34.459  22.948  22.948  1.00  0.00    -0.252 OA
BRANCH   7   9
ATOM      9  C   UNL A   1      32.214  23.661  22.580  1.00  0.00     0.124 C 
BRANCH   9  10
ATOM     10  C   UNL A   1      32.345  25.188  22.513  1.00  0.00     0.026 C 
BRANCH  10  11
ATOM     11  C   UNL A   1      31.515  26.107  23.458  1.00  0.00     0.032 C 
ATOM     12  C   UNL A   1      32.606  30.164  26.546  1.00  0.00     0.119 A 
ATOM     13  C   UNL A   1      33.232  29.064  27.125  1.00  0.00     0.047 A 
ATOM     14  C   UNL A   1      31.793  29.990  25.413  1.00  0.00     0.050 A 
ATOM     15  C   UNL A   1      33.067  27.807  26.560  1.00  0.00     0.016 A 
ATOM     16  C   UNL A   1      31.605  28.725  24.846  1.00  0.00    -0.033 A 
ATOM     17  C   UNL A   1      32.285  27.647  25.410  1.00  0.00     0.022 A 
ATOM     18  C   UNL A   1      30.640  28.499  23.718  1.00  0.00     0.037 C 
ATOM     19  C   UNL A   1      32.184  26.305  24.811  1.00  0.00     0.169 C 
ATOM     20  C   UNL A   1      31.191  27.443  22.766  1.00  0.00     0.020 C 
ATOM     21  O   UNL A   1      32.583  25.359  25.477  1.00  0.00    -0.294 OA
ATOM     22  C   UNL A   1      30.217  25.337  23.819  1.00  0.00     0.020 C 
BRANCH  12  23
ATOM     23  O   UNL A   1      32.668  31.440  27.032  1.00  0.00    -0.497 OA
ATOM     24  C   UNL A   1      31.503  32.244  26.859  1.00  0.00     0.278 C 
ENDBRANCH  12  23
ENDBRANCH  10  11
ENDBRANCH   9  10
ENDBRANCH   7   9
ENDBRANCH   6   7
ENDBRANCH   5   6
ENDBRANCH   4   5
ENDBRANCH   3   4
ENDBRANCH   2   3
ENDBRANCH   1   2
BRANCH   1  25
ATOM     25  O   UNL A   1      37.131  22.084  25.799  1.00  0.00    -0.377 OA
BRANCH  25  26
ATOM     26  C   UNL A   1      37.885  21.170  25.029  1.00  0.00     0.188 C 
BRANCH  26  27
ATOM     27  C   UNL A   1      39.137  20.744  25.798  1.00  0.00     0.188 C 
BRANCH  27  28
ATOM     28  O   UNL A   1      39.727  21.710  26.676  1.00  0.00    -0.376 OA
BRANCH  28  29
ATOM     29  C   UNL A   1      41.147  21.717  26.770  1.00  0.00     0.202 C 
BRANCH  29  30
ATOM     30  C   UNL A   1      41.810  22.855  25.960  1.00  0.00     0.261 C 
BRANCH  30  31
ATOM     31  O   UNL A   1      42.111  24.062  26.688  1.00  0.00    -0.460 OA
BRANCH  31  32
ATOM     32  C   UNL A   1      41.961  25.229  26.011  1.00  0.00     0.338 C 
ATOM     33  O   UNL A   1      42.222  25.455  24.847  1.00  0.00    -0.246 OA
BRANCH  32  34
ATOM     34  C   UNL A   1      41.376  26.246  26.922  1.00  0.00     0.060 A 
ATOM     35  C   UNL A   1      40.582  25.844  27.997  1.00  0.00     0.016 A 
ATOM     36  C   UNL A   1      41.704  27.599  26.762  1.00  0.00     0.016 A 
ATOM     37  C   UNL A   1      40.158  26.788  28.942  1.00  0.00     0.010 A 
ATOM     38  C   UNL A   1      41.262  28.547  27.700  1.00  0.00     0.010 A 
ATOM     39  C   UNL A   1      40.514  28.144  28.819  1.00  0.00    -0.014 A 
BRANCH  39  40
ATOM     40  C   UNL A   1      40.296  29.074  29.965  1.00  0.00     0.031 A 
ATOM     41  C   UNL A   1      39.131  30.014  30.051  1.00  0.00     0.074 A 
ATOM     42  C   UNL A   1      41.135  28.999  31.014  1.00  0.00     0.049 A 
ATOM     43  N   UNL A   1      38.909  30.994  30.895  1.00  0.00    -0.248 NA
ATOM     44  C   UNL A   1      38.061  29.808  29.075  1.00  0.00     0.031 C 
ATOM     45  C   UNL A   1      42.225  28.036  31.144  1.00  0.00     0.029 A 
ATOM     46  N   UNL A   1      41.160  29.705  32.190  1.00  0.00    -0.354 N 
ATOM     47  C   UNL A   1      37.724  31.598  30.480  1.00  0.00     0.074 A 
ATOM     48  C   UNL A   1      37.229  30.793  29.394  1.00  0.00     0.031 C 
ATOM     49  C   UNL A   1      42.770  28.165  32.362  1.00  0.00     0.029 A 
ATOM     50  C   UNL A   1      42.121  29.269  33.067  1.00  0.00     0.049 A 
ATOM     51  H   UNL A   1      40.548  30.450  32.387  1.00  0.00     0.167 HD
ATOM     52  C   UNL A   1      37.139  32.732  30.947  1.00  0.00     0.031 A 
ATOM     53  C   UNL A   1      42.448  29.706  34.299  1.00  0.00     0.031 A 
ATOM     54  C   UNL A   1      37.535  33.374  32.176  1.00  0.00     0.049 A 
ATOM     55  C   UNL A   1      41.691  30.855  34.908  1.00  0.00     0.074 A 
ATOM     56  C   UNL A   1      36.972  34.483  32.787  1.00  0.00     0.029 A 
ATOM     57  N   UNL A   1      38.529  32.913  33.022  1.00  0.00    -0.354 N 
ATOM     58  N   UNL A   1      40.700  31.545  34.400  1.00  0.00    -0.248 NA
ATOM     59  C   UNL A   1      42.093  31.287  36.255  1.00  0.00     0.031 C 
ATOM     60  C   UNL A   1      37.647  34.714  33.984  1.00  0.00     0.029 A 
ATOM     61  C   UNL A   1      38.572  33.699  34.159  1.00  0.00     0.049 A 
ATOM     62  H   UNL A   1      39.116  32.144  32.842  1.00  0.00     0.167 HD
ATOM     63  C   UNL A   1      40.357  32.486  35.364  1.00  0.00     0.074 A 
ATOM     64  C   UNL A   1      41.222  32.259  36.500  1.00  0.00     0.031 C 
ATOM     65  C   UNL A   1      39.418  33.458  35.298  1.00  0.00     0.031 A 
BRANCH  52  66
ATOM     66  C   UNL A   1      36.057  33.427  30.140  1.00  0.00    -0.014 A 
ATOM     67  C   UNL A   1      34.825  33.700  30.776  1.00  0.00     0.009 A 
ATOM     68  C   UNL A   1      36.164  33.719  28.776  1.00  0.00     0.009 A 
ATOM     69  C   UNL A   1      33.745  34.248  30.082  1.00  0.00     0.001 A 
ATOM     70  C   UNL A   1      35.095  34.310  28.088  1.00  0.00     0.001 A 
ATOM     71  C   UNL A   1      33.886  34.567  28.736  1.00  0.00     0.000 A 
ENDBRANCH  52  66
BRANCH  53  72
ATOM     72  C   UNL A   1      43.533  29.008  35.037  1.00  0.00    -0.014 A 
ATOM     73  C   UNL A   1      43.232  27.990  35.956  1.00  0.00     0.009 A 
ATOM     74  C   UNL A   1      44.865  29.426  34.901  1.00  0.00     0.009 A 
ATOM     75  C   UNL A   1      44.231  27.439  36.758  1.00  0.00     0.001 A 
ATOM     76  C   UNL A   1      45.870  28.844  35.677  1.00  0.00     0.001 A 
ATOM     77  C   UNL A   1      45.551  27.865  36.615  1.00  0.00     0.000 A 
ENDBRANCH  53  72
BRANCH  65  78
ATOM     78  C   UNL A   1      39.231  34.378  36.472  1.00  0.00    -0.014 A 
ATOM     79  C   UNL A   1      39.911  35.608  36.506  1.00  0.00     0.009 A 
ATOM     80  C   UNL A   1      38.556  33.942  37.621  1.00  0.00     0.009 A 
ATOM     81  C   UNL A   1      39.950  36.364  37.678  1.00  0.00     0.001 A 
ATOM     82  C   UNL A   1      38.575  34.713  38.784  1.00  0.00     0.001 A 
ATOM     83  C   UNL A   1      39.284  35.915  38.818  1.00  0.00     0.000 A 
ENDBRANCH  65  78
ENDBRANCH  39  40
ENDBRANCH  32  34
ENDBRANCH  31  32
ENDBRANCH  30  31
ENDBRANCH  29  30
ENDBRANCH  28  29
ENDBRANCH  27  28
ENDBRANCH  26  27
ENDBRANCH  25  26
ENDBRANCH   1  25
TORSDOF 23
ENDMDL
MODEL 3
REMARK VINA RESULT:      -8.7      6.701     10.214
REMARK SMILES COc1ccc2c(c1)CC[C@@](C)(CCC(=O)OCCOCCOCCOCCOC(=O)c1ccc(-c3c4nc(c(-c5ccccc5)c5ccc([nH]5)c(-c5ccccc5)c5nc(c(-c6ccccc6)c6ccc3[nH]6)C=C5)C=C4)cc1)C2=O
REMARK SMILES IDX 22 1 21 2 20 3 19 4 18 5 17 6 15 7 16 8 14 9 13 10 11 11
REMARK SMILES IDX 3 12 4 13 8 14 5 15 7 16 6 17 9 18 80 19 10 20 81 21 12 22
REMARK SMILES IDX 2 23 1 24 23 25 24 26 25 27 26 28 27 29 28 30 29 31 30 32
REMARK SMILES IDX 31 33 32 34 33 35 79 36 34 37 78 38 35 39 36 40 37 41 72 42
REMARK SMILES IDX 38 43 77 44 71 45 73 46 39 47 76 48 70 49 69 50 40 52 62 53
REMARK SMILES IDX 47 54 61 55 48 56 51 57 60 58 74 59 49 60 50 61 59 63 75 64
REMARK SMILES IDX 52 65 41 66 42 67 46 68 43 69 45 70 44 71 63 72 64 73 68 74
REMARK SMILES IDX 65 75 67 76 66 77 53 78 54 79 58 80 55 81 57 82 56 83
REMARK H PARENT 73 51 51 62
REMARK Flexibility Score: inf
ROOT
ATOM      1  C   UNL A   1      36.227  20.064  24.816  1.00  0.00     0.188 C 
ENDROOT
BRANCH   1   2
ATOM      2  C   UNL A   1      35.986  18.550  24.703  1.00  0.00     0.188 C 
BRANCH   2   3
ATOM      3  O   UNL A   1      34.701  18.041  24.410  1.00  0.00    -0.376 OA
BRANCH   3   4
ATOM      4  C   UNL A   1      33.572  18.871  24.174  1.00  0.00     0.202 C 
BRANCH   4   5
ATOM      5  C   UNL A   1      32.697  19.441  25.293  1.00  0.00     0.261 C 
BRANCH   5   6
ATOM      6  O   UNL A   1      33.276  20.544  26.015  1.00  0.00    -0.463 OA
BRANCH   6   7
ATOM      7  C   UNL A   1      32.593  21.710  25.932  1.00  0.00     0.305 C 
ATOM      8  O   UNL A   1      31.412  21.792  25.604  1.00  0.00    -0.252 OA
BRANCH   7   9
ATOM      9  C   UNL A   1      33.405  22.958  26.199  1.00  0.00     0.124 C 
BRANCH   9  10
ATOM     10  C   UNL A   1      32.776  24.331  26.470  1.00  0.00     0.026 C 
BRANCH  10  11
ATOM     11  C   UNL A   1      33.007  25.526  25.498  1.00  0.00     0.032 C 
ATOM     12  C   UNL A   1      30.000  29.290  23.504  1.00  0.00     0.119 A 
ATOM     13  C   UNL A   1      29.545  28.101  22.944  1.00  0.00     0.047 A 
ATOM     14  C   UNL A   1      31.133  29.284  24.337  1.00  0.00     0.050 A 
ATOM     15  C   UNL A   1      30.199  26.912  23.236  1.00  0.00     0.016 A 
ATOM     16  C   UNL A   1      31.812  28.094  24.622  1.00  0.00    -0.033 A 
ATOM     17  C   UNL A   1      31.305  26.907  24.095  1.00  0.00     0.022 A 
ATOM     18  C   UNL A   1      33.096  28.083  25.401  1.00  0.00     0.037 C 
ATOM     19  C   UNL A   1      31.934  25.616  24.423  1.00  0.00     0.169 C 
ATOM     20  C   UNL A   1      33.158  26.842  26.283  1.00  0.00     0.020 C 
ATOM     21  O   UNL A   1      31.618  24.648  23.744  1.00  0.00    -0.294 OA
ATOM     22  C   UNL A   1      34.292  25.212  24.686  1.00  0.00     0.020 C 
BRANCH  12  23
ATOM     23  O   UNL A   1      29.459  30.523  23.264  1.00  0.00    -0.497 OA
ATOM     24  C   UNL A   1      28.737  30.674  22.044  1.00  0.00     0.278 C 
ENDBRANCH  12  23
ENDBRANCH  10  11
ENDBRANCH   9  10
ENDBRANCH   7   9
ENDBRANCH   6   7
ENDBRANCH   5   6
ENDBRANCH   4   5
ENDBRANCH   3   4
ENDBRANCH   2   3
ENDBRANCH   1   2
BRANCH   1  25
ATOM     25  O   UNL A   1      37.497  20.646  24.980  1.00  0.00    -0.377 OA
BRANCH  25  26
ATOM     26  C   UNL A   1      37.633  21.844  25.716  1.00  0.00     0.188 C 
BRANCH  26  27
ATOM     27  C   UNL A   1      39.074  22.001  26.204  1.00  0.00     0.188 C 
BRANCH  27  28
ATOM     28  O   UNL A   1      39.870  20.812  26.290  1.00  0.00    -0.376 OA
BRANCH  28  29
ATOM     29  C   UNL A   1      40.931  20.812  27.238  1.00  0.00     0.202 C 
BRANCH  29  30
ATOM     30  C   UNL A   1      41.235  22.211  27.820  1.00  0.00     0.261 C 
BRANCH  30  31
ATOM     31  O   UNL A   1      42.225  22.990  27.121  1.00  0.00    -0.460 OA
BRANCH  31  32
ATOM     32  C   UNL A   1      41.894  24.277  26.841  1.00  0.00     0.338 C 
ATOM     33  O   UNL A   1      40.783  24.756  26.739  1.00  0.00    -0.246 OA
BRANCH  32  34
ATOM     34  C   UNL A   1      43.137  25.076  26.691  1.00  0.00     0.060 A 
ATOM     35  C   UNL A   1      43.459  25.640  25.456  1.00  0.00     0.016 A 
ATOM     36  C   UNL A   1      43.933  25.346  27.812  1.00  0.00     0.016 A 
ATOM     37  C   UNL A   1      44.547  26.517  25.352  1.00  0.00     0.010 A 
ATOM     38  C   UNL A   1      45.036  26.210  27.702  1.00  0.00     0.010 A 
ATOM     39  C   UNL A   1      45.330  26.833  26.478  1.00  0.00    -0.014 A 
BRANCH  39  40
ATOM     40  C   UNL A   1      46.297  27.967  26.412  1.00  0.00     0.031 A 
ATOM     41  C   UNL A   1      45.913  29.392  26.675  1.00  0.00     0.074 A 
ATOM     42  C   UNL A   1      47.595  27.686  26.196  1.00  0.00     0.049 A 
ATOM     43  N   UNL A   1      46.602  30.492  26.485  1.00  0.00    -0.248 NA
ATOM     44  C   UNL A   1      44.588  29.607  27.256  1.00  0.00     0.031 C 
ATOM     45  C   UNL A   1      48.147  26.339  26.067  1.00  0.00     0.029 A 
ATOM     46  N   UNL A   1      48.686  28.512  26.107  1.00  0.00    -0.354 N 
ATOM     47  C   UNL A   1      45.749  31.542  26.816  1.00  0.00     0.074 A 
ATOM     48  C   UNL A   1      44.550  30.932  27.329  1.00  0.00     0.031 C 
ATOM     49  C   UNL A   1      49.482  26.427  25.985  1.00  0.00     0.029 A 
ATOM     50  C   UNL A   1      49.873  27.836  25.976  1.00  0.00     0.049 A 
ATOM     51  H   UNL A   1      48.624  29.494  26.136  1.00  0.00     0.167 HD
ATOM     52  C   UNL A   1      45.948  32.879  26.667  1.00  0.00     0.031 A 
ATOM     53  C   UNL A   1      51.135  28.293  25.860  1.00  0.00     0.031 A 
ATOM     54  C   UNL A   1      47.237  33.455  26.372  1.00  0.00     0.049 A 
ATOM     55  C   UNL A   1      51.395  29.775  25.869  1.00  0.00     0.074 A 
ATOM     56  C   UNL A   1      47.577  34.795  26.269  1.00  0.00     0.029 A 
ATOM     57  N   UNL A   1      48.409  32.733  26.224  1.00  0.00    -0.354 N 
ATOM     58  N   UNL A   1      50.535  30.758  25.978  1.00  0.00    -0.248 NA
ATOM     59  C   UNL A   1      52.792  30.214  25.739  1.00  0.00     0.031 C 
ATOM     60  C   UNL A   1      48.946  34.882  26.024  1.00  0.00     0.029 A 
ATOM     61  C   UNL A   1      49.471  33.601  26.059  1.00  0.00     0.049 A 
ATOM     62  H   UNL A   1      48.475  31.751  26.233  1.00  0.00     0.167 HD
ATOM     63  C   UNL A   1      51.286  31.928  25.936  1.00  0.00     0.074 A 
ATOM     64  C   UNL A   1      52.673  31.534  25.824  1.00  0.00     0.031 C 
ATOM     65  C   UNL A   1      50.853  33.209  25.971  1.00  0.00     0.031 A 
BRANCH  52  66
ATOM     66  C   UNL A   1      44.778  33.843  26.743  1.00  0.00    -0.014 A 
ATOM     67  C   UNL A   1      43.999  34.037  25.580  1.00  0.00     0.009 A 
ATOM     68  C   UNL A   1      44.486  34.632  27.861  1.00  0.00     0.009 A 
ATOM     69  C   UNL A   1      42.966  34.974  25.535  1.00  0.00     0.001 A 
ATOM     70  C   UNL A   1      43.421  35.543  27.831  1.00  0.00     0.001 A 
ATOM     71  C   UNL A   1      42.668  35.720  26.669  1.00  0.00     0.000 A 
ENDBRANCH  52  66
BRANCH  53  72
ATOM     72  C   UNL A   1      52.243  27.307  25.761  1.00  0.00    -0.014 A 
ATOM     73  C   UNL A   1      52.386  26.508  24.616  1.00  0.00     0.009 A 
ATOM     74  C   UNL A   1      53.098  27.090  26.851  1.00  0.00     0.009 A 
ATOM     75  C   UNL A   1      53.329  25.480  24.581  1.00  0.00     0.001 A 
ATOM     76  C   UNL A   1      54.068  26.086  26.798  1.00  0.00     0.001 A 
ATOM     77  C   UNL A   1      54.171  25.272  25.672  1.00  0.00     0.000 A 
ENDBRANCH  53  72
BRANCH  65  78
ATOM     78  C   UNL A   1      51.859  34.324  25.898  1.00  0.00    -0.014 A 
ATOM     79  C   UNL A   1      52.442  34.812  27.081  1.00  0.00     0.009 A 
ATOM     80  C   UNL A   1      52.069  35.019  24.699  1.00  0.00     0.009 A 
ATOM     81  C   UNL A   1      53.184  35.993  27.070  1.00  0.00     0.001 A 
ATOM     82  C   UNL A   1      52.834  36.187  24.687  1.00  0.00     0.001 A 
ATOM     83  C   UNL A   1      53.377  36.682  25.874  1.00  0.00     0.000 A 
ENDBRANCH  65  78
ENDBRANCH  39  40
ENDBRANCH  32  34
ENDBRANCH  31  32
ENDBRANCH  30  31
ENDBRANCH  29  30
ENDBRANCH  28  29
ENDBRANCH  27  28
ENDBRANCH  26  27
ENDBRANCH  25  26
ENDBRANCH   1  25
TORSDOF 23
ENDMDL
