MODEL 1
REMARK VINA RESULT:      -8.8      0.000      0.000
REMARK SMILES NS(=O)(=O)c1ccc(-n2nc(C(F)(F)F)cc2-c2ccc(CC(=O)OCCOCCOCCOCCOC(=O)c3ccc(-c4c5nc(c(-c6ccccc6)c6ccc([nH]6)c(-c6ccccc6)c6nc(c(-c7ccccc7)c7ccc4[nH]7)C=C6)C=C5)cc3)cc2)cc1
REMARK SMILES IDX 29 1 28 2 27 3 26 4 25 5 23 6 24 7 22 8 21 9 18 10 19 11
REMARK SMILES IDX 89 12 20 13 88 14 17 15 9 16 10 17 11 18 16 19 8 20 5 21
REMARK SMILES IDX 6 22 91 23 7 24 90 25 2 26 3 27 4 28 1 29 12 32 13 33 14 34
REMARK SMILES IDX 15 35 30 36 31 37 32 38 33 39 34 40 35 41 36 42 37 43 38 44
REMARK SMILES IDX 39 45 40 46 41 47 87 48 42 49 86 50 43 51 44 52 45 53 80 54
REMARK SMILES IDX 46 55 85 56 79 57 81 58 47 59 84 60 78 61 77 62 48 64 70 65
REMARK SMILES IDX 55 66 69 67 56 68 59 69 68 70 82 71 57 72 58 73 67 75 83 76
REMARK SMILES IDX 60 77 49 78 50 79 54 80 51 81 53 82 52 83 71 84 72 85 76 86
REMARK SMILES IDX 73 87 75 88 74 89 61 90 62 91 66 92 63 93 65 94 64 95
REMARK H PARENT 1 30 1 31 81 63 59 74
REMARK Flexibility Score: inf
ROOT
ATOM      1  C   UNL A   1      33.122  24.244  24.687  1.00  0.00     0.188 C 
ENDROOT
BRANCH   1   2
ATOM      2  O   UNL A   1      33.274  23.448  23.517  1.00  0.00    -0.376 OA
BRANCH   2   3
ATOM      3  C   UNL A   1      34.560  23.196  22.976  1.00  0.00     0.202 C 
BRANCH   3   4
ATOM      4  C   UNL A   1      35.565  22.390  23.820  1.00  0.00     0.261 C 
BRANCH   4   5
ATOM      5  O   UNL A   1      36.636  23.152  24.409  1.00  0.00    -0.463 OA
BRANCH   5   6
ATOM      6  C   UNL A   1      36.498  23.433  25.723  1.00  0.00     0.310 C 
ATOM      7  O   UNL A   1      35.618  22.959  26.437  1.00  0.00    -0.252 OA
BRANCH   6   8
ATOM      8  C   UNL A   1      37.530  24.393  26.278  1.00  0.00     0.158 C 
BRANCH   8   9
ATOM      9  C   UNL A   1      38.946  23.955  26.631  1.00  0.00    -0.037 A 
ATOM     10  C   UNL A   1      41.678  23.103  26.782  1.00  0.00     0.000 A 
ATOM     11  C   UNL A   1      41.351  24.461  26.702  1.00  0.00     0.010 A 
ATOM     12  C   UNL A   1      40.613  22.185  26.845  1.00  0.00     0.010 A 
ATOM     13  C   UNL A   1      40.008  24.880  26.630  1.00  0.00     0.005 A 
ATOM     14  C   UNL A   1      39.270  22.603  26.780  1.00  0.00     0.005 A 
BRANCH  10  15
ATOM     15  C   UNL A   1      43.064  22.618  26.597  1.00  0.00     0.075 A 
ATOM     16  N   UNL A   1      44.218  22.869  27.356  1.00  0.00    -0.233 N 
ATOM     17  N   UNL A   1      45.336  22.406  26.729  1.00  0.00    -0.163 NA
ATOM     18  C   UNL A   1      44.917  21.792  25.615  1.00  0.00     0.167 A 
ATOM     19  C   UNL A   1      43.517  21.913  25.488  1.00  0.00     0.064 A 
BRANCH  16  20
ATOM     20  C   UNL A   1      44.401  23.462  28.644  1.00  0.00     0.065 A 
ATOM     21  C   UNL A   1      44.705  24.576  31.236  1.00  0.00     0.082 A 
ATOM     22  C   UNL A   1      45.210  25.203  30.096  1.00  0.00     0.024 A 
ATOM     23  C   UNL A   1      44.060  23.353  31.080  1.00  0.00     0.024 A 
ATOM     24  C   UNL A   1      45.056  24.672  28.806  1.00  0.00     0.030 A 
ATOM     25  C   UNL A   1      43.879  22.820  29.791  1.00  0.00     0.030 A 
BRANCH  21  26
ATOM     26  S   UNL A   1      44.977  25.262  32.863  1.00  0.00     0.238 S 
ATOM     27  O   UNL A   1      44.348  24.411  33.847  1.00  0.00    -0.207 OA
ATOM     28  O   UNL A   1      44.705  26.673  32.804  1.00  0.00    -0.207 OA
BRANCH  26  29
ATOM     29  N   UNL A   1      46.598  25.058  33.242  1.00  0.00    -0.225 NA
ATOM     30  H   UNL A   1      46.818  24.062  33.270  1.00  0.00     0.137 HD
ATOM     31  H   UNL A   1      46.789  25.475  34.153  1.00  0.00     0.137 HD
ENDBRANCH  26  29
ENDBRANCH  21  26
ENDBRANCH  16  20
BRANCH  18  32
ATOM     32  C   UNL A   1      45.856  21.096  24.664  1.00  0.00     0.435 C 
ATOM     33  F   UNL A   1      46.625  21.952  23.940  1.00  0.00    -0.164 F 
ATOM     34  F   UNL A   1      46.706  20.263  25.323  1.00  0.00    -0.164 F 
ATOM     35  F   UNL A   1      45.184  20.325  23.765  1.00  0.00    -0.164 F 
ENDBRANCH  18  32
ENDBRANCH  10  15
ENDBRANCH   8   9
ENDBRANCH   6   8
ENDBRANCH   5   6
ENDBRANCH   4   5
ENDBRANCH   3   4
ENDBRANCH   2   3
ENDBRANCH   1   2
BRANCH   1  36
ATOM     36  C   UNL A   1      32.014  25.316  24.814  1.00  0.00     0.188 C 
BRANCH  36  37
ATOM     37  O   UNL A   1      31.716  26.014  23.622  1.00  0.00    -0.377 OA
BRANCH  37  38
ATOM     38  C   UNL A   1      30.567  26.840  23.548  1.00  0.00     0.188 C 
BRANCH  38  39
ATOM     39  C   UNL A   1      30.575  28.290  24.063  1.00  0.00     0.188 C 
BRANCH  39  40
ATOM     40  O   UNL A   1      31.687  28.667  24.841  1.00  0.00    -0.376 OA
BRANCH  40  41
ATOM     41  C   UNL A   1      31.546  29.537  25.937  1.00  0.00     0.202 C 
BRANCH  41  42
ATOM     42  C   UNL A   1      32.640  29.715  26.975  1.00  0.00     0.261 C 
BRANCH  42  43
ATOM     43  O   UNL A   1      33.797  30.491  26.637  1.00  0.00    -0.460 OA
BRANCH  43  44
ATOM     44  C   UNL A   1      34.248  31.270  27.667  1.00  0.00     0.338 C 
ATOM     45  O   UNL A   1      33.845  32.389  27.937  1.00  0.00    -0.246 OA
BRANCH  44  46
ATOM     46  C   UNL A   1      35.478  30.676  28.242  1.00  0.00     0.060 A 
ATOM     47  C   UNL A   1      36.334  31.554  28.909  1.00  0.00     0.016 A 
ATOM     48  C   UNL A   1      35.898  29.374  27.950  1.00  0.00     0.016 A 
ATOM     49  C   UNL A   1      37.661  31.195  29.117  1.00  0.00     0.010 A 
ATOM     50  C   UNL A   1      37.243  29.029  28.129  1.00  0.00     0.010 A 
ATOM     51  C   UNL A   1      38.143  29.962  28.652  1.00  0.00    -0.014 A 
BRANCH  51  52
ATOM     52  C   UNL A   1      39.538  29.627  28.956  1.00  0.00     0.031 A 
ATOM     53  C   UNL A   1      39.794  29.461  30.395  1.00  0.00     0.074 A 
ATOM     54  C   UNL A   1      40.587  29.441  28.129  1.00  0.00     0.049 A 
ATOM     55  N   UNL A   1      40.368  30.307  31.180  1.00  0.00    -0.248 NA
ATOM     56  C   UNL A   1      39.262  28.257  31.041  1.00  0.00     0.031 C 
ATOM     57  C   UNL A   1      40.563  29.227  26.698  1.00  0.00     0.029 A 
ATOM     58  N   UNL A   1      41.925  29.349  28.421  1.00  0.00    -0.354 N 
ATOM     59  C   UNL A   1      40.442  29.662  32.401  1.00  0.00     0.074 A 
ATOM     60  C   UNL A   1      39.598  28.493  32.308  1.00  0.00     0.031 C 
ATOM     61  C   UNL A   1      41.790  28.915  26.239  1.00  0.00     0.029 A 
ATOM     62  C   UNL A   1      42.717  28.946  27.350  1.00  0.00     0.049 A 
ATOM     63  H   UNL A   1      42.293  29.551  29.312  1.00  0.00     0.167 HD
ATOM     64  C   UNL A   1      41.397  29.970  33.315  1.00  0.00     0.031 A 
ATOM     65  C   UNL A   1      44.029  28.605  27.356  1.00  0.00     0.031 A 
ATOM     66  C   UNL A   1      42.031  31.237  33.067  1.00  0.00     0.049 A 
ATOM     67  C   UNL A   1      44.647  29.193  28.561  1.00  0.00     0.074 A 
ATOM     68  C   UNL A   1      41.586  32.531  32.872  1.00  0.00     0.029 A 
ATOM     69  N   UNL A   1      43.343  31.233  32.657  1.00  0.00    -0.354 N 
ATOM     70  N   UNL A   1      44.918  30.458  28.697  1.00  0.00    -0.248 NA
ATOM     71  C   UNL A   1      44.655  28.417  29.791  1.00  0.00     0.031 C 
ATOM     72  C   UNL A   1      42.496  33.109  31.939  1.00  0.00     0.029 A 
ATOM     73  C   UNL A   1      43.452  32.140  31.633  1.00  0.00     0.049 A 
ATOM     74  H   UNL A   1      44.069  30.681  33.028  1.00  0.00     0.167 HD
ATOM     75  C   UNL A   1      44.703  30.721  30.040  1.00  0.00     0.074 A 
ATOM     76  C   UNL A   1      44.676  29.411  30.681  1.00  0.00     0.031 C 
ATOM     77  C   UNL A   1      44.281  31.949  30.463  1.00  0.00     0.031 A 
BRANCH  64  78
ATOM     78  C   UNL A   1      41.993  28.917  34.203  1.00  0.00    -0.014 A 
ATOM     79  C   UNL A   1      41.618  27.578  34.029  1.00  0.00     0.009 A 
ATOM     80  C   UNL A   1      42.732  29.232  35.363  1.00  0.00     0.009 A 
ATOM     81  C   UNL A   1      41.959  26.608  34.978  1.00  0.00     0.001 A 
ATOM     82  C   UNL A   1      43.121  28.260  36.282  1.00  0.00     0.001 A 
ATOM     83  C   UNL A   1      42.717  26.947  36.098  1.00  0.00     0.000 A 
ENDBRANCH  64  78
BRANCH  65  84
ATOM     84  C   UNL A   1      44.751  27.671  26.458  1.00  0.00    -0.014 A 
ATOM     85  C   UNL A   1      46.151  27.703  26.361  1.00  0.00     0.009 A 
ATOM     86  C   UNL A   1      44.090  26.578  25.864  1.00  0.00     0.009 A 
ATOM     87  C   UNL A   1      46.858  26.666  25.734  1.00  0.00     0.001 A 
ATOM     88  C   UNL A   1      44.791  25.555  25.220  1.00  0.00     0.001 A 
ATOM     89  C   UNL A   1      46.178  25.589  25.172  1.00  0.00     0.000 A 
ENDBRANCH  65  84
BRANCH  77  90
ATOM     90  C   UNL A   1      44.396  33.117  29.512  1.00  0.00    -0.014 A 
ATOM     91  C   UNL A   1      43.288  33.706  28.877  1.00  0.00     0.009 A 
ATOM     92  C   UNL A   1      45.650  33.728  29.354  1.00  0.00     0.009 A 
ATOM     93  C   UNL A   1      43.440  34.843  28.076  1.00  0.00     0.001 A 
ATOM     94  C   UNL A   1      45.798  34.879  28.575  1.00  0.00     0.001 A 
ATOM     95  C   UNL A   1      44.694  35.431  27.929  1.00  0.00     0.000 A 
ENDBRANCH  77  90
ENDBRANCH  51  52
ENDBRANCH  44  46
ENDBRANCH  43  44
ENDBRANCH  42  43
ENDBRANCH  41  42
ENDBRANCH  40  41
ENDBRANCH  39  40
ENDBRANCH  38  39
ENDBRANCH  37  38
ENDBRANCH  36  37
ENDBRANCH   1  36
TORSDOF 26
ENDMDL
MODEL 2
REMARK VINA RESULT:      -8.3      2.785      6.663
REMARK SMILES NS(=O)(=O)c1ccc(-n2nc(C(F)(F)F)cc2-c2ccc(CC(=O)OCCOCCOCCOCCOC(=O)c3ccc(-c4c5nc(c(-c6ccccc6)c6ccc([nH]6)c(-c6ccccc6)c6nc(c(-c7ccccc7)c7ccc4[nH]7)C=C6)C=C5)cc3)cc2)cc1
REMARK SMILES IDX 29 1 28 2 27 3 26 4 25 5 23 6 24 7 22 8 21 9 18 10 19 11
REMARK SMILES IDX 89 12 20 13 88 14 17 15 9 16 10 17 11 18 16 19 8 20 5 21
REMARK SMILES IDX 6 22 91 23 7 24 90 25 2 26 3 27 4 28 1 29 12 32 13 33 14 34
REMARK SMILES IDX 15 35 30 36 31 37 32 38 33 39 34 40 35 41 36 42 37 43 38 44
REMARK SMILES IDX 39 45 40 46 41 47 87 48 42 49 86 50 43 51 44 52 45 53 80 54
REMARK SMILES IDX 46 55 85 56 79 57 81 58 47 59 84 60 78 61 77 62 48 64 70 65
REMARK SMILES IDX 55 66 69 67 56 68 59 69 68 70 82 71 57 72 58 73 67 75 83 76
REMARK SMILES IDX 60 77 49 78 50 79 54 80 51 81 53 82 52 83 71 84 72 85 76 86
REMARK SMILES IDX 73 87 75 88 74 89 61 90 62 91 66 92 63 93 65 94 64 95
REMARK H PARENT 1 30 1 31 81 63 59 74
REMARK Flexibility Score: inf
ROOT
ATOM      1  C   UNL A   1      32.517  25.113  25.947  1.00  0.00     0.188 C 
ENDROOT
BRANCH   1   2
ATOM      2  O   UNL A   1      32.671  23.745  25.586  1.00  0.00    -0.376 OA
BRANCH   2   3
ATOM      3  C   UNL A   1      33.242  23.386  24.340  1.00  0.00     0.202 C 
BRANCH   3   4
ATOM      4  C   UNL A   1      34.660  23.892  24.011  1.00  0.00     0.261 C 
BRANCH   4   5
ATOM      5  O   UNL A   1      35.732  22.977  24.308  1.00  0.00    -0.463 OA
BRANCH   5   6
ATOM      6  C   UNL A   1      36.040  22.844  25.617  1.00  0.00     0.310 C 
ATOM      7  O   UNL A   1      35.443  22.099  26.389  1.00  0.00    -0.252 OA
BRANCH   6   8
ATOM      8  C   UNL A   1      37.206  23.691  26.083  1.00  0.00     0.158 C 
BRANCH   8   9
ATOM      9  C   UNL A   1      38.592  23.107  26.328  1.00  0.00    -0.037 A 
ATOM     10  C   UNL A   1      41.301  22.172  26.307  1.00  0.00     0.000 A 
ATOM     11  C   UNL A   1      40.992  23.473  26.720  1.00  0.00     0.010 A 
ATOM     12  C   UNL A   1      40.227  21.331  25.962  1.00  0.00     0.010 A 
ATOM     13  C   UNL A   1      39.660  23.931  26.733  1.00  0.00     0.005 A 
ATOM     14  C   UNL A   1      38.894  21.787  25.981  1.00  0.00     0.005 A 
BRANCH  10  15
ATOM     15  C   UNL A   1      42.692  21.746  26.035  1.00  0.00     0.075 A 
ATOM     16  N   UNL A   1      43.859  22.512  25.884  1.00  0.00    -0.233 N 
ATOM     17  N   UNL A   1      44.897  21.754  25.430  1.00  0.00    -0.163 NA
ATOM     18  C   UNL A   1      44.442  20.496  25.359  1.00  0.00     0.167 A 
ATOM     19  C   UNL A   1      43.076  20.450  25.711  1.00  0.00     0.064 A 
BRANCH  16  20
ATOM     20  C   UNL A   1      44.138  23.887  26.162  1.00  0.00     0.065 A 
ATOM     21  C   UNL A   1      44.694  26.630  26.622  1.00  0.00     0.082 A 
ATOM     22  C   UNL A   1      44.701  25.690  27.654  1.00  0.00     0.024 A 
ATOM     23  C   UNL A   1      44.376  26.195  25.340  1.00  0.00     0.024 A 
ATOM     24  C   UNL A   1      44.441  24.327  27.441  1.00  0.00     0.030 A 
ATOM     25  C   UNL A   1      44.135  24.828  25.108  1.00  0.00     0.030 A 
BRANCH  21  26
ATOM     26  S   UNL A   1      44.974  28.364  26.952  1.00  0.00     0.238 S 
ATOM     27  O   UNL A   1      45.280  29.039  25.713  1.00  0.00    -0.207 OA
ATOM     28  O   UNL A   1      45.838  28.467  28.098  1.00  0.00    -0.207 OA
BRANCH  26  29
ATOM     29  N   UNL A   1      43.498  29.056  27.347  1.00  0.00    -0.225 NA
ATOM     30  H   UNL A   1      42.749  28.388  27.167  1.00  0.00     0.137 HD
ATOM     31  H   UNL A   1      43.352  29.892  26.780  1.00  0.00     0.137 HD
ENDBRANCH  26  29
ENDBRANCH  21  26
ENDBRANCH  16  20
BRANCH  18  32
ATOM     32  C   UNL A   1      45.310  19.336  24.945  1.00  0.00     0.435 C 
ATOM     33  F   UNL A   1      46.590  19.695  24.661  1.00  0.00    -0.164 F 
ATOM     34  F   UNL A   1      45.373  18.388  25.918  1.00  0.00    -0.164 F 
ATOM     35  F   UNL A   1      44.826  18.715  23.835  1.00  0.00    -0.164 F 
ENDBRANCH  18  32
ENDBRANCH  10  15
ENDBRANCH   8   9
ENDBRANCH   6   8
ENDBRANCH   5   6
ENDBRANCH   4   5
ENDBRANCH   3   4
ENDBRANCH   2   3
ENDBRANCH   1   2
BRANCH   1  36
ATOM     36  C   UNL A   1      31.439  26.017  25.302  1.00  0.00     0.188 C 
BRANCH  36  37
ATOM     37  O   UNL A   1      31.829  26.648  24.099  1.00  0.00    -0.377 OA
BRANCH  37  38
ATOM     38  C   UNL A   1      32.936  27.533  24.084  1.00  0.00     0.188 C 
BRANCH  38  39
ATOM     39  C   UNL A   1      32.763  29.052  24.259  1.00  0.00     0.188 C 
BRANCH  39  40
ATOM     40  O   UNL A   1      31.563  29.476  24.862  1.00  0.00    -0.376 OA
BRANCH  40  41
ATOM     41  C   UNL A   1      31.572  30.360  25.957  1.00  0.00     0.202 C 
BRANCH  41  42
ATOM     42  C   UNL A   1      32.846  31.016  26.456  1.00  0.00     0.261 C 
BRANCH  42  43
ATOM     43  O   UNL A   1      33.457  30.522  27.655  1.00  0.00    -0.460 OA
BRANCH  43  44
ATOM     44  C   UNL A   1      34.735  30.069  27.466  1.00  0.00     0.338 C 
ATOM     45  O   UNL A   1      35.041  29.009  26.946  1.00  0.00    -0.246 OA
BRANCH  44  46
ATOM     46  C   UNL A   1      35.683  30.920  28.224  1.00  0.00     0.060 A 
ATOM     47  C   UNL A   1      36.999  30.460  28.300  1.00  0.00     0.016 A 
ATOM     48  C   UNL A   1      35.269  31.994  29.018  1.00  0.00     0.016 A 
ATOM     49  C   UNL A   1      37.841  30.948  29.293  1.00  0.00     0.010 A 
ATOM     50  C   UNL A   1      36.107  32.458  30.039  1.00  0.00     0.010 A 
ATOM     51  C   UNL A   1      37.371  31.889  30.221  1.00  0.00    -0.014 A 
BRANCH  51  52
ATOM     52  C   UNL A   1      38.331  32.400  31.205  1.00  0.00     0.031 A 
ATOM     53  C   UNL A   1      39.456  33.124  30.596  1.00  0.00     0.074 A 
ATOM     54  C   UNL A   1      38.323  32.315  32.551  1.00  0.00     0.049 A 
ATOM     55  N   UNL A   1      40.655  32.684  30.424  1.00  0.00    -0.248 NA
ATOM     56  C   UNL A   1      39.181  34.450  30.033  1.00  0.00     0.031 C 
ATOM     57  C   UNL A   1      37.216  31.957  33.413  1.00  0.00     0.029 A 
ATOM     58  N   UNL A   1      39.321  32.594  33.451  1.00  0.00    -0.354 N 
ATOM     59  C   UNL A   1      41.352  33.755  29.892  1.00  0.00     0.074 A 
ATOM     60  C   UNL A   1      40.370  34.743  29.509  1.00  0.00     0.031 C 
ATOM     61  C   UNL A   1      37.536  32.142  34.707  1.00  0.00     0.029 A 
ATOM     62  C   UNL A   1      38.908  32.599  34.780  1.00  0.00     0.049 A 
ATOM     63  H   UNL A   1      40.250  32.775  33.180  1.00  0.00     0.167 HD
ATOM     64  C   UNL A   1      42.694  33.883  30.048  1.00  0.00     0.031 A 
ATOM     65  C   UNL A   1      39.601  32.995  35.875  1.00  0.00     0.031 A 
ATOM     66  C   UNL A   1      43.337  32.660  30.447  1.00  0.00     0.049 A 
ATOM     67  C   UNL A   1      41.039  32.957  35.542  1.00  0.00     0.074 A 
ATOM     68  C   UNL A   1      43.365  31.366  29.960  1.00  0.00     0.029 A 
ATOM     69  N   UNL A   1      43.850  32.584  31.720  1.00  0.00    -0.354 N 
ATOM     70  N   UNL A   1      41.732  31.862  35.430  1.00  0.00    -0.248 NA
ATOM     71  C   UNL A   1      41.656  34.148  34.978  1.00  0.00     0.031 C 
ATOM     72  C   UNL A   1      43.455  30.529  31.110  1.00  0.00     0.029 A 
ATOM     73  C   UNL A   1      43.495  31.360  32.230  1.00  0.00     0.049 A 
ATOM     74  H   UNL A   1      44.372  33.279  32.181  1.00  0.00     0.167 HD
ATOM     75  C   UNL A   1      42.647  32.126  34.422  1.00  0.00     0.074 A 
ATOM     76  C   UNL A   1      42.641  33.578  34.280  1.00  0.00     0.031 C 
ATOM     77  C   UNL A   1      43.105  31.134  33.604  1.00  0.00     0.031 A 
BRANCH  64  78
ATOM     78  C   UNL A   1      43.334  35.231  30.202  1.00  0.00    -0.014 A 
ATOM     79  C   UNL A   1      43.434  35.805  31.476  1.00  0.00     0.009 A 
ATOM     80  C   UNL A   1      43.626  36.061  29.099  1.00  0.00     0.009 A 
ATOM     81  C   UNL A   1      43.799  37.146  31.634  1.00  0.00     0.001 A 
ATOM     82  C   UNL A   1      44.044  37.382  29.254  1.00  0.00     0.001 A 
ATOM     83  C   UNL A   1      44.112  37.931  30.525  1.00  0.00     0.000 A 
ENDBRANCH  64  78
BRANCH  65  84
ATOM     84  C   UNL A   1      39.088  33.551  37.150  1.00  0.00    -0.014 A 
ATOM     85  C   UNL A   1      38.460  32.725  38.097  1.00  0.00     0.009 A 
ATOM     86  C   UNL A   1      39.419  34.859  37.557  1.00  0.00     0.009 A 
ATOM     87  C   UNL A   1      38.215  33.176  39.402  1.00  0.00     0.001 A 
ATOM     88  C   UNL A   1      39.155  35.316  38.851  1.00  0.00     0.001 A 
ATOM     89  C   UNL A   1      38.571  34.467  39.781  1.00  0.00     0.000 A 
ENDBRANCH  65  84
BRANCH  77  90
ATOM     90  C   UNL A   1      42.896  29.698  34.025  1.00  0.00    -0.014 A 
ATOM     91  C   UNL A   1      41.700  28.995  33.798  1.00  0.00     0.009 A 
ATOM     92  C   UNL A   1      43.989  28.991  34.551  1.00  0.00     0.009 A 
ATOM     93  C   UNL A   1      41.590  27.640  34.126  1.00  0.00     0.001 A 
ATOM     94  C   UNL A   1      43.887  27.631  34.855  1.00  0.00     0.001 A 
ATOM     95  C   UNL A   1      42.685  26.957  34.650  1.00  0.00     0.000 A 
ENDBRANCH  77  90
ENDBRANCH  51  52
ENDBRANCH  44  46
ENDBRANCH  43  44
ENDBRANCH  42  43
ENDBRANCH  41  42
ENDBRANCH  40  41
ENDBRANCH  39  40
ENDBRANCH  38  39
ENDBRANCH  37  38
ENDBRANCH  36  37
ENDBRANCH   1  36
TORSDOF 26
ENDMDL
MODEL 3
REMARK VINA RESULT:      -8.2      3.429      7.186
REMARK SMILES NS(=O)(=O)c1ccc(-n2nc(C(F)(F)F)cc2-c2ccc(CC(=O)OCCOCCOCCOCCOC(=O)c3ccc(-c4c5nc(c(-c6ccccc6)c6ccc([nH]6)c(-c6ccccc6)c6nc(c(-c7ccccc7)c7ccc4[nH]7)C=C6)C=C5)cc3)cc2)cc1
REMARK SMILES IDX 29 1 28 2 27 3 26 4 25 5 23 6 24 7 22 8 21 9 18 10 19 11
REMARK SMILES IDX 89 12 20 13 88 14 17 15 9 16 10 17 11 18 16 19 8 20 5 21
REMARK SMILES IDX 6 22 91 23 7 24 90 25 2 26 3 27 4 28 1 29 12 32 13 33 14 34
REMARK SMILES IDX 15 35 30 36 31 37 32 38 33 39 34 40 35 41 36 42 37 43 38 44
REMARK SMILES IDX 39 45 40 46 41 47 87 48 42 49 86 50 43 51 44 52 45 53 80 54
REMARK SMILES IDX 46 55 85 56 79 57 81 58 47 59 84 60 78 61 77 62 48 64 70 65
REMARK SMILES IDX 55 66 69 67 56 68 59 69 68 70 82 71 57 72 58 73 67 75 83 76
REMARK SMILES IDX 60 77 49 78 50 79 54 80 51 81 53 82 52 83 71 84 72 85 76 86
REMARK SMILES IDX 73 87 75 88 74 89 61 90 62 91 66 92 63 93 65 94 64 95
REMARK H PARENT 1 30 1 31 81 63 59 74
REMARK Flexibility Score: inf
ROOT
ATOM      1  C   UNL A   1      33.600  24.833  25.916  1.00  0.00     0.188 C 
ENDROOT
BRANCH   1   2
ATOM      2  O   UNL A   1      33.622  23.440  25.627  1.00  0.00    -0.376 OA
BRANCH   2   3
ATOM      3  C   UNL A   1      34.086  22.969  24.373  1.00  0.00     0.202 C 
BRANCH   3   4
ATOM      4  C   UNL A   1      35.400  23.548  23.814  1.00  0.00     0.261 C 
BRANCH   4   5
ATOM      5  O   UNL A   1      36.570  22.731  24.002  1.00  0.00    -0.463 OA
BRANCH   5   6
ATOM      6  C   UNL A   1      36.879  22.439  25.285  1.00  0.00     0.310 C 
ATOM      7  O   UNL A   1      36.936  21.297  25.733  1.00  0.00    -0.252 OA
BRANCH   6   8
ATOM      8  C   UNL A   1      37.166  23.643  26.158  1.00  0.00     0.158 C 
BRANCH   8   9
ATOM      9  C   UNL A   1      38.568  23.974  26.657  1.00  0.00    -0.037 A 
ATOM     10  C   UNL A   1      41.245  24.866  27.154  1.00  0.00     0.000 A 
ATOM     11  C   UNL A   1      40.145  25.630  27.558  1.00  0.00     0.010 A 
ATOM     12  C   UNL A   1      40.981  23.622  26.551  1.00  0.00     0.010 A 
ATOM     13  C   UNL A   1      38.829  25.190  27.316  1.00  0.00     0.005 A 
ATOM     14  C   UNL A   1      39.665  23.178  26.314  1.00  0.00     0.005 A 
BRANCH  10  15
ATOM     15  C   UNL A   1      42.622  25.410  27.156  1.00  0.00     0.075 A 
ATOM     16  N   UNL A   1      43.838  24.793  26.823  1.00  0.00    -0.233 N 
ATOM     17  N   UNL A   1      44.901  25.575  27.162  1.00  0.00    -0.163 NA
ATOM     18  C   UNL A   1      44.392  26.720  27.636  1.00  0.00     0.167 A 
ATOM     19  C   UNL A   1      42.983  26.653  27.663  1.00  0.00     0.064 A 
BRANCH  16  20
ATOM     20  C   UNL A   1      44.130  23.554  26.173  1.00  0.00     0.065 A 
ATOM     21  C   UNL A   1      44.743  21.142  24.811  1.00  0.00     0.082 A 
ATOM     22  C   UNL A   1      44.009  21.156  25.998  1.00  0.00     0.024 A 
ATOM     23  C   UNL A   1      45.203  22.354  24.309  1.00  0.00     0.024 A 
ATOM     24  C   UNL A   1      43.686  22.341  26.677  1.00  0.00     0.030 A 
ATOM     25  C   UNL A   1      44.868  23.553  24.967  1.00  0.00     0.030 A 
BRANCH  21  26
ATOM     26  S   UNL A   1      45.178  19.602  24.014  1.00  0.00     0.238 S 
ATOM     27  O   UNL A   1      46.610  19.423  24.080  1.00  0.00    -0.207 OA
ATOM     28  O   UNL A   1      44.467  19.529  22.765  1.00  0.00    -0.207 OA
BRANCH  26  29
ATOM     29  N   UNL A   1      44.646  18.349  24.992  1.00  0.00    -0.225 NA
ATOM     30  H   UNL A   1      43.626  18.336  25.004  1.00  0.00     0.137 HD
ATOM     31  H   UNL A   1      44.996  18.486  25.941  1.00  0.00     0.137 HD
ENDBRANCH  26  29
ENDBRANCH  21  26
ENDBRANCH  16  20
BRANCH  18  32
ATOM     32  C   UNL A   1      45.253  27.876  28.074  1.00  0.00     0.435 C 
ATOM     33  F   UNL A   1      44.881  29.064  27.527  1.00  0.00    -0.164 F 
ATOM     34  F   UNL A   1      45.222  28.037  29.425  1.00  0.00    -0.164 F 
ATOM     35  F   UNL A   1      46.559  27.688  27.740  1.00  0.00    -0.164 F 
ENDBRANCH  18  32
ENDBRANCH  10  15
ENDBRANCH   8   9
ENDBRANCH   6   8
ENDBRANCH   5   6
ENDBRANCH   4   5
ENDBRANCH   3   4
ENDBRANCH   2   3
ENDBRANCH   1   2
BRANCH   1  36
ATOM     36  C   UNL A   1      32.517  25.776  25.338  1.00  0.00     0.188 C 
BRANCH  36  37
ATOM     37  O   UNL A   1      32.776  26.259  24.035  1.00  0.00    -0.377 OA
BRANCH  37  38
ATOM     38  C   UNL A   1      33.515  27.454  23.852  1.00  0.00     0.188 C 
BRANCH  38  39
ATOM     39  C   UNL A   1      32.857  28.840  23.971  1.00  0.00     0.188 C 
BRANCH  39  40
ATOM     40  O   UNL A   1      31.654  28.897  24.701  1.00  0.00    -0.376 OA
BRANCH  40  41
ATOM     41  C   UNL A   1      31.553  29.661  25.879  1.00  0.00     0.202 C 
BRANCH  41  42
ATOM     42  C   UNL A   1      32.560  30.741  26.232  1.00  0.00     0.261 C 
BRANCH  42  43
ATOM     43  O   UNL A   1      33.253  30.662  27.484  1.00  0.00    -0.460 OA
BRANCH  43  44
ATOM     44  C   UNL A   1      34.509  30.131  27.377  1.00  0.00     0.338 C 
ATOM     45  O   UNL A   1      34.777  29.028  26.932  1.00  0.00    -0.246 OA
BRANCH  44  46
ATOM     46  C   UNL A   1      35.472  30.974  28.126  1.00  0.00     0.060 A 
ATOM     47  C   UNL A   1      36.785  30.503  28.187  1.00  0.00     0.016 A 
ATOM     48  C   UNL A   1      35.075  32.050  28.926  1.00  0.00     0.016 A 
ATOM     49  C   UNL A   1      37.642  30.984  29.172  1.00  0.00     0.010 A 
ATOM     50  C   UNL A   1      35.928  32.505  29.939  1.00  0.00     0.010 A 
ATOM     51  C   UNL A   1      37.189  31.927  30.106  1.00  0.00    -0.014 A 
BRANCH  51  52
ATOM     52  C   UNL A   1      38.163  32.429  31.081  1.00  0.00     0.031 A 
ATOM     53  C   UNL A   1      39.261  33.189  30.465  1.00  0.00     0.074 A 
ATOM     54  C   UNL A   1      38.189  32.308  32.424  1.00  0.00     0.049 A 
ATOM     55  N   UNL A   1      40.463  32.776  30.253  1.00  0.00    -0.248 NA
ATOM     56  C   UNL A   1      38.949  34.524  29.944  1.00  0.00     0.031 C 
ATOM     57  C   UNL A   1      37.110  31.908  33.302  1.00  0.00     0.029 A 
ATOM     58  N   UNL A   1      39.204  32.581  33.307  1.00  0.00    -0.354 N 
ATOM     59  C   UNL A   1      41.128  33.872  29.734  1.00  0.00     0.074 A 
ATOM     60  C   UNL A   1      40.120  34.852  29.400  1.00  0.00     0.031 C 
ATOM     61  C   UNL A   1      37.458  32.064  34.593  1.00  0.00     0.029 A 
ATOM     62  C   UNL A   1      38.823  32.544  34.645  1.00  0.00     0.049 A 
ATOM     63  H   UNL A   1      40.123  32.786  33.019  1.00  0.00     0.167 HD
ATOM     64  C   UNL A   1      42.471  34.020  29.861  1.00  0.00     0.031 A 
ATOM     65  C   UNL A   1      39.535  32.923  35.734  1.00  0.00     0.031 A 
ATOM     66  C   UNL A   1      43.145  32.798  30.211  1.00  0.00     0.049 A 
ATOM     67  C   UNL A   1      40.965  32.920  35.365  1.00  0.00     0.074 A 
ATOM     68  C   UNL A   1      43.183  31.519  29.690  1.00  0.00     0.029 A 
ATOM     69  N   UNL A   1      43.689  32.699  31.470  1.00  0.00    -0.354 N 
ATOM     70  N   UNL A   1      41.674  31.842  35.208  1.00  0.00    -0.248 NA
ATOM     71  C   UNL A   1      41.548  34.136  34.819  1.00  0.00     0.031 C 
ATOM     72  C   UNL A   1      43.316  30.654  30.814  1.00  0.00     0.029 A 
ATOM     73  C   UNL A   1      43.368  31.456  31.955  1.00  0.00     0.049 A 
ATOM     74  H   UNL A   1      44.210  33.391  31.937  1.00  0.00     0.167 HD
ATOM     75  C   UNL A   1      42.559  32.148  34.186  1.00  0.00     0.074 A 
ATOM     76  C   UNL A   1      42.525  33.603  34.083  1.00  0.00     0.031 C 
ATOM     77  C   UNL A   1      43.016  31.186  33.332  1.00  0.00     0.031 A 
BRANCH  64  78
ATOM     78  C   UNL A   1      43.091  35.375  30.036  1.00  0.00    -0.014 A 
ATOM     79  C   UNL A   1      43.621  36.038  28.921  1.00  0.00     0.009 A 
ATOM     80  C   UNL A   1      43.384  35.917  31.305  1.00  0.00     0.009 A 
ATOM     81  C   UNL A   1      44.414  37.180  29.075  1.00  0.00     0.001 A 
ATOM     82  C   UNL A   1      44.127  37.086  31.460  1.00  0.00     0.001 A 
ATOM     83  C   UNL A   1      44.659  37.708  30.342  1.00  0.00     0.000 A 
ENDBRANCH  64  78
BRANCH  65  84
ATOM     84  C   UNL A   1      39.043  33.437  37.035  1.00  0.00    -0.014 A 
ATOM     85  C   UNL A   1      38.502  32.567  37.995  1.00  0.00     0.009 A 
ATOM     86  C   UNL A   1      39.317  34.756  37.445  1.00  0.00     0.009 A 
ATOM     87  C   UNL A   1      38.284  32.989  39.314  1.00  0.00     0.001 A 
ATOM     88  C   UNL A   1      39.080  35.185  38.754  1.00  0.00     0.001 A 
ATOM     89  C   UNL A   1      38.582  34.295  39.695  1.00  0.00     0.000 A 
ENDBRANCH  65  84
BRANCH  77  90
ATOM     90  C   UNL A   1      42.841  29.736  33.719  1.00  0.00    -0.014 A 
ATOM     91  C   UNL A   1      43.840  28.986  34.364  1.00  0.00     0.009 A 
ATOM     92  C   UNL A   1      41.579  29.146  33.544  1.00  0.00     0.009 A 
ATOM     93  C   UNL A   1      43.595  27.673  34.781  1.00  0.00     0.001 A 
ATOM     94  C   UNL A   1      41.326  27.844  33.984  1.00  0.00     0.001 A 
ATOM     95  C   UNL A   1      42.337  27.105  34.595  1.00  0.00     0.000 A 
ENDBRANCH  77  90
ENDBRANCH  51  52
ENDBRANCH  44  46
ENDBRANCH  43  44
ENDBRANCH  42  43
ENDBRANCH  41  42
ENDBRANCH  40  41
ENDBRANCH  39  40
ENDBRANCH  38  39
ENDBRANCH  37  38
ENDBRANCH  36  37
ENDBRANCH   1  36
TORSDOF 26
ENDMDL
