MODEL 1
REMARK VINA RESULT:      -7.9      0.000      0.000
REMARK SMILES C[C@@H]1CC[C@H](C)[N@H+]1Cc1cc2c(cc1Cl)C=C(C(=O)OCCOCCOCCOCCOC(=O)c1ccc(-c3c4nc(c(-c5ccccc5)c5ccc([nH]5)c(-c5ccccc5)c5nc(c(-c6ccccc6)c6ccc3[nH]6)C=C5)C=C4)cc1)[C@@H](C(F)(F)F)O2
REMARK SMILES IDX 26 1 25 2 24 3 23 4 22 5 21 6 20 7 18 8 19 9 17 10 9 11
REMARK SMILES IDX 10 12 14 13 11 14 13 15 15 16 12 17 88 18 16 19 83 20 8 21
REMARK SMILES IDX 7 22 6 23 5 24 4 25 3 26 2 27 1 29 84 30 85 31 86 32 87 33
REMARK SMILES IDX 27 34 28 35 29 36 30 37 31 38 32 39 33 40 34 41 35 42 36 43
REMARK SMILES IDX 82 44 37 45 81 46 38 47 39 48 40 49 75 50 41 51 80 52 74 53
REMARK SMILES IDX 76 54 42 55 79 56 73 57 72 58 43 60 65 61 50 62 64 63 51 64
REMARK SMILES IDX 54 65 63 66 77 67 52 68 53 69 62 71 78 72 55 73 44 74 45 75
REMARK SMILES IDX 49 76 46 77 48 78 47 79 66 80 67 81 71 82 68 83 70 84 69 85
REMARK SMILES IDX 56 86 57 87 61 88 58 89 60 90 59 91
REMARK H PARENT 7 28 76 59 54 70
REMARK Flexibility Score: inf
ROOT
ATOM      1  O   UNL A   1      34.252  32.574  32.578  1.00  0.00    -0.377 OA
ENDROOT
BRANCH   1   2
ATOM      2  C   UNL A   1      35.512  32.120  32.119  1.00  0.00     0.188 C 
BRANCH   2   3
ATOM      3  C   UNL A   1      36.724  32.795  32.786  1.00  0.00     0.188 C 
BRANCH   3   4
ATOM      4  O   UNL A   1      36.905  32.418  34.149  1.00  0.00    -0.376 OA
BRANCH   4   5
ATOM      5  C   UNL A   1      37.417  31.115  34.394  1.00  0.00     0.202 C 
BRANCH   5   6
ATOM      6  C   UNL A   1      38.664  30.721  33.586  1.00  0.00     0.261 C 
BRANCH   6   7
ATOM      7  O   UNL A   1      38.386  30.039  32.353  1.00  0.00    -0.460 OA
BRANCH   7   8
ATOM      8  C   UNL A   1      38.528  28.701  32.373  1.00  0.00     0.338 C 
ATOM      9  O   UNL A   1      37.958  27.924  33.118  1.00  0.00    -0.246 OA
BRANCH   8  10
ATOM     10  C   UNL A   1      39.357  28.292  31.221  1.00  0.00     0.087 C 
ATOM     11  C   UNL A   1      41.221  25.782  27.273  1.00  0.00     0.029 A 
ATOM     12  C   UNL A   1      41.662  26.895  28.032  1.00  0.00     0.058 A 
ATOM     13  C   UNL A   1      39.958  25.249  27.583  1.00  0.00     0.050 A 
ATOM     14  C   UNL A   1      40.874  27.439  29.055  1.00  0.00     0.128 A 
ATOM     15  C   UNL A   1      39.128  25.868  28.521  1.00  0.00     0.033 A 
ATOM     16  Cl  UNL A   1      39.386  23.727  26.993  1.00  0.00    -0.084 Cl
ATOM     17  C   UNL A   1      39.595  26.938  29.278  1.00  0.00     0.019 A 
ATOM     18  O   UNL A   1      41.420  28.444  29.807  1.00  0.00    -0.475 OA
ATOM     19  C   UNL A   1      38.780  27.448  30.360  1.00  0.00     0.027 C 
ATOM     20  C   UNL A   1      40.760  28.817  31.059  1.00  0.00     0.316 C 
BRANCH  11  21
ATOM     21  C   UNL A   1      42.157  25.170  26.239  1.00  0.00     0.301 C 
BRANCH  21  22
ATOM     22  N   UNL A   1      42.892  23.949  26.595  1.00  0.00    -0.327 N 
ATOM     23  C   UNL A   1      43.677  22.675  24.631  1.00  0.00     0.075 C 
ATOM     24  C   UNL A   1      42.657  22.765  25.760  1.00  0.00     0.181 C 
ATOM     25  C   UNL A   1      42.781  21.577  26.713  1.00  0.00     0.071 C 
ATOM     26  C   UNL A   1      42.331  22.152  28.037  1.00  0.00     0.071 C 
ATOM     27  C   UNL A   1      42.887  23.568  28.008  1.00  0.00     0.181 C 
ATOM     28  H   UNL A   1      43.830  24.284  26.376  1.00  0.00     0.348 HD
ATOM     29  C   UNL A   1      44.310  23.652  28.565  1.00  0.00     0.075 C 
ENDBRANCH  21  22
ENDBRANCH  11  21
BRANCH  20  30
ATOM     30  C   UNL A   1      41.639  28.420  32.254  1.00  0.00     0.430 C 
ATOM     31  F   UNL A   1      42.665  27.623  31.875  1.00  0.00    -0.167 F 
ATOM     32  F   UNL A   1      42.190  29.504  32.849  1.00  0.00    -0.167 F 
ATOM     33  F   UNL A   1      40.936  27.756  33.200  1.00  0.00    -0.167 F 
ENDBRANCH  20  30
ENDBRANCH   8  10
ENDBRANCH   7   8
ENDBRANCH   6   7
ENDBRANCH   5   6
ENDBRANCH   4   5
ENDBRANCH   3   4
ENDBRANCH   2   3
ENDBRANCH   1   2
BRANCH   1  34
ATOM     34  C   UNL A   1      33.987  33.978  32.568  1.00  0.00     0.188 C 
BRANCH  34  35
ATOM     35  C   UNL A   1      34.102  34.849  31.294  1.00  0.00     0.188 C 
BRANCH  35  36
ATOM     36  O   UNL A   1      33.365  34.364  30.179  1.00  0.00    -0.376 OA
BRANCH  36  37
ATOM     37  C   UNL A   1      34.004  34.436  28.912  1.00  0.00     0.202 C 
BRANCH  37  38
ATOM     38  C   UNL A   1      34.448  33.075  28.367  1.00  0.00     0.261 C 
BRANCH  38  39
ATOM     39  O   UNL A   1      35.766  33.047  27.796  1.00  0.00    -0.460 OA
BRANCH  39  40
ATOM     40  C   UNL A   1      36.592  32.042  28.159  1.00  0.00     0.338 C 
ATOM     41  O   UNL A   1      36.587  30.894  27.753  1.00  0.00    -0.246 OA
BRANCH  40  42
ATOM     42  C   UNL A   1      37.654  32.641  28.995  1.00  0.00     0.060 A 
ATOM     43  C   UNL A   1      38.609  31.824  29.605  1.00  0.00     0.016 A 
ATOM     44  C   UNL A   1      37.649  34.023  29.225  1.00  0.00     0.016 A 
ATOM     45  C   UNL A   1      39.579  32.394  30.429  1.00  0.00     0.010 A 
ATOM     46  C   UNL A   1      38.614  34.592  30.060  1.00  0.00     0.010 A 
ATOM     47  C   UNL A   1      39.599  33.783  30.649  1.00  0.00    -0.014 A 
BRANCH  47  48
ATOM     48  C   UNL A   1      40.771  34.395  31.316  1.00  0.00     0.031 A 
ATOM     49  C   UNL A   1      40.807  34.677  32.786  1.00  0.00     0.074 A 
ATOM     50  C   UNL A   1      41.835  34.686  30.544  1.00  0.00     0.049 A 
ATOM     51  N   UNL A   1      41.812  35.104  33.507  1.00  0.00    -0.248 NA
ATOM     52  C   UNL A   1      39.568  34.457  33.544  1.00  0.00     0.031 C 
ATOM     53  C   UNL A   1      41.900  34.464  29.098  1.00  0.00     0.029 A 
ATOM     54  N   UNL A   1      43.061  35.212  30.860  1.00  0.00    -0.354 N 
ATOM     55  C   UNL A   1      41.340  35.183  34.810  1.00  0.00     0.074 A 
ATOM     56  C   UNL A   1      39.943  34.802  34.771  1.00  0.00     0.031 C 
ATOM     57  C   UNL A   1      43.113  34.824  28.657  1.00  0.00     0.029 A 
ATOM     58  C   UNL A   1      43.900  35.325  29.780  1.00  0.00     0.049 A 
ATOM     59  H   UNL A   1      43.315  35.481  31.773  1.00  0.00     0.167 HD
ATOM     60  C   UNL A   1      42.021  35.529  35.929  1.00  0.00     0.031 A 
ATOM     61  C   UNL A   1      45.166  35.773  29.695  1.00  0.00     0.031 A 
ATOM     62  C   UNL A   1      43.407  35.932  35.947  1.00  0.00     0.049 A 
ATOM     63  C   UNL A   1      45.878  36.203  30.944  1.00  0.00     0.074 A 
ATOM     64  C   UNL A   1      44.192  36.250  37.044  1.00  0.00     0.029 A 
ATOM     65  N   UNL A   1      44.206  36.093  34.826  1.00  0.00    -0.354 N 
ATOM     66  N   UNL A   1      45.447  36.187  32.181  1.00  0.00    -0.248 NA
ATOM     67  C   UNL A   1      47.253  36.697  30.791  1.00  0.00     0.031 C 
ATOM     68  C   UNL A   1      45.439  36.676  36.582  1.00  0.00     0.029 A 
ATOM     69  C   UNL A   1      45.460  36.549  35.203  1.00  0.00     0.049 A 
ATOM     70  H   UNL A   1      43.926  35.910  33.900  1.00  0.00     0.167 HD
ATOM     71  C   UNL A   1      46.501  36.651  32.956  1.00  0.00     0.074 A 
ATOM     72  C   UNL A   1      47.599  36.922  32.051  1.00  0.00     0.031 C 
ATOM     73  C   UNL A   1      46.547  36.834  34.298  1.00  0.00     0.031 A 
BRANCH  60  74
ATOM     74  C   UNL A   1      41.300  35.485  37.249  1.00  0.00    -0.014 A 
ATOM     75  C   UNL A   1      41.307  34.307  38.014  1.00  0.00     0.009 A 
ATOM     76  C   UNL A   1      40.499  36.559  37.668  1.00  0.00     0.009 A 
ATOM     77  C   UNL A   1      40.513  34.196  39.158  1.00  0.00     0.001 A 
ATOM     78  C   UNL A   1      39.726  36.456  38.828  1.00  0.00     0.001 A 
ATOM     79  C   UNL A   1      39.725  35.271  39.565  1.00  0.00     0.000 A 
ENDBRANCH  60  74
BRANCH  61  80
ATOM     80  C   UNL A   1      45.840  35.785  28.371  1.00  0.00    -0.014 A 
ATOM     81  C   UNL A   1      46.605  34.682  27.951  1.00  0.00     0.009 A 
ATOM     82  C   UNL A   1      45.788  36.924  27.556  1.00  0.00     0.009 A 
ATOM     83  C   UNL A   1      47.326  34.733  26.757  1.00  0.00     0.001 A 
ATOM     84  C   UNL A   1      46.485  36.959  26.346  1.00  0.00     0.001 A 
ATOM     85  C   UNL A   1      47.262  35.870  25.954  1.00  0.00     0.000 A 
ENDBRANCH  61  80
BRANCH  73  86
ATOM     86  C   UNL A   1      47.825  37.360  34.892  1.00  0.00    -0.014 A 
ATOM     87  C   UNL A   1      48.040  38.745  34.975  1.00  0.00     0.009 A 
ATOM     88  C   UNL A   1      48.858  36.490  35.272  1.00  0.00     0.009 A 
ATOM     89  C   UNL A   1      49.269  39.249  35.406  1.00  0.00     0.001 A 
ATOM     90  C   UNL A   1      50.076  36.996  35.732  1.00  0.00     0.001 A 
ATOM     91  C   UNL A   1      50.284  38.374  35.787  1.00  0.00     0.000 A 
ENDBRANCH  73  86
ENDBRANCH  47  48
ENDBRANCH  40  42
ENDBRANCH  39  40
ENDBRANCH  38  39
ENDBRANCH  37  38
ENDBRANCH  36  37
ENDBRANCH  35  36
ENDBRANCH  34  35
ENDBRANCH   1  34
TORSDOF 23
ENDMDL
MODEL 2
REMARK VINA RESULT:      -7.8      8.132     12.749
REMARK SMILES C[C@@H]1CC[C@H](C)[N@H+]1Cc1cc2c(cc1Cl)C=C(C(=O)OCCOCCOCCOCCOC(=O)c1ccc(-c3c4nc(c(-c5ccccc5)c5ccc([nH]5)c(-c5ccccc5)c5nc(c(-c6ccccc6)c6ccc3[nH]6)C=C5)C=C4)cc1)[C@@H](C(F)(F)F)O2
REMARK SMILES IDX 26 1 25 2 24 3 23 4 22 5 21 6 20 7 18 8 19 9 17 10 9 11
REMARK SMILES IDX 10 12 14 13 11 14 13 15 15 16 12 17 88 18 16 19 83 20 8 21
REMARK SMILES IDX 7 22 6 23 5 24 4 25 3 26 2 27 1 29 84 30 85 31 86 32 87 33
REMARK SMILES IDX 27 34 28 35 29 36 30 37 31 38 32 39 33 40 34 41 35 42 36 43
REMARK SMILES IDX 82 44 37 45 81 46 38 47 39 48 40 49 75 50 41 51 80 52 74 53
REMARK SMILES IDX 76 54 42 55 79 56 73 57 72 58 43 60 65 61 50 62 64 63 51 64
REMARK SMILES IDX 54 65 63 66 77 67 52 68 53 69 62 71 78 72 55 73 44 74 45 75
REMARK SMILES IDX 49 76 46 77 48 78 47 79 66 80 67 81 71 82 68 83 70 84 69 85
REMARK SMILES IDX 56 86 57 87 61 88 58 89 60 90 59 91
REMARK H PARENT 7 28 76 59 54 70
REMARK Flexibility Score: inf
ROOT
ATOM      1  O   UNL A   1      37.485  31.217  29.076  1.00  0.00    -0.377 OA
ENDROOT
BRANCH   1   2
ATOM      2  C   UNL A   1      36.704  32.244  29.659  1.00  0.00     0.188 C 
BRANCH   2   3
ATOM      3  C   UNL A   1      35.539  32.745  28.788  1.00  0.00     0.188 C 
BRANCH   3   4
ATOM      4  O   UNL A   1      34.522  31.768  28.583  1.00  0.00    -0.376 OA
BRANCH   4   5
ATOM      5  C   UNL A   1      34.744  30.813  27.554  1.00  0.00     0.202 C 
BRANCH   5   6
ATOM      6  C   UNL A   1      33.484  30.241  26.885  1.00  0.00     0.261 C 
BRANCH   6   7
ATOM      7  O   UNL A   1      33.436  28.807  26.830  1.00  0.00    -0.460 OA
BRANCH   7   8
ATOM      8  C   UNL A   1      33.038  28.274  25.660  1.00  0.00     0.338 C 
ATOM      9  O   UNL A   1      33.026  28.832  24.577  1.00  0.00    -0.246 OA
BRANCH   8  10
ATOM     10  C   UNL A   1      32.778  26.833  25.855  1.00  0.00     0.087 C 
ATOM     11  C   UNL A   1      33.280  21.825  26.040  1.00  0.00     0.029 A 
ATOM     12  C   UNL A   1      32.189  22.714  26.209  1.00  0.00     0.058 A 
ATOM     13  C   UNL A   1      34.552  22.393  25.848  1.00  0.00     0.050 A 
ATOM     14  C   UNL A   1      32.368  24.104  26.177  1.00  0.00     0.128 A 
ATOM     15  C   UNL A   1      34.742  23.774  25.937  1.00  0.00     0.033 A 
ATOM     16  Cl  UNL A   1      35.934  21.498  25.322  1.00  0.00    -0.084 Cl
ATOM     17  C   UNL A   1      33.652  24.629  26.068  1.00  0.00     0.019 A 
ATOM     18  O   UNL A   1      31.247  24.887  26.242  1.00  0.00    -0.475 OA
ATOM     19  C   UNL A   1      33.860  26.059  25.984  1.00  0.00     0.027 C 
ATOM     20  C   UNL A   1      31.367  26.306  25.906  1.00  0.00     0.316 C 
BRANCH  11  21
ATOM     21  C   UNL A   1      33.016  20.326  25.986  1.00  0.00     0.301 C 
BRANCH  21  22
ATOM     22  N   UNL A   1      33.277  19.615  24.727  1.00  0.00    -0.327 N 
ATOM     23  C   UNL A   1      32.551  20.868  22.728  1.00  0.00     0.075 C 
ATOM     24  C   UNL A   1      32.254  19.717  23.681  1.00  0.00     0.181 C 
ATOM     25  C   UNL A   1      32.295  18.373  22.953  1.00  0.00     0.071 C 
ATOM     26  C   UNL A   1      32.736  17.412  24.034  1.00  0.00     0.071 C 
ATOM     27  C   UNL A   1      33.737  18.229  24.838  1.00  0.00     0.181 C 
ATOM     28  H   UNL A   1      34.074  20.172  24.417  1.00  0.00     0.348 HD
ATOM     29  C   UNL A   1      35.161  18.118  24.292  1.00  0.00     0.075 C 
ENDBRANCH  21  22
ENDBRANCH  11  21
BRANCH  20  30
ATOM     30  C   UNL A   1      30.622  26.599  24.595  1.00  0.00     0.430 C 
ATOM     31  F   UNL A   1      29.571  25.765  24.422  1.00  0.00    -0.167 F 
ATOM     32  F   UNL A   1      30.125  27.859  24.576  1.00  0.00    -0.167 F 
ATOM     33  F   UNL A   1      31.427  26.469  23.516  1.00  0.00    -0.167 F 
ENDBRANCH  20  30
ENDBRANCH   8  10
ENDBRANCH   7   8
ENDBRANCH   6   7
ENDBRANCH   5   6
ENDBRANCH   4   5
ENDBRANCH   3   4
ENDBRANCH   2   3
ENDBRANCH   1   2
BRANCH   1  34
ATOM     34  C   UNL A   1      37.788  30.062  29.858  1.00  0.00     0.188 C 
BRANCH  34  35
ATOM     35  C   UNL A   1      38.143  28.690  29.234  1.00  0.00     0.188 C 
BRANCH  35  36
ATOM     36  O   UNL A   1      39.486  28.274  29.447  1.00  0.00    -0.376 OA
BRANCH  36  37
ATOM     37  C   UNL A   1      40.464  28.798  28.560  1.00  0.00     0.202 C 
BRANCH  37  38
ATOM     38  C   UNL A   1      40.574  28.029  27.239  1.00  0.00     0.261 C 
BRANCH  38  39
ATOM     39  O   UNL A   1      41.481  26.916  27.255  1.00  0.00    -0.460 OA
BRANCH  39  40
ATOM     40  C   UNL A   1      42.031  26.530  26.082  1.00  0.00     0.338 C 
ATOM     41  O   UNL A   1      41.467  26.381  25.013  1.00  0.00    -0.246 OA
BRANCH  40  42
ATOM     42  C   UNL A   1      43.495  26.521  26.278  1.00  0.00     0.060 A 
ATOM     43  C   UNL A   1      44.200  25.315  26.236  1.00  0.00     0.016 A 
ATOM     44  C   UNL A   1      44.156  27.720  26.574  1.00  0.00     0.016 A 
ATOM     45  C   UNL A   1      45.575  25.311  26.468  1.00  0.00     0.010 A 
ATOM     46  C   UNL A   1      45.532  27.714  26.817  1.00  0.00     0.010 A 
ATOM     47  C   UNL A   1      46.253  26.512  26.743  1.00  0.00    -0.014 A 
BRANCH  47  48
ATOM     48  C   UNL A   1      47.734  26.526  26.739  1.00  0.00     0.031 A 
ATOM     49  C   UNL A   1      48.535  26.781  25.500  1.00  0.00     0.074 A 
ATOM     50  C   UNL A   1      48.355  26.311  27.914  1.00  0.00     0.049 A 
ATOM     51  N   UNL A   1      49.830  26.931  25.386  1.00  0.00    -0.248 NA
ATOM     52  C   UNL A   1      47.800  26.878  24.232  1.00  0.00     0.031 C 
ATOM     53  C   UNL A   1      47.670  26.039  29.180  1.00  0.00     0.029 A 
ATOM     54  N   UNL A   1      49.686  26.299  28.242  1.00  0.00    -0.354 N 
ATOM     55  C   UNL A   1      50.070  27.165  24.039  1.00  0.00     0.074 A 
ATOM     56  C   UNL A   1      48.787  27.092  23.368  1.00  0.00     0.031 C 
ATOM     57  C   UNL A   1      48.584  25.917  30.152  1.00  0.00     0.029 A 
ATOM     58  C   UNL A   1      49.916  26.074  29.576  1.00  0.00     0.049 A 
ATOM     59  H   UNL A   1      50.406  26.439  27.585  1.00  0.00     0.167 HD
ATOM     60  C   UNL A   1      51.251  27.429  23.431  1.00  0.00     0.031 A 
ATOM     61  C   UNL A   1      51.068  26.008  30.269  1.00  0.00     0.031 A 
ATOM     62  C   UNL A   1      52.524  27.473  24.109  1.00  0.00     0.049 A 
ATOM     63  C   UNL A   1      52.367  26.250  29.558  1.00  0.00     0.074 A 
ATOM     64  C   UNL A   1      53.766  27.785  23.580  1.00  0.00     0.029 A 
ATOM     65  N   UNL A   1      52.726  27.180  25.449  1.00  0.00    -0.354 N 
ATOM     66  N   UNL A   1      52.570  26.558  28.301  1.00  0.00    -0.248 NA
ATOM     67  C   UNL A   1      53.594  26.150  30.360  1.00  0.00     0.031 C 
ATOM     68  C   UNL A   1      54.727  27.605  24.578  1.00  0.00     0.029 A 
ATOM     69  C   UNL A   1      54.077  27.259  25.751  1.00  0.00     0.049 A 
ATOM     70  H   UNL A   1      52.016  26.950  26.091  1.00  0.00     0.167 HD
ATOM     71  C   UNL A   1      53.943  26.707  28.163  1.00  0.00     0.074 A 
ATOM     72  C   UNL A   1      54.523  26.474  29.470  1.00  0.00     0.031 C 
ATOM     73  C   UNL A   1      54.653  27.011  27.050  1.00  0.00     0.031 A 
BRANCH  60  74
ATOM     74  C   UNL A   1      51.249  27.708  21.952  1.00  0.00    -0.014 A 
ATOM     75  C   UNL A   1      51.475  26.664  21.040  1.00  0.00     0.009 A 
ATOM     76  C   UNL A   1      51.163  29.023  21.467  1.00  0.00     0.009 A 
ATOM     77  C   UNL A   1      51.637  26.931  19.679  1.00  0.00     0.001 A 
ATOM     78  C   UNL A   1      51.298  29.284  20.101  1.00  0.00     0.001 A 
ATOM     79  C   UNL A   1      51.546  28.240  19.210  1.00  0.00     0.000 A 
ENDBRANCH  60  74
BRANCH  61  80
ATOM     80  C   UNL A   1      51.017  25.743  31.730  1.00  0.00    -0.014 A 
ATOM     81  C   UNL A   1      51.088  24.427  32.218  1.00  0.00     0.009 A 
ATOM     82  C   UNL A   1      50.818  26.793  32.637  1.00  0.00     0.009 A 
ATOM     83  C   UNL A   1      50.932  24.167  33.581  1.00  0.00     0.001 A 
ATOM     84  C   UNL A   1      50.695  26.532  34.003  1.00  0.00     0.001 A 
ATOM     85  C   UNL A   1      50.739  25.220  34.473  1.00  0.00     0.000 A 
ENDBRANCH  61  80
BRANCH  73  86
ATOM     86  C   UNL A   1      56.149  27.108  27.175  1.00  0.00    -0.014 A 
ATOM     87  C   UNL A   1      56.746  28.337  27.503  1.00  0.00     0.009 A 
ATOM     88  C   UNL A   1      56.973  26.016  26.868  1.00  0.00     0.009 A 
ATOM     89  C   UNL A   1      58.135  28.476  27.500  1.00  0.00     0.001 A 
ATOM     90  C   UNL A   1      58.363  26.149  26.895  1.00  0.00     0.001 A 
ATOM     91  C   UNL A   1      58.942  27.380  27.198  1.00  0.00     0.000 A 
ENDBRANCH  73  86
ENDBRANCH  47  48
ENDBRANCH  40  42
ENDBRANCH  39  40
ENDBRANCH  38  39
ENDBRANCH  37  38
ENDBRANCH  36  37
ENDBRANCH  35  36
ENDBRANCH  34  35
ENDBRANCH   1  34
TORSDOF 23
ENDMDL
MODEL 3
REMARK VINA RESULT:      -7.7      0.815      5.528
REMARK SMILES C[C@@H]1CC[C@H](C)[N@H+]1Cc1cc2c(cc1Cl)C=C(C(=O)OCCOCCOCCOCCOC(=O)c1ccc(-c3c4nc(c(-c5ccccc5)c5ccc([nH]5)c(-c5ccccc5)c5nc(c(-c6ccccc6)c6ccc3[nH]6)C=C5)C=C4)cc1)[C@@H](C(F)(F)F)O2
REMARK SMILES IDX 26 1 25 2 24 3 23 4 22 5 21 6 20 7 18 8 19 9 17 10 9 11
REMARK SMILES IDX 10 12 14 13 11 14 13 15 15 16 12 17 88 18 16 19 83 20 8 21
REMARK SMILES IDX 7 22 6 23 5 24 4 25 3 26 2 27 1 29 84 30 85 31 86 32 87 33
REMARK SMILES IDX 27 34 28 35 29 36 30 37 31 38 32 39 33 40 34 41 35 42 36 43
REMARK SMILES IDX 82 44 37 45 81 46 38 47 39 48 40 49 75 50 41 51 80 52 74 53
REMARK SMILES IDX 76 54 42 55 79 56 73 57 72 58 43 60 65 61 50 62 64 63 51 64
REMARK SMILES IDX 54 65 63 66 77 67 52 68 53 69 62 71 78 72 55 73 44 74 45 75
REMARK SMILES IDX 49 76 46 77 48 78 47 79 66 80 67 81 71 82 68 83 70 84 69 85
REMARK SMILES IDX 56 86 57 87 61 88 58 89 60 90 59 91
REMARK H PARENT 7 28 76 59 54 70
REMARK Flexibility Score: inf
ROOT
ATOM      1  O   UNL A   1      34.547  32.458  32.750  1.00  0.00    -0.377 OA
ENDROOT
BRANCH   1   2
ATOM      2  C   UNL A   1      35.870  32.222  32.303  1.00  0.00     0.188 C 
BRANCH   2   3
ATOM      3  C   UNL A   1      36.962  32.954  33.102  1.00  0.00     0.188 C 
BRANCH   3   4
ATOM      4  O   UNL A   1      37.155  32.430  34.413  1.00  0.00    -0.376 OA
BRANCH   4   5
ATOM      5  C   UNL A   1      37.702  31.122  34.509  1.00  0.00     0.202 C 
BRANCH   5   6
ATOM      6  C   UNL A   1      38.995  30.875  33.717  1.00  0.00     0.261 C 
BRANCH   6   7
ATOM      7  O   UNL A   1      38.804  30.242  32.442  1.00  0.00    -0.460 OA
BRANCH   7   8
ATOM      8  C   UNL A   1      38.903  28.900  32.427  1.00  0.00     0.338 C 
ATOM      9  O   UNL A   1      38.339  28.124  33.180  1.00  0.00    -0.246 OA
BRANCH   8  10
ATOM     10  C   UNL A   1      39.669  28.490  31.233  1.00  0.00     0.087 C 
ATOM     11  C   UNL A   1      41.330  25.971  27.201  1.00  0.00     0.029 A 
ATOM     12  C   UNL A   1      41.802  27.094  27.925  1.00  0.00     0.058 A 
ATOM     13  C   UNL A   1      40.091  25.429  27.585  1.00  0.00     0.050 A 
ATOM     14  C   UNL A   1      41.068  27.637  28.989  1.00  0.00     0.128 A 
ATOM     15  C   UNL A   1      39.311  26.045  28.565  1.00  0.00     0.033 A 
ATOM     16  Cl  UNL A   1      39.503  23.897  27.039  1.00  0.00    -0.084 Cl
ATOM     17  C   UNL A   1      39.809  27.126  29.288  1.00  0.00     0.019 A 
ATOM     18  O   UNL A   1      41.646  28.653  29.701  1.00  0.00    -0.475 OA
ATOM     19  C   UNL A   1      39.052  27.635  30.411  1.00  0.00     0.027 C 
ATOM     20  C   UNL A   1      41.054  29.028  30.987  1.00  0.00     0.316 C 
BRANCH  11  21
ATOM     21  C   UNL A   1      42.211  25.362  26.118  1.00  0.00     0.301 C 
BRANCH  21  22
ATOM     22  N   UNL A   1      43.000  24.168  26.449  1.00  0.00    -0.327 N 
ATOM     23  C   UNL A   1      43.841  22.972  24.459  1.00  0.00     0.075 C 
ATOM     24  C   UNL A   1      42.819  22.993  25.589  1.00  0.00     0.181 C 
ATOM     25  C   UNL A   1      42.997  21.791  26.517  1.00  0.00     0.071 C 
ATOM     26  C   UNL A   1      42.523  22.318  27.853  1.00  0.00     0.071 C 
ATOM     27  C   UNL A   1      43.015  23.758  27.854  1.00  0.00     0.181 C 
ATOM     28  H   UNL A   1      43.923  24.549  26.237  1.00  0.00     0.348 HD
ATOM     29  C   UNL A   1      44.432  23.894  28.411  1.00  0.00     0.075 C 
ENDBRANCH  21  22
ENDBRANCH  11  21
BRANCH  20  30
ATOM     30  C   UNL A   1      42.005  28.648  32.132  1.00  0.00     0.430 C 
ATOM     31  F   UNL A   1      41.840  27.359  32.510  1.00  0.00    -0.167 F 
ATOM     32  F   UNL A   1      43.302  28.783  31.768  1.00  0.00    -0.167 F 
ATOM     33  F   UNL A   1      41.813  29.420  33.226  1.00  0.00    -0.167 F 
ENDBRANCH  20  30
ENDBRANCH   8  10
ENDBRANCH   7   8
ENDBRANCH   6   7
ENDBRANCH   5   6
ENDBRANCH   4   5
ENDBRANCH   3   4
ENDBRANCH   2   3
ENDBRANCH   1   2
BRANCH   1  34
ATOM     34  C   UNL A   1      34.103  33.809  32.884  1.00  0.00     0.188 C 
BRANCH  34  35
ATOM     35  C   UNL A   1      34.205  34.847  31.740  1.00  0.00     0.188 C 
BRANCH  35  36
ATOM     36  O   UNL A   1      33.526  34.480  30.546  1.00  0.00    -0.376 OA
BRANCH  36  37
ATOM     37  C   UNL A   1      34.284  34.512  29.345  1.00  0.00     0.202 C 
BRANCH  37  38
ATOM     38  C   UNL A   1      34.640  33.125  28.802  1.00  0.00     0.261 C 
BRANCH  38  39
ATOM     39  O   UNL A   1      35.957  33.010  28.240  1.00  0.00    -0.460 OA
BRANCH  39  40
ATOM     40  C   UNL A   1      36.763  32.032  28.710  1.00  0.00     0.338 C 
ATOM     41  O   UNL A   1      36.629  30.830  28.572  1.00  0.00    -0.246 OA
BRANCH  40  42
ATOM     42  C   UNL A   1      37.968  32.695  29.251  1.00  0.00     0.060 A 
ATOM     43  C   UNL A   1      38.092  34.085  29.185  1.00  0.00     0.016 A 
ATOM     44  C   UNL A   1      39.011  31.912  29.763  1.00  0.00     0.016 A 
ATOM     45  C   UNL A   1      39.253  34.697  29.657  1.00  0.00     0.010 A 
ATOM     46  C   UNL A   1      40.179  32.526  30.225  1.00  0.00     0.010 A 
ATOM     47  C   UNL A   1      40.297  33.924  30.195  1.00  0.00    -0.014 A 
BRANCH  47  48
ATOM     48  C   UNL A   1      41.403  34.598  30.912  1.00  0.00     0.031 A 
ATOM     49  C   UNL A   1      42.611  35.136  30.210  1.00  0.00     0.074 A 
ATOM     50  C   UNL A   1      41.282  34.728  32.247  1.00  0.00     0.049 A 
ATOM     51  N   UNL A   1      43.592  35.845  30.708  1.00  0.00    -0.248 NA
ATOM     52  C   UNL A   1      42.740  34.846  28.776  1.00  0.00     0.031 C 
ATOM     53  C   UNL A   1      40.152  34.228  33.033  1.00  0.00     0.029 A 
ATOM     54  N   UNL A   1      42.097  35.325  33.173  1.00  0.00    -0.354 N 
ATOM     55  C   UNL A   1      44.448  36.109  29.648  1.00  0.00     0.074 A 
ATOM     56  C   UNL A   1      43.891  35.445  28.487  1.00  0.00     0.031 C 
ATOM     57  C   UNL A   1      40.331  34.564  34.317  1.00  0.00     0.029 A 
ATOM     58  C   UNL A   1      41.598  35.278  34.450  1.00  0.00     0.049 A 
ATOM     59  H   UNL A   1      42.958  35.746  32.943  1.00  0.00     0.167 HD
ATOM     60  C   UNL A   1      45.582  36.850  29.651  1.00  0.00     0.031 A 
ATOM     61  C   UNL A   1      42.093  35.760  35.605  1.00  0.00     0.031 A 
ATOM     62  C   UNL A   1      46.138  37.483  30.822  1.00  0.00     0.049 A 
ATOM     63  C   UNL A   1      43.381  36.530  35.586  1.00  0.00     0.074 A 
ATOM     64  C   UNL A   1      47.257  38.297  30.905  1.00  0.00     0.029 A 
ATOM     65  N   UNL A   1      45.638  37.363  32.109  1.00  0.00    -0.354 N 
ATOM     66  N   UNL A   1      44.133  36.847  34.561  1.00  0.00    -0.248 NA
ATOM     67  C   UNL A   1      43.884  37.019  36.877  1.00  0.00     0.031 C 
ATOM     68  C   UNL A   1      47.477  38.604  32.250  1.00  0.00     0.029 A 
ATOM     69  C   UNL A   1      46.451  38.049  32.998  1.00  0.00     0.049 A 
ATOM     70  H   UNL A   1      44.825  36.865  32.356  1.00  0.00     0.167 HD
ATOM     71  C   UNL A   1      45.186  37.588  35.078  1.00  0.00     0.074 A 
ATOM     72  C   UNL A   1      44.966  37.690  36.506  1.00  0.00     0.031 C 
ATOM     73  C   UNL A   1      46.238  38.135  34.422  1.00  0.00     0.031 A 
BRANCH  60  74
ATOM     74  C   UNL A   1      46.316  37.041  28.350  1.00  0.00    -0.014 A 
ATOM     75  C   UNL A   1      46.024  38.148  27.536  1.00  0.00     0.009 A 
ATOM     76  C   UNL A   1      47.192  36.057  27.866  1.00  0.00     0.009 A 
ATOM     77  C   UNL A   1      46.575  38.255  26.257  1.00  0.00     0.001 A 
ATOM     78  C   UNL A   1      47.764  36.180  26.597  1.00  0.00     0.001 A 
ATOM     79  C   UNL A   1      47.446  37.272  25.790  1.00  0.00     0.000 A 
ENDBRANCH  60  74
BRANCH  61  80
ATOM     80  C   UNL A   1      41.325  35.557  36.860  1.00  0.00    -0.014 A 
ATOM     81  C   UNL A   1      41.612  34.468  37.702  1.00  0.00     0.009 A 
ATOM     82  C   UNL A   1      40.253  36.400  37.183  1.00  0.00     0.009 A 
ATOM     83  C   UNL A   1      40.822  34.214  38.825  1.00  0.00     0.001 A 
ATOM     84  C   UNL A   1      39.485  36.160  38.324  1.00  0.00     0.001 A 
ATOM     85  C   UNL A   1      39.762  35.062  39.137  1.00  0.00     0.000 A 
ENDBRANCH  61  80
BRANCH  73  86
ATOM     86  C   UNL A   1      47.254  38.895  35.231  1.00  0.00    -0.014 A 
ATOM     87  C   UNL A   1      47.149  40.290  35.354  1.00  0.00     0.009 A 
ATOM     88  C   UNL A   1      48.370  38.248  35.782  1.00  0.00     0.009 A 
ATOM     89  C   UNL A   1      48.149  41.025  35.993  1.00  0.00     0.001 A 
ATOM     90  C   UNL A   1      49.355  38.982  36.448  1.00  0.00     0.001 A 
ATOM     91  C   UNL A   1      49.250  40.369  36.541  1.00  0.00     0.000 A 
ENDBRANCH  73  86
ENDBRANCH  47  48
ENDBRANCH  40  42
ENDBRANCH  39  40
ENDBRANCH  38  39
ENDBRANCH  37  38
ENDBRANCH  36  37
ENDBRANCH  35  36
ENDBRANCH  34  35
ENDBRANCH   1  34
TORSDOF 23
ENDMDL
