MODEL 1
REMARK VINA RESULT:     -10.8      0.000      0.000
REMARK SMILES Cc1ccccc1C(=O)Nc1cc(C(=O)OCCOCCOCCOCCOC(=O)c2ccc(-c3c4nc(c(-c5ccccc5)c5ccc([nH]5)c(-c5ccccc5)c5nc(c(-c6ccccc6)c6ccc3[nH]6)C=C5)C=C4)cc2)ccc1N1CC[NH+](CC(=O)Nc2ccc(F)cc2)CC1
REMARK SMILES IDX 21 1 20 2 19 3 18 4 17 5 16 6 14 7 15 8 13 9 11 10 12 11
REMARK SMILES IDX 81 12 80 13 79 14 10 15 8 16 9 17 7 19 1 20 2 21 3 22 4 23
REMARK SMILES IDX 6 24 5 25 82 26 83 27 98 28 84 29 97 30 85 31 86 33 87 34
REMARK SMILES IDX 88 35 89 36 90 38 91 39 96 40 92 41 95 42 93 43 94 44 22 45
REMARK SMILES IDX 23 46 24 47 25 48 26 49 27 50 28 51 29 52 30 53 31 54 32 55
REMARK SMILES IDX 78 56 33 57 77 58 34 59 35 60 36 61 71 62 37 63 76 64 70 65
REMARK SMILES IDX 72 66 38 67 75 68 69 69 68 70 39 72 61 73 46 74 60 75 47 76
REMARK SMILES IDX 50 77 59 78 73 79 48 80 49 81 58 83 74 84 51 85 40 86 41 87
REMARK SMILES IDX 45 88 42 89 44 90 43 91 62 92 63 93 67 94 64 95 66 96 65 97
REMARK SMILES IDX 52 98 53 99 57 100 54 101 56 102 55 103
REMARK H PARENT 10 18 85 32 89 37 72 71 50 82
REMARK Flexibility Score: inf
ROOT
ATOM      1  C   UNL A   1      43.649  18.901  25.209  1.00  0.00     0.188 C 
ENDROOT
BRANCH   1   2
ATOM      2  C   UNL A   1      42.526  18.673  26.219  1.00  0.00     0.188 C 
BRANCH   2   3
ATOM      3  O   UNL A   1      42.265  19.549  27.308  1.00  0.00    -0.376 OA
BRANCH   3   4
ATOM      4  C   UNL A   1      40.968  20.158  27.252  1.00  0.00     0.202 C 
BRANCH   4   5
ATOM      5  C   UNL A   1      40.617  21.039  26.035  1.00  0.00     0.261 C 
BRANCH   5   6
ATOM      6  O   UNL A   1      39.214  21.230  25.876  1.00  0.00    -0.460 OA
BRANCH   6   7
ATOM      7  C   UNL A   1      38.754  22.439  26.239  1.00  0.00     0.338 C 
ATOM      8  O   UNL A   1      39.376  23.375  26.672  1.00  0.00    -0.246 OA
BRANCH   7   9
ATOM      9  C   UNL A   1      37.402  22.522  25.646  1.00  0.00     0.062 A 
ATOM     10  C   UNL A   1      35.109  21.835  25.373  1.00  0.00     0.065 A 
ATOM     11  C   UNL A   1      36.331  21.685  26.005  1.00  0.00     0.044 A 
ATOM     12  C   UNL A   1      35.010  22.687  24.216  1.00  0.00     0.061 A 
ATOM     13  C   UNL A   1      36.176  23.340  23.773  1.00  0.00     0.029 A 
ATOM     14  C   UNL A   1      37.328  23.336  24.527  1.00  0.00     0.018 A 
BRANCH  10  15
ATOM     15  N   UNL A   1      33.948  21.201  25.855  1.00  0.00    -0.320 N 
ATOM     16  C   UNL A   1      33.292  20.003  25.628  1.00  0.00     0.255 C 
ATOM     17  O   UNL A   1      32.467  19.713  26.511  1.00  0.00    -0.269 OA
ATOM     18  H   UNL A   1      33.482  21.752  26.526  1.00  0.00     0.170 HD
BRANCH  16  19
ATOM     19  C   UNL A   1      33.439  19.003  24.508  1.00  0.00     0.043 A 
ATOM     20  C   UNL A   1      32.035  20.005  22.566  1.00  0.00     0.045 C 
ATOM     21  C   UNL A   1      32.813  18.927  23.252  1.00  0.00    -0.038 A 
ATOM     22  C   UNL A   1      32.999  17.775  22.449  1.00  0.00     0.004 A 
ATOM     23  C   UNL A   1      33.942  16.807  22.759  1.00  0.00     0.000 A 
ATOM     24  C   UNL A   1      34.449  18.034  24.757  1.00  0.00     0.014 A 
ATOM     25  C   UNL A   1      34.719  16.970  23.888  1.00  0.00     0.001 A 
ENDBRANCH  16  19
ENDBRANCH  10  15
BRANCH  12  26
ATOM     26  N   UNL A   1      33.762  23.044  23.621  1.00  0.00    -0.359 N 
ATOM     27  C   UNL A   1      33.744  23.260  22.132  1.00  0.00     0.178 C 
ATOM     28  C   UNL A   1      33.162  24.185  24.325  1.00  0.00     0.178 C 
ATOM     29  C   UNL A   1      32.461  23.948  21.594  1.00  0.00     0.284 C 
ATOM     30  C   UNL A   1      31.765  24.476  23.770  1.00  0.00     0.284 C 
ATOM     31  N   UNL A   1      31.852  24.996  22.425  1.00  0.00    -0.324 N 
ATOM     32  H   UNL A   1      30.953  25.161  21.971  1.00  0.00     0.348 HD
BRANCH  31  33
ATOM     33  C   UNL A   1      32.307  26.409  22.379  1.00  0.00     0.364 C 
BRANCH  33  34
ATOM     34  C   UNL A   1      31.390  27.583  22.774  1.00  0.00     0.279 C 
ATOM     35  O   UNL A   1      30.446  27.857  22.010  1.00  0.00    -0.268 OA
ATOM     36  N   UNL A   1      31.390  28.315  23.938  1.00  0.00    -0.321 N 
ATOM     37  H   UNL A   1      30.487  28.687  24.067  1.00  0.00     0.170 HD
BRANCH  36  38
ATOM     38  C   UNL A   1      32.204  28.740  25.029  1.00  0.00     0.041 A 
ATOM     39  C   UNL A   1      31.694  29.809  25.791  1.00  0.00     0.029 A 
ATOM     40  C   UNL A   1      33.496  28.342  25.362  1.00  0.00     0.029 A 
ATOM     41  C   UNL A   1      32.430  30.419  26.826  1.00  0.00     0.041 A 
ATOM     42  C   UNL A   1      34.266  28.973  26.358  1.00  0.00     0.041 A 
ATOM     43  C   UNL A   1      33.719  29.999  27.097  1.00  0.00     0.123 A 
ATOM     44  F   UNL A   1      34.435  30.582  28.065  1.00  0.00    -0.207 F 
ENDBRANCH  36  38
ENDBRANCH  33  34
ENDBRANCH  31  33
ENDBRANCH  12  26
ENDBRANCH   7   9
ENDBRANCH   6   7
ENDBRANCH   5   6
ENDBRANCH   4   5
ENDBRANCH   3   4
ENDBRANCH   2   3
ENDBRANCH   1   2
BRANCH   1  45
ATOM     45  O   UNL A   1      44.786  18.116  25.524  1.00  0.00    -0.377 OA
BRANCH  45  46
ATOM     46  C   UNL A   1      46.073  18.682  25.475  1.00  0.00     0.188 C 
BRANCH  46  47
ATOM     47  C   UNL A   1      46.404  19.962  24.708  1.00  0.00     0.188 C 
BRANCH  47  48
ATOM     48  O   UNL A   1      46.310  21.190  25.405  1.00  0.00    -0.376 OA
BRANCH  48  49
ATOM     49  C   UNL A   1      45.873  22.342  24.672  1.00  0.00     0.202 C 
BRANCH  49  50
ATOM     50  C   UNL A   1      44.360  22.490  24.433  1.00  0.00     0.261 C 
BRANCH  50  51
ATOM     51  O   UNL A   1      43.672  22.605  25.694  1.00  0.00    -0.460 OA
BRANCH  51  52
ATOM     52  C   UNL A   1      43.898  23.754  26.386  1.00  0.00     0.338 C 
ATOM     53  O   UNL A   1      44.004  24.866  25.896  1.00  0.00    -0.246 OA
BRANCH  52  54
ATOM     54  C   UNL A   1      44.330  23.424  27.781  1.00  0.00     0.060 A 
ATOM     55  C   UNL A   1      43.396  22.884  28.686  1.00  0.00     0.016 A 
ATOM     56  C   UNL A   1      45.458  24.066  28.269  1.00  0.00     0.016 A 
ATOM     57  C   UNL A   1      43.477  23.190  30.057  1.00  0.00     0.010 A 
ATOM     58  C   UNL A   1      45.452  24.469  29.588  1.00  0.00     0.010 A 
ATOM     59  C   UNL A   1      44.445  24.091  30.496  1.00  0.00    -0.014 A 
BRANCH  59  60
ATOM     60  C   UNL A   1      44.420  24.876  31.761  1.00  0.00     0.031 A 
ATOM     61  C   UNL A   1      43.870  26.283  31.709  1.00  0.00     0.074 A 
ATOM     62  C   UNL A   1      44.487  24.176  32.926  1.00  0.00     0.049 A 
ATOM     63  N   UNL A   1      43.573  27.030  32.717  1.00  0.00    -0.248 NA
ATOM     64  C   UNL A   1      43.599  26.981  30.444  1.00  0.00     0.031 C 
ATOM     65  C   UNL A   1      43.735  24.382  34.165  1.00  0.00     0.029 A 
ATOM     66  N   UNL A   1      45.237  23.064  33.255  1.00  0.00    -0.354 N 
ATOM     67  C   UNL A   1      42.792  28.097  32.271  1.00  0.00     0.074 A 
ATOM     68  C   UNL A   1      42.886  28.042  30.838  1.00  0.00     0.031 C 
ATOM     69  C   UNL A   1      44.111  23.525  35.122  1.00  0.00     0.029 A 
ATOM     70  C   UNL A   1      45.303  22.899  34.648  1.00  0.00     0.049 A 
ATOM     71  H   UNL A   1      45.668  22.468  32.601  1.00  0.00     0.167 HD
ATOM     72  C   UNL A   1      42.049  28.822  33.168  1.00  0.00     0.031 A 
ATOM     73  C   UNL A   1      46.487  23.058  35.304  1.00  0.00     0.031 A 
ATOM     74  C   UNL A   1      42.413  28.478  34.554  1.00  0.00     0.049 A 
ATOM     75  C   UNL A   1      46.575  24.417  36.015  1.00  0.00     0.074 A 
ATOM     76  C   UNL A   1      41.715  28.060  35.673  1.00  0.00     0.029 A 
ATOM     77  N   UNL A   1      43.762  28.337  34.876  1.00  0.00    -0.354 N 
ATOM     78  N   UNL A   1      45.801  25.447  35.726  1.00  0.00    -0.248 NA
ATOM     79  C   UNL A   1      47.416  24.701  37.177  1.00  0.00     0.031 C 
ATOM     80  C   UNL A   1      42.656  27.509  36.590  1.00  0.00     0.029 A 
ATOM     81  C   UNL A   1      43.933  27.685  36.076  1.00  0.00     0.049 A 
ATOM     82  H   UNL A   1      44.502  28.665  34.314  1.00  0.00     0.167 HD
ATOM     83  C   UNL A   1      45.976  26.457  36.637  1.00  0.00     0.074 A 
ATOM     84  C   UNL A   1      47.015  25.944  37.514  1.00  0.00     0.031 C 
ATOM     85  C   UNL A   1      45.260  27.628  36.675  1.00  0.00     0.031 A 
BRANCH  72  86
ATOM     86  C   UNL A   1      40.838  29.709  32.835  1.00  0.00    -0.014 A 
ATOM     87  C   UNL A   1      40.574  30.856  33.619  1.00  0.00     0.009 A 
ATOM     88  C   UNL A   1      39.869  29.445  31.846  1.00  0.00     0.009 A 
ATOM     89  C   UNL A   1      39.428  31.657  33.454  1.00  0.00     0.001 A 
ATOM     90  C   UNL A   1      38.735  30.263  31.650  1.00  0.00     0.001 A 
ATOM     91  C   UNL A   1      38.509  31.365  32.461  1.00  0.00     0.000 A 
ENDBRANCH  72  86
BRANCH  73  92
ATOM     92  C   UNL A   1      47.459  22.042  34.761  1.00  0.00    -0.014 A 
ATOM     93  C   UNL A   1      48.715  22.630  34.446  1.00  0.00     0.009 A 
ATOM     94  C   UNL A   1      47.489  20.770  35.370  1.00  0.00     0.009 A 
ATOM     95  C   UNL A   1      49.897  22.169  35.051  1.00  0.00     0.001 A 
ATOM     96  C   UNL A   1      48.688  20.294  35.946  1.00  0.00     0.001 A 
ATOM     97  C   UNL A   1      49.868  21.034  35.853  1.00  0.00     0.000 A 
ENDBRANCH  73  92
BRANCH  85  98
ATOM     98  C   UNL A   1      45.734  28.925  37.314  1.00  0.00    -0.014 A 
ATOM     99  C   UNL A   1      46.266  29.999  36.596  1.00  0.00     0.009 A 
ATOM    100  C   UNL A   1      45.447  29.174  38.683  1.00  0.00     0.009 A 
ATOM    101  C   UNL A   1      46.538  31.227  37.212  1.00  0.00     0.001 A 
ATOM    102  C   UNL A   1      45.659  30.413  39.288  1.00  0.00     0.001 A 
ATOM    103  C   UNL A   1      46.222  31.440  38.551  1.00  0.00     0.000 A 
ENDBRANCH  85  98
ENDBRANCH  59  60
ENDBRANCH  52  54
ENDBRANCH  51  52
ENDBRANCH  50  51
ENDBRANCH  49  50
ENDBRANCH  48  49
ENDBRANCH  47  48
ENDBRANCH  46  47
ENDBRANCH  45  46
ENDBRANCH   1  45
TORSDOF 26
ENDMDL
MODEL 2
REMARK VINA RESULT:     -10.4      4.246      5.935
REMARK SMILES Cc1ccccc1C(=O)Nc1cc(C(=O)OCCOCCOCCOCCOC(=O)c2ccc(-c3c4nc(c(-c5ccccc5)c5ccc([nH]5)c(-c5ccccc5)c5nc(c(-c6ccccc6)c6ccc3[nH]6)C=C5)C=C4)cc2)ccc1N1CC[NH+](CC(=O)Nc2ccc(F)cc2)CC1
REMARK SMILES IDX 21 1 20 2 19 3 18 4 17 5 16 6 14 7 15 8 13 9 11 10 12 11
REMARK SMILES IDX 81 12 80 13 79 14 10 15 8 16 9 17 7 19 1 20 2 21 3 22 4 23
REMARK SMILES IDX 6 24 5 25 82 26 83 27 98 28 84 29 97 30 85 31 86 33 87 34
REMARK SMILES IDX 88 35 89 36 90 38 91 39 96 40 92 41 95 42 93 43 94 44 22 45
REMARK SMILES IDX 23 46 24 47 25 48 26 49 27 50 28 51 29 52 30 53 31 54 32 55
REMARK SMILES IDX 78 56 33 57 77 58 34 59 35 60 36 61 71 62 37 63 76 64 70 65
REMARK SMILES IDX 72 66 38 67 75 68 69 69 68 70 39 72 61 73 46 74 60 75 47 76
REMARK SMILES IDX 50 77 59 78 73 79 48 80 49 81 58 83 74 84 51 85 40 86 41 87
REMARK SMILES IDX 45 88 42 89 44 90 43 91 62 92 63 93 67 94 64 95 66 96 65 97
REMARK SMILES IDX 52 98 53 99 57 100 54 101 56 102 55 103
REMARK H PARENT 10 18 85 32 89 37 72 71 50 82
REMARK Flexibility Score: inf
ROOT
ATOM      1  C   UNL A   1      43.647  18.971  25.164  1.00  0.00     0.188 C 
ENDROOT
BRANCH   1   2
ATOM      2  C   UNL A   1      42.494  18.792  26.150  1.00  0.00     0.188 C 
BRANCH   2   3
ATOM      3  O   UNL A   1      42.217  19.705  27.203  1.00  0.00    -0.376 OA
BRANCH   3   4
ATOM      4  C   UNL A   1      40.898  20.262  27.144  1.00  0.00     0.202 C 
BRANCH   4   5
ATOM      5  C   UNL A   1      40.493  21.074  25.895  1.00  0.00     0.261 C 
BRANCH   5   6
ATOM      6  O   UNL A   1      39.084  21.247  25.779  1.00  0.00    -0.460 OA
BRANCH   6   7
ATOM      7  C   UNL A   1      38.620  22.450  26.158  1.00  0.00     0.338 C 
ATOM      8  O   UNL A   1      39.242  23.392  26.578  1.00  0.00    -0.246 OA
BRANCH   7   9
ATOM      9  C   UNL A   1      37.253  22.520  25.599  1.00  0.00     0.062 A 
ATOM     10  C   UNL A   1      34.970  21.788  25.359  1.00  0.00     0.065 A 
ATOM     11  C   UNL A   1      36.210  21.647  25.957  1.00  0.00     0.044 A 
ATOM     12  C   UNL A   1      34.824  22.672  24.231  1.00  0.00     0.061 A 
ATOM     13  C   UNL A   1      35.964  23.365  23.782  1.00  0.00     0.029 A 
ATOM     14  C   UNL A   1      37.134  23.365  24.508  1.00  0.00     0.018 A 
BRANCH  10  15
ATOM     15  N   UNL A   1      33.835  21.112  25.848  1.00  0.00    -0.320 N 
ATOM     16  C   UNL A   1      33.219  19.893  25.621  1.00  0.00     0.255 C 
ATOM     17  O   UNL A   1      32.411  19.572  26.510  1.00  0.00    -0.269 OA
ATOM     18  H   UNL A   1      33.356  21.645  26.525  1.00  0.00     0.170 HD
BRANCH  16  19
ATOM     19  C   UNL A   1      33.391  18.903  24.496  1.00  0.00     0.043 A 
ATOM     20  C   UNL A   1      32.061  19.940  22.521  1.00  0.00     0.045 C 
ATOM     21  C   UNL A   1      32.805  18.846  23.221  1.00  0.00    -0.038 A 
ATOM     22  C   UNL A   1      33.004  17.700  22.412  1.00  0.00     0.004 A 
ATOM     23  C   UNL A   1      33.927  16.718  22.742  1.00  0.00     0.000 A 
ATOM     24  C   UNL A   1      34.382  17.920  24.768  1.00  0.00     0.014 A 
ATOM     25  C   UNL A   1      34.668  16.862  23.897  1.00  0.00     0.001 A 
ENDBRANCH  16  19
ENDBRANCH  10  15
BRANCH  12  26
ATOM     26  N   UNL A   1      33.554  23.018  23.677  1.00  0.00    -0.359 N 
ATOM     27  C   UNL A   1      33.466  23.143  22.180  1.00  0.00     0.178 C 
ATOM     28  C   UNL A   1      33.010  24.211  24.337  1.00  0.00     0.178 C 
ATOM     29  C   UNL A   1      32.170  23.824  21.663  1.00  0.00     0.284 C 
ATOM     30  C   UNL A   1      31.592  24.497  23.834  1.00  0.00     0.284 C 
ATOM     31  N   UNL A   1      31.621  24.933  22.456  1.00  0.00    -0.324 N 
ATOM     32  H   UNL A   1      30.704  25.088  22.038  1.00  0.00     0.348 HD
BRANCH  31  33
ATOM     33  C   UNL A   1      32.098  26.330  22.301  1.00  0.00     0.364 C 
BRANCH  33  34
ATOM     34  C   UNL A   1      31.240  27.543  22.709  1.00  0.00     0.279 C 
ATOM     35  O   UNL A   1      30.363  27.922  21.910  1.00  0.00    -0.268 OA
ATOM     36  N   UNL A   1      31.219  28.213  23.910  1.00  0.00    -0.321 N 
ATOM     37  H   UNL A   1      30.338  28.640  24.008  1.00  0.00     0.170 HD
BRANCH  36  38
ATOM     38  C   UNL A   1      31.994  28.523  25.066  1.00  0.00     0.041 A 
ATOM     39  C   UNL A   1      33.387  28.594  24.865  1.00  0.00     0.029 A 
ATOM     40  C   UNL A   1      31.584  28.628  26.392  1.00  0.00     0.029 A 
ATOM     41  C   UNL A   1      34.296  28.774  25.927  1.00  0.00     0.041 A 
ATOM     42  C   UNL A   1      32.480  28.757  27.471  1.00  0.00     0.041 A 
ATOM     43  C   UNL A   1      33.832  28.847  27.228  1.00  0.00     0.123 A 
ATOM     44  F   UNL A   1      34.687  29.001  28.246  1.00  0.00    -0.207 F 
ENDBRANCH  36  38
ENDBRANCH  33  34
ENDBRANCH  31  33
ENDBRANCH  12  26
ENDBRANCH   7   9
ENDBRANCH   6   7
ENDBRANCH   5   6
ENDBRANCH   4   5
ENDBRANCH   3   4
ENDBRANCH   2   3
ENDBRANCH   1   2
BRANCH   1  45
ATOM     45  O   UNL A   1      44.743  18.139  25.503  1.00  0.00    -0.377 OA
BRANCH  45  46
ATOM     46  C   UNL A   1      46.055  18.644  25.455  1.00  0.00     0.188 C 
BRANCH  46  47
ATOM     47  C   UNL A   1      46.438  19.937  24.738  1.00  0.00     0.188 C 
BRANCH  47  48
ATOM     48  O   UNL A   1      46.308  21.151  25.453  1.00  0.00    -0.376 OA
BRANCH  48  49
ATOM     49  C   UNL A   1      45.935  22.323  24.716  1.00  0.00     0.202 C 
BRANCH  49  50
ATOM     50  C   UNL A   1      44.443  22.695  24.697  1.00  0.00     0.261 C 
BRANCH  50  51
ATOM     51  O   UNL A   1      43.949  22.818  26.045  1.00  0.00    -0.460 OA
BRANCH  51  52
ATOM     52  C   UNL A   1      43.204  23.927  26.301  1.00  0.00     0.338 C 
ATOM     53  O   UNL A   1      42.176  24.238  25.721  1.00  0.00    -0.246 OA
BRANCH  52  54
ATOM     54  C   UNL A   1      43.990  24.875  27.150  1.00  0.00     0.060 A 
ATOM     55  C   UNL A   1      43.665  25.019  28.513  1.00  0.00     0.016 A 
ATOM     56  C   UNL A   1      44.677  25.893  26.503  1.00  0.00     0.016 A 
ATOM     57  C   UNL A   1      43.821  26.262  29.153  1.00  0.00     0.010 A 
ATOM     58  C   UNL A   1      44.699  27.136  27.099  1.00  0.00     0.010 A 
ATOM     59  C   UNL A   1      44.228  27.365  28.405  1.00  0.00    -0.014 A 
BRANCH  59  60
ATOM     60  C   UNL A   1      44.024  28.798  28.752  1.00  0.00     0.031 A 
ATOM     61  C   UNL A   1      42.607  29.324  28.782  1.00  0.00     0.074 A 
ATOM     62  C   UNL A   1      45.034  29.426  29.415  1.00  0.00     0.049 A 
ATOM     63  N   UNL A   1      42.216  30.457  29.258  1.00  0.00    -0.248 NA
ATOM     64  C   UNL A   1      41.469  28.561  28.250  1.00  0.00     0.031 C 
ATOM     65  C   UNL A   1      44.953  30.362  30.537  1.00  0.00     0.029 A 
ATOM     66  N   UNL A   1      46.402  29.330  29.250  1.00  0.00    -0.354 N 
ATOM     67  C   UNL A   1      40.830  30.425  29.410  1.00  0.00     0.074 A 
ATOM     68  C   UNL A   1      40.414  29.238  28.716  1.00  0.00     0.031 C 
ATOM     69  C   UNL A   1      46.161  30.818  30.891  1.00  0.00     0.029 A 
ATOM     70  C   UNL A   1      47.056  30.414  29.856  1.00  0.00     0.049 A 
ATOM     71  H   UNL A   1      46.857  28.599  28.772  1.00  0.00     0.167 HD
ATOM     72  C   UNL A   1      40.211  31.342  30.222  1.00  0.00     0.031 A 
ATOM     73  C   UNL A   1      47.708  31.337  29.094  1.00  0.00     0.031 A 
ATOM     74  C   UNL A   1      41.147  32.407  30.624  1.00  0.00     0.049 A 
ATOM     75  C   UNL A   1      46.895  32.631  28.931  1.00  0.00     0.074 A 
ATOM     76  C   UNL A   1      41.556  32.945  31.832  1.00  0.00     0.029 A 
ATOM     77  N   UNL A   1      42.001  32.945  29.663  1.00  0.00    -0.354 N 
ATOM     78  N   UNL A   1      45.596  32.712  29.157  1.00  0.00    -0.248 NA
ATOM     79  C   UNL A   1      47.463  33.947  28.646  1.00  0.00     0.031 C 
ATOM     80  C   UNL A   1      42.764  33.665  31.599  1.00  0.00     0.029 A 
ATOM     81  C   UNL A   1      43.033  33.652  30.238  1.00  0.00     0.049 A 
ATOM     82  H   UNL A   1      41.881  32.835  28.691  1.00  0.00     0.167 HD
ATOM     83  C   UNL A   1      45.177  34.018  29.113  1.00  0.00     0.074 A 
ATOM     84  C   UNL A   1      46.385  34.749  28.768  1.00  0.00     0.031 C 
ATOM     85  C   UNL A   1      43.907  34.456  29.392  1.00  0.00     0.031 A 
BRANCH  72  86
ATOM     86  C   UNL A   1      38.810  31.206  30.841  1.00  0.00    -0.014 A 
ATOM     87  C   UNL A   1      38.034  32.364  31.079  1.00  0.00     0.009 A 
ATOM     88  C   UNL A   1      38.224  30.009  31.300  1.00  0.00     0.009 A 
ATOM     89  C   UNL A   1      36.793  32.339  31.743  1.00  0.00     0.001 A 
ATOM     90  C   UNL A   1      36.964  29.970  31.935  1.00  0.00     0.001 A 
ATOM     91  C   UNL A   1      36.251  31.137  32.167  1.00  0.00     0.000 A 
ENDBRANCH  72  86
BRANCH  73  92
ATOM     92  C   UNL A   1      48.795  30.625  28.329  1.00  0.00    -0.014 A 
ATOM     93  C   UNL A   1      49.211  31.368  27.189  1.00  0.00     0.009 A 
ATOM     94  C   UNL A   1      49.806  29.980  29.071  1.00  0.00     0.009 A 
ATOM     95  C   UNL A   1      50.552  31.763  27.040  1.00  0.00     0.001 A 
ATOM     96  C   UNL A   1      51.156  30.354  28.892  1.00  0.00     0.001 A 
ATOM     97  C   UNL A   1      51.513  31.303  27.933  1.00  0.00     0.000 A 
ENDBRANCH  73  92
BRANCH  85  98
ATOM     98  C   UNL A   1      43.297  35.757  28.890  1.00  0.00    -0.014 A 
ATOM     99  C   UNL A   1      43.476  36.994  29.512  1.00  0.00     0.009 A 
ATOM    100  C   UNL A   1      42.680  35.788  27.611  1.00  0.00     0.009 A 
ATOM    101  C   UNL A   1      43.027  38.182  28.922  1.00  0.00     0.001 A 
ATOM    102  C   UNL A   1      42.284  36.974  26.989  1.00  0.00     0.001 A 
ATOM    103  C   UNL A   1      42.446  38.175  27.657  1.00  0.00     0.000 A 
ENDBRANCH  85  98
ENDBRANCH  59  60
ENDBRANCH  52  54
ENDBRANCH  51  52
ENDBRANCH  50  51
ENDBRANCH  49  50
ENDBRANCH  48  49
ENDBRANCH  47  48
ENDBRANCH  46  47
ENDBRANCH  45  46
ENDBRANCH   1  45
TORSDOF 26
ENDMDL
MODEL 3
REMARK VINA RESULT:      -9.5      2.315      3.819
REMARK SMILES Cc1ccccc1C(=O)Nc1cc(C(=O)OCCOCCOCCOCCOC(=O)c2ccc(-c3c4nc(c(-c5ccccc5)c5ccc([nH]5)c(-c5ccccc5)c5nc(c(-c6ccccc6)c6ccc3[nH]6)C=C5)C=C4)cc2)ccc1N1CC[NH+](CC(=O)Nc2ccc(F)cc2)CC1
REMARK SMILES IDX 21 1 20 2 19 3 18 4 17 5 16 6 14 7 15 8 13 9 11 10 12 11
REMARK SMILES IDX 81 12 80 13 79 14 10 15 8 16 9 17 7 19 1 20 2 21 3 22 4 23
REMARK SMILES IDX 6 24 5 25 82 26 83 27 98 28 84 29 97 30 85 31 86 33 87 34
REMARK SMILES IDX 88 35 89 36 90 38 91 39 96 40 92 41 95 42 93 43 94 44 22 45
REMARK SMILES IDX 23 46 24 47 25 48 26 49 27 50 28 51 29 52 30 53 31 54 32 55
REMARK SMILES IDX 78 56 33 57 77 58 34 59 35 60 36 61 71 62 37 63 76 64 70 65
REMARK SMILES IDX 72 66 38 67 75 68 69 69 68 70 39 72 61 73 46 74 60 75 47 76
REMARK SMILES IDX 50 77 59 78 73 79 48 80 49 81 58 83 74 84 51 85 40 86 41 87
REMARK SMILES IDX 45 88 42 89 44 90 43 91 62 92 63 93 67 94 64 95 66 96 65 97
REMARK SMILES IDX 52 98 53 99 57 100 54 101 56 102 55 103
REMARK H PARENT 10 18 85 32 89 37 72 71 50 82
REMARK Flexibility Score: inf
ROOT
ATOM      1  C   UNL A   1      43.275  18.978  25.199  1.00  0.00     0.188 C 
ENDROOT
BRANCH   1   2
ATOM      2  C   UNL A   1      42.111  19.189  26.166  1.00  0.00     0.188 C 
BRANCH   2   3
ATOM      3  O   UNL A   1      42.083  20.223  27.141  1.00  0.00    -0.376 OA
BRANCH   3   4
ATOM      4  C   UNL A   1      40.873  20.991  27.124  1.00  0.00     0.202 C 
BRANCH   4   5
ATOM      5  C   UNL A   1      40.286  21.417  25.762  1.00  0.00     0.261 C 
BRANCH   5   6
ATOM      6  O   UNL A   1      38.863  21.487  25.768  1.00  0.00    -0.460 OA
BRANCH   6   7
ATOM      7  C   UNL A   1      38.348  22.673  26.134  1.00  0.00     0.338 C 
ATOM      8  O   UNL A   1      38.912  23.606  26.648  1.00  0.00    -0.246 OA
BRANCH   7   9
ATOM      9  C   UNL A   1      37.047  22.751  25.436  1.00  0.00     0.062 A 
ATOM     10  C   UNL A   1      34.716  22.224  25.133  1.00  0.00     0.065 A 
ATOM     11  C   UNL A   1      35.880  22.100  25.872  1.00  0.00     0.044 A 
ATOM     12  C   UNL A   1      34.767  22.827  23.827  1.00  0.00     0.061 A 
ATOM     13  C   UNL A   1      36.015  23.274  23.353  1.00  0.00     0.029 A 
ATOM     14  C   UNL A   1      37.118  23.324  24.177  1.00  0.00     0.018 A 
BRANCH  10  15
ATOM     15  N   UNL A   1      33.472  21.803  25.642  1.00  0.00    -0.320 N 
ATOM     16  C   UNL A   1      32.631  20.718  25.464  1.00  0.00     0.255 C 
ATOM     17  O   UNL A   1      31.777  20.598  26.359  1.00  0.00    -0.269 OA
ATOM     18  H   UNL A   1      33.107  22.447  26.292  1.00  0.00     0.170 HD
BRANCH  16  19
ATOM     19  C   UNL A   1      32.606  19.665  24.383  1.00  0.00     0.043 A 
ATOM     20  C   UNL A   1      32.941  17.428  25.660  1.00  0.00     0.045 C 
ATOM     21  C   UNL A   1      32.861  18.284  24.436  1.00  0.00    -0.038 A 
ATOM     22  C   UNL A   1      32.944  17.544  23.230  1.00  0.00     0.004 A 
ATOM     23  C   UNL A   1      32.577  18.086  22.008  1.00  0.00     0.000 A 
ATOM     24  C   UNL A   1      32.165  20.167  23.129  1.00  0.00     0.014 A 
ATOM     25  C   UNL A   1      32.122  19.389  21.966  1.00  0.00     0.001 A 
ENDBRANCH  16  19
ENDBRANCH  10  15
BRANCH  12  26
ATOM     26  N   UNL A   1      33.596  23.163  23.082  1.00  0.00    -0.359 N 
ATOM     27  C   UNL A   1      33.775  23.472  21.620  1.00  0.00     0.178 C 
ATOM     28  C   UNL A   1      32.842  24.227  23.755  1.00  0.00     0.178 C 
ATOM     29  C   UNL A   1      32.543  24.132  20.943  1.00  0.00     0.284 C 
ATOM     30  C   UNL A   1      31.522  24.487  23.025  1.00  0.00     0.284 C 
ATOM     31  N   UNL A   1      31.766  25.096  21.737  1.00  0.00    -0.324 N 
ATOM     32  H   UNL A   1      30.932  25.247  21.170  1.00  0.00     0.348 HD
BRANCH  31  33
ATOM     33  C   UNL A   1      32.145  26.528  21.835  1.00  0.00     0.364 C 
BRANCH  33  34
ATOM     34  C   UNL A   1      31.277  27.559  22.582  1.00  0.00     0.279 C 
ATOM     35  O   UNL A   1      30.282  28.013  21.986  1.00  0.00    -0.268 OA
ATOM     36  N   UNL A   1      31.374  27.975  23.890  1.00  0.00    -0.321 N 
ATOM     37  H   UNL A   1      30.490  28.298  24.176  1.00  0.00     0.170 HD
BRANCH  36  38
ATOM     38  C   UNL A   1      32.275  28.115  24.987  1.00  0.00     0.041 A 
ATOM     39  C   UNL A   1      31.676  28.218  26.258  1.00  0.00     0.029 A 
ATOM     40  C   UNL A   1      33.653  28.307  24.967  1.00  0.00     0.029 A 
ATOM     41  C   UNL A   1      32.420  28.477  27.426  1.00  0.00     0.041 A 
ATOM     42  C   UNL A   1      34.407  28.618  26.116  1.00  0.00     0.041 A 
ATOM     43  C   UNL A   1      33.785  28.684  27.343  1.00  0.00     0.123 A 
ATOM     44  F   UNL A   1      34.500  28.949  28.443  1.00  0.00    -0.207 F 
ENDBRANCH  36  38
ENDBRANCH  33  34
ENDBRANCH  31  33
ENDBRANCH  12  26
ENDBRANCH   7   9
ENDBRANCH   6   7
ENDBRANCH   5   6
ENDBRANCH   4   5
ENDBRANCH   3   4
ENDBRANCH   2   3
ENDBRANCH   1   2
BRANCH   1  45
ATOM     45  O   UNL A   1      44.337  18.278  25.825  1.00  0.00    -0.377 OA
BRANCH  45  46
ATOM     46  C   UNL A   1      45.672  18.577  25.498  1.00  0.00     0.188 C 
BRANCH  46  47
ATOM     47  C   UNL A   1      46.091  19.815  24.707  1.00  0.00     0.188 C 
BRANCH  47  48
ATOM     48  O   UNL A   1      46.013  21.070  25.356  1.00  0.00    -0.376 OA
BRANCH  48  49
ATOM     49  C   UNL A   1      45.971  22.245  24.535  1.00  0.00     0.202 C 
BRANCH  49  50
ATOM     50  C   UNL A   1      44.593  22.883  24.291  1.00  0.00     0.261 C 
BRANCH  50  51
ATOM     51  O   UNL A   1      43.891  23.029  25.541  1.00  0.00    -0.460 OA
BRANCH  51  52
ATOM     52  C   UNL A   1      43.230  24.205  25.711  1.00  0.00     0.338 C 
ATOM     53  O   UNL A   1      43.062  25.054  24.851  1.00  0.00    -0.246 OA
BRANCH  52  54
ATOM     54  C   UNL A   1      43.031  24.462  27.172  1.00  0.00     0.060 A 
ATOM     55  C   UNL A   1      41.727  24.629  27.676  1.00  0.00     0.016 A 
ATOM     56  C   UNL A   1      44.106  24.978  27.882  1.00  0.00     0.016 A 
ATOM     57  C   UNL A   1      41.488  25.502  28.754  1.00  0.00     0.010 A 
ATOM     58  C   UNL A   1      43.846  25.931  28.845  1.00  0.00     0.010 A 
ATOM     59  C   UNL A   1      42.543  26.255  29.266  1.00  0.00    -0.014 A 
BRANCH  59  60
ATOM     60  C   UNL A   1      42.437  27.514  30.052  1.00  0.00     0.031 A 
ATOM     61  C   UNL A   1      41.558  28.616  29.506  1.00  0.00     0.074 A 
ATOM     62  C   UNL A   1      42.773  27.453  31.370  1.00  0.00     0.049 A 
ATOM     63  N   UNL A   1      41.175  29.677  30.132  1.00  0.00    -0.248 NA
ATOM     64  C   UNL A   1      41.016  28.594  28.139  1.00  0.00     0.031 C 
ATOM     65  C   UNL A   1      42.103  28.068  32.517  1.00  0.00     0.029 A 
ATOM     66  N   UNL A   1      43.797  26.772  31.996  1.00  0.00    -0.354 N 
ATOM     67  C   UNL A   1      40.122  30.259  29.427  1.00  0.00     0.074 A 
ATOM     68  C   UNL A   1      40.103  29.569  28.166  1.00  0.00     0.031 C 
ATOM     69  C   UNL A   1      42.758  27.830  33.660  1.00  0.00     0.029 A 
ATOM     70  C   UNL A   1      44.021  27.280  33.286  1.00  0.00     0.049 A 
ATOM     71  H   UNL A   1      44.303  26.029  31.593  1.00  0.00     0.167 HD
ATOM     72  C   UNL A   1      39.305  31.170  30.047  1.00  0.00     0.031 A 
ATOM     73  C   UNL A   1      45.182  27.931  33.576  1.00  0.00     0.031 A 
ATOM     74  C   UNL A   1      39.860  31.574  31.351  1.00  0.00     0.049 A 
ATOM     75  C   UNL A   1      44.998  29.457  33.605  1.00  0.00     0.074 A 
ATOM     76  C   UNL A   1      39.385  31.600  32.651  1.00  0.00     0.029 A 
ATOM     77  N   UNL A   1      41.226  31.840  31.444  1.00  0.00    -0.354 N 
ATOM     78  N   UNL A   1      43.974  30.081  33.053  1.00  0.00    -0.248 NA
ATOM     79  C   UNL A   1      45.840  30.389  34.353  1.00  0.00     0.031 C 
ATOM     80  C   UNL A   1      40.507  31.711  33.522  1.00  0.00     0.029 A 
ATOM     81  C   UNL A   1      41.653  31.855  32.752  1.00  0.00     0.049 A 
ATOM     82  H   UNL A   1      41.812  31.999  30.669  1.00  0.00     0.167 HD
ATOM     83  C   UNL A   1      43.974  31.410  33.392  1.00  0.00     0.074 A 
ATOM     84  C   UNL A   1      45.179  31.553  34.193  1.00  0.00     0.031 C 
ATOM     85  C   UNL A   1      43.001  32.318  33.058  1.00  0.00     0.031 A 
BRANCH  72  86
ATOM     86  C   UNL A   1      37.890  31.572  29.600  1.00  0.00    -0.014 A 
ATOM     87  C   UNL A   1      37.061  32.308  30.478  1.00  0.00     0.009 A 
ATOM     88  C   UNL A   1      37.269  31.196  28.392  1.00  0.00     0.009 A 
ATOM     89  C   UNL A   1      35.718  32.620  30.193  1.00  0.00     0.001 A 
ATOM     90  C   UNL A   1      35.933  31.534  28.083  1.00  0.00     0.001 A 
ATOM     91  C   UNL A   1      35.153  32.238  28.987  1.00  0.00     0.000 A 
ENDBRANCH  72  86
BRANCH  73  92
ATOM     92  C   UNL A   1      46.323  26.972  33.350  1.00  0.00    -0.014 A 
ATOM     93  C   UNL A   1      47.481  27.635  32.857  1.00  0.00     0.009 A 
ATOM     94  C   UNL A   1      46.531  25.961  34.311  1.00  0.00     0.009 A 
ATOM     95  C   UNL A   1      48.697  27.573  33.558  1.00  0.00     0.001 A 
ATOM     96  C   UNL A   1      47.769  25.878  34.987  1.00  0.00     0.001 A 
ATOM     97  C   UNL A   1      48.819  26.739  34.663  1.00  0.00     0.000 A 
ENDBRANCH  73  92
BRANCH  85  98
ATOM     98  C   UNL A   1      43.198  33.825  32.978  1.00  0.00    -0.014 A 
ATOM     99  C   UNL A   1      42.337  34.756  33.563  1.00  0.00     0.009 A 
ATOM    100  C   UNL A   1      44.417  34.342  32.466  1.00  0.00     0.009 A 
ATOM    101  C   UNL A   1      42.649  36.121  33.596  1.00  0.00     0.001 A 
ATOM    102  C   UNL A   1      44.762  35.692  32.548  1.00  0.00     0.001 A 
ATOM    103  C   UNL A   1      43.864  36.588  33.103  1.00  0.00     0.000 A 
ENDBRANCH  85  98
ENDBRANCH  59  60
ENDBRANCH  52  54
ENDBRANCH  51  52
ENDBRANCH  50  51
ENDBRANCH  49  50
ENDBRANCH  48  49
ENDBRANCH  47  48
ENDBRANCH  46  47
ENDBRANCH  45  46
ENDBRANCH   1  45
TORSDOF 26
ENDMDL
