MODEL 1
REMARK VINA RESULT:     -10.2      0.000      0.000
REMARK SMILES O=C(OCCOCCOCCOCCOC(=O)c1ccc(-c2c3nc(c(-c4ccccc4)c4ccc([nH]4)c(-c4ccccc4)c4nc(c(-c5ccccc5)c5ccc2[nH]5)C=C4)C=C3)cc1)C1=Cc2c(Cl)cc(Cl)cc2O[C@@H]1C(F)(F)F
REMARK SMILES IDX 10 1 9 2 8 3 7 4 6 5 5 6 4 7 3 8 2 9 1 10 66 11 67 12 77 13
REMARK SMILES IDX 68 14 76 15 69 16 75 17 70 18 71 19 74 20 72 21 73 22 78 23
REMARK SMILES IDX 79 24 80 25 81 26 11 27 12 28 13 29 14 30 15 31 16 32 17 33
REMARK SMILES IDX 18 34 19 35 65 36 20 37 64 38 21 39 22 40 23 41 58 42 24 43
REMARK SMILES IDX 63 44 57 45 59 46 25 47 62 48 56 49 55 50 26 52 48 53 33 54
REMARK SMILES IDX 47 55 34 56 37 57 46 58 60 59 35 60 36 61 45 63 61 64 38 65
REMARK SMILES IDX 27 66 28 67 32 68 29 69 31 70 30 71 49 72 50 73 54 74 51 75
REMARK SMILES IDX 53 76 52 77 39 78 40 79 44 80 41 81 43 82 42 83
REMARK H PARENT 59 51 37 62
REMARK Flexibility Score: inf
ROOT
ATOM      1  C   UNL A   1      41.310  19.972  26.520  1.00  0.00     0.188 C 
ENDROOT
BRANCH   1   2
ATOM      2  O   UNL A   1      40.045  20.577  26.746  1.00  0.00    -0.377 OA
BRANCH   2   3
ATOM      3  C   UNL A   1      39.936  21.931  26.330  1.00  0.00     0.188 C 
BRANCH   3   4
ATOM      4  C   UNL A   1      38.519  22.292  25.913  1.00  0.00     0.188 C 
BRANCH   4   5
ATOM      5  O   UNL A   1      37.850  21.257  25.209  1.00  0.00    -0.376 OA
BRANCH   5   6
ATOM      6  C   UNL A   1      36.685  21.571  24.463  1.00  0.00     0.202 C 
BRANCH   6   7
ATOM      7  C   UNL A   1      36.731  22.894  23.699  1.00  0.00     0.261 C 
BRANCH   7   8
ATOM      8  O   UNL A   1      35.718  23.800  24.163  1.00  0.00    -0.460 OA
BRANCH   8   9
ATOM      9  C   UNL A   1      34.488  23.645  23.629  1.00  0.00     0.338 C 
ATOM     10  O   UNL A   1      34.278  23.686  22.427  1.00  0.00    -0.246 OA
BRANCH   9  11
ATOM     11  C   UNL A   1      33.412  23.539  24.651  1.00  0.00     0.087 C 
ATOM     12  C   UNL A   1      33.334  24.637  25.426  1.00  0.00     0.029 C 
ATOM     13  C   UNL A   1      32.161  22.776  24.289  1.00  0.00     0.316 C 
ATOM     14  C   UNL A   1      32.226  25.526  25.009  1.00  0.00     0.036 A 
ATOM     15  O   UNL A   1      30.979  23.613  24.158  1.00  0.00    -0.475 OA
ATOM     16  C   UNL A   1      32.281  26.917  25.190  1.00  0.00     0.053 A 
ATOM     17  C   UNL A   1      31.138  24.965  24.328  1.00  0.00     0.130 A 
ATOM     18  Cl  UNL A   1      33.544  27.664  26.100  1.00  0.00    -0.083 Cl
ATOM     19  C   UNL A   1      31.319  27.741  24.603  1.00  0.00     0.042 A 
ATOM     20  C   UNL A   1      30.166  25.786  23.757  1.00  0.00     0.067 A 
ATOM     21  C   UNL A   1      30.288  27.171  23.861  1.00  0.00     0.046 A 
ATOM     22  Cl  UNL A   1      29.181  28.191  23.027  1.00  0.00    -0.084 Cl
BRANCH  13  23
ATOM     23  C   UNL A   1      31.922  21.582  25.215  1.00  0.00     0.430 C 
ATOM     24  F   UNL A   1      30.759  21.713  25.895  1.00  0.00    -0.167 F 
ATOM     25  F   UNL A   1      31.827  20.429  24.507  1.00  0.00    -0.167 F 
ATOM     26  F   UNL A   1      32.915  21.423  26.117  1.00  0.00    -0.167 F 
ENDBRANCH  13  23
ENDBRANCH   9  11
ENDBRANCH   8   9
ENDBRANCH   7   8
ENDBRANCH   6   7
ENDBRANCH   5   6
ENDBRANCH   4   5
ENDBRANCH   3   4
ENDBRANCH   2   3
ENDBRANCH   1   2
BRANCH   1  27
ATOM     27  C   UNL A   1      42.480  20.915  26.151  1.00  0.00     0.188 C 
BRANCH  27  28
ATOM     28  O   UNL A   1      43.318  20.718  25.019  1.00  0.00    -0.376 OA
BRANCH  28  29
ATOM     29  C   UNL A   1      44.556  21.395  24.928  1.00  0.00     0.202 C 
BRANCH  29  30
ATOM     30  C   UNL A   1      44.574  22.659  24.055  1.00  0.00     0.261 C 
BRANCH  30  31
ATOM     31  O   UNL A   1      43.850  23.774  24.606  1.00  0.00    -0.460 OA
BRANCH  31  32
ATOM     32  C   UNL A   1      44.607  24.796  25.089  1.00  0.00     0.338 C 
ATOM     33  O   UNL A   1      45.621  25.245  24.618  1.00  0.00    -0.246 OA
BRANCH  32  34
ATOM     34  C   UNL A   1      43.872  25.449  26.219  1.00  0.00     0.060 A 
ATOM     35  C   UNL A   1      44.074  26.823  26.420  1.00  0.00     0.016 A 
ATOM     36  C   UNL A   1      42.954  24.760  27.016  1.00  0.00     0.016 A 
ATOM     37  C   UNL A   1      43.366  27.509  27.411  1.00  0.00     0.010 A 
ATOM     38  C   UNL A   1      42.264  25.443  28.028  1.00  0.00     0.010 A 
ATOM     39  C   UNL A   1      42.481  26.817  28.247  1.00  0.00    -0.014 A 
BRANCH  39  40
ATOM     40  C   UNL A   1      41.960  27.458  29.482  1.00  0.00     0.031 A 
ATOM     41  C   UNL A   1      40.674  28.237  29.376  1.00  0.00     0.074 A 
ATOM     42  C   UNL A   1      42.593  27.376  30.668  1.00  0.00     0.049 A 
ATOM     43  N   UNL A   1      40.077  28.982  30.269  1.00  0.00    -0.248 NA
ATOM     44  C   UNL A   1      39.972  28.163  28.083  1.00  0.00     0.031 C 
ATOM     45  C   UNL A   1      43.805  26.607  30.939  1.00  0.00     0.029 A 
ATOM     46  N   UNL A   1      42.300  27.973  31.873  1.00  0.00    -0.354 N 
ATOM     47  C   UNL A   1      38.944  29.482  29.640  1.00  0.00     0.074 A 
ATOM     48  C   UNL A   1      38.938  28.964  28.290  1.00  0.00     0.031 C 
ATOM     49  C   UNL A   1      44.169  26.801  32.220  1.00  0.00     0.029 A 
ATOM     50  C   UNL A   1      43.239  27.741  32.849  1.00  0.00     0.049 A 
ATOM     51  H   UNL A   1      41.492  28.516  32.022  1.00  0.00     0.167 HD
ATOM     52  C   UNL A   1      37.991  30.305  30.137  1.00  0.00     0.031 A 
ATOM     53  C   UNL A   1      43.359  28.258  34.091  1.00  0.00     0.031 A 
ATOM     54  C   UNL A   1      37.990  30.831  31.474  1.00  0.00     0.049 A 
ATOM     55  C   UNL A   1      42.336  29.255  34.585  1.00  0.00     0.074 A 
ATOM     56  C   UNL A   1      37.048  31.650  32.072  1.00  0.00     0.029 A 
ATOM     57  N   UNL A   1      38.980  30.601  32.412  1.00  0.00    -0.354 N 
ATOM     58  N   UNL A   1      41.251  29.692  33.993  1.00  0.00    -0.248 NA
ATOM     59  C   UNL A   1      42.563  29.836  35.919  1.00  0.00     0.031 C 
ATOM     60  C   UNL A   1      37.505  31.973  33.352  1.00  0.00     0.029 A 
ATOM     61  C   UNL A   1      38.696  31.303  33.572  1.00  0.00     0.049 A 
ATOM     62  H   UNL A   1      39.767  30.026  32.277  1.00  0.00     0.167 HD
ATOM     63  C   UNL A   1      40.658  30.577  34.890  1.00  0.00     0.074 A 
ATOM     64  C   UNL A   1      41.490  30.599  36.073  1.00  0.00     0.031 C 
ATOM     65  C   UNL A   1      39.529  31.313  34.743  1.00  0.00     0.031 A 
BRANCH  52  66
ATOM     66  C   UNL A   1      36.888  30.732  29.214  1.00  0.00    -0.014 A 
ATOM     67  C   UNL A   1      35.853  29.856  28.856  1.00  0.00     0.009 A 
ATOM     68  C   UNL A   1      36.855  32.057  28.749  1.00  0.00     0.009 A 
ATOM     69  C   UNL A   1      34.812  30.297  28.035  1.00  0.00     0.001 A 
ATOM     70  C   UNL A   1      35.801  32.501  27.951  1.00  0.00     0.001 A 
ATOM     71  C   UNL A   1      34.783  31.619  27.591  1.00  0.00     0.000 A 
ENDBRANCH  52  66
BRANCH  53  72
ATOM     72  C   UNL A   1      44.528  27.918  34.949  1.00  0.00    -0.014 A 
ATOM     73  C   UNL A   1      45.727  28.643  34.858  1.00  0.00     0.009 A 
ATOM     74  C   UNL A   1      44.477  26.805  35.805  1.00  0.00     0.009 A 
ATOM     75  C   UNL A   1      46.857  28.239  35.576  1.00  0.00     0.001 A 
ATOM     76  C   UNL A   1      45.598  26.425  36.547  1.00  0.00     0.001 A 
ATOM     77  C   UNL A   1      46.791  27.133  36.421  1.00  0.00     0.000 A 
ENDBRANCH  53  72
BRANCH  65  78
ATOM     78  C   UNL A   1      39.108  32.184  35.894  1.00  0.00    -0.014 A 
ATOM     79  C   UNL A   1      39.555  33.511  36.003  1.00  0.00     0.009 A 
ATOM     80  C   UNL A   1      38.200  31.693  36.846  1.00  0.00     0.009 A 
ATOM     81  C   UNL A   1      39.121  34.317  37.057  1.00  0.00     0.001 A 
ATOM     82  C   UNL A   1      37.745  32.512  37.880  1.00  0.00     0.001 A 
ATOM     83  C   UNL A   1      38.212  33.820  37.990  1.00  0.00     0.000 A 
ENDBRANCH  65  78
ENDBRANCH  39  40
ENDBRANCH  32  34
ENDBRANCH  31  32
ENDBRANCH  30  31
ENDBRANCH  29  30
ENDBRANCH  28  29
ENDBRANCH  27  28
ENDBRANCH   1  27
TORSDOF 21
ENDMDL
MODEL 2
REMARK VINA RESULT:     -10.1      4.058      6.011
REMARK SMILES O=C(OCCOCCOCCOCCOC(=O)c1ccc(-c2c3nc(c(-c4ccccc4)c4ccc([nH]4)c(-c4ccccc4)c4nc(c(-c5ccccc5)c5ccc2[nH]5)C=C4)C=C3)cc1)C1=Cc2c(Cl)cc(Cl)cc2O[C@@H]1C(F)(F)F
REMARK SMILES IDX 10 1 9 2 8 3 7 4 6 5 5 6 4 7 3 8 2 9 1 10 66 11 67 12 77 13
REMARK SMILES IDX 68 14 76 15 69 16 75 17 70 18 71 19 74 20 72 21 73 22 78 23
REMARK SMILES IDX 79 24 80 25 81 26 11 27 12 28 13 29 14 30 15 31 16 32 17 33
REMARK SMILES IDX 18 34 19 35 65 36 20 37 64 38 21 39 22 40 23 41 58 42 24 43
REMARK SMILES IDX 63 44 57 45 59 46 25 47 62 48 56 49 55 50 26 52 48 53 33 54
REMARK SMILES IDX 47 55 34 56 37 57 46 58 60 59 35 60 36 61 45 63 61 64 38 65
REMARK SMILES IDX 27 66 28 67 32 68 29 69 31 70 30 71 49 72 50 73 54 74 51 75
REMARK SMILES IDX 53 76 52 77 39 78 40 79 44 80 41 81 43 82 42 83
REMARK H PARENT 59 51 37 62
REMARK Flexibility Score: inf
ROOT
ATOM      1  C   UNL A   1      36.019  22.313  23.928  1.00  0.00     0.188 C 
ENDROOT
BRANCH   1   2
ATOM      2  O   UNL A   1      35.928  23.706  24.188  1.00  0.00    -0.377 OA
BRANCH   2   3
ATOM      3  C   UNL A   1      35.421  24.054  25.469  1.00  0.00     0.188 C 
BRANCH   3   4
ATOM      4  C   UNL A   1      33.962  24.477  25.415  1.00  0.00     0.188 C 
BRANCH   4   5
ATOM      5  O   UNL A   1      33.095  23.632  26.158  1.00  0.00    -0.376 OA
BRANCH   5   6
ATOM      6  C   UNL A   1      32.000  24.206  26.853  1.00  0.00     0.202 C 
BRANCH   6   7
ATOM      7  C   UNL A   1      30.714  24.358  26.041  1.00  0.00     0.261 C 
BRANCH   7   8
ATOM      8  O   UNL A   1      30.146  25.667  26.203  1.00  0.00    -0.460 OA
BRANCH   8   9
ATOM      9  C   UNL A   1      30.691  26.651  25.457  1.00  0.00     0.338 C 
ATOM     10  O   UNL A   1      31.237  27.627  25.945  1.00  0.00    -0.246 OA
BRANCH   9  11
ATOM     11  C   UNL A   1      30.455  26.482  23.997  1.00  0.00     0.087 C 
ATOM     12  C   UNL A   1      29.162  26.652  23.666  1.00  0.00     0.029 C 
ATOM     13  C   UNL A   1      31.546  26.915  23.047  1.00  0.00     0.316 C 
ATOM     14  C   UNL A   1      28.916  27.994  23.090  1.00  0.00     0.036 A 
ATOM     15  O   UNL A   1      31.202  28.081  22.249  1.00  0.00    -0.475 OA
ATOM     16  C   UNL A   1      27.680  28.646  23.229  1.00  0.00     0.053 A 
ATOM     17  C   UNL A   1      29.981  28.665  22.474  1.00  0.00     0.130 A 
ATOM     18  Cl  UNL A   1      26.301  27.845  23.892  1.00  0.00    -0.083 Cl
ATOM     19  C   UNL A   1      27.546  29.985  22.857  1.00  0.00     0.042 A 
ATOM     20  C   UNL A   1      29.842  29.997  22.086  1.00  0.00     0.067 A 
ATOM     21  C   UNL A   1      28.639  30.661  22.321  1.00  0.00     0.046 A 
ATOM     22  Cl  UNL A   1      28.513  32.345  21.988  1.00  0.00    -0.084 Cl
BRANCH  13  23
ATOM     23  C   UNL A   1      32.058  25.758  22.187  1.00  0.00     0.430 C 
ATOM     24  F   UNL A   1      33.408  25.668  22.240  1.00  0.00    -0.167 F 
ATOM     25  F   UNL A   1      31.574  24.571  22.629  1.00  0.00    -0.167 F 
ATOM     26  F   UNL A   1      31.701  25.884  20.891  1.00  0.00    -0.167 F 
ENDBRANCH  13  23
ENDBRANCH   9  11
ENDBRANCH   8   9
ENDBRANCH   7   8
ENDBRANCH   6   7
ENDBRANCH   5   6
ENDBRANCH   4   5
ENDBRANCH   3   4
ENDBRANCH   2   3
ENDBRANCH   1   2
BRANCH   1  27
ATOM     27  C   UNL A   1      36.789  21.458  24.962  1.00  0.00     0.188 C 
BRANCH  27  28
ATOM     28  O   UNL A   1      36.726  20.038  25.006  1.00  0.00    -0.376 OA
BRANCH  28  29
ATOM     29  C   UNL A   1      37.918  19.277  25.011  1.00  0.00     0.202 C 
BRANCH  29  30
ATOM     30  C   UNL A   1      39.177  19.992  25.523  1.00  0.00     0.261 C 
BRANCH  30  31
ATOM     31  O   UNL A   1      40.107  19.140  26.216  1.00  0.00    -0.460 OA
BRANCH  31  32
ATOM     32  C   UNL A   1      41.425  19.422  26.032  1.00  0.00     0.338 C 
ATOM     33  O   UNL A   1      42.228  18.792  25.390  1.00  0.00    -0.246 OA
BRANCH  32  34
ATOM     34  C   UNL A   1      41.711  20.782  26.587  1.00  0.00     0.060 A 
ATOM     35  C   UNL A   1      42.072  21.792  25.684  1.00  0.00     0.016 A 
ATOM     36  C   UNL A   1      41.561  21.087  27.943  1.00  0.00     0.016 A 
ATOM     37  C   UNL A   1      42.283  23.102  26.126  1.00  0.00     0.010 A 
ATOM     38  C   UNL A   1      41.799  22.394  28.391  1.00  0.00     0.010 A 
ATOM     39  C   UNL A   1      42.183  23.405  27.490  1.00  0.00    -0.014 A 
BRANCH  39  40
ATOM     40  C   UNL A   1      42.695  24.701  28.009  1.00  0.00     0.031 A 
ATOM     41  C   UNL A   1      41.686  25.772  28.331  1.00  0.00     0.074 A 
ATOM     42  C   UNL A   1      44.007  24.946  28.189  1.00  0.00     0.049 A 
ATOM     43  N   UNL A   1      41.878  27.018  28.680  1.00  0.00    -0.248 NA
ATOM     44  C   UNL A   1      40.268  25.381  28.242  1.00  0.00     0.031 C 
ATOM     45  C   UNL A   1      45.091  23.988  27.985  1.00  0.00     0.029 A 
ATOM     46  N   UNL A   1      44.648  26.101  28.571  1.00  0.00    -0.354 N 
ATOM     47  C   UNL A   1      40.609  27.562  28.831  1.00  0.00     0.074 A 
ATOM     48  C   UNL A   1      39.655  26.519  28.529  1.00  0.00     0.031 C 
ATOM     49  C   UNL A   1      46.266  24.603  28.216  1.00  0.00     0.029 A 
ATOM     50  C   UNL A   1      46.020  26.008  28.545  1.00  0.00     0.049 A 
ATOM     51  H   UNL A   1      44.170  26.919  28.839  1.00  0.00     0.167 HD
ATOM     52  C   UNL A   1      40.263  28.822  29.184  1.00  0.00     0.031 A 
ATOM     53  C   UNL A   1      46.966  26.955  28.723  1.00  0.00     0.031 A 
ATOM     54  C   UNL A   1      41.202  29.869  29.480  1.00  0.00     0.049 A 
ATOM     55  C   UNL A   1      46.551  28.378  29.016  1.00  0.00     0.074 A 
ATOM     56  C   UNL A   1      40.940  31.170  29.875  1.00  0.00     0.029 A 
ATOM     57  N   UNL A   1      42.577  29.739  29.401  1.00  0.00    -0.354 N 
ATOM     58  N   UNL A   1      45.349  28.872  29.190  1.00  0.00    -0.248 NA
ATOM     59  C   UNL A   1      47.629  29.376  29.128  1.00  0.00     0.031 C 
ATOM     60  C   UNL A   1      42.158  31.848  29.968  1.00  0.00     0.029 A 
ATOM     61  C   UNL A   1      43.177  30.952  29.695  1.00  0.00     0.049 A 
ATOM     62  H   UNL A   1      43.057  28.911  29.172  1.00  0.00     0.167 HD
ATOM     63  C   UNL A   1      45.529  30.227  29.454  1.00  0.00     0.074 A 
ATOM     64  C   UNL A   1      46.954  30.475  29.440  1.00  0.00     0.031 C 
ATOM     65  C   UNL A   1      44.596  31.184  29.681  1.00  0.00     0.031 A 
BRANCH  52  66
ATOM     66  C   UNL A   1      38.801  29.159  29.224  1.00  0.00    -0.014 A 
ATOM     67  C   UNL A   1      38.031  28.940  30.375  1.00  0.00     0.009 A 
ATOM     68  C   UNL A   1      38.205  29.767  28.107  1.00  0.00     0.009 A 
ATOM     69  C   UNL A   1      36.685  29.310  30.401  1.00  0.00     0.001 A 
ATOM     70  C   UNL A   1      36.867  30.158  28.145  1.00  0.00     0.001 A 
ATOM     71  C   UNL A   1      36.107  29.926  29.290  1.00  0.00     0.000 A 
ENDBRANCH  52  66
BRANCH  53  72
ATOM     72  C   UNL A   1      48.410  26.629  28.558  1.00  0.00    -0.014 A 
ATOM     73  C   UNL A   1      49.151  26.069  29.611  1.00  0.00     0.009 A 
ATOM     74  C   UNL A   1      49.078  26.959  27.367  1.00  0.00     0.009 A 
ATOM     75  C   UNL A   1      50.531  25.882  29.488  1.00  0.00     0.001 A 
ATOM     76  C   UNL A   1      50.451  26.739  27.235  1.00  0.00     0.001 A 
ATOM     77  C   UNL A   1      51.179  26.214  28.300  1.00  0.00     0.000 A 
ENDBRANCH  53  72
BRANCH  65  78
ATOM     78  C   UNL A   1      45.079  32.581  29.957  1.00  0.00    -0.014 A 
ATOM     79  C   UNL A   1      45.343  33.014  31.266  1.00  0.00     0.009 A 
ATOM     80  C   UNL A   1      45.337  33.455  28.888  1.00  0.00     0.009 A 
ATOM     81  C   UNL A   1      45.829  34.301  31.500  1.00  0.00     0.001 A 
ATOM     82  C   UNL A   1      45.852  34.730  29.123  1.00  0.00     0.001 A 
ATOM     83  C   UNL A   1      46.090  35.155  30.428  1.00  0.00     0.000 A 
ENDBRANCH  65  78
ENDBRANCH  39  40
ENDBRANCH  32  34
ENDBRANCH  31  32
ENDBRANCH  30  31
ENDBRANCH  29  30
ENDBRANCH  28  29
ENDBRANCH  27  28
ENDBRANCH   1  27
TORSDOF 21
ENDMDL
MODEL 3
REMARK VINA RESULT:     -10.1      4.118      9.592
REMARK SMILES O=C(OCCOCCOCCOCCOC(=O)c1ccc(-c2c3nc(c(-c4ccccc4)c4ccc([nH]4)c(-c4ccccc4)c4nc(c(-c5ccccc5)c5ccc2[nH]5)C=C4)C=C3)cc1)C1=Cc2c(Cl)cc(Cl)cc2O[C@@H]1C(F)(F)F
REMARK SMILES IDX 10 1 9 2 8 3 7 4 6 5 5 6 4 7 3 8 2 9 1 10 66 11 67 12 77 13
REMARK SMILES IDX 68 14 76 15 69 16 75 17 70 18 71 19 74 20 72 21 73 22 78 23
REMARK SMILES IDX 79 24 80 25 81 26 11 27 12 28 13 29 14 30 15 31 16 32 17 33
REMARK SMILES IDX 18 34 19 35 65 36 20 37 64 38 21 39 22 40 23 41 58 42 24 43
REMARK SMILES IDX 63 44 57 45 59 46 25 47 62 48 56 49 55 50 26 52 48 53 33 54
REMARK SMILES IDX 47 55 34 56 37 57 46 58 60 59 35 60 36 61 45 63 61 64 38 65
REMARK SMILES IDX 27 66 28 67 32 68 29 69 31 70 30 71 49 72 50 73 54 74 51 75
REMARK SMILES IDX 53 76 52 77 39 78 40 79 44 80 41 81 43 82 42 83
REMARK H PARENT 59 51 37 62
REMARK Flexibility Score: inf
ROOT
ATOM      1  C   UNL A   1      34.486  32.517  29.183  1.00  0.00     0.188 C 
ENDROOT
BRANCH   1   2
ATOM      2  O   UNL A   1      35.402  32.141  28.164  1.00  0.00    -0.377 OA
BRANCH   2   3
ATOM      3  C   UNL A   1      35.459  30.751  27.879  1.00  0.00     0.188 C 
BRANCH   3   4
ATOM      4  C   UNL A   1      34.180  30.243  27.233  1.00  0.00     0.188 C 
BRANCH   4   5
ATOM      5  O   UNL A   1      34.376  29.122  26.384  1.00  0.00    -0.376 OA
BRANCH   5   6
ATOM      6  C   UNL A   1      33.584  27.961  26.579  1.00  0.00     0.202 C 
BRANCH   6   7
ATOM      7  C   UNL A   1      32.126  28.218  26.961  1.00  0.00     0.261 C 
BRANCH   7   8
ATOM      8  O   UNL A   1      31.260  28.105  25.821  1.00  0.00    -0.460 OA
BRANCH   8   9
ATOM      9  C   UNL A   1      30.734  26.884  25.589  1.00  0.00     0.338 C 
ATOM     10  O   UNL A   1      30.546  26.064  26.473  1.00  0.00    -0.246 OA
BRANCH   9  11
ATOM     11  C   UNL A   1      30.519  26.601  24.143  1.00  0.00     0.087 C 
ATOM     12  C   UNL A   1      29.230  26.737  23.782  1.00  0.00     0.029 C 
ATOM     13  C   UNL A   1      31.621  26.968  23.178  1.00  0.00     0.316 C 
ATOM     14  C   UNL A   1      28.984  28.029  23.102  1.00  0.00     0.036 A 
ATOM     15  O   UNL A   1      31.281  28.067  22.287  1.00  0.00    -0.475 OA
ATOM     16  C   UNL A   1      27.743  28.682  23.174  1.00  0.00     0.053 A 
ATOM     17  C   UNL A   1      30.054  28.658  22.451  1.00  0.00     0.130 A 
ATOM     18  Cl  UNL A   1      26.359  27.925  23.878  1.00  0.00    -0.083 Cl
ATOM     19  C   UNL A   1      27.607  29.987  22.699  1.00  0.00     0.042 A 
ATOM     20  C   UNL A   1      29.913  29.955  21.960  1.00  0.00     0.067 A 
ATOM     21  C   UNL A   1      28.703  30.628  22.126  1.00  0.00     0.046 A 
ATOM     22  Cl  UNL A   1      28.573  32.280  21.664  1.00  0.00    -0.084 Cl
BRANCH  13  23
ATOM     23  C   UNL A   1      32.151  25.752  22.415  1.00  0.00     0.430 C 
ATOM     24  F   UNL A   1      31.650  24.599  22.919  1.00  0.00    -0.167 F 
ATOM     25  F   UNL A   1      31.782  25.796  21.111  1.00  0.00    -0.167 F 
ATOM     26  F   UNL A   1      33.498  25.669  22.453  1.00  0.00    -0.167 F 
ENDBRANCH  13  23
ENDBRANCH   9  11
ENDBRANCH   8   9
ENDBRANCH   7   8
ENDBRANCH   6   7
ENDBRANCH   5   6
ENDBRANCH   4   5
ENDBRANCH   3   4
ENDBRANCH   2   3
ENDBRANCH   1   2
BRANCH   1  27
ATOM     27  C   UNL A   1      33.597  33.753  28.902  1.00  0.00     0.188 C 
BRANCH  27  28
ATOM     28  O   UNL A   1      34.109  35.074  28.787  1.00  0.00    -0.376 OA
BRANCH  28  29
ATOM     29  C   UNL A   1      33.231  36.181  28.852  1.00  0.00     0.202 C 
BRANCH  29  30
ATOM     30  C   UNL A   1      33.054  36.825  30.236  1.00  0.00     0.261 C 
BRANCH  30  31
ATOM     31  O   UNL A   1      32.508  35.946  31.237  1.00  0.00    -0.460 OA
BRANCH  31  32
ATOM     32  C   UNL A   1      33.037  36.062  32.485  1.00  0.00     0.338 C 
ATOM     33  O   UNL A   1      32.576  36.659  33.424  1.00  0.00    -0.246 OA
BRANCH  32  34
ATOM     34  C   UNL A   1      34.214  35.143  32.597  1.00  0.00     0.060 A 
ATOM     35  C   UNL A   1      33.994  33.865  33.132  1.00  0.00     0.016 A 
ATOM     36  C   UNL A   1      35.484  35.488  32.129  1.00  0.00     0.016 A 
ATOM     37  C   UNL A   1      35.033  32.932  33.201  1.00  0.00     0.010 A 
ATOM     38  C   UNL A   1      36.533  34.562  32.222  1.00  0.00     0.010 A 
ATOM     39  C   UNL A   1      36.321  33.286  32.779  1.00  0.00    -0.014 A 
BRANCH  39  40
ATOM     40  C   UNL A   1      37.484  32.428  33.122  1.00  0.00     0.031 A 
ATOM     41  C   UNL A   1      38.205  32.711  34.414  1.00  0.00     0.074 A 
ATOM     42  C   UNL A   1      37.913  31.431  32.324  1.00  0.00     0.049 A 
ATOM     43  N   UNL A   1      39.310  32.191  34.882  1.00  0.00    -0.248 NA
ATOM     44  C   UNL A   1      37.593  33.721  35.294  1.00  0.00     0.031 C 
ATOM     45  C   UNL A   1      37.281  30.998  31.081  1.00  0.00     0.029 A 
ATOM     46  N   UNL A   1      39.010  30.609  32.446  1.00  0.00    -0.354 N 
ATOM     47  C   UNL A   1      39.535  32.825  36.097  1.00  0.00     0.074 A 
ATOM     48  C   UNL A   1      38.460  33.772  36.293  1.00  0.00     0.031 C 
ATOM     49  C   UNL A   1      38.015  30.009  30.538  1.00  0.00     0.029 A 
ATOM     50  C   UNL A   1      39.192  29.766  31.374  1.00  0.00     0.049 A 
ATOM     51  H   UNL A   1      39.609  30.621  33.227  1.00  0.00     0.167 HD
ATOM     52  C   UNL A   1      40.549  32.642  36.974  1.00  0.00     0.031 A 
ATOM     53  C   UNL A   1      40.210  28.929  31.081  1.00  0.00     0.031 A 
ATOM     54  C   UNL A   1      41.625  31.709  36.787  1.00  0.00     0.049 A 
ATOM     55  C   UNL A   1      41.382  28.819  32.029  1.00  0.00     0.074 A 
ATOM     56  C   UNL A   1      42.682  31.437  37.639  1.00  0.00     0.029 A 
ATOM     57  N   UNL A   1      41.789  30.908  35.671  1.00  0.00    -0.354 N 
ATOM     58  N   UNL A   1      41.566  29.398  33.191  1.00  0.00    -0.248 NA
ATOM     59  C   UNL A   1      42.492  27.943  31.616  1.00  0.00     0.031 C 
ATOM     60  C   UNL A   1      43.525  30.520  37.005  1.00  0.00     0.029 A 
ATOM     61  C   UNL A   1      42.958  30.174  35.790  1.00  0.00     0.049 A 
ATOM     62  H   UNL A   1      41.170  30.866  34.907  1.00  0.00     0.167 HD
ATOM     63  C   UNL A   1      42.796  28.939  33.654  1.00  0.00     0.074 A 
ATOM     64  C   UNL A   1      43.304  28.018  32.662  1.00  0.00     0.031 C 
ATOM     65  C   UNL A   1      43.450  29.259  34.798  1.00  0.00     0.031 A 
BRANCH  52  66
ATOM     66  C   UNL A   1      40.575  33.505  38.201  1.00  0.00    -0.014 A 
ATOM     67  C   UNL A   1      41.218  34.752  38.206  1.00  0.00     0.009 A 
ATOM     68  C   UNL A   1      39.886  33.087  39.351  1.00  0.00     0.009 A 
ATOM     69  C   UNL A   1      41.182  35.557  39.346  1.00  0.00     0.001 A 
ATOM     70  C   UNL A   1      39.831  33.904  40.480  1.00  0.00     0.001 A 
ATOM     71  C   UNL A   1      40.483  35.137  40.478  1.00  0.00     0.000 A 
ENDBRANCH  52  66
BRANCH  53  72
ATOM     72  C   UNL A   1      40.228  28.171  29.798  1.00  0.00    -0.014 A 
ATOM     73  C   UNL A   1      40.818  28.715  28.645  1.00  0.00     0.009 A 
ATOM     74  C   UNL A   1      39.577  26.931  29.700  1.00  0.00     0.009 A 
ATOM     75  C   UNL A   1      40.721  28.051  27.418  1.00  0.00     0.001 A 
ATOM     76  C   UNL A   1      39.512  26.254  28.480  1.00  0.00     0.001 A 
ATOM     77  C   UNL A   1      40.071  26.822  27.337  1.00  0.00     0.000 A 
ENDBRANCH  53  72
BRANCH  65  78
ATOM     78  C   UNL A   1      44.774  28.593  35.055  1.00  0.00    -0.014 A 
ATOM     79  C   UNL A   1      44.850  27.358  35.719  1.00  0.00     0.009 A 
ATOM     80  C   UNL A   1      45.955  29.177  34.570  1.00  0.00     0.009 A 
ATOM     81  C   UNL A   1      46.085  26.737  35.914  1.00  0.00     0.001 A 
ATOM     82  C   UNL A   1      47.184  28.538  34.740  1.00  0.00     0.001 A 
ATOM     83  C   UNL A   1      47.249  27.323  35.418  1.00  0.00     0.000 A 
ENDBRANCH  65  78
ENDBRANCH  39  40
ENDBRANCH  32  34
ENDBRANCH  31  32
ENDBRANCH  30  31
ENDBRANCH  29  30
ENDBRANCH  28  29
ENDBRANCH  27  28
ENDBRANCH   1  27
TORSDOF 21
ENDMDL
