MODEL 1
REMARK VINA RESULT:      -7.6      0.000      0.000
REMARK SMILES CCc1cccc(-c2ccc([C@@H](C)C(=O)OCCOCCOCCOCCOC(=O)c3ccc(-c4c5nc(c(-c6ccccc6)c6ccc([nH]6)c(-c6ccccc6)c6nc(c(-c7ccccc7)c7ccc4[nH]7)C=C6)C=C5)cc3)cc2)c1
REMARK SMILES IDX 21 1 20 2 19 3 18 4 17 5 16 6 14 7 15 8 12 9 13 10 11 11
REMARK SMILES IDX 8 12 9 13 80 14 10 15 79 16 7 17 3 18 4 19 81 20 5 21 6 22
REMARK SMILES IDX 2 23 1 24 22 25 23 26 24 27 25 28 26 29 27 30 28 31 29 32
REMARK SMILES IDX 30 33 31 34 32 35 78 36 33 37 77 38 34 39 35 40 36 41 71 42
REMARK SMILES IDX 37 43 76 44 70 45 72 46 38 47 75 48 69 49 68 50 39 52 61 53
REMARK SMILES IDX 46 54 60 55 47 56 50 57 59 58 73 59 48 60 49 61 58 63 74 64
REMARK SMILES IDX 51 65 40 66 41 67 45 68 42 69 44 70 43 71 62 72 63 73 67 74
REMARK SMILES IDX 64 75 66 76 65 77 52 78 53 79 57 80 54 81 56 82 55 83
REMARK H PARENT 72 51 50 62
REMARK Flexibility Score: inf
ROOT
ATOM      1  C   UNL A   1      32.895  36.798  30.225  1.00  0.00     0.188 C 
ENDROOT
BRANCH   1   2
ATOM      2  C   UNL A   1      33.299  35.322  30.107  1.00  0.00     0.188 C 
BRANCH   2   3
ATOM      3  O   UNL A   1      34.277  34.904  29.164  1.00  0.00    -0.376 OA
BRANCH   3   4
ATOM      4  C   UNL A   1      34.021  33.819  28.285  1.00  0.00     0.202 C 
BRANCH   4   5
ATOM      5  C   UNL A   1      35.112  32.784  27.943  1.00  0.00     0.261 C 
BRANCH   5   6
ATOM      6  O   UNL A   1      36.278  32.753  28.791  1.00  0.00    -0.463 OA
BRANCH   6   7
ATOM      7  C   UNL A   1      36.483  31.612  29.486  1.00  0.00     0.313 C 
ATOM      8  O   UNL A   1      35.592  30.792  29.710  1.00  0.00    -0.252 OA
BRANCH   7   9
ATOM      9  C   UNL A   1      37.898  31.388  30.016  1.00  0.00     0.126 C 
ATOM     10  C   UNL A   1      38.643  32.718  29.963  1.00  0.00     0.025 C 
BRANCH   9  11
ATOM     11  C   UNL A   1      38.780  30.248  29.504  1.00  0.00    -0.034 A 
ATOM     12  C   UNL A   1      40.339  28.083  28.435  1.00  0.00    -0.018 A 
ATOM     13  C   UNL A   1      40.501  28.533  29.759  1.00  0.00     0.009 A 
ATOM     14  C   UNL A   1      39.398  28.755  27.645  1.00  0.00     0.009 A 
ATOM     15  C   UNL A   1      39.733  29.590  30.289  1.00  0.00     0.005 A 
ATOM     16  C   UNL A   1      38.627  29.805  28.173  1.00  0.00     0.005 A 
BRANCH  12  17
ATOM     17  C   UNL A   1      41.048  26.884  27.929  1.00  0.00    -0.018 A 
ATOM     18  C   UNL A   1      42.557  24.957  28.223  1.00  0.00    -0.048 A 
ATOM     19  C   UNL A   1      42.480  24.708  26.845  1.00  0.00     0.004 A 
ATOM     20  C   UNL A   1      41.842  26.053  28.750  1.00  0.00     0.012 A 
ATOM     21  C   UNL A   1      41.701  25.510  26.018  1.00  0.00     0.001 A 
ATOM     22  C   UNL A   1      40.993  26.583  26.556  1.00  0.00     0.009 A 
BRANCH  18  23
ATOM     23  C   UNL A   1      43.483  24.073  29.034  1.00  0.00     0.032 C 
ATOM     24  C   UNL A   1      44.576  23.332  28.280  1.00  0.00     0.009 C 
ENDBRANCH  18  23
ENDBRANCH  12  17
ENDBRANCH   9  11
ENDBRANCH   7   9
ENDBRANCH   6   7
ENDBRANCH   5   6
ENDBRANCH   4   5
ENDBRANCH   3   4
ENDBRANCH   2   3
ENDBRANCH   1   2
BRANCH   1  25
ATOM     25  O   UNL A   1      32.659  37.252  31.542  1.00  0.00    -0.377 OA
BRANCH  25  26
ATOM     26  C   UNL A   1      33.801  37.530  32.335  1.00  0.00     0.188 C 
BRANCH  26  27
ATOM     27  C   UNL A   1      34.033  36.642  33.571  1.00  0.00     0.188 C 
BRANCH  27  28
ATOM     28  O   UNL A   1      34.409  35.307  33.260  1.00  0.00    -0.376 OA
BRANCH  28  29
ATOM     29  C   UNL A   1      35.738  35.047  32.834  1.00  0.00     0.202 C 
BRANCH  29  30
ATOM     30  C   UNL A   1      36.727  34.423  33.837  1.00  0.00     0.261 C 
BRANCH  30  31
ATOM     31  O   UNL A   1      36.200  33.461  34.764  1.00  0.00    -0.460 OA
BRANCH  31  32
ATOM     32  C   UNL A   1      36.983  33.048  35.778  1.00  0.00     0.338 C 
ATOM     33  O   UNL A   1      36.753  33.148  36.973  1.00  0.00    -0.246 OA
BRANCH  32  34
ATOM     34  C   UNL A   1      38.095  32.260  35.205  1.00  0.00     0.060 A 
ATOM     35  C   UNL A   1      39.386  32.431  35.724  1.00  0.00     0.016 A 
ATOM     36  C   UNL A   1      37.870  31.356  34.164  1.00  0.00     0.016 A 
ATOM     37  C   UNL A   1      40.461  31.731  35.175  1.00  0.00     0.010 A 
ATOM     38  C   UNL A   1      38.953  30.676  33.596  1.00  0.00     0.010 A 
ATOM     39  C   UNL A   1      40.258  30.889  34.075  1.00  0.00    -0.014 A 
BRANCH  39  40
ATOM     40  C   UNL A   1      41.425  30.399  33.300  1.00  0.00     0.031 A 
ATOM     41  C   UNL A   1      42.019  31.309  32.258  1.00  0.00     0.074 A 
ATOM     42  C   UNL A   1      41.968  29.190  33.525  1.00  0.00     0.049 A 
ATOM     43  N   UNL A   1      43.003  31.089  31.423  1.00  0.00    -0.248 NA
ATOM     44  C   UNL A   1      41.420  32.650  32.140  1.00  0.00     0.031 C 
ATOM     45  C   UNL A   1      41.527  28.238  34.544  1.00  0.00     0.029 A 
ATOM     46  N   UNL A   1      43.013  28.555  32.899  1.00  0.00    -0.354 N 
ATOM     47  C   UNL A   1      43.131  32.254  30.678  1.00  0.00     0.074 A 
ATOM     48  C   UNL A   1      42.111  33.170  31.138  1.00  0.00     0.031 C 
ATOM     49  C   UNL A   1      42.292  27.134  34.465  1.00  0.00     0.029 A 
ATOM     50  C   UNL A   1      43.247  27.286  33.369  1.00  0.00     0.049 A 
ATOM     51  H   UNL A   1      43.543  28.972  32.183  1.00  0.00     0.167 HD
ATOM     52  C   UNL A   1      44.021  32.540  29.698  1.00  0.00     0.031 A 
ATOM     53  C   UNL A   1      44.115  26.346  32.942  1.00  0.00     0.031 A 
ATOM     54  C   UNL A   1      45.028  31.626  29.229  1.00  0.00     0.049 A 
ATOM     55  C   UNL A   1      45.032  26.657  31.784  1.00  0.00     0.074 A 
ATOM     56  C   UNL A   1      45.983  31.828  28.249  1.00  0.00     0.029 A 
ATOM     57  N   UNL A   1      45.201  30.335  29.700  1.00  0.00    -0.354 N 
ATOM     58  N   UNL A   1      45.161  27.770  31.103  1.00  0.00    -0.248 NA
ATOM     59  C   UNL A   1      45.929  25.578  31.343  1.00  0.00     0.031 C 
ATOM     60  C   UNL A   1      46.691  30.635  28.079  1.00  0.00     0.029 A 
ATOM     61  C   UNL A   1      46.228  29.716  29.007  1.00  0.00     0.049 A 
ATOM     62  H   UNL A   1      44.673  29.919  30.419  1.00  0.00     0.167 HD
ATOM     63  C   UNL A   1      46.176  27.537  30.182  1.00  0.00     0.074 A 
ATOM     64  C   UNL A   1      46.639  26.183  30.401  1.00  0.00     0.031 C 
ATOM     65  C   UNL A   1      46.683  28.369  29.240  1.00  0.00     0.031 A 
BRANCH  52  66
ATOM     66  C   UNL A   1      43.919  33.886  29.035  1.00  0.00    -0.014 A 
ATOM     67  C   UNL A   1      44.602  35.004  29.537  1.00  0.00     0.009 A 
ATOM     68  C   UNL A   1      43.161  34.024  27.862  1.00  0.00     0.009 A 
ATOM     69  C   UNL A   1      44.504  36.240  28.892  1.00  0.00     0.001 A 
ATOM     70  C   UNL A   1      43.090  35.252  27.203  1.00  0.00     0.001 A 
ATOM     71  C   UNL A   1      43.755  36.361  27.722  1.00  0.00     0.000 A 
ENDBRANCH  52  66
BRANCH  53  72
ATOM     72  C   UNL A   1      44.147  25.003  33.583  1.00  0.00    -0.014 A 
ATOM     73  C   UNL A   1      44.541  24.854  34.922  1.00  0.00     0.009 A 
ATOM     74  C   UNL A   1      43.830  23.853  32.840  1.00  0.00     0.009 A 
ATOM     75  C   UNL A   1      44.652  23.582  35.491  1.00  0.00     0.001 A 
ATOM     76  C   UNL A   1      43.909  22.586  33.422  1.00  0.00     0.001 A 
ATOM     77  C   UNL A   1      44.332  22.450  34.742  1.00  0.00     0.000 A 
ENDBRANCH  53  72
BRANCH  65  78
ATOM     78  C   UNL A   1      47.833  27.866  28.410  1.00  0.00    -0.014 A 
ATOM     79  C   UNL A   1      49.164  28.017  28.827  1.00  0.00     0.009 A 
ATOM     80  C   UNL A   1      47.572  27.183  27.210  1.00  0.00     0.009 A 
ATOM     81  C   UNL A   1      50.211  27.529  28.040  1.00  0.00     0.001 A 
ATOM     82  C   UNL A   1      48.617  26.665  26.445  1.00  0.00     0.001 A 
ATOM     83  C   UNL A   1      49.936  26.848  26.854  1.00  0.00     0.000 A 
ENDBRANCH  65  78
ENDBRANCH  39  40
ENDBRANCH  32  34
ENDBRANCH  31  32
ENDBRANCH  30  31
ENDBRANCH  29  30
ENDBRANCH  28  29
ENDBRANCH  27  28
ENDBRANCH  26  27
ENDBRANCH  25  26
ENDBRANCH   1  25
TORSDOF 23
ENDMDL
MODEL 2
REMARK VINA RESULT:      -7.4      0.637      5.793
REMARK SMILES CCc1cccc(-c2ccc([C@@H](C)C(=O)OCCOCCOCCOCCOC(=O)c3ccc(-c4c5nc(c(-c6ccccc6)c6ccc([nH]6)c(-c6ccccc6)c6nc(c(-c7ccccc7)c7ccc4[nH]7)C=C6)C=C5)cc3)cc2)c1
REMARK SMILES IDX 21 1 20 2 19 3 18 4 17 5 16 6 14 7 15 8 12 9 13 10 11 11
REMARK SMILES IDX 8 12 9 13 80 14 10 15 79 16 7 17 3 18 4 19 81 20 5 21 6 22
REMARK SMILES IDX 2 23 1 24 22 25 23 26 24 27 25 28 26 29 27 30 28 31 29 32
REMARK SMILES IDX 30 33 31 34 32 35 78 36 33 37 77 38 34 39 35 40 36 41 71 42
REMARK SMILES IDX 37 43 76 44 70 45 72 46 38 47 75 48 69 49 68 50 39 52 61 53
REMARK SMILES IDX 46 54 60 55 47 56 50 57 59 58 73 59 48 60 49 61 58 63 74 64
REMARK SMILES IDX 51 65 40 66 41 67 45 68 42 69 44 70 43 71 62 72 63 73 67 74
REMARK SMILES IDX 64 75 66 76 65 77 52 78 53 79 57 80 54 81 56 82 55 83
REMARK H PARENT 72 51 50 62
REMARK Flexibility Score: inf
ROOT
ATOM      1  C   UNL A   1      32.895  36.779  30.219  1.00  0.00     0.188 C 
ENDROOT
BRANCH   1   2
ATOM      2  C   UNL A   1      33.433  35.358  30.003  1.00  0.00     0.188 C 
BRANCH   2   3
ATOM      3  O   UNL A   1      34.417  35.091  29.013  1.00  0.00    -0.376 OA
BRANCH   3   4
ATOM      4  C   UNL A   1      34.201  34.097  28.023  1.00  0.00     0.202 C 
BRANCH   4   5
ATOM      5  C   UNL A   1      35.309  33.101  27.625  1.00  0.00     0.261 C 
BRANCH   5   6
ATOM      6  O   UNL A   1      36.223  32.685  28.661  1.00  0.00    -0.463 OA
BRANCH   6   7
ATOM      7  C   UNL A   1      36.159  31.386  29.029  1.00  0.00     0.313 C 
ATOM      8  O   UNL A   1      35.240  30.637  28.698  1.00  0.00    -0.252 OA
BRANCH   7   9
ATOM      9  C   UNL A   1      37.294  30.879  29.918  1.00  0.00     0.126 C 
ATOM     10  C   UNL A   1      37.971  32.086  30.560  1.00  0.00     0.025 C 
BRANCH   9  11
ATOM     11  C   UNL A   1      38.331  29.878  29.409  1.00  0.00    -0.034 A 
ATOM     12  C   UNL A   1      40.348  28.005  28.581  1.00  0.00    -0.018 A 
ATOM     13  C   UNL A   1      39.535  28.682  27.652  1.00  0.00     0.009 A 
ATOM     14  C   UNL A   1      40.115  28.264  29.937  1.00  0.00     0.009 A 
ATOM     15  C   UNL A   1      38.549  29.606  28.053  1.00  0.00     0.005 A 
ATOM     16  C   UNL A   1      39.137  29.189  30.341  1.00  0.00     0.005 A 
BRANCH  12  17
ATOM     17  C   UNL A   1      41.473  27.143  28.147  1.00  0.00    -0.018 A 
ATOM     18  C   UNL A   1      42.679  25.820  26.452  1.00  0.00    -0.048 A 
ATOM     19  C   UNL A   1      43.565  25.383  27.448  1.00  0.00     0.004 A 
ATOM     20  C   UNL A   1      41.633  26.694  26.817  1.00  0.00     0.012 A 
ATOM     21  C   UNL A   1      43.429  25.817  28.763  1.00  0.00     0.001 A 
ATOM     22  C   UNL A   1      42.397  26.687  29.105  1.00  0.00     0.009 A 
BRANCH  18  23
ATOM     23  C   UNL A   1      42.862  25.243  25.063  1.00  0.00     0.032 C 
ATOM     24  C   UNL A   1      43.744  24.011  24.932  1.00  0.00     0.009 C 
ENDBRANCH  18  23
ENDBRANCH  12  17
ENDBRANCH   9  11
ENDBRANCH   7   9
ENDBRANCH   6   7
ENDBRANCH   5   6
ENDBRANCH   4   5
ENDBRANCH   3   4
ENDBRANCH   2   3
ENDBRANCH   1   2
BRANCH   1  25
ATOM     25  O   UNL A   1      32.620  37.119  31.563  1.00  0.00    -0.377 OA
BRANCH  25  26
ATOM     26  C   UNL A   1      33.738  37.390  32.392  1.00  0.00     0.188 C 
BRANCH  26  27
ATOM     27  C   UNL A   1      33.983  36.436  33.576  1.00  0.00     0.188 C 
BRANCH  27  28
ATOM     28  O   UNL A   1      34.426  35.141  33.192  1.00  0.00    -0.376 OA
BRANCH  28  29
ATOM     29  C   UNL A   1      35.783  34.960  32.814  1.00  0.00     0.202 C 
BRANCH  29  30
ATOM     30  C   UNL A   1      36.768  34.384  33.849  1.00  0.00     0.261 C 
BRANCH  30  31
ATOM     31  O   UNL A   1      36.223  33.526  34.864  1.00  0.00    -0.460 OA
BRANCH  31  32
ATOM     32  C   UNL A   1      37.047  33.059  35.821  1.00  0.00     0.338 C 
ATOM     33  O   UNL A   1      36.854  33.068  37.026  1.00  0.00    -0.246 OA
BRANCH  32  34
ATOM     34  C   UNL A   1      38.155  32.337  35.157  1.00  0.00     0.060 A 
ATOM     35  C   UNL A   1      39.475  32.661  35.497  1.00  0.00     0.016 A 
ATOM     36  C   UNL A   1      37.896  31.346  34.207  1.00  0.00     0.016 A 
ATOM     37  C   UNL A   1      40.540  32.026  34.858  1.00  0.00     0.010 A 
ATOM     38  C   UNL A   1      38.965  30.730  33.547  1.00  0.00     0.010 A 
ATOM     39  C   UNL A   1      40.291  31.094  33.843  1.00  0.00    -0.014 A 
BRANCH  39  40
ATOM     40  C   UNL A   1      41.398  30.660  32.956  1.00  0.00     0.031 A 
ATOM     41  C   UNL A   1      42.028  29.316  33.210  1.00  0.00     0.074 A 
ATOM     42  C   UNL A   1      41.823  31.419  31.930  1.00  0.00     0.049 A 
ATOM     43  N   UNL A   1      43.037  28.742  32.606  1.00  0.00    -0.248 NA
ATOM     44  C   UNL A   1      41.439  28.511  34.295  1.00  0.00     0.031 C 
ATOM     45  C   UNL A   1      41.260  32.710  31.540  1.00  0.00     0.029 A 
ATOM     46  N   UNL A   1      42.840  31.208  31.032  1.00  0.00    -0.354 N 
ATOM     47  C   UNL A   1      43.210  27.519  33.244  1.00  0.00     0.074 A 
ATOM     48  C   UNL A   1      42.222  27.443  34.297  1.00  0.00     0.031 C 
ATOM     49  C   UNL A   1      41.949  33.181  30.484  1.00  0.00     0.029 A 
ATOM     50  C   UNL A   1      43.021  32.246  30.151  1.00  0.00     0.049 A 
ATOM     51  H   UNL A   1      43.386  30.389  31.020  1.00  0.00     0.167 HD
ATOM     52  C   UNL A   1      44.110  26.543  32.976  1.00  0.00     0.031 A 
ATOM     53  C   UNL A   1      43.963  32.429  29.204  1.00  0.00     0.031 A 
ATOM     54  C   UNL A   1      45.103  26.623  31.939  1.00  0.00     0.049 A 
ATOM     55  C   UNL A   1      45.014  31.368  28.989  1.00  0.00     0.074 A 
ATOM     56  C   UNL A   1      46.051  25.681  31.582  1.00  0.00     0.029 A 
ATOM     57  N   UNL A   1      45.281  27.710  31.099  1.00  0.00    -0.354 N 
ATOM     58  N   UNL A   1      45.153  30.206  29.581  1.00  0.00    -0.248 NA
ATOM     59  C   UNL A   1      46.035  31.644  27.967  1.00  0.00     0.031 C 
ATOM     60  C   UNL A   1      46.848  26.226  30.572  1.00  0.00     0.029 A 
ATOM     61  C   UNL A   1      46.346  27.476  30.247  1.00  0.00     0.049 A 
ATOM     62  H   UNL A   1      44.733  28.528  31.108  1.00  0.00     0.167 HD
ATOM     63  C   UNL A   1      46.250  29.600  28.978  1.00  0.00     0.074 A 
ATOM     64  C   UNL A   1      46.730  30.516  27.964  1.00  0.00     0.031 C 
ATOM     65  C   UNL A   1      46.809  28.393  29.237  1.00  0.00     0.031 A 
BRANCH  52  66
ATOM     66  C   UNL A   1      44.090  25.319  33.848  1.00  0.00    -0.014 A 
ATOM     67  C   UNL A   1      43.412  24.153  33.460  1.00  0.00     0.009 A 
ATOM     68  C   UNL A   1      44.800  25.320  35.059  1.00  0.00     0.009 A 
ATOM     69  C   UNL A   1      43.423  23.022  34.282  1.00  0.00     0.001 A 
ATOM     70  C   UNL A   1      44.835  24.180  35.862  1.00  0.00     0.001 A 
ATOM     71  C   UNL A   1      44.141  23.034  35.477  1.00  0.00     0.000 A 
ENDBRANCH  52  66
BRANCH  53  72
ATOM     72  C   UNL A   1      43.989  33.682  28.399  1.00  0.00    -0.014 A 
ATOM     73  C   UNL A   1      44.556  34.857  28.917  1.00  0.00     0.009 A 
ATOM     74  C   UNL A   1      43.399  33.721  27.125  1.00  0.00     0.009 A 
ATOM     75  C   UNL A   1      44.499  36.051  28.192  1.00  0.00     0.001 A 
ATOM     76  C   UNL A   1      43.375  34.908  26.389  1.00  0.00     0.001 A 
ATOM     77  C   UNL A   1      43.913  36.075  26.928  1.00  0.00     0.000 A 
ENDBRANCH  53  72
BRANCH  65  78
ATOM     78  C   UNL A   1      47.968  27.963  28.378  1.00  0.00    -0.014 A 
ATOM     79  C   UNL A   1      47.826  27.764  26.997  1.00  0.00     0.009 A 
ATOM     80  C   UNL A   1      49.237  27.801  28.960  1.00  0.00     0.009 A 
ATOM     81  C   UNL A   1      48.923  27.374  26.222  1.00  0.00     0.001 A 
ATOM     82  C   UNL A   1      50.337  27.448  28.179  1.00  0.00     0.001 A 
ATOM     83  C   UNL A   1      50.178  27.223  26.813  1.00  0.00     0.000 A 
ENDBRANCH  65  78
ENDBRANCH  39  40
ENDBRANCH  32  34
ENDBRANCH  31  32
ENDBRANCH  30  31
ENDBRANCH  29  30
ENDBRANCH  28  29
ENDBRANCH  27  28
ENDBRANCH  26  27
ENDBRANCH  25  26
ENDBRANCH   1  25
TORSDOF 23
ENDMDL
MODEL 3
REMARK VINA RESULT:      -7.1      5.183      6.890
REMARK SMILES CCc1cccc(-c2ccc([C@@H](C)C(=O)OCCOCCOCCOCCOC(=O)c3ccc(-c4c5nc(c(-c6ccccc6)c6ccc([nH]6)c(-c6ccccc6)c6nc(c(-c7ccccc7)c7ccc4[nH]7)C=C6)C=C5)cc3)cc2)c1
REMARK SMILES IDX 21 1 20 2 19 3 18 4 17 5 16 6 14 7 15 8 12 9 13 10 11 11
REMARK SMILES IDX 8 12 9 13 80 14 10 15 79 16 7 17 3 18 4 19 81 20 5 21 6 22
REMARK SMILES IDX 2 23 1 24 22 25 23 26 24 27 25 28 26 29 27 30 28 31 29 32
REMARK SMILES IDX 30 33 31 34 32 35 78 36 33 37 77 38 34 39 35 40 36 41 71 42
REMARK SMILES IDX 37 43 76 44 70 45 72 46 38 47 75 48 69 49 68 50 39 52 61 53
REMARK SMILES IDX 46 54 60 55 47 56 50 57 59 58 73 59 48 60 49 61 58 63 74 64
REMARK SMILES IDX 51 65 40 66 41 67 45 68 42 69 44 70 43 71 62 72 63 73 67 74
REMARK SMILES IDX 64 75 66 76 65 77 52 78 53 79 57 80 54 81 56 82 55 83
REMARK H PARENT 72 51 50 62
REMARK Flexibility Score: inf
ROOT
ATOM      1  C   UNL A   1      31.994  29.538  25.825  1.00  0.00     0.188 C 
ENDROOT
BRANCH   1   2
ATOM      2  C   UNL A   1      31.020  30.453  25.069  1.00  0.00     0.188 C 
BRANCH   2   3
ATOM      3  O   UNL A   1      29.935  29.912  24.328  1.00  0.00    -0.376 OA
BRANCH   3   4
ATOM      4  C   UNL A   1      29.822  30.144  22.931  1.00  0.00     0.202 C 
BRANCH   4   5
ATOM      5  C   UNL A   1      30.641  29.331  21.909  1.00  0.00     0.261 C 
BRANCH   5   6
ATOM      6  O   UNL A   1      30.478  27.898  21.926  1.00  0.00    -0.463 OA
BRANCH   6   7
ATOM      7  C   UNL A   1      31.251  27.219  22.803  1.00  0.00     0.313 C 
ATOM      8  O   UNL A   1      32.401  27.554  23.087  1.00  0.00    -0.252 OA
BRANCH   7   9
ATOM      9  C   UNL A   1      30.630  25.969  23.424  1.00  0.00     0.126 C 
ATOM     10  C   UNL A   1      29.818  26.396  24.644  1.00  0.00     0.025 C 
BRANCH   9  11
ATOM     11  C   UNL A   1      31.461  24.722  23.731  1.00  0.00    -0.034 A 
ATOM     12  C   UNL A   1      33.140  22.448  24.252  1.00  0.00    -0.018 A 
ATOM     13  C   UNL A   1      31.738  22.338  24.184  1.00  0.00     0.009 A 
ATOM     14  C   UNL A   1      33.686  23.726  24.080  1.00  0.00     0.009 A 
ATOM     15  C   UNL A   1      30.911  23.449  23.922  1.00  0.00     0.005 A 
ATOM     16  C   UNL A   1      32.865  24.835  23.813  1.00  0.00     0.005 A 
BRANCH  12  17
ATOM     17  C   UNL A   1      34.008  21.255  24.389  1.00  0.00    -0.018 A 
ATOM     18  C   UNL A   1      34.367  18.817  24.476  1.00  0.00    -0.048 A 
ATOM     19  C   UNL A   1      35.710  19.045  24.812  1.00  0.00     0.004 A 
ATOM     20  C   UNL A   1      33.526  19.932  24.275  1.00  0.00     0.012 A 
ATOM     21  C   UNL A   1      36.207  20.339  24.925  1.00  0.00     0.001 A 
ATOM     22  C   UNL A   1      35.365  21.429  24.714  1.00  0.00     0.009 A 
BRANCH  18  23
ATOM     23  C   UNL A   1      33.897  17.377  24.442  1.00  0.00     0.032 C 
ATOM     24  C   UNL A   1      34.713  16.360  25.225  1.00  0.00     0.009 C 
ENDBRANCH  18  23
ENDBRANCH  12  17
ENDBRANCH   9  11
ENDBRANCH   7   9
ENDBRANCH   6   7
ENDBRANCH   5   6
ENDBRANCH   4   5
ENDBRANCH   3   4
ENDBRANCH   2   3
ENDBRANCH   1   2
BRANCH   1  25
ATOM     25  O   UNL A   1      33.285  30.075  26.030  1.00  0.00    -0.377 OA
BRANCH  25  26
ATOM     26  C   UNL A   1      33.767  30.081  27.363  1.00  0.00     0.188 C 
BRANCH  26  27
ATOM     27  C   UNL A   1      35.095  30.813  27.628  1.00  0.00     0.188 C 
BRANCH  27  28
ATOM     28  O   UNL A   1      34.959  32.220  27.782  1.00  0.00    -0.376 OA
BRANCH  28  29
ATOM     29  C   UNL A   1      35.705  32.877  28.796  1.00  0.00     0.202 C 
BRANCH  29  30
ATOM     30  C   UNL A   1      35.436  32.510  30.267  1.00  0.00     0.261 C 
BRANCH  30  31
ATOM     31  O   UNL A   1      36.536  31.976  31.020  1.00  0.00    -0.460 OA
BRANCH  31  32
ATOM     32  C   UNL A   1      36.760  30.649  30.980  1.00  0.00     0.338 C 
ATOM     33  O   UNL A   1      35.936  29.759  31.125  1.00  0.00    -0.246 OA
BRANCH  32  34
ATOM     34  C   UNL A   1      38.150  30.434  30.522  1.00  0.00     0.060 A 
ATOM     35  C   UNL A   1      38.389  30.219  29.158  1.00  0.00     0.016 A 
ATOM     36  C   UNL A   1      39.212  30.446  31.430  1.00  0.00     0.016 A 
ATOM     37  C   UNL A   1      39.685  29.973  28.704  1.00  0.00     0.010 A 
ATOM     38  C   UNL A   1      40.507  30.171  30.977  1.00  0.00     0.010 A 
ATOM     39  C   UNL A   1      40.743  29.897  29.618  1.00  0.00    -0.014 A 
BRANCH  39  40
ATOM     40  C   UNL A   1      42.046  29.330  29.189  1.00  0.00     0.031 A 
ATOM     41  C   UNL A   1      43.247  30.238  29.174  1.00  0.00     0.074 A 
ATOM     42  C   UNL A   1      42.177  28.036  28.845  1.00  0.00     0.049 A 
ATOM     43  N   UNL A   1      44.474  29.989  28.793  1.00  0.00    -0.248 NA
ATOM     44  C   UNL A   1      43.033  31.614  29.653  1.00  0.00     0.031 C 
ATOM     45  C   UNL A   1      41.109  27.039  28.873  1.00  0.00     0.029 A 
ATOM     46  N   UNL A   1      43.274  27.344  28.396  1.00  0.00    -0.354 N 
ATOM     47  C   UNL A   1      45.171  31.177  28.975  1.00  0.00     0.074 A 
ATOM     48  C   UNL A   1      44.229  32.154  29.474  1.00  0.00     0.031 C 
ATOM     49  C   UNL A   1      41.603  25.861  28.449  1.00  0.00     0.029 A 
ATOM     50  C   UNL A   1      43.008  26.033  28.083  1.00  0.00     0.049 A 
ATOM     51  H   UNL A   1      44.167  27.749  28.308  1.00  0.00     0.167 HD
ATOM     52  C   UNL A   1      46.481  31.434  28.748  1.00  0.00     0.031 A 
ATOM     53  C   UNL A   1      43.803  25.089  27.538  1.00  0.00     0.031 A 
ATOM     54  C   UNL A   1      47.418  30.469  28.237  1.00  0.00     0.049 A 
ATOM     55  C   UNL A   1      45.235  25.430  27.206  1.00  0.00     0.074 A 
ATOM     56  C   UNL A   1      48.768  30.631  27.986  1.00  0.00     0.029 A 
ATOM     57  N   UNL A   1      47.097  29.167  27.891  1.00  0.00    -0.354 N 
ATOM     58  N   UNL A   1      45.890  26.548  27.405  1.00  0.00    -0.248 NA
ATOM     59  C   UNL A   1      46.039  24.369  26.580  1.00  0.00     0.031 C 
ATOM     60  C   UNL A   1      49.251  29.446  27.423  1.00  0.00     0.029 A 
ATOM     61  C   UNL A   1      48.218  28.523  27.397  1.00  0.00     0.049 A 
ATOM     62  H   UNL A   1      46.206  28.760  27.982  1.00  0.00     0.167 HD
ATOM     63  C   UNL A   1      47.188  26.313  26.965  1.00  0.00     0.074 A 
ATOM     64  C   UNL A   1      47.232  24.941  26.503  1.00  0.00     0.031 C 
ATOM     65  C   UNL A   1      48.250  27.155  26.946  1.00  0.00     0.031 A 
BRANCH  52  66
ATOM     66  C   UNL A   1      46.973  32.830  29.012  1.00  0.00    -0.014 A 
ATOM     67  C   UNL A   1      47.473  33.206  30.269  1.00  0.00     0.009 A 
ATOM     68  C   UNL A   1      46.977  33.772  27.971  1.00  0.00     0.009 A 
ATOM     69  C   UNL A   1      47.941  34.506  30.483  1.00  0.00     0.001 A 
ATOM     70  C   UNL A   1      47.473  35.059  28.180  1.00  0.00     0.001 A 
ATOM     71  C   UNL A   1      47.947  35.428  29.437  1.00  0.00     0.000 A 
ENDBRANCH  52  66
BRANCH  53  72
ATOM     72  C   UNL A   1      43.265  23.735  27.234  1.00  0.00    -0.014 A 
ATOM     73  C   UNL A   1      42.797  23.419  25.949  1.00  0.00     0.009 A 
ATOM     74  C   UNL A   1      43.170  22.764  28.245  1.00  0.00     0.009 A 
ATOM     75  C   UNL A   1      42.214  22.175  25.692  1.00  0.00     0.001 A 
ATOM     76  C   UNL A   1      42.617  21.510  27.976  1.00  0.00     0.001 A 
ATOM     77  C   UNL A   1      42.128  21.221  26.704  1.00  0.00     0.000 A 
ENDBRANCH  53  72
BRANCH  65  78
ATOM     78  C   UNL A   1      49.566  26.607  26.463  1.00  0.00    -0.014 A 
ATOM     79  C   UNL A   1      50.345  25.755  27.260  1.00  0.00     0.009 A 
ATOM     80  C   UNL A   1      50.007  26.913  25.165  1.00  0.00     0.009 A 
ATOM     81  C   UNL A   1      51.559  25.253  26.780  1.00  0.00     0.001 A 
ATOM     82  C   UNL A   1      51.200  26.381  24.675  1.00  0.00     0.001 A 
ATOM     83  C   UNL A   1      51.981  25.561  25.487  1.00  0.00     0.000 A 
ENDBRANCH  65  78
ENDBRANCH  39  40
ENDBRANCH  32  34
ENDBRANCH  31  32
ENDBRANCH  30  31
ENDBRANCH  29  30
ENDBRANCH  28  29
ENDBRANCH  27  28
ENDBRANCH  26  27
ENDBRANCH  25  26
ENDBRANCH   1  25
TORSDOF 23
ENDMDL
