MODEL 1
REMARK VINA RESULT:      -9.6      0.000      0.000
REMARK SMILES Cc1ccc(CNC(=O)NC[C@@H]2CC[C@@H](C(=O)OCCOCCOCCOCCOC(=O)c3ccc(-c4c5nc(c(-c6ccccc6)c6ccc([nH]6)c(-c6ccccc6)c6nc(c(-c7ccccc7)c7ccc4[nH]7)C=C6)C=C5)cc3)O2)cn1
REMARK SMILES IDX 23 1 22 2 21 3 20 4 19 5 18 6 16 7 17 8 15 9 12 10 13 11
REMARK SMILES IDX 81 12 14 13 11 14 10 15 7 16 8 17 9 19 6 21 5 22 1 23 2 24
REMARK SMILES IDX 3 25 83 26 4 27 82 28 24 29 25 30 26 31 27 32 28 33 29 34
REMARK SMILES IDX 30 35 31 36 32 37 33 38 34 39 80 40 35 41 79 42 36 43 37 44
REMARK SMILES IDX 38 45 73 46 39 47 78 48 72 49 74 50 40 51 77 52 71 53 70 54
REMARK SMILES IDX 41 56 63 57 48 58 62 59 49 60 52 61 61 62 75 63 50 64 51 65
REMARK SMILES IDX 60 67 76 68 53 69 42 70 43 71 47 72 44 73 46 74 45 75 64 76
REMARK SMILES IDX 65 77 69 78 66 79 68 80 67 81 54 82 55 83 59 84 56 85 58 86
REMARK SMILES IDX 57 87
REMARK H PARENT 7 18 10 20 74 55 52 66
REMARK Flexibility Score: inf
ROOT
ATOM      1  C   UNL A   1      34.540  23.390  22.801  1.00  0.00     0.188 C 
ENDROOT
BRANCH   1   2
ATOM      2  C   UNL A   1      33.548  24.512  22.399  1.00  0.00     0.188 C 
BRANCH   2   3
ATOM      3  O   UNL A   1      33.164  24.502  21.035  1.00  0.00    -0.376 OA
BRANCH   3   4
ATOM      4  C   UNL A   1      32.532  25.639  20.478  1.00  0.00     0.202 C 
BRANCH   4   5
ATOM      5  C   UNL A   1      32.065  26.737  21.440  1.00  0.00     0.261 C 
BRANCH   5   6
ATOM      6  O   UNL A   1      30.845  26.443  22.122  1.00  0.00    -0.461 OA
BRANCH   6   7
ATOM      7  C   UNL A   1      30.289  27.432  22.871  1.00  0.00     0.335 C 
ATOM      8  O   UNL A   1      29.533  28.294  22.446  1.00  0.00    -0.249 OA
BRANCH   7   9
ATOM      9  C   UNL A   1      30.606  27.188  24.350  1.00  0.00     0.228 C 
ATOM     10  C   UNL A   1      32.505  26.332  25.419  1.00  0.00     0.138 C 
ATOM     11  C   UNL A   1      32.132  27.649  26.077  1.00  0.00     0.037 C 
ATOM     12  O   UNL A   1      31.387  26.008  24.579  1.00  0.00    -0.361 OA
ATOM     13  C   UNL A   1      31.333  28.341  25.003  1.00  0.00     0.047 C 
BRANCH  10  14
ATOM     14  C   UNL A   1      32.766  25.160  26.382  1.00  0.00     0.149 C 
BRANCH  14  15
ATOM     15  N   UNL A   1      31.530  24.540  26.835  1.00  0.00    -0.336 N 
ATOM     16  N   UNL A   1      31.736  22.215  26.477  1.00  0.00    -0.334 N 
ATOM     17  C   UNL A   1      31.058  23.293  26.878  1.00  0.00     0.315 C 
ATOM     18  H   UNL A   1      31.238  21.379  26.626  1.00  0.00     0.165 HD
ATOM     19  O   UNL A   1      29.921  23.121  27.323  1.00  0.00    -0.249 OA
ATOM     20  H   UNL A   1      30.891  25.196  27.193  1.00  0.00     0.165 HD
BRANCH  16  21
ATOM     21  C   UNL A   1      33.028  21.987  25.878  1.00  0.00     0.155 C 
BRANCH  21  22
ATOM     22  C   UNL A   1      33.191  20.623  25.278  1.00  0.00    -0.010 A 
ATOM     23  C   UNL A   1      33.568  16.719  23.620  1.00  0.00     0.066 C 
ATOM     24  C   UNL A   1      33.469  18.081  24.236  1.00  0.00     0.037 A 
ATOM     25  C   UNL A   1      34.611  18.810  24.543  1.00  0.00     0.024 A 
ATOM     26  N   UNL A   1      32.224  18.557  24.460  1.00  0.00    -0.261 NA
ATOM     27  C   UNL A   1      34.467  20.089  25.076  1.00  0.00     0.009 A 
ATOM     28  C   UNL A   1      32.111  19.804  24.974  1.00  0.00     0.116 A 
ENDBRANCH  21  22
ENDBRANCH  16  21
ENDBRANCH  14  15
ENDBRANCH  10  14
ENDBRANCH   7   9
ENDBRANCH   6   7
ENDBRANCH   5   6
ENDBRANCH   4   5
ENDBRANCH   3   4
ENDBRANCH   2   3
ENDBRANCH   1   2
BRANCH   1  29
ATOM     29  O   UNL A   1      35.374  23.527  23.943  1.00  0.00    -0.377 OA
BRANCH  29  30
ATOM     30  C   UNL A   1      36.637  22.880  23.982  1.00  0.00     0.188 C 
BRANCH  30  31
ATOM     31  C   UNL A   1      37.135  22.221  25.288  1.00  0.00     0.188 C 
BRANCH  31  32
ATOM     32  O   UNL A   1      38.376  21.549  25.166  1.00  0.00    -0.376 OA
BRANCH  32  33
ATOM     33  C   UNL A   1      38.370  20.136  25.247  1.00  0.00     0.202 C 
BRANCH  33  34
ATOM     34  C   UNL A   1      39.677  19.440  25.654  1.00  0.00     0.261 C 
BRANCH  34  35
ATOM     35  O   UNL A   1      40.768  20.294  26.033  1.00  0.00    -0.460 OA
BRANCH  35  36
ATOM     36  C   UNL A   1      41.063  20.381  27.346  1.00  0.00     0.338 C 
ATOM     37  O   UNL A   1      41.311  19.460  28.110  1.00  0.00    -0.246 OA
BRANCH  36  38
ATOM     38  C   UNL A   1      41.230  21.811  27.671  1.00  0.00     0.060 A 
ATOM     39  C   UNL A   1      40.411  22.758  27.040  1.00  0.00     0.016 A 
ATOM     40  C   UNL A   1      42.180  22.213  28.612  1.00  0.00     0.016 A 
ATOM     41  C   UNL A   1      40.561  24.114  27.328  1.00  0.00     0.010 A 
ATOM     42  C   UNL A   1      42.349  23.573  28.879  1.00  0.00     0.010 A 
ATOM     43  C   UNL A   1      41.562  24.532  28.214  1.00  0.00    -0.014 A 
BRANCH  43  44
ATOM     44  C   UNL A   1      41.920  25.968  28.291  1.00  0.00     0.031 A 
ATOM     45  C   UNL A   1      43.166  26.430  27.586  1.00  0.00     0.074 A 
ATOM     46  C   UNL A   1      41.145  26.851  28.946  1.00  0.00     0.049 A 
ATOM     47  N   UNL A   1      43.693  27.626  27.527  1.00  0.00    -0.248 NA
ATOM     48  C   UNL A   1      43.918  25.402  26.847  1.00  0.00     0.031 C 
ATOM     49  C   UNL A   1      39.889  26.540  29.624  1.00  0.00     0.029 A 
ATOM     50  N   UNL A   1      41.312  28.199  29.144  1.00  0.00    -0.354 N 
ATOM     51  C   UNL A   1      44.844  27.490  26.759  1.00  0.00     0.074 A 
ATOM     52  C   UNL A   1      44.952  26.095  26.396  1.00  0.00     0.031 C 
ATOM     53  C   UNL A   1      39.397  27.669  30.166  1.00  0.00     0.029 A 
ATOM     54  C   UNL A   1      40.323  28.771  29.905  1.00  0.00     0.049 A 
ATOM     55  H   UNL A   1      42.069  28.709  28.776  1.00  0.00     0.167 HD
ATOM     56  C   UNL A   1      45.730  28.443  26.387  1.00  0.00     0.031 A 
ATOM     57  C   UNL A   1      40.192  30.034  30.356  1.00  0.00     0.031 A 
ATOM     58  C   UNL A   1      45.630  29.828  26.761  1.00  0.00     0.049 A 
ATOM     59  C   UNL A   1      41.243  31.056  30.002  1.00  0.00     0.074 A 
ATOM     60  C   UNL A   1      46.466  30.876  26.415  1.00  0.00     0.029 A 
ATOM     61  N   UNL A   1      44.642  30.356  27.576  1.00  0.00    -0.354 N 
ATOM     62  N   UNL A   1      42.305  30.927  29.244  1.00  0.00    -0.248 NA
ATOM     63  C   UNL A   1      41.069  32.403  30.564  1.00  0.00     0.031 C 
ATOM     64  C   UNL A   1      46.023  32.023  27.080  1.00  0.00     0.029 A 
ATOM     65  C   UNL A   1      44.868  31.707  27.776  1.00  0.00     0.049 A 
ATOM     66  H   UNL A   1      43.890  29.846  27.956  1.00  0.00     0.167 HD
ATOM     67  C   UNL A   1      42.903  32.181  29.209  1.00  0.00     0.074 A 
ATOM     68  C   UNL A   1      42.076  33.061  30.008  1.00  0.00     0.031 C 
ATOM     69  C   UNL A   1      44.035  32.572  28.572  1.00  0.00     0.031 A 
BRANCH  56  70
ATOM     70  C   UNL A   1      46.916  28.008  25.572  1.00  0.00    -0.014 A 
ATOM     71  C   UNL A   1      46.858  27.930  24.170  1.00  0.00     0.009 A 
ATOM     72  C   UNL A   1      48.125  27.706  26.217  1.00  0.00     0.009 A 
ATOM     73  C   UNL A   1      47.977  27.527  23.438  1.00  0.00     0.001 A 
ATOM     74  C   UNL A   1      49.251  27.335  25.481  1.00  0.00     0.001 A 
ATOM     75  C   UNL A   1      49.173  27.237  24.093  1.00  0.00     0.000 A 
ENDBRANCH  56  70
BRANCH  57  76
ATOM     76  C   UNL A   1      39.034  30.415  31.209  1.00  0.00    -0.014 A 
ATOM     77  C   UNL A   1      39.088  30.260  32.603  1.00  0.00     0.009 A 
ATOM     78  C   UNL A   1      37.847  30.893  30.629  1.00  0.00     0.009 A 
ATOM     79  C   UNL A   1      37.972  30.543  33.393  1.00  0.00     0.001 A 
ATOM     80  C   UNL A   1      36.744  31.208  31.425  1.00  0.00     0.001 A 
ATOM     81  C   UNL A   1      36.801  31.020  32.804  1.00  0.00     0.000 A 
ENDBRANCH  57  76
BRANCH  69  82
ATOM     82  C   UNL A   1      44.419  34.024  28.670  1.00  0.00    -0.014 A 
ATOM     83  C   UNL A   1      43.876  34.990  27.809  1.00  0.00     0.009 A 
ATOM     84  C   UNL A   1      45.315  34.435  29.669  1.00  0.00     0.009 A 
ATOM     85  C   UNL A   1      44.254  36.330  27.920  1.00  0.00     0.001 A 
ATOM     86  C   UNL A   1      45.664  35.780  29.803  1.00  0.00     0.001 A 
ATOM     87  C   UNL A   1      45.144  36.724  28.921  1.00  0.00     0.000 A 
ENDBRANCH  69  82
ENDBRANCH  43  44
ENDBRANCH  36  38
ENDBRANCH  35  36
ENDBRANCH  34  35
ENDBRANCH  33  34
ENDBRANCH  32  33
ENDBRANCH  31  32
ENDBRANCH  30  31
ENDBRANCH  29  30
ENDBRANCH   1  29
TORSDOF 24
ENDMDL
MODEL 2
REMARK VINA RESULT:      -9.6      3.371      6.673
REMARK SMILES Cc1ccc(CNC(=O)NC[C@@H]2CC[C@@H](C(=O)OCCOCCOCCOCCOC(=O)c3ccc(-c4c5nc(c(-c6ccccc6)c6ccc([nH]6)c(-c6ccccc6)c6nc(c(-c7ccccc7)c7ccc4[nH]7)C=C6)C=C5)cc3)O2)cn1
REMARK SMILES IDX 23 1 22 2 21 3 20 4 19 5 18 6 16 7 17 8 15 9 12 10 13 11
REMARK SMILES IDX 81 12 14 13 11 14 10 15 7 16 8 17 9 19 6 21 5 22 1 23 2 24
REMARK SMILES IDX 3 25 83 26 4 27 82 28 24 29 25 30 26 31 27 32 28 33 29 34
REMARK SMILES IDX 30 35 31 36 32 37 33 38 34 39 80 40 35 41 79 42 36 43 37 44
REMARK SMILES IDX 38 45 73 46 39 47 78 48 72 49 74 50 40 51 77 52 71 53 70 54
REMARK SMILES IDX 41 56 63 57 48 58 62 59 49 60 52 61 61 62 75 63 50 64 51 65
REMARK SMILES IDX 60 67 76 68 53 69 42 70 43 71 47 72 44 73 46 74 45 75 64 76
REMARK SMILES IDX 65 77 69 78 66 79 68 80 67 81 54 82 55 83 59 84 56 85 58 86
REMARK SMILES IDX 57 87
REMARK H PARENT 7 18 10 20 74 55 52 66
REMARK Flexibility Score: inf
ROOT
ATOM      1  C   UNL A   1      36.213  23.185  24.272  1.00  0.00     0.188 C 
ENDROOT
BRANCH   1   2
ATOM      2  C   UNL A   1      34.888  23.826  23.786  1.00  0.00     0.188 C 
BRANCH   2   3
ATOM      3  O   UNL A   1      34.559  23.555  22.435  1.00  0.00    -0.376 OA
BRANCH   3   4
ATOM      4  C   UNL A   1      33.264  23.864  21.954  1.00  0.00     0.202 C 
BRANCH   4   5
ATOM      5  C   UNL A   1      32.852  25.340  21.913  1.00  0.00     0.261 C 
BRANCH   5   6
ATOM      6  O   UNL A   1      31.444  25.560  21.998  1.00  0.00    -0.461 OA
BRANCH   6   7
ATOM      7  C   UNL A   1      31.021  26.708  22.591  1.00  0.00     0.335 C 
ATOM      8  O   UNL A   1      30.701  27.728  21.997  1.00  0.00    -0.249 OA
BRANCH   7   9
ATOM      9  C   UNL A   1      30.836  26.467  24.093  1.00  0.00     0.228 C 
ATOM     10  C   UNL A   1      32.349  25.874  25.777  1.00  0.00     0.138 C 
ATOM     11  C   UNL A   1      31.572  27.095  26.234  1.00  0.00     0.037 C 
ATOM     12  O   UNL A   1      31.659  25.412  24.607  1.00  0.00    -0.361 OA
ATOM     13  C   UNL A   1      31.102  27.694  24.933  1.00  0.00     0.047 C 
BRANCH  10  14
ATOM     14  C   UNL A   1      32.434  24.723  26.797  1.00  0.00     0.149 C 
BRANCH  14  15
ATOM     15  N   UNL A   1      31.157  24.047  26.965  1.00  0.00    -0.336 N 
ATOM     16  N   UNL A   1      31.402  21.857  26.116  1.00  0.00    -0.334 N 
ATOM     17  C   UNL A   1      30.684  22.834  26.676  1.00  0.00     0.315 C 
ATOM     18  H   UNL A   1      30.890  21.021  26.019  1.00  0.00     0.165 HD
ATOM     19  O   UNL A   1      29.505  22.594  26.948  1.00  0.00    -0.249 OA
ATOM     20  H   UNL A   1      30.482  24.622  27.392  1.00  0.00     0.165 HD
BRANCH  16  21
ATOM     21  C   UNL A   1      32.751  21.738  25.620  1.00  0.00     0.155 C 
BRANCH  21  22
ATOM     22  C   UNL A   1      33.107  20.363  25.144  1.00  0.00    -0.010 A 
ATOM     23  C   UNL A   1      34.036  16.419  23.834  1.00  0.00     0.066 C 
ATOM     24  C   UNL A   1      33.743  17.802  24.330  1.00  0.00     0.037 A 
ATOM     25  C   UNL A   1      34.771  18.689  24.622  1.00  0.00     0.024 A 
ATOM     26  N   UNL A   1      32.439  18.136  24.461  1.00  0.00    -0.261 NA
ATOM     27  C   UNL A   1      34.447  19.978  25.040  1.00  0.00     0.009 A 
ATOM     28  C   UNL A   1      32.151  19.396  24.863  1.00  0.00     0.116 A 
ENDBRANCH  21  22
ENDBRANCH  16  21
ENDBRANCH  14  15
ENDBRANCH  10  14
ENDBRANCH   7   9
ENDBRANCH   6   7
ENDBRANCH   5   6
ENDBRANCH   4   5
ENDBRANCH   3   4
ENDBRANCH   2   3
ENDBRANCH   1   2
BRANCH   1  29
ATOM     29  O   UNL A   1      36.692  23.408  25.591  1.00  0.00    -0.377 OA
BRANCH  29  30
ATOM     30  C   UNL A   1      38.083  23.318  25.865  1.00  0.00     0.188 C 
BRANCH  30  31
ATOM     31  C   UNL A   1      38.768  21.936  25.971  1.00  0.00     0.188 C 
BRANCH  31  32
ATOM     32  O   UNL A   1      39.891  21.907  26.834  1.00  0.00    -0.376 OA
BRANCH  32  33
ATOM     33  C   UNL A   1      41.078  21.309  26.348  1.00  0.00     0.202 C 
BRANCH  33  34
ATOM     34  C   UNL A   1      42.243  22.238  25.976  1.00  0.00     0.261 C 
BRANCH  34  35
ATOM     35  O   UNL A   1      41.893  23.557  25.527  1.00  0.00    -0.460 OA
BRANCH  35  36
ATOM     36  C   UNL A   1      42.818  24.528  25.666  1.00  0.00     0.338 C 
ATOM     37  O   UNL A   1      43.821  24.696  24.987  1.00  0.00    -0.246 OA
BRANCH  36  38
ATOM     38  C   UNL A   1      42.313  25.485  26.669  1.00  0.00     0.060 A 
ATOM     39  C   UNL A   1      42.919  26.745  26.782  1.00  0.00     0.016 A 
ATOM     40  C   UNL A   1      41.232  25.146  27.484  1.00  0.00     0.016 A 
ATOM     41  C   UNL A   1      42.461  27.658  27.730  1.00  0.00     0.010 A 
ATOM     42  C   UNL A   1      40.791  26.051  28.453  1.00  0.00     0.010 A 
ATOM     43  C   UNL A   1      41.425  27.298  28.601  1.00  0.00    -0.014 A 
BRANCH  43  44
ATOM     44  C   UNL A   1      41.144  28.137  29.790  1.00  0.00     0.031 A 
ATOM     45  C   UNL A   1      40.005  29.118  29.717  1.00  0.00     0.074 A 
ATOM     46  C   UNL A   1      41.861  28.015  30.922  1.00  0.00     0.049 A 
ATOM     47  N   UNL A   1      39.582  29.970  30.615  1.00  0.00    -0.248 NA
ATOM     48  C   UNL A   1      39.241  29.139  28.457  1.00  0.00     0.031 C 
ATOM     49  C   UNL A   1      42.953  27.069  31.138  1.00  0.00     0.029 A 
ATOM     50  N   UNL A   1      41.769  28.703  32.107  1.00  0.00    -0.354 N 
ATOM     51  C   UNL A   1      38.514  30.636  30.024  1.00  0.00     0.074 A 
ATOM     52  C   UNL A   1      38.371  30.110  28.686  1.00  0.00     0.031 C 
ATOM     53  C   UNL A   1      43.432  27.236  32.384  1.00  0.00     0.029 A 
ATOM     54  C   UNL A   1      42.706  28.326  33.036  1.00  0.00     0.049 A 
ATOM     55  H   UNL A   1      41.095  29.401  32.274  1.00  0.00     0.167 HD
ATOM     56  C   UNL A   1      37.721  31.599  30.552  1.00  0.00     0.031 A 
ATOM     57  C   UNL A   1      42.960  28.819  34.265  1.00  0.00     0.031 A 
ATOM     58  C   UNL A   1      37.875  32.133  31.878  1.00  0.00     0.049 A 
ATOM     59  C   UNL A   1      42.120  29.955  34.792  1.00  0.00     0.074 A 
ATOM     60  C   UNL A   1      37.108  33.095  32.513  1.00  0.00     0.029 A 
ATOM     61  N   UNL A   1      38.869  31.761  32.769  1.00  0.00    -0.354 N 
ATOM     62  N   UNL A   1      41.089  30.550  34.242  1.00  0.00    -0.248 NA
ATOM     63  C   UNL A   1      42.478  30.480  36.118  1.00  0.00     0.031 C 
ATOM     64  C   UNL A   1      37.682  33.356  33.760  1.00  0.00     0.029 A 
ATOM     65  C   UNL A   1      38.759  32.501  33.934  1.00  0.00     0.049 A 
ATOM     66  H   UNL A   1      39.552  31.072  32.598  1.00  0.00     0.167 HD
ATOM     67  C   UNL A   1      40.655  31.492  35.167  1.00  0.00     0.074 A 
ATOM     68  C   UNL A   1      41.524  31.377  36.321  1.00  0.00     0.031 C 
ATOM     69  C   UNL A   1      39.629  32.374  35.075  1.00  0.00     0.031 A 
BRANCH  56  70
ATOM     70  C   UNL A   1      36.648  32.174  29.670  1.00  0.00    -0.014 A 
ATOM     71  C   UNL A   1      35.324  31.707  29.723  1.00  0.00     0.009 A 
ATOM     72  C   UNL A   1      36.961  33.228  28.798  1.00  0.00     0.009 A 
ATOM     73  C   UNL A   1      34.346  32.264  28.895  1.00  0.00     0.001 A 
ATOM     74  C   UNL A   1      35.974  33.804  27.996  1.00  0.00     0.001 A 
ATOM     75  C   UNL A   1      34.670  33.315  28.038  1.00  0.00     0.000 A 
ENDBRANCH  56  70
BRANCH  57  76
ATOM     76  C   UNL A   1      44.069  28.263  35.086  1.00  0.00    -0.014 A 
ATOM     77  C   UNL A   1      43.838  27.210  35.986  1.00  0.00     0.009 A 
ATOM     78  C   UNL A   1      45.359  28.814  35.010  1.00  0.00     0.009 A 
ATOM     79  C   UNL A   1      44.863  26.745  36.813  1.00  0.00     0.001 A 
ATOM     80  C   UNL A   1      46.390  28.324  35.813  1.00  0.00     0.001 A 
ATOM     81  C   UNL A   1      46.139  27.299  36.723  1.00  0.00     0.000 A 
ENDBRANCH  57  76
BRANCH  69  82
ATOM     82  C   UNL A   1      39.356  33.249  36.268  1.00  0.00    -0.014 A 
ATOM     83  C   UNL A   1      38.535  32.821  37.323  1.00  0.00     0.009 A 
ATOM     84  C   UNL A   1      39.965  34.511  36.353  1.00  0.00     0.009 A 
ATOM     85  C   UNL A   1      38.296  33.657  38.417  1.00  0.00     0.001 A 
ATOM     86  C   UNL A   1      39.754  35.330  37.463  1.00  0.00     0.001 A 
ATOM     87  C   UNL A   1      38.910  34.908  38.488  1.00  0.00     0.000 A 
ENDBRANCH  69  82
ENDBRANCH  43  44
ENDBRANCH  36  38
ENDBRANCH  35  36
ENDBRANCH  34  35
ENDBRANCH  33  34
ENDBRANCH  32  33
ENDBRANCH  31  32
ENDBRANCH  30  31
ENDBRANCH  29  30
ENDBRANCH   1  29
TORSDOF 24
ENDMDL
MODEL 3
REMARK VINA RESULT:      -9.6      3.352      5.163
REMARK SMILES Cc1ccc(CNC(=O)NC[C@@H]2CC[C@@H](C(=O)OCCOCCOCCOCCOC(=O)c3ccc(-c4c5nc(c(-c6ccccc6)c6ccc([nH]6)c(-c6ccccc6)c6nc(c(-c7ccccc7)c7ccc4[nH]7)C=C6)C=C5)cc3)O2)cn1
REMARK SMILES IDX 23 1 22 2 21 3 20 4 19 5 18 6 16 7 17 8 15 9 12 10 13 11
REMARK SMILES IDX 81 12 14 13 11 14 10 15 7 16 8 17 9 19 6 21 5 22 1 23 2 24
REMARK SMILES IDX 3 25 83 26 4 27 82 28 24 29 25 30 26 31 27 32 28 33 29 34
REMARK SMILES IDX 30 35 31 36 32 37 33 38 34 39 80 40 35 41 79 42 36 43 37 44
REMARK SMILES IDX 38 45 73 46 39 47 78 48 72 49 74 50 40 51 77 52 71 53 70 54
REMARK SMILES IDX 41 56 63 57 48 58 62 59 49 60 52 61 61 62 75 63 50 64 51 65
REMARK SMILES IDX 60 67 76 68 53 69 42 70 43 71 47 72 44 73 46 74 45 75 64 76
REMARK SMILES IDX 65 77 69 78 66 79 68 80 67 81 54 82 55 83 59 84 56 85 58 86
REMARK SMILES IDX 57 87
REMARK H PARENT 7 18 10 20 74 55 52 66
REMARK Flexibility Score: inf
ROOT
ATOM      1  C   UNL A   1      34.876  23.470  23.247  1.00  0.00     0.188 C 
ENDROOT
BRANCH   1   2
ATOM      2  C   UNL A   1      33.752  24.487  22.920  1.00  0.00     0.188 C 
BRANCH   2   3
ATOM      3  O   UNL A   1      33.551  24.724  21.538  1.00  0.00    -0.376 OA
BRANCH   3   4
ATOM      4  C   UNL A   1      32.527  25.607  21.121  1.00  0.00     0.202 C 
BRANCH   4   5
ATOM      5  C   UNL A   1      32.083  26.697  22.103  1.00  0.00     0.261 C 
BRANCH   5   6
ATOM      6  O   UNL A   1      30.766  26.517  22.626  1.00  0.00    -0.461 OA
BRANCH   6   7
ATOM      7  C   UNL A   1      30.284  27.477  23.460  1.00  0.00     0.335 C 
ATOM      8  O   UNL A   1      29.623  28.444  23.109  1.00  0.00    -0.249 OA
BRANCH   7   9
ATOM      9  C   UNL A   1      30.539  27.063  24.913  1.00  0.00     0.228 C 
ATOM     10  C   UNL A   1      32.333  25.954  25.928  1.00  0.00     0.138 C 
ATOM     11  C   UNL A   1      32.046  27.225  26.709  1.00  0.00     0.037 C 
ATOM     12  O   UNL A   1      31.217  25.807  25.037  1.00  0.00    -0.361 OA
ATOM     13  C   UNL A   1      31.335  28.083  25.694  1.00  0.00     0.047 C 
BRANCH  10  14
ATOM     14  C   UNL A   1      32.473  24.675  26.773  1.00  0.00     0.149 C 
BRANCH  14  15
ATOM     15  N   UNL A   1      31.202  23.986  26.935  1.00  0.00    -0.336 N 
ATOM     16  N   UNL A   1      31.412  21.870  25.908  1.00  0.00    -0.334 N 
ATOM     17  C   UNL A   1      30.717  22.798  26.569  1.00  0.00     0.315 C 
ATOM     18  H   UNL A   1      30.896  21.043  25.764  1.00  0.00     0.165 HD
ATOM     19  O   UNL A   1      29.549  22.535  26.865  1.00  0.00    -0.249 OA
ATOM     20  H   UNL A   1      30.544  24.523  27.431  1.00  0.00     0.165 HD
BRANCH  16  21
ATOM     21  C   UNL A   1      32.742  21.792  25.355  1.00  0.00     0.155 C 
BRANCH  21  22
ATOM     22  C   UNL A   1      33.100  20.442  24.813  1.00  0.00    -0.010 A 
ATOM     23  C   UNL A   1      34.021  16.577  23.280  1.00  0.00     0.066 C 
ATOM     24  C   UNL A   1      33.714  17.923  23.862  1.00  0.00     0.037 A 
ATOM     25  C   UNL A   1      34.655  18.601  24.627  1.00  0.00     0.024 A 
ATOM     26  N   UNL A   1      32.494  18.438  23.592  1.00  0.00    -0.261 NA
ATOM     27  C   UNL A   1      34.339  19.868  25.112  1.00  0.00     0.009 A 
ATOM     28  C   UNL A   1      32.213  19.673  24.070  1.00  0.00     0.116 A 
ENDBRANCH  21  22
ENDBRANCH  16  21
ENDBRANCH  14  15
ENDBRANCH  10  14
ENDBRANCH   7   9
ENDBRANCH   6   7
ENDBRANCH   5   6
ENDBRANCH   4   5
ENDBRANCH   3   4
ENDBRANCH   2   3
ENDBRANCH   1   2
BRANCH   1  29
ATOM     29  O   UNL A   1      35.683  23.620  24.406  1.00  0.00    -0.377 OA
BRANCH  29  30
ATOM     30  C   UNL A   1      37.010  23.114  24.418  1.00  0.00     0.188 C 
BRANCH  30  31
ATOM     31  C   UNL A   1      37.509  22.267  25.611  1.00  0.00     0.188 C 
BRANCH  31  32
ATOM     32  O   UNL A   1      38.863  22.498  25.962  1.00  0.00    -0.376 OA
BRANCH  32  33
ATOM     33  C   UNL A   1      39.687  21.368  26.181  1.00  0.00     0.202 C 
BRANCH  33  34
ATOM     34  C   UNL A   1      41.208  21.578  26.152  1.00  0.00     0.261 C 
BRANCH  34  35
ATOM     35  O   UNL A   1      41.667  22.872  25.733  1.00  0.00    -0.460 OA
BRANCH  35  36
ATOM     36  C   UNL A   1      42.733  23.392  26.377  1.00  0.00     0.338 C 
ATOM     37  O   UNL A   1      43.905  23.072  26.244  1.00  0.00    -0.246 OA
BRANCH  36  38
ATOM     38  C   UNL A   1      42.263  24.565  27.140  1.00  0.00     0.060 A 
ATOM     39  C   UNL A   1      42.914  25.796  26.976  1.00  0.00     0.016 A 
ATOM     40  C   UNL A   1      41.170  24.452  28.002  1.00  0.00     0.016 A 
ATOM     41  C   UNL A   1      42.490  26.912  27.696  1.00  0.00     0.010 A 
ATOM     42  C   UNL A   1      40.764  25.565  28.743  1.00  0.00     0.010 A 
ATOM     43  C   UNL A   1      41.443  26.790  28.617  1.00  0.00    -0.014 A 
BRANCH  43  44
ATOM     44  C   UNL A   1      41.193  27.881  29.590  1.00  0.00     0.031 A 
ATOM     45  C   UNL A   1      42.091  27.983  30.793  1.00  0.00     0.074 A 
ATOM     46  C   UNL A   1      40.210  28.779  29.400  1.00  0.00     0.049 A 
ATOM     47  N   UNL A   1      42.057  28.833  31.786  1.00  0.00    -0.248 NA
ATOM     48  C   UNL A   1      43.175  26.990  30.885  1.00  0.00     0.031 C 
ATOM     49  C   UNL A   1      39.306  28.821  28.253  1.00  0.00     0.029 A 
ATOM     50  N   UNL A   1      39.812  29.835  30.183  1.00  0.00    -0.354 N 
ATOM     51  C   UNL A   1      43.103  28.468  32.626  1.00  0.00     0.074 A 
ATOM     52  C   UNL A   1      43.735  27.307  32.041  1.00  0.00     0.031 C 
ATOM     53  C   UNL A   1      38.457  29.852  28.406  1.00  0.00     0.029 A 
ATOM     54  C   UNL A   1      38.732  30.517  29.679  1.00  0.00     0.049 A 
ATOM     55  H   UNL A   1      40.259  30.080  31.025  1.00  0.00     0.167 HD
ATOM     56  C   UNL A   1      43.502  29.050  33.782  1.00  0.00     0.031 A 
ATOM     57  C   UNL A   1      38.036  31.548  30.198  1.00  0.00     0.031 A 
ATOM     58  C   UNL A   1      42.863  30.196  34.371  1.00  0.00     0.049 A 
ATOM     59  C   UNL A   1      38.447  32.118  31.532  1.00  0.00     0.074 A 
ATOM     60  C   UNL A   1      43.207  30.874  35.528  1.00  0.00     0.029 A 
ATOM     61  N   UNL A   1      41.740  30.825  33.857  1.00  0.00    -0.354 N 
ATOM     62  N   UNL A   1      39.459  31.793  32.298  1.00  0.00    -0.248 NA
ATOM     63  C   UNL A   1      37.618  33.209  32.067  1.00  0.00     0.031 C 
ATOM     64  C   UNL A   1      42.250  31.867  35.751  1.00  0.00     0.029 A 
ATOM     65  C   UNL A   1      41.355  31.859  34.693  1.00  0.00     0.049 A 
ATOM     66  H   UNL A   1      41.285  30.574  33.021  1.00  0.00     0.167 HD
ATOM     67  C   UNL A   1      39.410  32.658  33.385  1.00  0.00     0.074 A 
ATOM     68  C   UNL A   1      38.278  33.535  33.168  1.00  0.00     0.031 C 
ATOM     69  C   UNL A   1      40.228  32.726  34.464  1.00  0.00     0.031 A 
BRANCH  56  70
ATOM     70  C   UNL A   1      44.657  28.423  34.511  1.00  0.00    -0.014 A 
ATOM     71  C   UNL A   1      45.964  28.924  34.390  1.00  0.00     0.009 A 
ATOM     72  C   UNL A   1      44.426  27.334  35.365  1.00  0.00     0.009 A 
ATOM     73  C   UNL A   1      47.018  28.324  35.084  1.00  0.00     0.001 A 
ATOM     74  C   UNL A   1      45.475  26.757  36.083  1.00  0.00     0.001 A 
ATOM     75  C   UNL A   1      46.771  27.247  35.934  1.00  0.00     0.000 A 
ENDBRANCH  56  70
BRANCH  57  76
ATOM     76  C   UNL A   1      36.862  32.106  29.474  1.00  0.00    -0.014 A 
ATOM     77  C   UNL A   1      36.996  33.236  28.653  1.00  0.00     0.009 A 
ATOM     78  C   UNL A   1      35.588  31.537  29.637  1.00  0.00     0.009 A 
ATOM     79  C   UNL A   1      35.877  33.805  28.039  1.00  0.00     0.001 A 
ATOM     80  C   UNL A   1      34.477  32.087  28.994  1.00  0.00     0.001 A 
ATOM     81  C   UNL A   1      34.619  33.227  28.207  1.00  0.00     0.000 A 
ENDBRANCH  57  76
BRANCH  69  82
ATOM     82  C   UNL A   1      39.961  33.813  35.470  1.00  0.00    -0.014 A 
ATOM     83  C   UNL A   1      40.488  35.105  35.316  1.00  0.00     0.009 A 
ATOM     84  C   UNL A   1      39.134  33.546  36.573  1.00  0.00     0.009 A 
ATOM     85  C   UNL A   1      40.227  36.093  36.269  1.00  0.00     0.001 A 
ATOM     86  C   UNL A   1      38.844  34.545  37.503  1.00  0.00     0.001 A 
ATOM     87  C   UNL A   1      39.401  35.813  37.358  1.00  0.00     0.000 A 
ENDBRANCH  69  82
ENDBRANCH  43  44
ENDBRANCH  36  38
ENDBRANCH  35  36
ENDBRANCH  34  35
ENDBRANCH  33  34
ENDBRANCH  32  33
ENDBRANCH  31  32
ENDBRANCH  30  31
ENDBRANCH  29  30
ENDBRANCH   1  29
TORSDOF 24
ENDMDL
