MODEL 1
REMARK VINA RESULT:     -10.1      0.000      0.000
REMARK SMILES C=C(C(=O)OCCOCCOCCOCCOC(=O)c1ccc(-c2c3nc(c(-c4ccccc4)c4ccc([nH]4)c(-c4ccccc4)c4nc(c(-c5ccccc5)c5ccc2[nH]5)C=C4)C=C3)cc1)[C@@H]1CC[C@]2(C)C[C@@H](O)CC(=C)[C@H]2C1
REMARK SMILES IDX 11 1 10 2 9 3 8 4 7 5 6 6 5 7 3 8 4 9 2 10 1 11 68 12 69 13
REMARK SMILES IDX 80 14 70 15 79 16 71 17 77 18 72 19 73 20 76 21 78 22 74 23
REMARK SMILES IDX 75 24 12 26 13 27 14 28 15 29 16 30 17 31 18 32 19 33 20 34
REMARK SMILES IDX 21 35 67 36 22 37 66 38 23 39 24 40 25 41 60 42 26 43 65 44
REMARK SMILES IDX 59 45 61 46 27 47 64 48 58 49 57 50 28 52 50 53 35 54 49 55
REMARK SMILES IDX 36 56 39 57 48 58 62 59 37 60 38 61 47 63 63 64 40 65 29 66
REMARK SMILES IDX 30 67 34 68 31 69 33 70 32 71 51 72 52 73 56 74 53 75 55 76
REMARK SMILES IDX 54 77 41 78 42 79 46 80 43 81 45 82 44 83
REMARK H PARENT 75 25 61 51 39 62
REMARK Flexibility Score: inf
ROOT
ATOM      1  O   UNL A   1      41.856  19.187  25.423  1.00  0.00    -0.377 OA
ENDROOT
BRANCH   1   2
ATOM      2  C   UNL A   1      41.186  19.933  26.428  1.00  0.00     0.188 C 
BRANCH   2   3
ATOM      3  C   UNL A   1      40.888  21.432  26.248  1.00  0.00     0.188 C 
BRANCH   3   4
ATOM      4  O   UNL A   1      39.514  21.798  26.285  1.00  0.00    -0.376 OA
BRANCH   4   5
ATOM      5  C   UNL A   1      39.240  23.146  26.646  1.00  0.00     0.202 C 
BRANCH   5   6
ATOM      6  C   UNL A   1      38.076  23.717  25.832  1.00  0.00     0.261 C 
BRANCH   6   7
ATOM      7  O   UNL A   1      37.137  22.696  25.448  1.00  0.00    -0.460 OA
BRANCH   7   8
ATOM      8  C   UNL A   1      36.306  22.993  24.412  1.00  0.00     0.333 C 
ATOM      9  O   UNL A   1      36.657  23.109  23.252  1.00  0.00    -0.247 OA
BRANCH   8  10
ATOM     10  C   UNL A   1      34.885  22.998  24.896  1.00  0.00     0.033 C 
ATOM     11  C   UNL A   1      34.148  21.916  24.563  1.00  0.00     0.020 C 
BRANCH  10  12
ATOM     12  C   UNL A   1      34.330  24.107  25.807  1.00  0.00     0.026 C 
ATOM     13  C   UNL A   1      32.941  23.787  26.434  1.00  0.00     0.009 C 
ATOM     14  C   UNL A   1      34.340  25.576  25.309  1.00  0.00     0.017 C 
ATOM     15  C   UNL A   1      31.716  24.264  25.646  1.00  0.00     0.008 C 
ATOM     16  C   UNL A   1      33.132  25.949  24.426  1.00  0.00     0.021 C 
ATOM     17  C   UNL A   1      31.778  25.734  25.160  1.00  0.00    -0.024 C 
ATOM     18  C   UNL A   1      33.153  27.306  23.744  1.00  0.00    -0.071 C 
ATOM     19  C   UNL A   1      31.627  26.667  26.385  1.00  0.00     0.012 C 
ATOM     20  C   UNL A   1      30.578  25.980  24.184  1.00  0.00     0.039 C 
ATOM     21  C   UNL A   1      32.073  27.442  22.687  1.00  0.00     0.062 C 
ATOM     22  C   UNL A   1      34.024  28.294  23.998  1.00  0.00     0.008 C 
ATOM     23  C   UNL A   1      30.678  27.224  23.287  1.00  0.00     0.119 C 
BRANCH  23  24
ATOM     24  O   UNL A   1      30.249  28.382  24.004  1.00  0.00    -0.393 OA
ATOM     25  H   UNL A   1      29.695  28.932  23.428  1.00  0.00     0.210 HD
ENDBRANCH  23  24
ENDBRANCH  10  12
ENDBRANCH   8  10
ENDBRANCH   7   8
ENDBRANCH   6   7
ENDBRANCH   5   6
ENDBRANCH   4   5
ENDBRANCH   3   4
ENDBRANCH   2   3
ENDBRANCH   1   2
BRANCH   1  26
ATOM     26  C   UNL A   1      43.028  18.496  25.804  1.00  0.00     0.188 C 
BRANCH  26  27
ATOM     27  C   UNL A   1      44.349  19.064  25.250  1.00  0.00     0.188 C 
BRANCH  27  28
ATOM     28  O   UNL A   1      44.181  20.202  24.405  1.00  0.00    -0.376 OA
BRANCH  28  29
ATOM     29  C   UNL A   1      44.505  21.462  24.977  1.00  0.00     0.202 C 
BRANCH  29  30
ATOM     30  C   UNL A   1      44.298  22.653  24.035  1.00  0.00     0.261 C 
BRANCH  30  31
ATOM     31  O   UNL A   1      43.790  23.844  24.655  1.00  0.00    -0.460 OA
BRANCH  31  32
ATOM     32  C   UNL A   1      44.674  24.741  25.145  1.00  0.00     0.338 C 
ATOM     33  O   UNL A   1      45.719  25.105  24.638  1.00  0.00    -0.246 OA
BRANCH  32  34
ATOM     34  C   UNL A   1      44.025  25.375  26.312  1.00  0.00     0.060 A 
ATOM     35  C   UNL A   1      44.243  26.740  26.554  1.00  0.00     0.016 A 
ATOM     36  C   UNL A   1      43.099  24.659  27.076  1.00  0.00     0.016 A 
ATOM     37  C   UNL A   1      43.494  27.402  27.530  1.00  0.00     0.010 A 
ATOM     38  C   UNL A   1      42.391  25.309  28.085  1.00  0.00     0.010 A 
ATOM     39  C   UNL A   1      42.584  26.682  28.316  1.00  0.00    -0.014 A 
BRANCH  39  40
ATOM     40  C   UNL A   1      41.992  27.288  29.528  1.00  0.00     0.031 A 
ATOM     41  C   UNL A   1      40.676  27.995  29.368  1.00  0.00     0.074 A 
ATOM     42  C   UNL A   1      42.629  27.283  30.712  1.00  0.00     0.049 A 
ATOM     43  N   UNL A   1      40.014  28.720  30.231  1.00  0.00    -0.248 NA
ATOM     44  C   UNL A   1      40.026  27.876  28.050  1.00  0.00     0.031 C 
ATOM     45  C   UNL A   1      43.895  26.608  30.996  1.00  0.00     0.029 A 
ATOM     46  N   UNL A   1      42.301  27.898  31.896  1.00  0.00    -0.354 N 
ATOM     47  C   UNL A   1      38.881  29.153  29.556  1.00  0.00     0.074 A 
ATOM     48  C   UNL A   1      38.943  28.619  28.216  1.00  0.00     0.031 C 
ATOM     49  C   UNL A   1      44.252  26.873  32.267  1.00  0.00     0.029 A 
ATOM     50  C   UNL A   1      43.263  27.766  32.869  1.00  0.00     0.049 A 
ATOM     51  H   UNL A   1      41.458  28.386  32.035  1.00  0.00     0.167 HD
ATOM     52  C   UNL A   1      37.881  29.941  30.010  1.00  0.00     0.031 A 
ATOM     53  C   UNL A   1      43.350  28.339  34.087  1.00  0.00     0.031 A 
ATOM     54  C   UNL A   1      37.833  30.496  31.333  1.00  0.00     0.049 A 
ATOM     55  C   UNL A   1      42.260  29.281  34.538  1.00  0.00     0.074 A 
ATOM     56  C   UNL A   1      36.842  31.275  31.902  1.00  0.00     0.029 A 
ATOM     57  N   UNL A   1      38.831  30.349  32.281  1.00  0.00    -0.354 N 
ATOM     58  N   UNL A   1      41.158  29.631  33.918  1.00  0.00    -0.248 NA
ATOM     59  C   UNL A   1      42.431  29.914  35.856  1.00  0.00     0.031 C 
ATOM     60  C   UNL A   1      37.272  31.654  33.176  1.00  0.00     0.029 A 
ATOM     61  C   UNL A   1      38.502  31.062  33.419  1.00  0.00     0.049 A 
ATOM     62  H   UNL A   1      39.652  29.819  32.163  1.00  0.00     0.167 HD
ATOM     63  C   UNL A   1      40.498  30.503  34.777  1.00  0.00     0.074 A 
ATOM     64  C   UNL A   1      41.312  30.616  35.968  1.00  0.00     0.031 C 
ATOM     65  C   UNL A   1      39.325  31.157  34.595  1.00  0.00     0.031 A 
BRANCH  52  66
ATOM     66  C   UNL A   1      36.783  30.289  29.049  1.00  0.00    -0.014 A 
ATOM     67  C   UNL A   1      35.878  29.320  28.594  1.00  0.00     0.009 A 
ATOM     68  C   UNL A   1      36.635  31.619  28.625  1.00  0.00     0.009 A 
ATOM     69  C   UNL A   1      34.852  29.674  27.717  1.00  0.00     0.001 A 
ATOM     70  C   UNL A   1      35.594  31.973  27.767  1.00  0.00     0.001 A 
ATOM     71  C   UNL A   1      34.707  31.001  27.310  1.00  0.00     0.000 A 
ENDBRANCH  52  66
BRANCH  53  72
ATOM     72  C   UNL A   1      44.535  28.102  34.956  1.00  0.00    -0.014 A 
ATOM     73  C   UNL A   1      44.512  27.115  35.954  1.00  0.00     0.009 A 
ATOM     74  C   UNL A   1      45.678  28.909  34.832  1.00  0.00     0.009 A 
ATOM     75  C   UNL A   1      45.592  26.965  36.829  1.00  0.00     0.001 A 
ATOM     76  C   UNL A   1      46.769  28.737  35.689  1.00  0.00     0.001 A 
ATOM     77  C   UNL A   1      46.719  27.773  36.694  1.00  0.00     0.000 A 
ENDBRANCH  53  72
BRANCH  65  78
ATOM     78  C   UNL A   1      38.834  32.031  35.714  1.00  0.00    -0.014 A 
ATOM     79  C   UNL A   1      38.114  31.494  36.791  1.00  0.00     0.009 A 
ATOM     80  C   UNL A   1      39.166  33.395  35.726  1.00  0.00     0.009 A 
ATOM     81  C   UNL A   1      37.715  32.313  37.849  1.00  0.00     0.001 A 
ATOM     82  C   UNL A   1      38.791  34.205  36.799  1.00  0.00     0.001 A 
ATOM     83  C   UNL A   1      38.061  33.664  37.856  1.00  0.00     0.000 A 
ENDBRANCH  65  78
ENDBRANCH  39  40
ENDBRANCH  32  34
ENDBRANCH  31  32
ENDBRANCH  30  31
ENDBRANCH  29  30
ENDBRANCH  28  29
ENDBRANCH  27  28
ENDBRANCH  26  27
ENDBRANCH   1  26
TORSDOF 22
ENDMDL
MODEL 2
REMARK VINA RESULT:     -10.1      1.522      6.245
REMARK SMILES C=C(C(=O)OCCOCCOCCOCCOC(=O)c1ccc(-c2c3nc(c(-c4ccccc4)c4ccc([nH]4)c(-c4ccccc4)c4nc(c(-c5ccccc5)c5ccc2[nH]5)C=C4)C=C3)cc1)[C@@H]1CC[C@]2(C)C[C@@H](O)CC(=C)[C@H]2C1
REMARK SMILES IDX 11 1 10 2 9 3 8 4 7 5 6 6 5 7 3 8 4 9 2 10 1 11 68 12 69 13
REMARK SMILES IDX 80 14 70 15 79 16 71 17 77 18 72 19 73 20 76 21 78 22 74 23
REMARK SMILES IDX 75 24 12 26 13 27 14 28 15 29 16 30 17 31 18 32 19 33 20 34
REMARK SMILES IDX 21 35 67 36 22 37 66 38 23 39 24 40 25 41 60 42 26 43 65 44
REMARK SMILES IDX 59 45 61 46 27 47 64 48 58 49 57 50 28 52 50 53 35 54 49 55
REMARK SMILES IDX 36 56 39 57 48 58 62 59 37 60 38 61 47 63 63 64 40 65 29 66
REMARK SMILES IDX 30 67 34 68 31 69 33 70 32 71 51 72 52 73 56 74 53 75 55 76
REMARK SMILES IDX 54 77 41 78 42 79 46 80 43 81 45 82 44 83
REMARK H PARENT 75 25 61 51 39 62
REMARK Flexibility Score: inf
ROOT
ATOM      1  O   UNL A   1      38.412  21.739  25.156  1.00  0.00    -0.377 OA
ENDROOT
BRANCH   1   2
ATOM      2  C   UNL A   1      37.053  21.580  25.532  1.00  0.00     0.188 C 
BRANCH   2   3
ATOM      3  C   UNL A   1      36.207  20.409  24.998  1.00  0.00     0.188 C 
BRANCH   3   4
ATOM      4  O   UNL A   1      34.824  20.447  25.329  1.00  0.00    -0.376 OA
BRANCH   4   5
ATOM      5  C   UNL A   1      33.996  19.518  24.641  1.00  0.00     0.202 C 
BRANCH   5   6
ATOM      6  C   UNL A   1      32.525  19.939  24.687  1.00  0.00     0.261 C 
BRANCH   6   7
ATOM      7  O   UNL A   1      32.359  21.344  24.423  1.00  0.00    -0.460 OA
BRANCH   7   8
ATOM      8  C   UNL A   1      32.419  21.729  23.119  1.00  0.00     0.333 C 
ATOM      9  O   UNL A   1      31.992  21.077  22.184  1.00  0.00    -0.247 OA
BRANCH   8  10
ATOM     10  C   UNL A   1      32.944  23.132  23.035  1.00  0.00     0.033 C 
ATOM     11  C   UNL A   1      34.287  23.261  23.101  1.00  0.00     0.020 C 
BRANCH  10  12
ATOM     12  C   UNL A   1      32.026  24.340  22.780  1.00  0.00     0.026 C 
ATOM     13  C   UNL A   1      32.500  25.274  21.627  1.00  0.00     0.009 C 
ATOM     14  C   UNL A   1      31.555  25.205  23.978  1.00  0.00     0.017 C 
ATOM     15  C   UNL A   1      33.397  26.448  22.034  1.00  0.00     0.008 C 
ATOM     16  C   UNL A   1      32.563  26.293  24.403  1.00  0.00     0.021 C 
ATOM     17  C   UNL A   1      32.892  27.276  23.243  1.00  0.00    -0.024 C 
ATOM     18  C   UNL A   1      32.270  27.062  25.679  1.00  0.00    -0.071 C 
ATOM     19  C   UNL A   1      31.651  28.090  22.802  1.00  0.00     0.012 C 
ATOM     20  C   UNL A   1      34.026  28.269  23.667  1.00  0.00     0.039 C 
ATOM     21  C   UNL A   1      33.455  27.887  26.146  1.00  0.00     0.062 C 
ATOM     22  C   UNL A   1      31.117  27.029  26.363  1.00  0.00     0.008 C 
ATOM     23  C   UNL A   1      33.896  28.887  25.069  1.00  0.00     0.119 C 
BRANCH  23  24
ATOM     24  O   UNL A   1      33.015  30.010  25.030  1.00  0.00    -0.393 OA
ATOM     25  H   UNL A   1      32.096  29.701  25.079  1.00  0.00     0.210 HD
ENDBRANCH  23  24
ENDBRANCH  10  12
ENDBRANCH   8  10
ENDBRANCH   7   8
ENDBRANCH   6   7
ENDBRANCH   5   6
ENDBRANCH   4   5
ENDBRANCH   3   4
ENDBRANCH   2   3
ENDBRANCH   1   2
BRANCH   1  26
ATOM     26  C   UNL A   1      39.376  21.715  26.189  1.00  0.00     0.188 C 
BRANCH  26  27
ATOM     27  C   UNL A   1      40.151  20.392  26.350  1.00  0.00     0.188 C 
BRANCH  27  28
ATOM     28  O   UNL A   1      41.458  20.551  26.903  1.00  0.00    -0.376 OA
BRANCH  28  29
ATOM     29  C   UNL A   1      42.542  20.127  26.087  1.00  0.00     0.202 C 
BRANCH  29  30
ATOM     30  C   UNL A   1      43.384  21.272  25.513  1.00  0.00     0.261 C 
BRANCH  30  31
ATOM     31  O   UNL A   1      42.749  22.558  25.509  1.00  0.00    -0.460 OA
BRANCH  31  32
ATOM     32  C   UNL A   1      43.516  23.654  25.319  1.00  0.00     0.338 C 
ATOM     33  O   UNL A   1      44.289  23.868  24.403  1.00  0.00    -0.246 OA
BRANCH  32  34
ATOM     34  C   UNL A   1      43.073  24.654  26.313  1.00  0.00     0.060 A 
ATOM     35  C   UNL A   1      43.562  25.966  26.223  1.00  0.00     0.016 A 
ATOM     36  C   UNL A   1      42.077  24.331  27.239  1.00  0.00     0.016 A 
ATOM     37  C   UNL A   1      43.015  26.970  27.027  1.00  0.00     0.010 A 
ATOM     38  C   UNL A   1      41.569  25.323  28.076  1.00  0.00     0.010 A 
ATOM     39  C   UNL A   1      42.035  26.645  27.975  1.00  0.00    -0.014 A 
BRANCH  39  40
ATOM     40  C   UNL A   1      41.645  27.618  29.018  1.00  0.00     0.031 A 
ATOM     41  C   UNL A   1      42.394  27.567  30.318  1.00  0.00     0.074 A 
ATOM     42  C   UNL A   1      40.614  28.465  28.852  1.00  0.00     0.049 A 
ATOM     43  N   UNL A   1      42.165  28.209  31.433  1.00  0.00    -0.248 NA
ATOM     44  C   UNL A   1      43.554  26.659  30.369  1.00  0.00     0.031 C 
ATOM     45  C   UNL A   1      39.830  28.625  27.628  1.00  0.00     0.029 A 
ATOM     46  N   UNL A   1      40.032  29.335  29.741  1.00  0.00    -0.354 N 
ATOM     47  C   UNL A   1      43.140  27.771  32.319  1.00  0.00     0.074 A 
ATOM     48  C   UNL A   1      43.959  26.809  31.621  1.00  0.00     0.031 C 
ATOM     49  C   UNL A   1      38.847  29.517  27.855  1.00  0.00     0.029 A 
ATOM     50  C   UNL A   1      38.910  29.959  29.248  1.00  0.00     0.049 A 
ATOM     51  H   UNL A   1      40.384  29.497  30.646  1.00  0.00     0.167 HD
ATOM     52  C   UNL A   1      43.328  28.130  33.608  1.00  0.00     0.031 A 
ATOM     53  C   UNL A   1      38.017  30.757  29.867  1.00  0.00     0.031 A 
ATOM     54  C   UNL A   1      42.496  29.065  34.311  1.00  0.00     0.049 A 
ATOM     55  C   UNL A   1      38.204  31.075  31.331  1.00  0.00     0.074 A 
ATOM     56  C   UNL A   1      42.628  29.525  35.609  1.00  0.00     0.029 A 
ATOM     57  N   UNL A   1      41.366  29.662  33.780  1.00  0.00    -0.354 N 
ATOM     58  N   UNL A   1      39.168  30.710  32.142  1.00  0.00    -0.248 NA
ATOM     59  C   UNL A   1      37.173  31.912  31.966  1.00  0.00     0.031 C 
ATOM     60  C   UNL A   1      41.537  30.353  35.885  1.00  0.00     0.029 A 
ATOM     61  C   UNL A   1      40.761  30.453  34.740  1.00  0.00     0.049 A 
ATOM     62  H   UNL A   1      41.041  29.542  32.859  1.00  0.00     0.167 HD
ATOM     63  C   UNL A   1      38.872  31.288  33.371  1.00  0.00     0.074 A 
ATOM     64  C   UNL A   1      37.650  32.042  33.197  1.00  0.00     0.031 C 
ATOM     65  C   UNL A   1      39.548  31.199  34.543  1.00  0.00     0.031 A 
BRANCH  52  66
ATOM     66  C   UNL A   1      44.448  27.469  34.355  1.00  0.00    -0.014 A 
ATOM     67  C   UNL A   1      45.717  28.060  34.441  1.00  0.00     0.009 A 
ATOM     68  C   UNL A   1      44.213  26.251  35.013  1.00  0.00     0.009 A 
ATOM     69  C   UNL A   1      46.737  27.434  35.159  1.00  0.00     0.001 A 
ATOM     70  C   UNL A   1      45.228  25.642  35.749  1.00  0.00     0.001 A 
ATOM     71  C   UNL A   1      46.489  26.230  35.819  1.00  0.00     0.000 A 
ENDBRANCH  52  66
BRANCH  53  72
ATOM     72  C   UNL A   1      36.822  31.268  29.142  1.00  0.00    -0.014 A 
ATOM     73  C   UNL A   1      35.757  30.415  28.815  1.00  0.00     0.009 A 
ATOM     74  C   UNL A   1      36.771  32.605  28.715  1.00  0.00     0.009 A 
ATOM     75  C   UNL A   1      34.684  30.880  28.049  1.00  0.00     0.001 A 
ATOM     76  C   UNL A   1      35.682  33.075  27.975  1.00  0.00     0.001 A 
ATOM     77  C   UNL A   1      34.646  32.209  27.632  1.00  0.00     0.000 A 
ENDBRANCH  53  72
BRANCH  65  78
ATOM     78  C   UNL A   1      39.001  31.955  35.721  1.00  0.00    -0.014 A 
ATOM     79  C   UNL A   1      38.175  31.327  36.665  1.00  0.00     0.009 A 
ATOM     80  C   UNL A   1      39.382  33.290  35.927  1.00  0.00     0.009 A 
ATOM     81  C   UNL A   1      37.724  32.030  37.783  1.00  0.00     0.001 A 
ATOM     82  C   UNL A   1      38.953  33.981  37.061  1.00  0.00     0.001 A 
ATOM     83  C   UNL A   1      38.119  33.352  37.985  1.00  0.00     0.000 A 
ENDBRANCH  65  78
ENDBRANCH  39  40
ENDBRANCH  32  34
ENDBRANCH  31  32
ENDBRANCH  30  31
ENDBRANCH  29  30
ENDBRANCH  28  29
ENDBRANCH  27  28
ENDBRANCH  26  27
ENDBRANCH   1  26
TORSDOF 22
ENDMDL
MODEL 3
REMARK VINA RESULT:      -9.7      3.938     10.084
REMARK SMILES C=C(C(=O)OCCOCCOCCOCCOC(=O)c1ccc(-c2c3nc(c(-c4ccccc4)c4ccc([nH]4)c(-c4ccccc4)c4nc(c(-c5ccccc5)c5ccc2[nH]5)C=C4)C=C3)cc1)[C@@H]1CC[C@]2(C)C[C@@H](O)CC(=C)[C@H]2C1
REMARK SMILES IDX 11 1 10 2 9 3 8 4 7 5 6 6 5 7 3 8 4 9 2 10 1 11 68 12 69 13
REMARK SMILES IDX 80 14 70 15 79 16 71 17 77 18 72 19 73 20 76 21 78 22 74 23
REMARK SMILES IDX 75 24 12 26 13 27 14 28 15 29 16 30 17 31 18 32 19 33 20 34
REMARK SMILES IDX 21 35 67 36 22 37 66 38 23 39 24 40 25 41 60 42 26 43 65 44
REMARK SMILES IDX 59 45 61 46 27 47 64 48 58 49 57 50 28 52 50 53 35 54 49 55
REMARK SMILES IDX 36 56 39 57 48 58 62 59 37 60 38 61 47 63 63 64 40 65 29 66
REMARK SMILES IDX 30 67 34 68 31 69 33 70 32 71 51 72 52 73 56 74 53 75 55 76
REMARK SMILES IDX 54 77 41 78 42 79 46 80 43 81 45 82 44 83
REMARK H PARENT 75 25 61 51 39 62
REMARK Flexibility Score: inf
ROOT
ATOM      1  O   UNL A   1      35.247  31.696  28.318  1.00  0.00    -0.377 OA
ENDROOT
BRANCH   1   2
ATOM      2  C   UNL A   1      34.215  31.318  27.420  1.00  0.00     0.188 C 
BRANCH   2   3
ATOM      3  C   UNL A   1      33.895  29.838  27.146  1.00  0.00     0.188 C 
BRANCH   3   4
ATOM      4  O   UNL A   1      32.515  29.521  27.003  1.00  0.00    -0.376 OA
BRANCH   4   5
ATOM      5  C   UNL A   1      31.925  29.867  25.757  1.00  0.00     0.202 C 
BRANCH   5   6
ATOM      6  C   UNL A   1      32.698  29.261  24.584  1.00  0.00     0.261 C 
BRANCH   6   7
ATOM      7  O   UNL A   1      31.943  28.232  23.917  1.00  0.00    -0.460 OA
BRANCH   7   8
ATOM      8  C   UNL A   1      32.574  27.041  23.729  1.00  0.00     0.333 C 
ATOM      9  O   UNL A   1      33.652  26.743  24.211  1.00  0.00    -0.247 OA
BRANCH   8  10
ATOM     10  C   UNL A   1      31.670  26.110  22.975  1.00  0.00     0.033 C 
ATOM     11  C   UNL A   1      31.708  26.218  21.629  1.00  0.00     0.020 C 
BRANCH  10  12
ATOM     12  C   UNL A   1      30.835  25.025  23.677  1.00  0.00     0.026 C 
ATOM     13  C   UNL A   1      30.652  25.247  25.207  1.00  0.00     0.009 C 
ATOM     14  C   UNL A   1      31.151  23.530  23.411  1.00  0.00     0.017 C 
ATOM     15  C   UNL A   1      31.691  24.582  26.117  1.00  0.00     0.008 C 
ATOM     16  C   UNL A   1      32.288  22.963  24.286  1.00  0.00     0.021 C 
ATOM     17  C   UNL A   1      31.982  23.092  25.805  1.00  0.00    -0.024 C 
ATOM     18  C   UNL A   1      32.790  21.565  23.965  1.00  0.00    -0.071 C 
ATOM     19  C   UNL A   1      30.754  22.250  26.225  1.00  0.00     0.012 C 
ATOM     20  C   UNL A   1      33.219  22.645  26.655  1.00  0.00     0.039 C 
ATOM     21  C   UNL A   1      34.082  21.232  24.687  1.00  0.00     0.062 C 
ATOM     22  C   UNL A   1      32.202  20.697  23.128  1.00  0.00     0.008 C 
ATOM     23  C   UNL A   1      33.917  21.350  26.208  1.00  0.00     0.119 C 
BRANCH  23  24
ATOM     24  O   UNL A   1      33.227  20.215  26.731  1.00  0.00    -0.393 OA
ATOM     25  H   UNL A   1      32.314  20.212  26.402  1.00  0.00     0.210 HD
ENDBRANCH  23  24
ENDBRANCH  10  12
ENDBRANCH   8  10
ENDBRANCH   7   8
ENDBRANCH   6   7
ENDBRANCH   5   6
ENDBRANCH   4   5
ENDBRANCH   3   4
ENDBRANCH   2   3
ENDBRANCH   1   2
BRANCH   1  26
ATOM     26  C   UNL A   1      35.473  33.079  28.500  1.00  0.00     0.188 C 
BRANCH  26  27
ATOM     27  C   UNL A   1      34.209  33.948  28.654  1.00  0.00     0.188 C 
BRANCH  27  28
ATOM     28  O   UNL A   1      34.276  35.195  27.961  1.00  0.00    -0.376 OA
BRANCH  28  29
ATOM     29  C   UNL A   1      33.876  36.344  28.695  1.00  0.00     0.202 C 
BRANCH  29  30
ATOM     30  C   UNL A   1      32.784  36.078  29.736  1.00  0.00     0.261 C 
BRANCH  30  31
ATOM     31  O   UNL A   1      33.039  36.612  31.043  1.00  0.00    -0.460 OA
BRANCH  31  32
ATOM     32  C   UNL A   1      32.684  35.877  32.119  1.00  0.00     0.338 C 
ATOM     33  O   UNL A   1      31.578  35.781  32.620  1.00  0.00    -0.246 OA
BRANCH  32  34
ATOM     34  C   UNL A   1      33.845  35.022  32.446  1.00  0.00     0.060 A 
ATOM     35  C   UNL A   1      35.138  35.546  32.299  1.00  0.00     0.016 A 
ATOM     36  C   UNL A   1      33.651  33.765  33.024  1.00  0.00     0.016 A 
ATOM     37  C   UNL A   1      36.237  34.830  32.780  1.00  0.00     0.010 A 
ATOM     38  C   UNL A   1      34.753  33.030  33.457  1.00  0.00     0.010 A 
ATOM     39  C   UNL A   1      36.049  33.557  33.337  1.00  0.00    -0.014 A 
BRANCH  39  40
ATOM     40  C   UNL A   1      37.204  32.670  33.594  1.00  0.00     0.031 A 
ATOM     41  C   UNL A   1      37.992  32.916  34.849  1.00  0.00     0.074 A 
ATOM     42  C   UNL A   1      37.591  31.731  32.713  1.00  0.00     0.049 A 
ATOM     43  N   UNL A   1      39.116  32.377  35.241  1.00  0.00    -0.248 NA
ATOM     44  C   UNL A   1      37.440  33.914  35.782  1.00  0.00     0.031 C 
ATOM     45  C   UNL A   1      36.893  31.382  31.476  1.00  0.00     0.029 A 
ATOM     46  N   UNL A   1      38.696  30.914  32.718  1.00  0.00    -0.354 N 
ATOM     47  C   UNL A   1      39.411  32.982  36.455  1.00  0.00     0.074 A 
ATOM     48  C   UNL A   1      38.358  33.928  36.736  1.00  0.00     0.031 C 
ATOM     49  C   UNL A   1      37.605  30.443  30.826  1.00  0.00     0.029 A 
ATOM     50  C   UNL A   1      38.825  30.155  31.579  1.00  0.00     0.049 A 
ATOM     51  H   UNL A   1      39.334  30.876  33.466  1.00  0.00     0.167 HD
ATOM     52  C   UNL A   1      40.477  32.775  37.260  1.00  0.00     0.031 A 
ATOM     53  C   UNL A   1      39.835  29.357  31.177  1.00  0.00     0.031 A 
ATOM     54  C   UNL A   1      41.539  31.855  36.968  1.00  0.00     0.049 A 
ATOM     55  C   UNL A   1      41.052  29.209  32.058  1.00  0.00     0.074 A 
ATOM     56  C   UNL A   1      42.644  31.545  37.740  1.00  0.00     0.029 A 
ATOM     57  N   UNL A   1      41.638  31.118  35.800  1.00  0.00    -0.354 N 
ATOM     58  N   UNL A   1      41.290  29.733  33.237  1.00  0.00    -0.248 NA
ATOM     59  C   UNL A   1      42.143  28.364  31.548  1.00  0.00     0.031 C 
ATOM     60  C   UNL A   1      43.447  30.666  37.009  1.00  0.00     0.029 A 
ATOM     61  C   UNL A   1      42.811  30.385  35.809  1.00  0.00     0.049 A 
ATOM     62  H   UNL A   1      40.975  31.115  35.074  1.00  0.00     0.167 HD
ATOM     63  C   UNL A   1      42.544  29.264  33.615  1.00  0.00     0.074 A 
ATOM     64  C   UNL A   1      43.009  28.400  32.552  1.00  0.00     0.031 C 
ATOM     65  C   UNL A   1      43.251  29.528  34.741  1.00  0.00     0.031 A 
BRANCH  52  66
ATOM     66  C   UNL A   1      40.569  33.598  38.511  1.00  0.00    -0.014 A 
ATOM     67  C   UNL A   1      40.075  33.124  39.735  1.00  0.00     0.009 A 
ATOM     68  C   UNL A   1      41.196  34.853  38.465  1.00  0.00     0.009 A 
ATOM     69  C   UNL A   1      40.192  33.900  40.888  1.00  0.00     0.001 A 
ATOM     70  C   UNL A   1      41.332  35.615  39.625  1.00  0.00     0.001 A 
ATOM     71  C   UNL A   1      40.827  35.142  40.834  1.00  0.00     0.000 A 
ENDBRANCH  52  66
BRANCH  53  72
ATOM     72  C   UNL A   1      39.788  28.679  29.853  1.00  0.00    -0.014 A 
ATOM     73  C   UNL A   1      39.398  27.336  29.744  1.00  0.00     0.009 A 
ATOM     74  C   UNL A   1      40.196  29.359  28.694  1.00  0.00     0.009 A 
ATOM     75  C   UNL A   1      39.450  26.679  28.512  1.00  0.00     0.001 A 
ATOM     76  C   UNL A   1      40.218  28.708  27.457  1.00  0.00     0.001 A 
ATOM     77  C   UNL A   1      39.857  27.366  27.370  1.00  0.00     0.000 A 
ENDBRANCH  53  72
BRANCH  65  78
ATOM     78  C   UNL A   1      44.587  28.859  34.898  1.00  0.00    -0.014 A 
ATOM     79  C   UNL A   1      44.694  27.574  35.450  1.00  0.00     0.009 A 
ATOM     80  C   UNL A   1      45.742  29.493  34.413  1.00  0.00     0.009 A 
ATOM     81  C   UNL A   1      45.938  26.946  35.535  1.00  0.00     0.001 A 
ATOM     82  C   UNL A   1      46.980  28.850  34.473  1.00  0.00     0.001 A 
ATOM     83  C   UNL A   1      47.077  27.581  35.039  1.00  0.00     0.000 A 
ENDBRANCH  65  78
ENDBRANCH  39  40
ENDBRANCH  32  34
ENDBRANCH  31  32
ENDBRANCH  30  31
ENDBRANCH  29  30
ENDBRANCH  28  29
ENDBRANCH  27  28
ENDBRANCH  26  27
ENDBRANCH   1  26
TORSDOF 22
ENDMDL
