MODEL 1
REMARK VINA RESULT:     -10.6      0.000      0.000
REMARK SMILES O=C(OCCOCCOCCOCCOC(=O)[C@@H]1CC=CC[C@H]1C(=O)N1CC[NH+](Cc2ccc3c(c2)OCO3)CC1)c1ccc(-c2c3nc(c(-c4ccccc4)c4ccc([nH]4)c(-c4ccccc4)c4nc(c(-c5ccccc5)c5ccc2[nH]5)C=C4)C=C3)cc1
REMARK SMILES IDX 10 1 9 2 8 3 7 4 6 5 5 6 4 7 3 8 2 9 1 10 42 11 43 12 89 13
REMARK SMILES IDX 44 14 88 15 45 16 46 17 47 18 82 19 48 20 87 21 81 22 83 23
REMARK SMILES IDX 49 24 86 25 80 26 79 27 50 29 72 30 57 31 71 32 58 33 61 34
REMARK SMILES IDX 70 35 84 36 59 37 60 38 69 40 85 41 62 42 51 43 52 44 56 45
REMARK SMILES IDX 53 46 55 47 54 48 73 49 74 50 78 51 75 52 77 53 76 54 63 55
REMARK SMILES IDX 64 56 68 57 65 58 67 59 66 60 11 61 12 62 13 63 14 64 15 65
REMARK SMILES IDX 16 66 17 67 18 68 19 69 23 70 20 71 22 72 21 73 24 74 25 75
REMARK SMILES IDX 26 76 27 77 41 78 28 79 40 80 29 81 30 83 31 84 32 85 36 86
REMARK SMILES IDX 33 87 35 88 34 89 37 90 39 91 38 92
REMARK H PARENT 83 28 61 39 29 82
REMARK Flexibility Score: inf
ROOT
ATOM      1  C   UNL A   1      36.171  31.353  27.825  1.00  0.00     0.188 C 
ENDROOT
BRANCH   1   2
ATOM      2  O   UNL A   1      35.604  32.648  27.653  1.00  0.00    -0.377 OA
BRANCH   2   3
ATOM      3  C   UNL A   1      36.082  33.689  28.498  1.00  0.00     0.188 C 
BRANCH   3   4
ATOM      4  C   UNL A   1      35.139  33.935  29.666  1.00  0.00     0.188 C 
BRANCH   4   5
ATOM      5  O   UNL A   1      33.793  33.925  29.201  1.00  0.00    -0.376 OA
BRANCH   5   6
ATOM      6  C   UNL A   1      33.307  35.155  28.704  1.00  0.00     0.202 C 
BRANCH   6   7
ATOM      7  C   UNL A   1      33.038  36.218  29.772  1.00  0.00     0.261 C 
BRANCH   7   8
ATOM      8  O   UNL A   1      32.312  35.722  30.919  1.00  0.00    -0.460 OA
BRANCH   8   9
ATOM      9  C   UNL A   1      32.690  35.914  32.211  1.00  0.00     0.338 C 
ATOM     10  O   UNL A   1      32.101  36.706  32.947  1.00  0.00    -0.246 OA
BRANCH   9  11
ATOM     11  C   UNL A   1      33.833  35.144  32.746  1.00  0.00     0.060 A 
ATOM     12  C   UNL A   1      35.089  35.729  32.841  1.00  0.00     0.016 A 
ATOM     13  C   UNL A   1      33.663  33.833  33.192  1.00  0.00     0.016 A 
ATOM     14  C   UNL A   1      36.210  34.967  33.112  1.00  0.00     0.010 A 
ATOM     15  C   UNL A   1      34.775  33.103  33.631  1.00  0.00     0.010 A 
ATOM     16  C   UNL A   1      36.068  33.648  33.536  1.00  0.00    -0.014 A 
BRANCH  16  17
ATOM     17  C   UNL A   1      37.285  32.846  33.819  1.00  0.00     0.031 A 
ATOM     18  C   UNL A   1      37.950  32.983  35.159  1.00  0.00     0.074 A 
ATOM     19  C   UNL A   1      37.731  31.943  32.923  1.00  0.00     0.049 A 
ATOM     20  N   UNL A   1      39.107  32.526  35.560  1.00  0.00    -0.248 NA
ATOM     21  C   UNL A   1      37.217  33.742  36.189  1.00  0.00     0.031 C 
ATOM     22  C   UNL A   1      37.098  31.632  31.636  1.00  0.00     0.029 A 
ATOM     23  N   UNL A   1      38.803  31.087  32.969  1.00  0.00    -0.354 N 
ATOM     24  C   UNL A   1      39.271  33.005  36.854  1.00  0.00     0.074 A 
ATOM     25  C   UNL A   1      38.092  33.770  37.183  1.00  0.00     0.031 C 
ATOM     26  C   UNL A   1      37.751  30.616  31.052  1.00  0.00     0.029 A 
ATOM     27  C   UNL A   1      38.920  30.291  31.854  1.00  0.00     0.049 A 
ATOM     28  H   UNL A   1      39.428  31.049  33.728  1.00  0.00     0.167 HD
ATOM     29  C   UNL A   1      40.328  32.834  37.681  1.00  0.00     0.031 A 
ATOM     30  C   UNL A   1      39.896  29.437  31.491  1.00  0.00     0.031 A 
ATOM     31  C   UNL A   1      41.477  32.042  37.339  1.00  0.00     0.049 A 
ATOM     32  C   UNL A   1      41.090  29.318  32.395  1.00  0.00     0.074 A 
ATOM     33  C   UNL A   1      42.641  31.841  38.056  1.00  0.00     0.029 A 
ATOM     34  N   UNL A   1      41.587  31.300  36.170  1.00  0.00    -0.354 N 
ATOM     35  N   UNL A   1      41.291  29.865  33.571  1.00  0.00    -0.248 NA
ATOM     36  C   UNL A   1      42.205  28.498  31.909  1.00  0.00     0.031 C 
ATOM     37  C   UNL A   1      43.472  31.004  37.302  1.00  0.00     0.029 A 
ATOM     38  C   UNL A   1      42.805  30.650  36.138  1.00  0.00     0.049 A 
ATOM     39  H   UNL A   1      40.899  31.245  35.469  1.00  0.00     0.167 HD
ATOM     40  C   UNL A   1      42.557  29.459  33.964  1.00  0.00     0.074 A 
ATOM     41  C   UNL A   1      43.061  28.590  32.916  1.00  0.00     0.031 C 
ATOM     42  C   UNL A   1      43.257  29.788  35.077  1.00  0.00     0.031 A 
BRANCH  29  43
ATOM     43  C   UNL A   1      40.313  33.589  38.979  1.00  0.00    -0.014 A 
ATOM     44  C   UNL A   1      40.888  34.862  39.104  1.00  0.00     0.009 A 
ATOM     45  C   UNL A   1      39.733  32.992  40.110  1.00  0.00     0.009 A 
ATOM     46  C   UNL A   1      40.915  35.506  40.344  1.00  0.00     0.001 A 
ATOM     47  C   UNL A   1      39.741  33.646  41.343  1.00  0.00     0.001 A 
ATOM     48  C   UNL A   1      40.342  34.898  41.462  1.00  0.00     0.000 A 
ENDBRANCH  29  43
BRANCH  30  49
ATOM     49  C   UNL A   1      39.840  28.727  30.182  1.00  0.00    -0.014 A 
ATOM     50  C   UNL A   1      39.372  27.408  30.095  1.00  0.00     0.009 A 
ATOM     51  C   UNL A   1      40.279  29.363  29.008  1.00  0.00     0.009 A 
ATOM     52  C   UNL A   1      39.366  26.736  28.867  1.00  0.00     0.001 A 
ATOM     53  C   UNL A   1      40.238  28.703  27.778  1.00  0.00     0.001 A 
ATOM     54  C   UNL A   1      39.793  27.385  27.710  1.00  0.00     0.000 A 
ENDBRANCH  30  49
BRANCH  42  55
ATOM     55  C   UNL A   1      44.619  29.180  35.215  1.00  0.00    -0.014 A 
ATOM     56  C   UNL A   1      44.790  27.930  35.826  1.00  0.00     0.009 A 
ATOM     57  C   UNL A   1      45.733  29.850  34.688  1.00  0.00     0.009 A 
ATOM     58  C   UNL A   1      46.063  27.370  35.929  1.00  0.00     0.001 A 
ATOM     59  C   UNL A   1      47.000  29.275  34.771  1.00  0.00     0.001 A 
ATOM     60  C   UNL A   1      47.165  28.040  35.397  1.00  0.00     0.000 A 
ENDBRANCH  42  55
ENDBRANCH  16  17
ENDBRANCH   9  11
ENDBRANCH   8   9
ENDBRANCH   7   8
ENDBRANCH   6   7
ENDBRANCH   5   6
ENDBRANCH   4   5
ENDBRANCH   3   4
ENDBRANCH   2   3
ENDBRANCH   1   2
BRANCH   1  61
ATOM     61  C   UNL A   1      35.216  30.165  27.661  1.00  0.00     0.188 C 
BRANCH  61  62
ATOM     62  O   UNL A   1      33.843  30.475  27.815  1.00  0.00    -0.376 OA
BRANCH  62  63
ATOM     63  C   UNL A   1      32.952  30.255  26.714  1.00  0.00     0.202 C 
BRANCH  63  64
ATOM     64  C   UNL A   1      33.079  29.022  25.797  1.00  0.00     0.261 C 
BRANCH  64  65
ATOM     65  O   UNL A   1      31.867  28.781  25.072  1.00  0.00    -0.463 OA
BRANCH  65  66
ATOM     66  C   UNL A   1      31.960  28.741  23.718  1.00  0.00     0.310 C 
ATOM     67  O   UNL A   1      32.975  29.033  23.090  1.00  0.00    -0.252 OA
BRANCH  66  68
ATOM     68  C   UNL A   1      30.729  28.062  23.117  1.00  0.00     0.115 C 
ATOM     69  C   UNL A   1      29.799  29.214  22.693  1.00  0.00     0.043 C 
ATOM     70  C   UNL A   1      30.127  26.987  24.036  1.00  0.00     0.097 C 
ATOM     71  C   UNL A   1      28.349  28.888  22.620  1.00  0.00    -0.030 C 
ATOM     72  C   UNL A   1      28.590  26.824  24.003  1.00  0.00     0.041 C 
ATOM     73  C   UNL A   1      27.811  27.823  23.215  1.00  0.00    -0.030 C 
BRANCH  70  74
ATOM     74  C   UNL A   1      30.765  25.592  23.842  1.00  0.00     0.227 C 
ATOM     75  O   UNL A   1      30.096  24.664  23.386  1.00  0.00    -0.275 OA
ATOM     76  N   UNL A   1      32.143  25.458  24.065  1.00  0.00    -0.331 N 
ATOM     77  C   UNL A   1      32.883  24.718  23.047  1.00  0.00     0.181 C 
ATOM     78  C   UNL A   1      32.597  25.153  25.416  1.00  0.00     0.181 C 
ATOM     79  C   UNL A   1      34.415  24.779  23.237  1.00  0.00     0.284 C 
ATOM     80  C   UNL A   1      34.124  25.167  25.613  1.00  0.00     0.284 C 
ATOM     81  N   UNL A   1      34.917  24.496  24.584  1.00  0.00    -0.328 N 
ATOM     82  H   UNL A   1      35.834  24.941  24.616  1.00  0.00     0.348 HD
BRANCH  81  83
ATOM     83  C   UNL A   1      35.370  23.133  24.872  1.00  0.00     0.299 C 
BRANCH  83  84
ATOM     84  C   UNL A   1      36.738  22.959  25.490  1.00  0.00     0.010 A 
ATOM     85  C   UNL A   1      37.380  24.032  26.144  1.00  0.00     0.013 A 
ATOM     86  C   UNL A   1      37.393  21.720  25.430  1.00  0.00     0.060 A 
ATOM     87  C   UNL A   1      38.698  23.924  26.603  1.00  0.00     0.051 A 
ATOM     88  C   UNL A   1      38.693  21.640  25.887  1.00  0.00     0.166 A 
ATOM     89  C   UNL A   1      39.338  22.720  26.435  1.00  0.00     0.165 A 
ATOM     90  O   UNL A   1      39.492  20.543  25.818  1.00  0.00    -0.454 OA
ATOM     91  O   UNL A   1      40.629  22.444  26.761  1.00  0.00    -0.454 OA
ATOM     92  C   UNL A   1      40.746  21.090  26.273  1.00  0.00     0.468 C 
ENDBRANCH  83  84
ENDBRANCH  81  83
ENDBRANCH  70  74
ENDBRANCH  66  68
ENDBRANCH  65  66
ENDBRANCH  64  65
ENDBRANCH  63  64
ENDBRANCH  62  63
ENDBRANCH  61  62
ENDBRANCH   1  61
TORSDOF 23
ENDMDL
MODEL 2
REMARK VINA RESULT:     -10.5      1.596      2.161
REMARK SMILES O=C(OCCOCCOCCOCCOC(=O)[C@@H]1CC=CC[C@H]1C(=O)N1CC[NH+](Cc2ccc3c(c2)OCO3)CC1)c1ccc(-c2c3nc(c(-c4ccccc4)c4ccc([nH]4)c(-c4ccccc4)c4nc(c(-c5ccccc5)c5ccc2[nH]5)C=C4)C=C3)cc1
REMARK SMILES IDX 10 1 9 2 8 3 7 4 6 5 5 6 4 7 3 8 2 9 1 10 42 11 43 12 89 13
REMARK SMILES IDX 44 14 88 15 45 16 46 17 47 18 82 19 48 20 87 21 81 22 83 23
REMARK SMILES IDX 49 24 86 25 80 26 79 27 50 29 72 30 57 31 71 32 58 33 61 34
REMARK SMILES IDX 70 35 84 36 59 37 60 38 69 40 85 41 62 42 51 43 52 44 56 45
REMARK SMILES IDX 53 46 55 47 54 48 73 49 74 50 78 51 75 52 77 53 76 54 63 55
REMARK SMILES IDX 64 56 68 57 65 58 67 59 66 60 11 61 12 62 13 63 14 64 15 65
REMARK SMILES IDX 16 66 17 67 18 68 19 69 23 70 20 71 22 72 21 73 24 74 25 75
REMARK SMILES IDX 26 76 27 77 41 78 28 79 40 80 29 81 30 83 31 84 32 85 36 86
REMARK SMILES IDX 33 87 35 88 34 89 37 90 39 91 38 92
REMARK H PARENT 83 28 61 39 29 82
REMARK Flexibility Score: inf
ROOT
ATOM      1  C   UNL A   1      35.804  30.550  27.775  1.00  0.00     0.188 C 
ENDROOT
BRANCH   1   2
ATOM      2  O   UNL A   1      35.353  31.896  27.884  1.00  0.00    -0.377 OA
BRANCH   2   3
ATOM      3  C   UNL A   1      36.285  32.863  28.356  1.00  0.00     0.188 C 
BRANCH   3   4
ATOM      4  C   UNL A   1      35.583  34.122  28.843  1.00  0.00     0.188 C 
BRANCH   4   5
ATOM      5  O   UNL A   1      34.222  33.824  29.137  1.00  0.00    -0.376 OA
BRANCH   5   6
ATOM      6  C   UNL A   1      33.269  34.710  28.587  1.00  0.00     0.202 C 
BRANCH   6   7
ATOM      7  C   UNL A   1      32.878  35.878  29.496  1.00  0.00     0.261 C 
BRANCH   7   8
ATOM      8  O   UNL A   1      32.285  35.470  30.748  1.00  0.00    -0.460 OA
BRANCH   8   9
ATOM      9  C   UNL A   1      32.763  35.815  31.974  1.00  0.00     0.338 C 
ATOM     10  O   UNL A   1      32.261  36.729  32.630  1.00  0.00    -0.246 OA
BRANCH   9  11
ATOM     11  C   UNL A   1      33.907  35.067  32.536  1.00  0.00     0.060 A 
ATOM     12  C   UNL A   1      35.169  35.644  32.576  1.00  0.00     0.016 A 
ATOM     13  C   UNL A   1      33.733  33.787  33.062  1.00  0.00     0.016 A 
ATOM     14  C   UNL A   1      36.288  34.889  32.875  1.00  0.00     0.010 A 
ATOM     15  C   UNL A   1      34.845  33.073  33.526  1.00  0.00     0.010 A 
ATOM     16  C   UNL A   1      36.141  33.598  33.378  1.00  0.00    -0.014 A 
BRANCH  16  17
ATOM     17  C   UNL A   1      37.356  32.804  33.688  1.00  0.00     0.031 A 
ATOM     18  C   UNL A   1      37.996  32.953  35.040  1.00  0.00     0.074 A 
ATOM     19  C   UNL A   1      37.821  31.895  32.807  1.00  0.00     0.049 A 
ATOM     20  N   UNL A   1      39.147  32.502  35.464  1.00  0.00    -0.248 NA
ATOM     21  C   UNL A   1      37.243  33.716  36.050  1.00  0.00     0.031 C 
ATOM     22  C   UNL A   1      37.212  31.573  31.511  1.00  0.00     0.029 A 
ATOM     23  N   UNL A   1      38.895  31.043  32.879  1.00  0.00    -0.354 N 
ATOM     24  C   UNL A   1      39.287  32.991  36.757  1.00  0.00     0.074 A 
ATOM     25  C   UNL A   1      38.099  33.755  37.059  1.00  0.00     0.031 C 
ATOM     26  C   UNL A   1      37.879  30.555  30.947  1.00  0.00     0.029 A 
ATOM     27  C   UNL A   1      39.035  30.239  31.772  1.00  0.00     0.049 A 
ATOM     28  H   UNL A   1      39.507  31.013  33.649  1.00  0.00     0.167 HD
ATOM     29  C   UNL A   1      40.330  32.830  37.605  1.00  0.00     0.031 A 
ATOM     30  C   UNL A   1      40.019  29.386  31.433  1.00  0.00     0.031 A 
ATOM     31  C   UNL A   1      41.487  32.039  37.289  1.00  0.00     0.049 A 
ATOM     32  C   UNL A   1      41.198  29.277  32.359  1.00  0.00     0.074 A 
ATOM     33  C   UNL A   1      42.639  31.847  38.028  1.00  0.00     0.029 A 
ATOM     34  N   UNL A   1      41.620  31.290  36.128  1.00  0.00    -0.354 N 
ATOM     35  N   UNL A   1      41.376  29.834  33.534  1.00  0.00    -0.248 NA
ATOM     36  C   UNL A   1      42.324  28.458  31.899  1.00  0.00     0.031 C 
ATOM     37  C   UNL A   1      43.485  31.008  37.295  1.00  0.00     0.029 A 
ATOM     38  C   UNL A   1      42.841  30.643  36.122  1.00  0.00     0.049 A 
ATOM     39  H   UNL A   1      40.945  31.227  35.415  1.00  0.00     0.167 HD
ATOM     40  C   UNL A   1      42.636  29.436  33.952  1.00  0.00     0.074 A 
ATOM     41  C   UNL A   1      43.161  28.561  32.921  1.00  0.00     0.031 C 
ATOM     42  C   UNL A   1      43.314  29.775  35.076  1.00  0.00     0.031 A 
BRANCH  29  43
ATOM     43  C   UNL A   1      40.288  33.594  38.896  1.00  0.00    -0.014 A 
ATOM     44  C   UNL A   1      40.817  34.888  39.010  1.00  0.00     0.009 A 
ATOM     45  C   UNL A   1      39.732  32.985  40.033  1.00  0.00     0.009 A 
ATOM     46  C   UNL A   1      40.821  35.543  40.245  1.00  0.00     0.001 A 
ATOM     47  C   UNL A   1      39.719  33.649  41.261  1.00  0.00     0.001 A 
ATOM     48  C   UNL A   1      40.273  34.923  41.369  1.00  0.00     0.000 A 
ENDBRANCH  29  43
BRANCH  30  49
ATOM     49  C   UNL A   1      39.989  28.666  30.129  1.00  0.00    -0.014 A 
ATOM     50  C   UNL A   1      40.566  29.226  28.979  1.00  0.00     0.009 A 
ATOM     51  C   UNL A   1      39.359  27.415  30.021  1.00  0.00     0.009 A 
ATOM     52  C   UNL A   1      40.492  28.561  27.751  1.00  0.00     0.001 A 
ATOM     53  C   UNL A   1      39.319  26.735  28.802  1.00  0.00     0.001 A 
ATOM     54  C   UNL A   1      39.875  27.314  27.664  1.00  0.00     0.000 A 
ENDBRANCH  30  49
BRANCH  42  55
ATOM     55  C   UNL A   1      44.676  29.173  35.243  1.00  0.00    -0.014 A 
ATOM     56  C   UNL A   1      44.839  27.926  35.863  1.00  0.00     0.009 A 
ATOM     57  C   UNL A   1      45.797  29.844  34.734  1.00  0.00     0.009 A 
ATOM     58  C   UNL A   1      46.113  27.371  35.992  1.00  0.00     0.001 A 
ATOM     59  C   UNL A   1      47.065  29.275  34.844  1.00  0.00     0.001 A 
ATOM     60  C   UNL A   1      47.221  28.043  35.479  1.00  0.00     0.000 A 
ENDBRANCH  42  55
ENDBRANCH  16  17
ENDBRANCH   9  11
ENDBRANCH   8   9
ENDBRANCH   7   8
ENDBRANCH   6   7
ENDBRANCH   5   6
ENDBRANCH   4   5
ENDBRANCH   3   4
ENDBRANCH   2   3
ENDBRANCH   1   2
BRANCH   1  61
ATOM     61  C   UNL A   1      34.754  29.512  27.361  1.00  0.00     0.188 C 
BRANCH  61  62
ATOM     62  O   UNL A   1      33.411  29.886  27.613  1.00  0.00    -0.376 OA
BRANCH  62  63
ATOM     63  C   UNL A   1      32.404  29.558  26.646  1.00  0.00     0.202 C 
BRANCH  63  64
ATOM     64  C   UNL A   1      32.751  29.295  25.167  1.00  0.00     0.261 C 
BRANCH  64  65
ATOM     65  O   UNL A   1      31.597  29.425  24.327  1.00  0.00    -0.463 OA
BRANCH  65  66
ATOM     66  C   UNL A   1      31.675  28.874  23.089  1.00  0.00     0.310 C 
ATOM     67  O   UNL A   1      32.702  28.394  22.613  1.00  0.00    -0.252 OA
BRANCH  66  68
ATOM     68  C   UNL A   1      30.279  28.718  22.484  1.00  0.00     0.115 C 
ATOM     69  C   UNL A   1      30.078  29.965  21.603  1.00  0.00     0.043 C 
ATOM     70  C   UNL A   1      29.197  28.430  23.537  1.00  0.00     0.097 C 
ATOM     71  C   UNL A   1      28.668  30.373  21.364  1.00  0.00    -0.030 C 
ATOM     72  C   UNL A   1      27.795  29.026  23.276  1.00  0.00     0.041 C 
ATOM     73  C   UNL A   1      27.651  29.958  22.119  1.00  0.00    -0.030 C 
BRANCH  70  74
ATOM     74  C   UNL A   1      29.033  26.924  23.848  1.00  0.00     0.227 C 
ATOM     75  O   UNL A   1      27.930  26.387  23.735  1.00  0.00    -0.275 OA
ATOM     76  N   UNL A   1      30.186  26.174  24.119  1.00  0.00    -0.331 N 
ATOM     77  C   UNL A   1      30.286  24.891  23.430  1.00  0.00     0.181 C 
ATOM     78  C   UNL A   1      30.656  26.106  25.497  1.00  0.00     0.181 C 
ATOM     79  C   UNL A   1      31.662  24.208  23.604  1.00  0.00     0.284 C 
ATOM     80  C   UNL A   1      32.004  25.390  25.694  1.00  0.00     0.284 C 
ATOM     81  N   UNL A   1      32.183  24.132  24.972  1.00  0.00    -0.328 N 
ATOM     82  H   UNL A   1      33.190  24.025  24.857  1.00  0.00     0.348 HD
BRANCH  81  83
ATOM     83  C   UNL A   1      31.956  22.893  25.720  1.00  0.00     0.299 C 
BRANCH  83  84
ATOM     84  C   UNL A   1      32.917  21.748  25.499  1.00  0.00     0.010 A 
ATOM     85  C   UNL A   1      34.312  21.951  25.559  1.00  0.00     0.013 A 
ATOM     86  C   UNL A   1      32.437  20.457  25.235  1.00  0.00     0.060 A 
ATOM     87  C   UNL A   1      35.214  20.933  25.226  1.00  0.00     0.051 A 
ATOM     88  C   UNL A   1      33.346  19.471  24.908  1.00  0.00     0.166 A 
ATOM     89  C   UNL A   1      34.696  19.708  24.877  1.00  0.00     0.165 A 
ATOM     90  O   UNL A   1      33.038  18.199  24.540  1.00  0.00    -0.454 OA
ATOM     91  O   UNL A   1      35.406  18.623  24.469  1.00  0.00    -0.454 OA
ATOM     92  C   UNL A   1      34.338  17.703  24.162  1.00  0.00     0.468 C 
ENDBRANCH  83  84
ENDBRANCH  81  83
ENDBRANCH  70  74
ENDBRANCH  66  68
ENDBRANCH  65  66
ENDBRANCH  64  65
ENDBRANCH  63  64
ENDBRANCH  62  63
ENDBRANCH  61  62
ENDBRANCH   1  61
TORSDOF 23
ENDMDL
MODEL 3
REMARK VINA RESULT:     -10.2      4.138      6.554
REMARK SMILES O=C(OCCOCCOCCOCCOC(=O)[C@@H]1CC=CC[C@H]1C(=O)N1CC[NH+](Cc2ccc3c(c2)OCO3)CC1)c1ccc(-c2c3nc(c(-c4ccccc4)c4ccc([nH]4)c(-c4ccccc4)c4nc(c(-c5ccccc5)c5ccc2[nH]5)C=C4)C=C3)cc1
REMARK SMILES IDX 10 1 9 2 8 3 7 4 6 5 5 6 4 7 3 8 2 9 1 10 42 11 43 12 89 13
REMARK SMILES IDX 44 14 88 15 45 16 46 17 47 18 82 19 48 20 87 21 81 22 83 23
REMARK SMILES IDX 49 24 86 25 80 26 79 27 50 29 72 30 57 31 71 32 58 33 61 34
REMARK SMILES IDX 70 35 84 36 59 37 60 38 69 40 85 41 62 42 51 43 52 44 56 45
REMARK SMILES IDX 53 46 55 47 54 48 73 49 74 50 78 51 75 52 77 53 76 54 63 55
REMARK SMILES IDX 64 56 68 57 65 58 67 59 66 60 11 61 12 62 13 63 14 64 15 65
REMARK SMILES IDX 16 66 17 67 18 68 19 69 23 70 20 71 22 72 21 73 24 74 25 75
REMARK SMILES IDX 26 76 27 77 41 78 28 79 40 80 29 81 30 83 31 84 32 85 36 86
REMARK SMILES IDX 33 87 35 88 34 89 37 90 39 91 38 92
REMARK H PARENT 83 28 61 39 29 82
REMARK Flexibility Score: inf
ROOT
ATOM      1  C   UNL A   1      34.866  32.147  27.933  1.00  0.00     0.188 C 
ENDROOT
BRANCH   1   2
ATOM      2  O   UNL A   1      33.915  33.131  28.327  1.00  0.00    -0.377 OA
BRANCH   2   3
ATOM      3  C   UNL A   1      34.341  34.489  28.330  1.00  0.00     0.188 C 
BRANCH   3   4
ATOM      4  C   UNL A   1      33.282  35.404  28.926  1.00  0.00     0.188 C 
BRANCH   4   5
ATOM      5  O   UNL A   1      32.850  34.878  30.178  1.00  0.00    -0.376 OA
BRANCH   5   6
ATOM      6  C   UNL A   1      33.655  35.208  31.291  1.00  0.00     0.202 C 
BRANCH   6   7
ATOM      7  C   UNL A   1      34.038  34.022  32.180  1.00  0.00     0.261 C 
BRANCH   7   8
ATOM      8  O   UNL A   1      35.042  33.159  31.602  1.00  0.00    -0.460 OA
BRANCH   8   9
ATOM      9  C   UNL A   1      35.932  32.424  32.322  1.00  0.00     0.338 C 
ATOM     10  O   UNL A   1      35.843  32.317  33.546  1.00  0.00    -0.246 OA
BRANCH   9  11
ATOM     11  C   UNL A   1      37.029  31.731  31.615  1.00  0.00     0.060 A 
ATOM     12  C   UNL A   1      37.940  30.958  32.323  1.00  0.00     0.016 A 
ATOM     13  C   UNL A   1      37.149  31.816  30.228  1.00  0.00     0.016 A 
ATOM     14  C   UNL A   1      39.099  30.498  31.725  1.00  0.00     0.010 A 
ATOM     15  C   UNL A   1      38.237  31.205  29.590  1.00  0.00     0.010 A 
ATOM     16  C   UNL A   1      39.253  30.593  30.344  1.00  0.00    -0.014 A 
BRANCH  16  17
ATOM     17  C   UNL A   1      40.507  30.096  29.723  1.00  0.00     0.031 A 
ATOM     18  C   UNL A   1      41.678  31.029  29.605  1.00  0.00     0.074 A 
ATOM     19  C   UNL A   1      40.622  28.803  29.358  1.00  0.00     0.049 A 
ATOM     20  N   UNL A   1      42.798  30.873  28.948  1.00  0.00    -0.248 NA
ATOM     21  C   UNL A   1      41.577  32.315  30.317  1.00  0.00     0.031 C 
ATOM     22  C   UNL A   1      39.595  27.770  29.535  1.00  0.00     0.029 A 
ATOM     23  N   UNL A   1      41.671  28.120  28.794  1.00  0.00    -0.354 N 
ATOM     24  C   UNL A   1      43.494  32.066  29.106  1.00  0.00     0.074 A 
ATOM     25  C   UNL A   1      42.686  32.930  29.935  1.00  0.00     0.031 C 
ATOM     26  C   UNL A   1      40.086  26.582  29.153  1.00  0.00     0.029 A 
ATOM     27  C   UNL A   1      41.410  26.786  28.584  1.00  0.00     0.049 A 
ATOM     28  H   UNL A   1      42.526  28.546  28.560  1.00  0.00     0.167 HD
ATOM     29  C   UNL A   1      44.693  32.410  28.582  1.00  0.00     0.031 A 
ATOM     30  C   UNL A   1      42.134  25.846  27.949  1.00  0.00     0.031 A 
ATOM     31  C   UNL A   1      45.490  31.520  27.785  1.00  0.00     0.049 A 
ATOM     32  C   UNL A   1      43.430  26.270  27.318  1.00  0.00     0.074 A 
ATOM     33  C   UNL A   1      46.688  31.763  27.141  1.00  0.00     0.029 A 
ATOM     34  N   UNL A   1      45.161  30.193  27.541  1.00  0.00    -0.354 N 
ATOM     35  N   UNL A   1      44.031  27.436  27.376  1.00  0.00    -0.248 NA
ATOM     36  C   UNL A   1      44.127  25.268  26.506  1.00  0.00     0.031 C 
ATOM     37  C   UNL A   1      47.066  30.591  26.477  1.00  0.00     0.029 A 
ATOM     38  C   UNL A   1      46.126  29.607  26.746  1.00  0.00     0.049 A 
ATOM     39  H   UNL A   1      44.359  29.737  27.885  1.00  0.00     0.167 HD
ATOM     40  C   UNL A   1      45.175  27.309  26.603  1.00  0.00     0.074 A 
ATOM     41  C   UNL A   1      45.201  25.941  26.120  1.00  0.00     0.031 C 
ATOM     42  C   UNL A   1      46.112  28.238  26.298  1.00  0.00     0.031 A 
BRANCH  29  43
ATOM     43  C   UNL A   1      45.150  33.825  28.789  1.00  0.00    -0.014 A 
ATOM     44  C   UNL A   1      44.720  34.873  27.962  1.00  0.00     0.009 A 
ATOM     45  C   UNL A   1      46.061  34.105  29.821  1.00  0.00     0.009 A 
ATOM     46  C   UNL A   1      45.220  36.165  28.141  1.00  0.00     0.001 A 
ATOM     47  C   UNL A   1      46.542  35.401  30.013  1.00  0.00     0.001 A 
ATOM     48  C   UNL A   1      46.131  36.429  29.166  1.00  0.00     0.000 A 
ENDBRANCH  29  43
BRANCH  30  49
ATOM     49  C   UNL A   1      41.608  24.462  27.782  1.00  0.00    -0.014 A 
ATOM     50  C   UNL A   1      42.071  23.409  28.586  1.00  0.00     0.009 A 
ATOM     51  C   UNL A   1      40.647  24.180  26.795  1.00  0.00     0.009 A 
ATOM     52  C   UNL A   1      41.602  22.106  28.389  1.00  0.00     0.001 A 
ATOM     53  C   UNL A   1      40.153  22.884  26.625  1.00  0.00     0.001 A 
ATOM     54  C   UNL A   1      40.640  21.846  27.415  1.00  0.00     0.000 A 
ENDBRANCH  30  49
BRANCH  42  55
ATOM     55  C   UNL A   1      47.245  27.787  25.428  1.00  0.00    -0.014 A 
ATOM     56  C   UNL A   1      48.422  27.272  25.989  1.00  0.00     0.009 A 
ATOM     57  C   UNL A   1      47.109  27.838  24.033  1.00  0.00     0.009 A 
ATOM     58  C   UNL A   1      49.459  26.837  25.163  1.00  0.00     0.001 A 
ATOM     59  C   UNL A   1      48.137  27.380  23.211  1.00  0.00     0.001 A 
ATOM     60  C   UNL A   1      49.313  26.887  23.777  1.00  0.00     0.000 A 
ENDBRANCH  42  55
ENDBRANCH  16  17
ENDBRANCH   9  11
ENDBRANCH   8   9
ENDBRANCH   7   8
ENDBRANCH   6   7
ENDBRANCH   5   6
ENDBRANCH   4   5
ENDBRANCH   3   4
ENDBRANCH   2   3
ENDBRANCH   1   2
BRANCH   1  61
ATOM     61  C   UNL A   1      34.303  30.882  27.275  1.00  0.00     0.188 C 
BRANCH  61  62
ATOM     62  O   UNL A   1      33.019  30.491  27.729  1.00  0.00    -0.376 OA
BRANCH  62  63
ATOM     63  C   UNL A   1      32.070  29.986  26.782  1.00  0.00     0.202 C 
BRANCH  63  64
ATOM     64  C   UNL A   1      32.452  29.709  25.314  1.00  0.00     0.261 C 
BRANCH  64  65
ATOM     65  O   UNL A   1      31.299  29.708  24.463  1.00  0.00    -0.463 OA
BRANCH  65  66
ATOM     66  C   UNL A   1      31.465  29.223  23.206  1.00  0.00     0.310 C 
ATOM     67  O   UNL A   1      32.559  28.967  22.707  1.00  0.00    -0.252 OA
BRANCH  66  68
ATOM     68  C   UNL A   1      30.118  28.821  22.605  1.00  0.00     0.115 C 
ATOM     69  C   UNL A   1      29.653  30.048  21.799  1.00  0.00     0.043 C 
ATOM     70  C   UNL A   1      29.137  28.264  23.650  1.00  0.00     0.097 C 
ATOM     71  C   UNL A   1      28.184  30.174  21.594  1.00  0.00    -0.030 C 
ATOM     72  C   UNL A   1      27.638  28.578  23.434  1.00  0.00     0.041 C 
ATOM     73  C   UNL A   1      27.287  29.522  22.334  1.00  0.00    -0.030 C 
BRANCH  70  74
ATOM     74  C   UNL A   1      29.285  26.742  23.875  1.00  0.00     0.227 C 
ATOM     75  O   UNL A   1      28.289  26.018  23.876  1.00  0.00    -0.275 OA
ATOM     76  N   UNL A   1      30.579  26.204  23.935  1.00  0.00    -0.331 N 
ATOM     77  C   UNL A   1      30.800  24.992  23.152  1.00  0.00     0.181 C 
ATOM     78  C   UNL A   1      31.250  26.163  25.229  1.00  0.00     0.181 C 
ATOM     79  C   UNL A   1      32.285  24.565  23.091  1.00  0.00     0.284 C 
ATOM     80  C   UNL A   1      32.717  25.699  25.191  1.00  0.00     0.284 C 
ATOM     81  N   UNL A   1      33.005  24.526  24.366  1.00  0.00    -0.328 N 
ATOM     82  H   UNL A   1      33.988  24.610  24.109  1.00  0.00     0.348 HD
BRANCH  81  83
ATOM     83  C   UNL A   1      33.110  23.236  25.052  1.00  0.00     0.299 C 
BRANCH  83  84
ATOM     84  C   UNL A   1      34.477  22.601  25.156  1.00  0.00     0.010 A 
ATOM     85  C   UNL A   1      35.637  23.394  25.284  1.00  0.00     0.013 A 
ATOM     86  C   UNL A   1      34.617  21.205  25.135  1.00  0.00     0.060 A 
ATOM     87  C   UNL A   1      36.917  22.828  25.248  1.00  0.00     0.051 A 
ATOM     88  C   UNL A   1      35.890  20.672  25.098  1.00  0.00     0.166 A 
ATOM     89  C   UNL A   1      37.010  21.462  25.126  1.00  0.00     0.165 A 
ATOM     90  O   UNL A   1      36.193  19.352  24.985  1.00  0.00    -0.454 OA
ATOM     91  O   UNL A   1      38.158  20.742  25.016  1.00  0.00    -0.454 OA
ATOM     92  C   UNL A   1      37.625  19.414  24.826  1.00  0.00     0.468 C 
ENDBRANCH  83  84
ENDBRANCH  81  83
ENDBRANCH  70  74
ENDBRANCH  66  68
ENDBRANCH  65  66
ENDBRANCH  64  65
ENDBRANCH  63  64
ENDBRANCH  62  63
ENDBRANCH  61  62
ENDBRANCH   1  61
TORSDOF 23
ENDMDL
