MODEL 1
REMARK VINA RESULT:      -9.5      0.000      0.000
REMARK SMILES Cc1onc(-c2ccccc2Cl)c1C(=O)N1CCCC[C@@H]1C(=O)OCCOCCOCCOCCOC(=O)c1ccc(-c2c3nc(c(-c4ccccc4)c4ccc([nH]4)c(-c4ccccc4)c4nc(c(-c5ccccc5)c5ccc2[nH]5)C=C4)C=C3)cc1
REMARK SMILES IDX 29 1 28 2 27 3 26 4 25 5 24 6 22 7 23 8 21 9 16 10 17 11
REMARK SMILES IDX 18 12 20 13 19 14 14 15 15 16 13 17 1 18 2 19 3 20 4 21 5 22
REMARK SMILES IDX 6 23 7 24 11 25 8 26 10 27 12 28 9 29 30 30 31 31 32 32
REMARK SMILES IDX 33 33 34 34 35 35 36 36 37 37 38 38 39 39 40 40 86 41 41 42
REMARK SMILES IDX 85 43 42 44 43 45 44 46 79 47 45 48 84 49 78 50 80 51 46 52
REMARK SMILES IDX 83 53 77 54 76 55 47 57 69 58 54 59 68 60 55 61 58 62 67 63
REMARK SMILES IDX 81 64 56 65 57 66 66 68 82 69 59 70 48 71 49 72 53 73 50 74
REMARK SMILES IDX 52 75 51 76 70 77 71 78 75 79 72 80 74 81 73 82 60 83 61 84
REMARK SMILES IDX 65 85 62 86 64 87 63 88
REMARK H PARENT 80 56 58 67
REMARK Flexibility Score: inf
ROOT
ATOM      1  C   UNL A   1      39.176  21.801  26.490  1.00  0.00     0.188 C 
ENDROOT
BRANCH   1   2
ATOM      2  C   UNL A   1      38.121  22.680  25.799  1.00  0.00     0.188 C 
BRANCH   2   3
ATOM      3  O   UNL A   1      37.422  22.019  24.768  1.00  0.00    -0.376 OA
BRANCH   3   4
ATOM      4  C   UNL A   1      36.112  22.376  24.394  1.00  0.00     0.202 C 
BRANCH   4   5
ATOM      5  C   UNL A   1      34.901  21.430  24.471  1.00  0.00     0.261 C 
BRANCH   5   6
ATOM      6  O   UNL A   1      33.774  21.733  25.299  1.00  0.00    -0.462 OA
BRANCH   6   7
ATOM      7  C   UNL A   1      32.575  21.617  24.699  1.00  0.00     0.328 C 
ATOM      8  O   UNL A   1      32.357  20.810  23.803  1.00  0.00    -0.250 OA
BRANCH   7   9
ATOM      9  C   UNL A   1      31.518  22.619  25.182  1.00  0.00     0.195 C 
ATOM     10  N   UNL A   1      31.630  24.012  24.679  1.00  0.00    -0.325 N 
ATOM     11  C   UNL A   1      30.482  24.866  24.967  1.00  0.00     0.121 C 
ATOM     12  C   UNL A   1      30.055  24.823  26.435  1.00  0.00     0.022 C 
ATOM     13  C   UNL A   1      31.173  22.599  26.679  1.00  0.00     0.037 C 
ATOM     14  C   UNL A   1      29.879  23.387  26.914  1.00  0.00     0.005 C 
BRANCH  10  15
ATOM     15  C   UNL A   1      32.866  24.639  24.508  1.00  0.00     0.260 C 
ATOM     16  O   UNL A   1      33.671  24.745  25.429  1.00  0.00    -0.269 OA
BRANCH  15  17
ATOM     17  C   UNL A   1      33.099  25.291  23.228  1.00  0.00     0.110 A 
ATOM     18  C   UNL A   1      33.395  23.312  21.464  1.00  0.00     0.092 C 
ATOM     19  C   UNL A   1      33.295  24.694  21.989  1.00  0.00     0.147 A 
ATOM     20  O   UNL A   1      33.481  25.656  21.051  1.00  0.00    -0.360 OA
ATOM     21  N   UNL A   1      33.324  26.894  21.618  1.00  0.00    -0.079 NA
ATOM     22  C   UNL A   1      33.039  26.686  22.914  1.00  0.00     0.128 A 
BRANCH  22  23
ATOM     23  C   UNL A   1      32.629  27.823  23.731  1.00  0.00     0.023 A 
ATOM     24  C   UNL A   1      33.554  28.265  24.696  1.00  0.00     0.012 A 
ATOM     25  C   UNL A   1      31.388  28.467  23.651  1.00  0.00     0.050 A 
ATOM     26  C   UNL A   1      33.249  29.317  25.559  1.00  0.00     0.001 A 
ATOM     27  C   UNL A   1      31.077  29.509  24.535  1.00  0.00     0.021 A 
ATOM     28  Cl  UNL A   1      30.171  28.048  22.510  1.00  0.00    -0.084 Cl
ATOM     29  C   UNL A   1      32.006  29.934  25.484  1.00  0.00     0.002 A 
ENDBRANCH  22  23
ENDBRANCH  15  17
ENDBRANCH  10  15
ENDBRANCH   7   9
ENDBRANCH   6   7
ENDBRANCH   5   6
ENDBRANCH   4   5
ENDBRANCH   3   4
ENDBRANCH   2   3
ENDBRANCH   1   2
BRANCH   1  30
ATOM     30  O   UNL A   1      40.078  21.076  25.667  1.00  0.00    -0.377 OA
BRANCH  30  31
ATOM     31  C   UNL A   1      40.498  19.761  26.034  1.00  0.00     0.188 C 
BRANCH  31  32
ATOM     32  C   UNL A   1      41.993  19.403  26.202  1.00  0.00     0.188 C 
BRANCH  32  33
ATOM     33  O   UNL A   1      42.871  20.114  25.350  1.00  0.00    -0.376 OA
BRANCH  33  34
ATOM     34  C   UNL A   1      43.320  21.392  25.761  1.00  0.00     0.202 C 
BRANCH  34  35
ATOM     35  C   UNL A   1      44.796  21.740  25.519  1.00  0.00     0.261 C 
BRANCH  35  36
ATOM     36  O   UNL A   1      45.280  22.944  26.136  1.00  0.00    -0.460 OA
BRANCH  36  37
ATOM     37  C   UNL A   1      44.705  24.110  25.784  1.00  0.00     0.338 C 
ATOM     38  O   UNL A   1      44.326  24.443  24.669  1.00  0.00    -0.246 OA
BRANCH  37  39
ATOM     39  C   UNL A   1      44.418  24.867  27.016  1.00  0.00     0.060 A 
ATOM     40  C   UNL A   1      43.566  24.310  27.980  1.00  0.00     0.016 A 
ATOM     41  C   UNL A   1      44.975  26.133  27.206  1.00  0.00     0.016 A 
ATOM     42  C   UNL A   1      43.215  25.045  29.109  1.00  0.00     0.010 A 
ATOM     43  C   UNL A   1      44.602  26.881  28.324  1.00  0.00     0.010 A 
ATOM     44  C   UNL A   1      43.681  26.358  29.249  1.00  0.00    -0.014 A 
BRANCH  44  45
ATOM     45  C   UNL A   1      42.992  27.268  30.194  1.00  0.00     0.031 A 
ATOM     46  C   UNL A   1      43.631  27.494  31.538  1.00  0.00     0.074 A 
ATOM     47  C   UNL A   1      41.858  27.908  29.863  1.00  0.00     0.049 A 
ATOM     48  N   UNL A   1      43.211  28.207  32.551  1.00  0.00    -0.248 NA
ATOM     49  C   UNL A   1      44.920  26.820  31.770  1.00  0.00     0.031 C 
ATOM     50  C   UNL A   1      41.180  27.824  28.572  1.00  0.00     0.029 A 
ATOM     51  N   UNL A   1      41.079  28.761  30.603  1.00  0.00    -0.354 N 
ATOM     52  C   UNL A   1      44.175  28.056  33.540  1.00  0.00     0.074 A 
ATOM     53  C   UNL A   1      45.184  27.159  33.022  1.00  0.00     0.031 C 
ATOM     54  C   UNL A   1      40.076  28.592  28.613  1.00  0.00     0.029 A 
ATOM     55  C   UNL A   1      39.954  29.188  29.943  1.00  0.00     0.049 A 
ATOM     56  H   UNL A   1      41.305  29.040  31.521  1.00  0.00     0.167 HD
ATOM     57  C   UNL A   1      44.222  28.617  34.771  1.00  0.00     0.031 A 
ATOM     58  C   UNL A   1      38.934  29.954  30.375  1.00  0.00     0.031 A 
ATOM     59  C   UNL A   1      43.210  29.494  35.292  1.00  0.00     0.049 A 
ATOM     60  C   UNL A   1      38.961  30.494  31.783  1.00  0.00     0.074 A 
ATOM     61  C   UNL A   1      43.162  30.117  36.526  1.00  0.00     0.029 A 
ATOM     62  N   UNL A   1      42.062  29.864  34.609  1.00  0.00    -0.354 N 
ATOM     63  N   UNL A   1      39.881  30.355  32.707  1.00  0.00    -0.248 NA
ATOM     64  C   UNL A   1      37.810  31.309  32.200  1.00  0.00     0.031 C 
ATOM     65  C   UNL A   1      41.952  30.814  36.614  1.00  0.00     0.029 A 
ATOM     66  C   UNL A   1      41.285  30.687  35.405  1.00  0.00     0.049 A 
ATOM     67  H   UNL A   1      41.834  29.584  33.693  1.00  0.00     0.167 HD
ATOM     68  C   UNL A   1      39.440  31.095  33.799  1.00  0.00     0.074 A 
ATOM     69  C   UNL A   1      38.176  31.689  33.417  1.00  0.00     0.031 C 
ATOM     70  C   UNL A   1      40.031  31.274  35.007  1.00  0.00     0.031 A 
BRANCH  57  71
ATOM     71  C   UNL A   1      45.386  28.252  35.652  1.00  0.00    -0.014 A 
ATOM     72  C   UNL A   1      45.287  27.240  36.620  1.00  0.00     0.009 A 
ATOM     73  C   UNL A   1      46.607  28.928  35.500  1.00  0.00     0.009 A 
ATOM     74  C   UNL A   1      46.374  26.940  37.444  1.00  0.00     0.001 A 
ATOM     75  C   UNL A   1      47.702  28.602  36.302  1.00  0.00     0.001 A 
ATOM     76  C   UNL A   1      47.582  27.617  37.279  1.00  0.00     0.000 A 
ENDBRANCH  57  71
BRANCH  58  77
ATOM     77  C   UNL A   1      37.786  30.248  29.476  1.00  0.00    -0.014 A 
ATOM     78  C   UNL A   1      37.721  31.455  28.763  1.00  0.00     0.009 A 
ATOM     79  C   UNL A   1      36.731  29.330  29.346  1.00  0.00     0.009 A 
ATOM     80  C   UNL A   1      36.613  31.749  27.964  1.00  0.00     0.001 A 
ATOM     81  C   UNL A   1      35.641  29.611  28.522  1.00  0.00     0.001 A 
ATOM     82  C   UNL A   1      35.577  30.825  27.840  1.00  0.00     0.000 A 
ENDBRANCH  58  77
BRANCH  70  83
ATOM     83  C   UNL A   1      39.349  32.194  35.983  1.00  0.00    -0.014 A 
ATOM     84  C   UNL A   1      38.436  31.717  36.937  1.00  0.00     0.009 A 
ATOM     85  C   UNL A   1      39.664  33.564  35.972  1.00  0.00     0.009 A 
ATOM     86  C   UNL A   1      37.823  32.598  37.829  1.00  0.00     0.001 A 
ATOM     87  C   UNL A   1      39.077  34.436  36.889  1.00  0.00     0.001 A 
ATOM     88  C   UNL A   1      38.148  33.955  37.808  1.00  0.00     0.000 A 
ENDBRANCH  70  83
ENDBRANCH  44  45
ENDBRANCH  37  39
ENDBRANCH  36  37
ENDBRANCH  35  36
ENDBRANCH  34  35
ENDBRANCH  33  34
ENDBRANCH  32  33
ENDBRANCH  31  32
ENDBRANCH  30  31
ENDBRANCH   1  30
TORSDOF 23
ENDMDL
MODEL 2
REMARK VINA RESULT:      -9.2      6.094      9.640
REMARK SMILES Cc1onc(-c2ccccc2Cl)c1C(=O)N1CCCC[C@@H]1C(=O)OCCOCCOCCOCCOC(=O)c1ccc(-c2c3nc(c(-c4ccccc4)c4ccc([nH]4)c(-c4ccccc4)c4nc(c(-c5ccccc5)c5ccc2[nH]5)C=C4)C=C3)cc1
REMARK SMILES IDX 29 1 28 2 27 3 26 4 25 5 24 6 22 7 23 8 21 9 16 10 17 11
REMARK SMILES IDX 18 12 20 13 19 14 14 15 15 16 13 17 1 18 2 19 3 20 4 21 5 22
REMARK SMILES IDX 6 23 7 24 11 25 8 26 10 27 12 28 9 29 30 30 31 31 32 32
REMARK SMILES IDX 33 33 34 34 35 35 36 36 37 37 38 38 39 39 40 40 86 41 41 42
REMARK SMILES IDX 85 43 42 44 43 45 44 46 79 47 45 48 84 49 78 50 80 51 46 52
REMARK SMILES IDX 83 53 77 54 76 55 47 57 69 58 54 59 68 60 55 61 58 62 67 63
REMARK SMILES IDX 81 64 56 65 57 66 66 68 82 69 59 70 48 71 49 72 53 73 50 74
REMARK SMILES IDX 52 75 51 76 70 77 71 78 75 79 72 80 74 81 73 82 60 83 61 84
REMARK SMILES IDX 65 85 62 86 64 87 63 88
REMARK H PARENT 80 56 58 67
REMARK Flexibility Score: inf
ROOT
ATOM      1  C   UNL A   1      39.216  21.749  26.141  1.00  0.00     0.188 C 
ENDROOT
BRANCH   1   2
ATOM      2  C   UNL A   1      37.911  22.322  25.566  1.00  0.00     0.188 C 
BRANCH   2   3
ATOM      3  O   UNL A   1      36.820  21.430  25.641  1.00  0.00    -0.376 OA
BRANCH   3   4
ATOM      4  C   UNL A   1      35.510  21.860  25.926  1.00  0.00     0.202 C 
BRANCH   4   5
ATOM      5  C   UNL A   1      34.267  20.954  25.861  1.00  0.00     0.261 C 
BRANCH   5   6
ATOM      6  O   UNL A   1      32.972  21.447  26.216  1.00  0.00    -0.462 OA
BRANCH   6   7
ATOM      7  C   UNL A   1      32.161  21.723  25.178  1.00  0.00     0.328 C 
ATOM      8  O   UNL A   1      32.260  21.165  24.091  1.00  0.00    -0.250 OA
BRANCH   7   9
ATOM      9  C   UNL A   1      31.139  22.837  25.443  1.00  0.00     0.195 C 
ATOM     10  N   UNL A   1      31.420  24.166  24.843  1.00  0.00    -0.325 N 
ATOM     11  C   UNL A   1      30.318  25.120  24.917  1.00  0.00     0.121 C 
ATOM     12  C   UNL A   1      29.722  25.243  26.320  1.00  0.00     0.022 C 
ATOM     13  C   UNL A   1      30.623  22.979  26.883  1.00  0.00     0.037 C 
ATOM     14  C   UNL A   1      29.377  23.873  26.892  1.00  0.00     0.005 C 
BRANCH  10  15
ATOM     15  C   UNL A   1      32.713  24.687  24.773  1.00  0.00     0.260 C 
ATOM     16  O   UNL A   1      33.460  24.699  25.748  1.00  0.00    -0.269 OA
BRANCH  15  17
ATOM     17  C   UNL A   1      33.088  25.347  23.532  1.00  0.00     0.110 A 
ATOM     18  C   UNL A   1      33.289  23.398  21.721  1.00  0.00     0.092 C 
ATOM     19  C   UNL A   1      33.297  24.768  22.287  1.00  0.00     0.147 A 
ATOM     20  O   UNL A   1      33.636  25.732  21.394  1.00  0.00    -0.360 OA
ATOM     21  N   UNL A   1      33.570  26.963  21.993  1.00  0.00    -0.079 NA
ATOM     22  C   UNL A   1      33.187  26.749  23.263  1.00  0.00     0.128 A 
BRANCH  22  23
ATOM     23  C   UNL A   1      32.846  27.899  24.093  1.00  0.00     0.023 A 
ATOM     24  C   UNL A   1      33.803  28.286  25.050  1.00  0.00     0.012 A 
ATOM     25  C   UNL A   1      31.638  28.605  24.034  1.00  0.00     0.050 A 
ATOM     26  C   UNL A   1      33.563  29.344  25.924  1.00  0.00     0.001 A 
ATOM     27  C   UNL A   1      31.391  29.654  24.929  1.00  0.00     0.021 A 
ATOM     28  Cl  UNL A   1      30.388  28.257  22.905  1.00  0.00    -0.084 Cl
ATOM     29  C   UNL A   1      32.352  30.024  25.869  1.00  0.00     0.002 A 
ENDBRANCH  22  23
ENDBRANCH  15  17
ENDBRANCH  10  15
ENDBRANCH   7   9
ENDBRANCH   6   7
ENDBRANCH   5   6
ENDBRANCH   4   5
ENDBRANCH   3   4
ENDBRANCH   2   3
ENDBRANCH   1   2
BRANCH   1  30
ATOM     30  O   UNL A   1      39.765  20.597  25.519  1.00  0.00    -0.377 OA
BRANCH  30  31
ATOM     31  C   UNL A   1      40.544  19.666  26.273  1.00  0.00     0.188 C 
BRANCH  31  32
ATOM     32  C   UNL A   1      42.089  19.679  26.233  1.00  0.00     0.188 C 
BRANCH  32  33
ATOM     33  O   UNL A   1      42.651  20.653  25.374  1.00  0.00    -0.376 OA
BRANCH  33  34
ATOM     34  C   UNL A   1      43.249  21.798  25.953  1.00  0.00     0.202 C 
BRANCH  34  35
ATOM     35  C   UNL A   1      42.874  22.141  27.402  1.00  0.00     0.261 C 
BRANCH  35  36
ATOM     36  O   UNL A   1      43.061  23.508  27.805  1.00  0.00    -0.460 OA
BRANCH  36  37
ATOM     37  C   UNL A   1      44.089  23.788  28.629  1.00  0.00     0.338 C 
ATOM     38  O   UNL A   1      44.643  23.026  29.411  1.00  0.00    -0.246 OA
BRANCH  37  39
ATOM     39  C   UNL A   1      44.583  25.137  28.299  1.00  0.00     0.060 A 
ATOM     40  C   UNL A   1      44.695  25.515  26.954  1.00  0.00     0.016 A 
ATOM     41  C   UNL A   1      44.953  26.017  29.317  1.00  0.00     0.016 A 
ATOM     42  C   UNL A   1      45.240  26.752  26.620  1.00  0.00     0.010 A 
ATOM     43  C   UNL A   1      45.525  27.245  28.983  1.00  0.00     0.010 A 
ATOM     44  C   UNL A   1      45.717  27.592  27.634  1.00  0.00    -0.014 A 
BRANCH  44  45
ATOM     45  C   UNL A   1      46.658  28.681  27.282  1.00  0.00     0.031 A 
ATOM     46  C   UNL A   1      46.108  30.079  27.195  1.00  0.00     0.074 A 
ATOM     47  C   UNL A   1      47.966  28.451  27.083  1.00  0.00     0.049 A 
ATOM     48  N   UNL A   1      46.710  31.193  26.868  1.00  0.00    -0.248 NA
ATOM     49  C   UNL A   1      44.679  30.240  27.520  1.00  0.00     0.031 C 
ATOM     50  C   UNL A   1      48.630  27.156  27.204  1.00  0.00     0.029 A 
ATOM     51  N   UNL A   1      48.971  29.318  26.735  1.00  0.00    -0.354 N 
ATOM     52  C   UNL A   1      45.733  32.180  26.936  1.00  0.00     0.074 A 
ATOM     53  C   UNL A   1      44.494  31.532  27.301  1.00  0.00     0.031 C 
ATOM     54  C   UNL A   1      49.937  27.312  26.925  1.00  0.00     0.029 A 
ATOM     55  C   UNL A   1      50.190  28.709  26.572  1.00  0.00     0.049 A 
ATOM     56  H   UNL A   1      48.831  30.286  26.614  1.00  0.00     0.167 HD
ATOM     57  C   UNL A   1      45.856  33.510  26.718  1.00  0.00     0.031 A 
ATOM     58  C   UNL A   1      51.366  29.220  26.162  1.00  0.00     0.031 A 
ATOM     59  C   UNL A   1      47.085  34.151  26.337  1.00  0.00     0.049 A 
ATOM     60  C   UNL A   1      51.459  30.689  25.835  1.00  0.00     0.074 A 
ATOM     61  C   UNL A   1      47.318  35.492  26.094  1.00  0.00     0.029 A 
ATOM     62  N   UNL A   1      48.287  33.490  26.136  1.00  0.00    -0.354 N 
ATOM     63  N   UNL A   1      50.535  31.616  25.912  1.00  0.00    -0.248 NA
ATOM     64  C   UNL A   1      52.766  31.182  25.375  1.00  0.00     0.031 C 
ATOM     65  C   UNL A   1      48.647  35.634  25.682  1.00  0.00     0.029 A 
ATOM     66  C   UNL A   1      49.261  34.392  25.746  1.00  0.00     0.049 A 
ATOM     67  H   UNL A   1      48.427  32.522  26.254  1.00  0.00     0.167 HD
ATOM     68  C   UNL A   1      51.157  32.806  25.550  1.00  0.00     0.074 A 
ATOM     69  C   UNL A   1      52.539  32.484  25.264  1.00  0.00     0.031 C 
ATOM     70  C   UNL A   1      50.633  34.055  25.469  1.00  0.00     0.031 A 
BRANCH  57  71
ATOM     71  C   UNL A   1      44.612  34.347  26.840  1.00  0.00    -0.014 A 
ATOM     72  C   UNL A   1      44.255  34.964  28.050  1.00  0.00     0.009 A 
ATOM     73  C   UNL A   1      43.788  34.529  25.718  1.00  0.00     0.009 A 
ATOM     74  C   UNL A   1      43.081  35.712  28.144  1.00  0.00     0.001 A 
ATOM     75  C   UNL A   1      42.632  35.306  25.805  1.00  0.00     0.001 A 
ATOM     76  C   UNL A   1      42.274  35.888  27.020  1.00  0.00     0.000 A 
ENDBRANCH  57  71
BRANCH  58  77
ATOM     77  C   UNL A   1      52.555  28.337  26.017  1.00  0.00    -0.014 A 
ATOM     78  C   UNL A   1      53.451  28.157  27.082  1.00  0.00     0.009 A 
ATOM     79  C   UNL A   1      52.816  27.690  24.798  1.00  0.00     0.009 A 
ATOM     80  C   UNL A   1      54.595  27.371  26.922  1.00  0.00     0.001 A 
ATOM     81  C   UNL A   1      53.943  26.880  24.650  1.00  0.00     0.001 A 
ATOM     82  C   UNL A   1      54.838  26.730  25.708  1.00  0.00     0.000 A 
ENDBRANCH  58  77
BRANCH  70  83
ATOM     83  C   UNL A   1      51.571  35.178  25.112  1.00  0.00    -0.014 A 
ATOM     84  C   UNL A   1      52.041  36.084  26.075  1.00  0.00     0.009 A 
ATOM     85  C   UNL A   1      52.026  35.299  23.788  1.00  0.00     0.009 A 
ATOM     86  C   UNL A   1      52.912  37.113  25.711  1.00  0.00     0.001 A 
ATOM     87  C   UNL A   1      52.924  36.306  23.435  1.00  0.00     0.001 A 
ATOM     88  C   UNL A   1      53.357  37.219  24.393  1.00  0.00     0.000 A 
ENDBRANCH  70  83
ENDBRANCH  44  45
ENDBRANCH  37  39
ENDBRANCH  36  37
ENDBRANCH  35  36
ENDBRANCH  34  35
ENDBRANCH  33  34
ENDBRANCH  32  33
ENDBRANCH  31  32
ENDBRANCH  30  31
ENDBRANCH   1  30
TORSDOF 23
ENDMDL
MODEL 3
REMARK VINA RESULT:      -9.1      3.639      8.649
REMARK SMILES Cc1onc(-c2ccccc2Cl)c1C(=O)N1CCCC[C@@H]1C(=O)OCCOCCOCCOCCOC(=O)c1ccc(-c2c3nc(c(-c4ccccc4)c4ccc([nH]4)c(-c4ccccc4)c4nc(c(-c5ccccc5)c5ccc2[nH]5)C=C4)C=C3)cc1
REMARK SMILES IDX 29 1 28 2 27 3 26 4 25 5 24 6 22 7 23 8 21 9 16 10 17 11
REMARK SMILES IDX 18 12 20 13 19 14 14 15 15 16 13 17 1 18 2 19 3 20 4 21 5 22
REMARK SMILES IDX 6 23 7 24 11 25 8 26 10 27 12 28 9 29 30 30 31 31 32 32
REMARK SMILES IDX 33 33 34 34 35 35 36 36 37 37 38 38 39 39 40 40 86 41 41 42
REMARK SMILES IDX 85 43 42 44 43 45 44 46 79 47 45 48 84 49 78 50 80 51 46 52
REMARK SMILES IDX 83 53 77 54 76 55 47 57 69 58 54 59 68 60 55 61 58 62 67 63
REMARK SMILES IDX 81 64 56 65 57 66 66 68 82 69 59 70 48 71 49 72 53 73 50 74
REMARK SMILES IDX 52 75 51 76 70 77 71 78 75 79 72 80 74 81 73 82 60 83 61 84
REMARK SMILES IDX 65 85 62 86 64 87 63 88
REMARK H PARENT 80 56 58 67
REMARK Flexibility Score: inf
ROOT
ATOM      1  C   UNL A   1      29.993  29.524  23.310  1.00  0.00     0.188 C 
ENDROOT
BRANCH   1   2
ATOM      2  C   UNL A   1      29.406  28.117  23.113  1.00  0.00     0.188 C 
BRANCH   2   3
ATOM      3  O   UNL A   1      29.525  27.291  24.249  1.00  0.00    -0.376 OA
BRANCH   3   4
ATOM      4  C   UNL A   1      29.790  25.911  24.155  1.00  0.00     0.202 C 
BRANCH   4   5
ATOM      5  C   UNL A   1      30.326  25.051  25.314  1.00  0.00     0.261 C 
BRANCH   5   6
ATOM      6  O   UNL A   1      30.708  23.687  25.110  1.00  0.00    -0.462 OA
BRANCH   6   7
ATOM      7  C   UNL A   1      31.331  23.106  26.151  1.00  0.00     0.328 C 
ATOM      8  O   UNL A   1      31.339  23.593  27.276  1.00  0.00    -0.250 OA
BRANCH   7   9
ATOM      9  C   UNL A   1      32.085  21.814  25.807  1.00  0.00     0.195 C 
ATOM     10  N   UNL A   1      33.533  21.771  26.133  1.00  0.00    -0.325 N 
ATOM     11  C   UNL A   1      34.153  20.455  26.012  1.00  0.00     0.121 C 
ATOM     12  C   UNL A   1      33.849  19.768  24.680  1.00  0.00     0.022 C 
ATOM     13  C   UNL A   1      31.811  21.197  24.427  1.00  0.00     0.037 C 
ATOM     14  C   UNL A   1      32.351  19.762  24.395  1.00  0.00     0.005 C 
BRANCH  10  15
ATOM     15  C   UNL A   1      34.360  22.884  25.975  1.00  0.00     0.260 C 
ATOM     16  O   UNL A   1      34.514  23.709  26.871  1.00  0.00    -0.269 OA
BRANCH  15  17
ATOM     17  C   UNL A   1      34.919  23.102  24.649  1.00  0.00     0.110 A 
ATOM     18  C   UNL A   1      33.263  24.817  23.451  1.00  0.00     0.092 C 
ATOM     19  C   UNL A   1      34.435  23.929  23.644  1.00  0.00     0.147 A 
ATOM     20  O   UNL A   1      35.246  23.843  22.560  1.00  0.00    -0.360 OA
ATOM     21  N   UNL A   1      36.320  23.042  22.848  1.00  0.00    -0.079 NA
ATOM     22  C   UNL A   1      36.164  22.636  24.119  1.00  0.00     0.128 A 
BRANCH  22  23
ATOM     23  C   UNL A   1      37.260  21.922  24.765  1.00  0.00     0.023 A 
ATOM     24  C   UNL A   1      37.365  20.547  24.478  1.00  0.00     0.012 A 
ATOM     25  C   UNL A   1      38.171  22.487  25.664  1.00  0.00     0.050 A 
ATOM     26  C   UNL A   1      38.349  19.759  25.073  1.00  0.00     0.001 A 
ATOM     27  C   UNL A   1      39.144  21.687  26.278  1.00  0.00     0.021 A 
ATOM     28  Cl  UNL A   1      38.174  24.153  26.093  1.00  0.00    -0.084 Cl
ATOM     29  C   UNL A   1      39.235  20.328  25.981  1.00  0.00     0.002 A 
ENDBRANCH  22  23
ENDBRANCH  15  17
ENDBRANCH  10  15
ENDBRANCH   7   9
ENDBRANCH   6   7
ENDBRANCH   5   6
ENDBRANCH   4   5
ENDBRANCH   3   4
ENDBRANCH   2   3
ENDBRANCH   1   2
BRANCH   1  30
ATOM     30  O   UNL A   1      31.147  29.654  24.128  1.00  0.00    -0.377 OA
BRANCH  30  31
ATOM     31  C   UNL A   1      32.348  28.950  23.805  1.00  0.00     0.188 C 
BRANCH  31  32
ATOM     32  C   UNL A   1      33.321  28.460  24.902  1.00  0.00     0.188 C 
BRANCH  32  33
ATOM     33  O   UNL A   1      33.208  29.137  26.139  1.00  0.00    -0.376 OA
BRANCH  33  34
ATOM     34  C   UNL A   1      34.231  30.043  26.508  1.00  0.00     0.202 C 
BRANCH  34  35
ATOM     35  C   UNL A   1      34.695  30.036  27.972  1.00  0.00     0.261 C 
BRANCH  35  36
ATOM     36  O   UNL A   1      34.672  31.300  28.657  1.00  0.00    -0.460 OA
BRANCH  36  37
ATOM     37  C   UNL A   1      35.405  31.422  29.780  1.00  0.00     0.338 C 
ATOM     38  O   UNL A   1      35.081  31.978  30.822  1.00  0.00    -0.246 OA
BRANCH  37  39
ATOM     39  C   UNL A   1      36.616  30.595  29.627  1.00  0.00     0.060 A 
ATOM     40  C   UNL A   1      36.920  29.637  30.604  1.00  0.00     0.016 A 
ATOM     41  C   UNL A   1      37.458  30.782  28.530  1.00  0.00     0.016 A 
ATOM     42  C   UNL A   1      38.102  28.906  30.522  1.00  0.00     0.010 A 
ATOM     43  C   UNL A   1      38.657  30.070  28.461  1.00  0.00     0.010 A 
ATOM     44  C   UNL A   1      39.004  29.170  29.484  1.00  0.00    -0.014 A 
BRANCH  44  45
ATOM     45  C   UNL A   1      40.410  28.722  29.623  1.00  0.00     0.031 A 
ATOM     46  C   UNL A   1      41.355  29.611  30.384  1.00  0.00     0.074 A 
ATOM     47  C   UNL A   1      40.831  27.548  29.126  1.00  0.00     0.049 A 
ATOM     48  N   UNL A   1      42.635  29.467  30.611  1.00  0.00    -0.248 NA
ATOM     49  C   UNL A   1      40.775  30.833  30.969  1.00  0.00     0.031 C 
ATOM     50  C   UNL A   1      39.999  26.571  28.429  1.00  0.00     0.029 A 
ATOM     51  N   UNL A   1      42.081  26.983  29.139  1.00  0.00    -0.354 N 
ATOM     52  C   UNL A   1      43.013  30.582  31.350  1.00  0.00     0.074 A 
ATOM     53  C   UNL A   1      41.838  31.410  31.506  1.00  0.00     0.031 C 
ATOM     54  C   UNL A   1      40.766  25.525  28.072  1.00  0.00     0.029 A 
ATOM     55  C   UNL A   1      42.146  25.778  28.483  1.00  0.00     0.049 A 
ATOM     56  H   UNL A   1      42.859  27.401  29.577  1.00  0.00     0.167 HD
ATOM     57  C   UNL A   1      44.229  30.890  31.859  1.00  0.00     0.031 A 
ATOM     58  C   UNL A   1      43.205  24.987  28.228  1.00  0.00     0.031 A 
ATOM     59  C   UNL A   1      45.400  30.075  31.688  1.00  0.00     0.049 A 
ATOM     60  C   UNL A   1      44.569  25.394  28.725  1.00  0.00     0.074 A 
ATOM     61  C   UNL A   1      46.679  30.294  32.164  1.00  0.00     0.029 A 
ATOM     62  N   UNL A   1      45.433  28.886  30.976  1.00  0.00    -0.354 N 
ATOM     63  N   UNL A   1      44.915  26.444  29.432  1.00  0.00    -0.248 NA
ATOM     64  C   UNL A   1      45.687  24.497  28.398  1.00  0.00     0.031 C 
ATOM     65  C   UNL A   1      47.502  29.270  31.685  1.00  0.00     0.029 A 
ATOM     66  C   UNL A   1      46.718  28.372  30.978  1.00  0.00     0.049 A 
ATOM     67  H   UNL A   1      44.658  28.468  30.536  1.00  0.00     0.167 HD
ATOM     68  C   UNL A   1      46.279  26.314  29.666  1.00  0.00     0.074 A 
ATOM     69  C   UNL A   1      46.694  25.077  29.036  1.00  0.00     0.031 C 
ATOM     70  C   UNL A   1      47.113  27.138  30.349  1.00  0.00     0.031 A 
BRANCH  57  71
ATOM     71  C   UNL A   1      44.355  32.190  32.605  1.00  0.00    -0.014 A 
ATOM     72  C   UNL A   1      44.247  32.249  34.004  1.00  0.00     0.009 A 
ATOM     73  C   UNL A   1      44.597  33.376  31.894  1.00  0.00     0.009 A 
ATOM     74  C   UNL A   1      44.340  33.472  34.670  1.00  0.00     0.001 A 
ATOM     75  C   UNL A   1      44.724  34.592  32.565  1.00  0.00     0.001 A 
ATOM     76  C   UNL A   1      44.585  34.642  33.951  1.00  0.00     0.000 A 
ENDBRANCH  57  71
BRANCH  58  77
ATOM     77  C   UNL A   1      43.030  23.733  27.447  1.00  0.00    -0.014 A 
ATOM     78  C   UNL A   1      43.182  23.728  26.051  1.00  0.00     0.009 A 
ATOM     79  C   UNL A   1      42.680  22.536  28.093  1.00  0.00     0.009 A 
ATOM     80  C   UNL A   1      42.961  22.559  25.318  1.00  0.00     0.001 A 
ATOM     81  C   UNL A   1      42.490  21.362  27.362  1.00  0.00     0.001 A 
ATOM     82  C   UNL A   1      42.620  21.377  25.974  1.00  0.00     0.000 A 
ENDBRANCH  58  77
BRANCH  70  83
ATOM     83  C   UNL A   1      48.546  26.702  30.502  1.00  0.00    -0.014 A 
ATOM     84  C   UNL A   1      48.985  25.983  31.624  1.00  0.00     0.009 A 
ATOM     85  C   UNL A   1      49.463  26.983  29.475  1.00  0.00     0.009 A 
ATOM     86  C   UNL A   1      50.321  25.592  31.734  1.00  0.00     0.001 A 
ATOM     87  C   UNL A   1      50.789  26.560  29.570  1.00  0.00     0.001 A 
ATOM     88  C   UNL A   1      51.220  25.876  30.705  1.00  0.00     0.000 A 
ENDBRANCH  70  83
ENDBRANCH  44  45
ENDBRANCH  37  39
ENDBRANCH  36  37
ENDBRANCH  35  36
ENDBRANCH  34  35
ENDBRANCH  33  34
ENDBRANCH  32  33
ENDBRANCH  31  32
ENDBRANCH  30  31
ENDBRANCH   1  30
TORSDOF 23
ENDMDL
