MODEL 1
REMARK VINA RESULT:      -9.7      0.000      0.000
REMARK SMILES Cc1ccc2nc(CC3(CC(=O)OCCOCCOCCOCCOC(=O)c4ccc(-c5c6nc(c(-c7ccccc7)c7ccc([nH]7)c(-c7ccccc7)c7nc(c(-c8ccccc8)c8ccc5[nH]8)C=C7)C=C6)cc4)CCCCC3)sc2c1
REMARK SMILES IDX 18 1 17 2 16 3 15 4 14 5 13 6 11 7 12 8 10 9 9 10 76 11
REMARK SMILES IDX 80 12 77 13 79 14 78 15 8 16 7 17 1 18 2 19 3 20 83 21 4 22
REMARK SMILES IDX 82 23 5 24 81 25 6 26 19 27 20 28 21 29 22 30 23 31 24 32
REMARK SMILES IDX 25 33 26 34 27 35 28 36 29 37 75 38 30 39 74 40 31 41 32 42
REMARK SMILES IDX 33 43 68 44 34 45 73 46 67 47 69 48 35 49 72 50 66 51 65 52
REMARK SMILES IDX 36 54 58 55 43 56 57 57 44 58 47 59 56 60 70 61 45 62 46 63
REMARK SMILES IDX 55 65 71 66 48 67 37 68 38 69 42 70 39 71 41 72 40 73 59 74
REMARK SMILES IDX 60 75 64 76 61 77 63 78 62 79 49 80 50 81 54 82 51 83 53 84
REMARK SMILES IDX 52 85
REMARK H PARENT 69 53 47 64
REMARK Flexibility Score: inf
ROOT
ATOM      1  C   UNL A   1      35.357  29.533  26.963  1.00  0.00     0.188 C 
ENDROOT
BRANCH   1   2
ATOM      2  C   UNL A   1      34.034  28.829  27.253  1.00  0.00     0.188 C 
BRANCH   2   3
ATOM      3  O   UNL A   1      32.882  29.385  26.618  1.00  0.00    -0.376 OA
BRANCH   3   4
ATOM      4  C   UNL A   1      31.872  28.475  26.181  1.00  0.00     0.202 C 
BRANCH   4   5
ATOM      5  C   UNL A   1      31.380  27.434  27.201  1.00  0.00     0.261 C 
BRANCH   5   6
ATOM      6  O   UNL A   1      30.847  26.228  26.614  1.00  0.00    -0.463 OA
BRANCH   6   7
ATOM      7  C   UNL A   1      31.631  25.130  26.701  1.00  0.00     0.306 C 
ATOM      8  O   UNL A   1      31.318  24.105  27.302  1.00  0.00    -0.252 OA
BRANCH   7   9
ATOM      9  C   UNL A   1      32.913  25.176  25.880  1.00  0.00     0.130 C 
BRANCH   9  10
ATOM     10  C   UNL A   1      33.335  24.092  24.825  1.00  0.00    -0.013 C 
ATOM     11  C   UNL A   1      33.373  22.712  25.559  1.00  0.00     0.008 C 
ATOM     12  C   UNL A   1      34.739  24.342  24.226  1.00  0.00     0.008 C 
ATOM     13  C   UNL A   1      34.528  22.562  26.559  1.00  0.00     0.001 C 
ATOM     14  C   UNL A   1      35.853  24.287  25.266  1.00  0.00     0.001 C 
ATOM     15  C   UNL A   1      35.877  22.923  25.947  1.00  0.00     0.000 C 
BRANCH  10  16
ATOM     16  C   UNL A   1      32.212  24.023  23.734  1.00  0.00     0.075 C 
BRANCH  16  17
ATOM     17  C   UNL A   1      31.505  25.315  23.397  1.00  0.00     0.094 A 
ATOM     18  C   UNL A   1      29.175  30.909  22.076  1.00  0.00     0.044 C 
ATOM     19  C   UNL A   1      29.421  29.482  22.478  1.00  0.00    -0.050 A 
ATOM     20  C   UNL A   1      28.403  28.735  23.075  1.00  0.00     0.006 A 
ATOM     21  C   UNL A   1      30.685  28.901  22.261  1.00  0.00     0.024 A 
ATOM     22  C   UNL A   1      28.622  27.407  23.458  1.00  0.00     0.030 A 
ATOM     23  C   UNL A   1      30.900  27.574  22.680  1.00  0.00     0.055 A 
ATOM     24  C   UNL A   1      29.882  26.817  23.257  1.00  0.00     0.082 A 
ATOM     25  S   UNL A   1      32.335  26.614  22.626  1.00  0.00    -0.119 S 
ATOM     26  N   UNL A   1      30.223  25.521  23.589  1.00  0.00    -0.241 NA
ENDBRANCH  16  17
ENDBRANCH  10  16
ENDBRANCH   9  10
ENDBRANCH   7   9
ENDBRANCH   6   7
ENDBRANCH   5   6
ENDBRANCH   4   5
ENDBRANCH   3   4
ENDBRANCH   2   3
ENDBRANCH   1   2
BRANCH   1  27
ATOM     27  O   UNL A   1      35.615  30.520  27.949  1.00  0.00    -0.377 OA
BRANCH  27  28
ATOM     28  C   UNL A   1      35.031  31.810  27.816  1.00  0.00     0.188 C 
BRANCH  28  29
ATOM     29  C   UNL A   1      35.820  33.013  28.347  1.00  0.00     0.188 C 
BRANCH  29  30
ATOM     30  O   UNL A   1      35.168  34.076  29.041  1.00  0.00    -0.376 OA
BRANCH  30  31
ATOM     31  C   UNL A   1      33.890  34.545  28.650  1.00  0.00     0.202 C 
BRANCH  31  32
ATOM     32  C   UNL A   1      33.157  35.540  29.558  1.00  0.00     0.261 C 
BRANCH  32  33
ATOM     33  O   UNL A   1      32.583  34.970  30.731  1.00  0.00    -0.460 OA
BRANCH  33  34
ATOM     34  C   UNL A   1      32.856  35.637  31.874  1.00  0.00     0.338 C 
ATOM     35  O   UNL A   1      32.238  36.555  32.376  1.00  0.00    -0.246 OA
BRANCH  34  36
ATOM     36  C   UNL A   1      34.004  34.970  32.504  1.00  0.00     0.060 A 
ATOM     37  C   UNL A   1      35.248  35.608  32.473  1.00  0.00     0.016 A 
ATOM     38  C   UNL A   1      33.858  33.704  33.074  1.00  0.00     0.016 A 
ATOM     39  C   UNL A   1      36.362  34.972  33.004  1.00  0.00     0.010 A 
ATOM     40  C   UNL A   1      34.981  33.049  33.574  1.00  0.00     0.010 A 
ATOM     41  C   UNL A   1      36.239  33.670  33.501  1.00  0.00    -0.014 A 
BRANCH  41  42
ATOM     42  C   UNL A   1      37.463  32.872  33.697  1.00  0.00     0.031 A 
ATOM     43  C   UNL A   1      38.241  33.084  34.963  1.00  0.00     0.074 A 
ATOM     44  C   UNL A   1      37.840  31.952  32.796  1.00  0.00     0.049 A 
ATOM     45  N   UNL A   1      39.354  32.525  35.356  1.00  0.00    -0.248 NA
ATOM     46  C   UNL A   1      37.686  34.062  35.916  1.00  0.00     0.031 C 
ATOM     47  C   UNL A   1      37.118  31.622  31.568  1.00  0.00     0.029 A 
ATOM     48  N   UNL A   1      38.932  31.126  32.783  1.00  0.00    -0.354 N 
ATOM     49  C   UNL A   1      39.637  33.090  36.593  1.00  0.00     0.074 A 
ATOM     50  C   UNL A   1      38.597  34.053  36.874  1.00  0.00     0.031 C 
ATOM     51  C   UNL A   1      37.798  30.666  30.911  1.00  0.00     0.029 A 
ATOM     52  C   UNL A   1      39.014  30.348  31.657  1.00  0.00     0.049 A 
ATOM     53  H   UNL A   1      39.593  31.094  33.512  1.00  0.00     0.167 HD
ATOM     54  C   UNL A   1      40.674  32.827  37.422  1.00  0.00     0.031 A 
ATOM     55  C   UNL A   1      39.981  29.496  31.267  1.00  0.00     0.031 A 
ATOM     56  C   UNL A   1      41.715  31.883  37.120  1.00  0.00     0.049 A 
ATOM     57  C   UNL A   1      41.172  29.286  32.163  1.00  0.00     0.074 A 
ATOM     58  C   UNL A   1      42.811  31.533  37.886  1.00  0.00     0.029 A 
ATOM     59  N   UNL A   1      41.791  31.148  35.945  1.00  0.00    -0.354 N 
ATOM     60  N   UNL A   1      41.427  29.809  33.339  1.00  0.00    -0.248 NA
ATOM     61  C   UNL A   1      42.206  28.361  31.680  1.00  0.00     0.031 C 
ATOM     62  C   UNL A   1      43.586  30.634  37.146  1.00  0.00     0.029 A 
ATOM     63  C   UNL A   1      42.935  30.370  35.950  1.00  0.00     0.049 A 
ATOM     64  H   UNL A   1      41.130  31.176  35.217  1.00  0.00     0.167 HD
ATOM     65  C   UNL A   1      42.633  29.257  33.750  1.00  0.00     0.074 A 
ATOM     66  C   UNL A   1      43.051  28.346  32.703  1.00  0.00     0.031 C 
ATOM     67  C   UNL A   1      43.332  29.476  34.892  1.00  0.00     0.031 A 
BRANCH  54  68
ATOM     68  C   UNL A   1      40.755  33.619  38.697  1.00  0.00    -0.014 A 
ATOM     69  C   UNL A   1      41.435  34.846  38.760  1.00  0.00     0.009 A 
ATOM     70  C   UNL A   1      40.139  33.124  39.856  1.00  0.00     0.009 A 
ATOM     71  C   UNL A   1      41.528  35.541  39.969  1.00  0.00     0.001 A 
ATOM     72  C   UNL A   1      40.206  33.836  41.055  1.00  0.00     0.001 A 
ATOM     73  C   UNL A   1      40.909  35.037  41.112  1.00  0.00     0.000 A 
ENDBRANCH  54  68
BRANCH  55  74
ATOM     74  C   UNL A   1      39.873  28.803  29.957  1.00  0.00    -0.014 A 
ATOM     75  C   UNL A   1      39.360  27.501  29.870  1.00  0.00     0.009 A 
ATOM     76  C   UNL A   1      40.287  29.448  28.779  1.00  0.00     0.009 A 
ATOM     77  C   UNL A   1      39.284  26.851  28.636  1.00  0.00     0.001 A 
ATOM     78  C   UNL A   1      40.182  28.808  27.544  1.00  0.00     0.001 A 
ATOM     79  C   UNL A   1      39.688  27.507  27.474  1.00  0.00     0.000 A 
ENDBRANCH  55  74
BRANCH  67  80
ATOM     80  C   UNL A   1      44.599  28.690  35.085  1.00  0.00    -0.014 A 
ATOM     81  C   UNL A   1      44.595  27.439  35.720  1.00  0.00     0.009 A 
ATOM     82  C   UNL A   1      45.807  29.190  34.575  1.00  0.00     0.009 A 
ATOM     83  C   UNL A   1      45.783  26.721  35.872  1.00  0.00     0.001 A 
ATOM     84  C   UNL A   1      46.988  28.456  34.698  1.00  0.00     0.001 A 
ATOM     85  C   UNL A   1      46.976  27.228  35.356  1.00  0.00     0.000 A 
ENDBRANCH  67  80
ENDBRANCH  41  42
ENDBRANCH  34  36
ENDBRANCH  33  34
ENDBRANCH  32  33
ENDBRANCH  31  32
ENDBRANCH  30  31
ENDBRANCH  29  30
ENDBRANCH  28  29
ENDBRANCH  27  28
ENDBRANCH   1  27
TORSDOF 23
ENDMDL
MODEL 2
REMARK VINA RESULT:      -9.2      4.482      8.015
REMARK SMILES Cc1ccc2nc(CC3(CC(=O)OCCOCCOCCOCCOC(=O)c4ccc(-c5c6nc(c(-c7ccccc7)c7ccc([nH]7)c(-c7ccccc7)c7nc(c(-c8ccccc8)c8ccc5[nH]8)C=C7)C=C6)cc4)CCCCC3)sc2c1
REMARK SMILES IDX 18 1 17 2 16 3 15 4 14 5 13 6 11 7 12 8 10 9 9 10 76 11
REMARK SMILES IDX 80 12 77 13 79 14 78 15 8 16 7 17 1 18 2 19 3 20 83 21 4 22
REMARK SMILES IDX 82 23 5 24 81 25 6 26 19 27 20 28 21 29 22 30 23 31 24 32
REMARK SMILES IDX 25 33 26 34 27 35 28 36 29 37 75 38 30 39 74 40 31 41 32 42
REMARK SMILES IDX 33 43 68 44 34 45 73 46 67 47 69 48 35 49 72 50 66 51 65 52
REMARK SMILES IDX 36 54 58 55 43 56 57 57 44 58 47 59 56 60 70 61 45 62 46 63
REMARK SMILES IDX 55 65 71 66 48 67 37 68 38 69 42 70 39 71 41 72 40 73 59 74
REMARK SMILES IDX 60 75 64 76 61 77 63 78 62 79 49 80 50 81 54 82 51 83 53 84
REMARK SMILES IDX 52 85
REMARK H PARENT 69 53 47 64
REMARK Flexibility Score: inf
ROOT
ATOM      1  C   UNL A   1      33.180  28.758  26.460  1.00  0.00     0.188 C 
ENDROOT
BRANCH   1   2
ATOM      2  C   UNL A   1      31.879  28.192  27.025  1.00  0.00     0.188 C 
BRANCH   2   3
ATOM      3  O   UNL A   1      31.901  26.806  27.369  1.00  0.00    -0.376 OA
BRANCH   3   4
ATOM      4  C   UNL A   1      31.306  25.893  26.448  1.00  0.00     0.202 C 
BRANCH   4   5
ATOM      5  C   UNL A   1      31.214  24.420  26.884  1.00  0.00     0.261 C 
BRANCH   5   6
ATOM      6  O   UNL A   1      31.229  23.473  25.796  1.00  0.00    -0.463 OA
BRANCH   6   7
ATOM      7  C   UNL A   1      32.293  22.640  25.750  1.00  0.00     0.306 C 
ATOM      8  O   UNL A   1      32.225  21.423  25.907  1.00  0.00    -0.252 OA
BRANCH   7   9
ATOM      9  C   UNL A   1      33.612  23.288  25.347  1.00  0.00     0.130 C 
BRANCH   9  10
ATOM     10  C   UNL A   1      34.424  22.928  24.053  1.00  0.00    -0.013 C 
ATOM     11  C   UNL A   1      34.662  21.382  24.064  1.00  0.00     0.008 C 
ATOM     12  C   UNL A   1      35.809  23.614  23.994  1.00  0.00     0.008 C 
ATOM     13  C   UNL A   1      35.656  20.906  25.132  1.00  0.00     0.001 C 
ATOM     14  C   UNL A   1      36.735  23.195  25.130  1.00  0.00     0.001 C 
ATOM     15  C   UNL A   1      36.964  21.687  25.099  1.00  0.00     0.000 C 
BRANCH  10  16
ATOM     16  C   UNL A   1      33.525  23.264  22.815  1.00  0.00     0.075 C 
BRANCH  16  17
ATOM     17  C   UNL A   1      32.698  24.526  22.892  1.00  0.00     0.094 A 
ATOM     18  C   UNL A   1      29.822  29.991  23.466  1.00  0.00     0.044 C 
ATOM     19  C   UNL A   1      30.205  28.545  23.325  1.00  0.00    -0.050 A 
ATOM     20  C   UNL A   1      29.233  27.547  23.427  1.00  0.00     0.006 A 
ATOM     21  C   UNL A   1      31.550  28.195  23.100  1.00  0.00     0.024 A 
ATOM     22  C   UNL A   1      29.578  26.198  23.302  1.00  0.00     0.030 A 
ATOM     23  C   UNL A   1      31.888  26.831  23.008  1.00  0.00     0.055 A 
ATOM     24  C   UNL A   1      30.919  25.833  23.087  1.00  0.00     0.082 A 
ATOM     25  S   UNL A   1      33.433  26.083  22.814  1.00  0.00    -0.119 S 
ATOM     26  N   UNL A   1      31.386  24.542  22.948  1.00  0.00    -0.241 NA
ENDBRANCH  16  17
ENDBRANCH  10  16
ENDBRANCH   9  10
ENDBRANCH   7   9
ENDBRANCH   6   7
ENDBRANCH   5   6
ENDBRANCH   4   5
ENDBRANCH   3   4
ENDBRANCH   2   3
ENDBRANCH   1   2
BRANCH   1  27
ATOM     27  O   UNL A   1      33.832  29.558  27.434  1.00  0.00    -0.377 OA
BRANCH  27  28
ATOM     28  C   UNL A   1      33.587  30.958  27.466  1.00  0.00     0.188 C 
BRANCH  28  29
ATOM     29  C   UNL A   1      34.579  31.842  28.232  1.00  0.00     0.188 C 
BRANCH  29  30
ATOM     30  O   UNL A   1      34.147  33.021  28.911  1.00  0.00    -0.376 OA
BRANCH  30  31
ATOM     31  C   UNL A   1      34.864  33.551  30.011  1.00  0.00     0.202 C 
BRANCH  31  32
ATOM     32  C   UNL A   1      34.680  32.910  31.393  1.00  0.00     0.261 C 
BRANCH  32  33
ATOM     33  O   UNL A   1      35.336  31.658  31.565  1.00  0.00    -0.460 OA
BRANCH  33  34
ATOM     34  C   UNL A   1      36.451  31.706  32.327  1.00  0.00     0.338 C 
ATOM     35  O   UNL A   1      36.583  32.173  33.441  1.00  0.00    -0.246 OA
BRANCH  34  36
ATOM     36  C   UNL A   1      37.499  30.965  31.611  1.00  0.00     0.060 A 
ATOM     37  C   UNL A   1      38.466  30.283  32.357  1.00  0.00     0.016 A 
ATOM     38  C   UNL A   1      37.550  30.987  30.215  1.00  0.00     0.016 A 
ATOM     39  C   UNL A   1      39.503  29.629  31.707  1.00  0.00     0.010 A 
ATOM     40  C   UNL A   1      38.610  30.362  29.563  1.00  0.00     0.010 A 
ATOM     41  C   UNL A   1      39.607  29.717  30.315  1.00  0.00    -0.014 A 
BRANCH  41  42
ATOM     42  C   UNL A   1      40.890  29.363  29.680  1.00  0.00     0.031 A 
ATOM     43  C   UNL A   1      41.041  27.971  29.138  1.00  0.00     0.074 A 
ATOM     44  C   UNL A   1      41.869  30.270  29.548  1.00  0.00     0.049 A 
ATOM     45  N   UNL A   1      42.071  27.413  28.560  1.00  0.00    -0.248 NA
ATOM     46  C   UNL A   1      39.869  27.087  29.269  1.00  0.00     0.031 C 
ATOM     47  C   UNL A   1      41.797  31.665  29.978  1.00  0.00     0.029 A 
ATOM     48  N   UNL A   1      43.121  30.143  29.006  1.00  0.00    -0.354 N 
ATOM     49  C   UNL A   1      41.675  26.114  28.268  1.00  0.00     0.074 A 
ATOM     50  C   UNL A   1      40.323  25.957  28.755  1.00  0.00     0.031 C 
ATOM     51  C   UNL A   1      42.966  32.265  29.694  1.00  0.00     0.029 A 
ATOM     52  C   UNL A   1      43.872  31.287  29.097  1.00  0.00     0.049 A 
ATOM     53  H   UNL A   1      43.449  29.312  28.594  1.00  0.00     0.167 HD
ATOM     54  C   UNL A   1      42.378  25.139  27.647  1.00  0.00     0.031 A 
ATOM     55  C   UNL A   1      45.156  31.503  28.757  1.00  0.00     0.031 A 
ATOM     56  C   UNL A   1      43.729  25.302  27.187  1.00  0.00     0.049 A 
ATOM     57  C   UNL A   1      45.949  30.377  28.149  1.00  0.00     0.074 A 
ATOM     58  C   UNL A   1      44.537  24.385  26.541  1.00  0.00     0.029 A 
ATOM     59  N   UNL A   1      44.477  26.461  27.340  1.00  0.00    -0.354 N 
ATOM     60  N   UNL A   1      45.565  29.156  27.859  1.00  0.00    -0.248 NA
ATOM     61  C   UNL A   1      47.351  30.661  27.815  1.00  0.00     0.031 C 
ATOM     62  C   UNL A   1      45.796  24.968  26.362  1.00  0.00     0.029 A 
ATOM     63  C   UNL A   1      45.749  26.272  26.831  1.00  0.00     0.049 A 
ATOM     64  H   UNL A   1      44.150  27.294  27.750  1.00  0.00     0.167 HD
ATOM     65  C   UNL A   1      46.667  28.536  27.283  1.00  0.00     0.074 A 
ATOM     66  C   UNL A   1      47.729  29.521  27.251  1.00  0.00     0.031 C 
ATOM     67  C   UNL A   1      46.790  27.268  26.817  1.00  0.00     0.031 A 
BRANCH  54  68
ATOM     68  C   UNL A   1      41.710  23.802  27.491  1.00  0.00    -0.014 A 
ATOM     69  C   UNL A   1      41.910  22.766  28.418  1.00  0.00     0.009 A 
ATOM     70  C   UNL A   1      40.865  23.576  26.393  1.00  0.00     0.009 A 
ATOM     71  C   UNL A   1      41.308  21.519  28.225  1.00  0.00     0.001 A 
ATOM     72  C   UNL A   1      40.240  22.341  26.221  1.00  0.00     0.001 A 
ATOM     73  C   UNL A   1      40.470  21.311  27.131  1.00  0.00     0.000 A 
ENDBRANCH  54  68
BRANCH  55  74
ATOM     74  C   UNL A   1      45.776  32.829  29.009  1.00  0.00    -0.014 A 
ATOM     75  C   UNL A   1      45.790  33.820  28.016  1.00  0.00     0.009 A 
ATOM     76  C   UNL A   1      46.362  33.112  30.255  1.00  0.00     0.009 A 
ATOM     77  C   UNL A   1      46.395  35.055  28.257  1.00  0.00     0.001 A 
ATOM     78  C   UNL A   1      46.939  34.358  30.504  1.00  0.00     0.001 A 
ATOM     79  C   UNL A   1      46.963  35.326  29.502  1.00  0.00     0.000 A 
ENDBRANCH  55  74
BRANCH  67  80
ATOM     80  C   UNL A   1      48.106  26.888  26.196  1.00  0.00    -0.014 A 
ATOM     81  C   UNL A   1      48.341  27.048  24.822  1.00  0.00     0.009 A 
ATOM     82  C   UNL A   1      49.143  26.411  27.014  1.00  0.00     0.009 A 
ATOM     83  C   UNL A   1      49.579  26.703  24.275  1.00  0.00     0.001 A 
ATOM     84  C   UNL A   1      50.389  26.099  26.470  1.00  0.00     0.001 A 
ATOM     85  C   UNL A   1      50.602  26.235  25.099  1.00  0.00     0.000 A 
ENDBRANCH  67  80
ENDBRANCH  41  42
ENDBRANCH  34  36
ENDBRANCH  33  34
ENDBRANCH  32  33
ENDBRANCH  31  32
ENDBRANCH  30  31
ENDBRANCH  29  30
ENDBRANCH  28  29
ENDBRANCH  27  28
ENDBRANCH   1  27
TORSDOF 23
ENDMDL
MODEL 3
REMARK VINA RESULT:      -8.5      2.724      7.270
REMARK SMILES Cc1ccc2nc(CC3(CC(=O)OCCOCCOCCOCCOC(=O)c4ccc(-c5c6nc(c(-c7ccccc7)c7ccc([nH]7)c(-c7ccccc7)c7nc(c(-c8ccccc8)c8ccc5[nH]8)C=C7)C=C6)cc4)CCCCC3)sc2c1
REMARK SMILES IDX 18 1 17 2 16 3 15 4 14 5 13 6 11 7 12 8 10 9 9 10 76 11
REMARK SMILES IDX 80 12 77 13 79 14 78 15 8 16 7 17 1 18 2 19 3 20 83 21 4 22
REMARK SMILES IDX 82 23 5 24 81 25 6 26 19 27 20 28 21 29 22 30 23 31 24 32
REMARK SMILES IDX 25 33 26 34 27 35 28 36 29 37 75 38 30 39 74 40 31 41 32 42
REMARK SMILES IDX 33 43 68 44 34 45 73 46 67 47 69 48 35 49 72 50 66 51 65 52
REMARK SMILES IDX 36 54 58 55 43 56 57 57 44 58 47 59 56 60 70 61 45 62 46 63
REMARK SMILES IDX 55 65 71 66 48 67 37 68 38 69 42 70 39 71 41 72 40 73 59 74
REMARK SMILES IDX 60 75 64 76 61 77 63 78 62 79 49 80 50 81 54 82 51 83 53 84
REMARK SMILES IDX 52 85
REMARK H PARENT 69 53 47 64
REMARK Flexibility Score: inf
ROOT
ATOM      1  C   UNL A   1      33.527  29.632  26.643  1.00  0.00     0.188 C 
ENDROOT
BRANCH   1   2
ATOM      2  C   UNL A   1      32.063  29.205  26.719  1.00  0.00     0.188 C 
BRANCH   2   3
ATOM      3  O   UNL A   1      31.802  27.828  26.445  1.00  0.00    -0.376 OA
BRANCH   3   4
ATOM      4  C   UNL A   1      31.196  27.512  25.191  1.00  0.00     0.202 C 
BRANCH   4   5
ATOM      5  C   UNL A   1      30.381  26.209  25.117  1.00  0.00     0.261 C 
BRANCH   5   6
ATOM      6  O   UNL A   1      31.178  25.014  24.978  1.00  0.00    -0.463 OA
BRANCH   6   7
ATOM      7  C   UNL A   1      31.532  24.401  26.130  1.00  0.00     0.306 C 
ATOM      8  O   UNL A   1      31.034  24.650  27.226  1.00  0.00    -0.252 OA
BRANCH   7   9
ATOM      9  C   UNL A   1      32.520  23.252  25.981  1.00  0.00     0.130 C 
BRANCH   9  10
ATOM     10  C   UNL A   1      33.468  23.046  24.746  1.00  0.00    -0.013 C 
ATOM     11  C   UNL A   1      34.729  22.269  25.246  1.00  0.00     0.008 C 
ATOM     12  C   UNL A   1      33.954  24.377  24.125  1.00  0.00     0.008 C 
ATOM     13  C   UNL A   1      35.658  23.092  26.150  1.00  0.00     0.001 C 
ATOM     14  C   UNL A   1      34.789  25.217  25.086  1.00  0.00     0.001 C 
ATOM     15  C   UNL A   1      36.021  24.440  25.536  1.00  0.00     0.000 C 
BRANCH  10  16
ATOM     16  C   UNL A   1      32.721  22.132  23.716  1.00  0.00     0.075 C 
BRANCH  16  17
ATOM     17  C   UNL A   1      32.742  20.644  23.979  1.00  0.00     0.094 A 
ATOM     18  C   UNL A   1      32.893  14.683  25.686  1.00  0.00     0.044 C 
ATOM     19  C   UNL A   1      32.955  16.006  24.974  1.00  0.00    -0.050 A 
ATOM     20  C   UNL A   1      33.487  16.086  23.686  1.00  0.00     0.006 A 
ATOM     21  C   UNL A   1      32.485  17.168  25.614  1.00  0.00     0.024 A 
ATOM     22  C   UNL A   1      33.554  17.311  23.015  1.00  0.00     0.030 A 
ATOM     23  C   UNL A   1      32.588  18.400  24.940  1.00  0.00     0.055 A 
ATOM     24  C   UNL A   1      33.098  18.483  23.646  1.00  0.00     0.082 A 
ATOM     25  S   UNL A   1      32.178  19.992  25.471  1.00  0.00    -0.119 S 
ATOM     26  N   UNL A   1      33.111  19.748  23.094  1.00  0.00    -0.241 NA
ENDBRANCH  16  17
ENDBRANCH  10  16
ENDBRANCH   9  10
ENDBRANCH   7   9
ENDBRANCH   6   7
ENDBRANCH   5   6
ENDBRANCH   4   5
ENDBRANCH   3   4
ENDBRANCH   2   3
ENDBRANCH   1   2
BRANCH   1  27
ATOM     27  O   UNL A   1      33.810  30.593  27.648  1.00  0.00    -0.377 OA
BRANCH  27  28
ATOM     28  C   UNL A   1      33.277  31.906  27.529  1.00  0.00     0.188 C 
BRANCH  28  29
ATOM     29  C   UNL A   1      34.181  33.084  27.916  1.00  0.00     0.188 C 
BRANCH  29  30
ATOM     30  O   UNL A   1      33.690  34.424  27.913  1.00  0.00    -0.376 OA
BRANCH  30  31
ATOM     31  C   UNL A   1      34.014  35.336  28.947  1.00  0.00     0.202 C 
BRANCH  31  32
ATOM     32  C   UNL A   1      33.289  35.218  30.294  1.00  0.00     0.261 C 
BRANCH  32  33
ATOM     33  O   UNL A   1      33.649  34.079  31.070  1.00  0.00    -0.460 OA
BRANCH  33  34
ATOM     34  C   UNL A   1      34.500  34.336  32.088  1.00  0.00     0.338 C 
ATOM     35  O   UNL A   1      34.337  35.077  33.036  1.00  0.00    -0.246 OA
BRANCH  34  36
ATOM     36  C   UNL A   1      35.658  33.446  31.921  1.00  0.00     0.060 A 
ATOM     37  C   UNL A   1      35.656  32.214  32.581  1.00  0.00     0.016 A 
ATOM     38  C   UNL A   1      36.755  33.852  31.157  1.00  0.00     0.016 A 
ATOM     39  C   UNL A   1      36.764  31.382  32.493  1.00  0.00     0.010 A 
ATOM     40  C   UNL A   1      37.882  33.036  31.097  1.00  0.00     0.010 A 
ATOM     41  C   UNL A   1      37.898  31.819  31.799  1.00  0.00    -0.014 A 
BRANCH  41  42
ATOM     42  C   UNL A   1      39.177  31.123  32.031  1.00  0.00     0.031 A 
ATOM     43  C   UNL A   1      39.556  30.022  31.084  1.00  0.00     0.074 A 
ATOM     44  C   UNL A   1      39.996  31.497  33.026  1.00  0.00     0.049 A 
ATOM     45  N   UNL A   1      40.610  29.250  31.088  1.00  0.00    -0.248 NA
ATOM     46  C   UNL A   1      38.615  29.754  29.982  1.00  0.00     0.031 C 
ATOM     47  C   UNL A   1      39.753  32.596  33.957  1.00  0.00     0.029 A 
ATOM     48  N   UNL A   1      41.206  30.983  33.412  1.00  0.00    -0.354 N 
ATOM     49  C   UNL A   1      40.454  28.402  29.999  1.00  0.00     0.074 A 
ATOM     50  C   UNL A   1      39.194  28.733  29.373  1.00  0.00     0.031 C 
ATOM     51  C   UNL A   1      40.781  32.667  34.821  1.00  0.00     0.029 A 
ATOM     52  C   UNL A   1      41.730  31.597  34.520  1.00  0.00     0.049 A 
ATOM     53  H   UNL A   1      41.653  30.244  32.940  1.00  0.00     0.167 HD
ATOM     54  C   UNL A   1      41.289  27.432  29.561  1.00  0.00     0.031 A 
ATOM     55  C   UNL A   1      42.840  31.305  35.222  1.00  0.00     0.031 A 
ATOM     56  C   UNL A   1      42.529  27.098  30.206  1.00  0.00     0.049 A 
ATOM     57  C   UNL A   1      43.710  30.162  34.769  1.00  0.00     0.074 A 
ATOM     58  C   UNL A   1      43.456  26.138  29.848  1.00  0.00     0.029 A 
ATOM     59  N   UNL A   1      43.005  27.709  31.357  1.00  0.00    -0.354 N 
ATOM     60  N   UNL A   1      43.567  29.374  33.729  1.00  0.00    -0.248 NA
ATOM     61  C   UNL A   1      44.898  29.874  35.583  1.00  0.00     0.031 C 
ATOM     62  C   UNL A   1      44.462  26.124  30.820  1.00  0.00     0.029 A 
ATOM     63  C   UNL A   1      44.198  27.125  31.743  1.00  0.00     0.049 A 
ATOM     64  H   UNL A   1      42.560  28.450  31.829  1.00  0.00     0.167 HD
ATOM     65  C   UNL A   1      44.660  28.517  33.748  1.00  0.00     0.074 A 
ATOM     66  C   UNL A   1      45.464  28.892  34.893  1.00  0.00     0.031 C 
ATOM     67  C   UNL A   1      44.976  27.513  32.892  1.00  0.00     0.031 A 
BRANCH  54  68
ATOM     68  C   UNL A   1      40.851  26.634  28.365  1.00  0.00    -0.014 A 
ATOM     69  C   UNL A   1      41.288  26.949  27.069  1.00  0.00     0.009 A 
ATOM     70  C   UNL A   1      39.982  25.546  28.543  1.00  0.00     0.009 A 
ATOM     71  C   UNL A   1      40.832  26.213  25.971  1.00  0.00     0.001 A 
ATOM     72  C   UNL A   1      39.554  24.794  27.449  1.00  0.00     0.001 A 
ATOM     73  C   UNL A   1      39.970  25.134  26.164  1.00  0.00     0.000 A 
ENDBRANCH  54  68
BRANCH  55  74
ATOM     74  C   UNL A   1      43.174  32.087  36.440  1.00  0.00    -0.014 A 
ATOM     75  C   UNL A   1      42.697  31.699  37.700  1.00  0.00     0.009 A 
ATOM     76  C   UNL A   1      43.979  33.236  36.345  1.00  0.00     0.009 A 
ATOM     77  C   UNL A   1      43.000  32.455  38.835  1.00  0.00     0.001 A 
ATOM     78  C   UNL A   1      44.305  33.972  37.485  1.00  0.00     0.001 A 
ATOM     79  C   UNL A   1      43.808  33.586  38.728  1.00  0.00     0.000 A 
ENDBRANCH  55  74
BRANCH  67  80
ATOM     80  C   UNL A   1      46.263  26.776  33.140  1.00  0.00    -0.014 A 
ATOM     81  C   UNL A   1      46.312  25.646  33.970  1.00  0.00     0.009 A 
ATOM     82  C   UNL A   1      47.434  27.193  32.487  1.00  0.00     0.009 A 
ATOM     83  C   UNL A   1      47.518  24.970  34.168  1.00  0.00     0.001 A 
ATOM     84  C   UNL A   1      48.630  26.496  32.662  1.00  0.00     0.001 A 
ATOM     85  C   UNL A   1      48.673  25.392  33.510  1.00  0.00     0.000 A 
ENDBRANCH  67  80
ENDBRANCH  41  42
ENDBRANCH  34  36
ENDBRANCH  33  34
ENDBRANCH  32  33
ENDBRANCH  31  32
ENDBRANCH  30  31
ENDBRANCH  29  30
ENDBRANCH  28  29
ENDBRANCH  27  28
ENDBRANCH   1  27
TORSDOF 23
ENDMDL
