MODEL 1
REMARK VINA RESULT:     -10.5      0.000      0.000
REMARK SMILES O=C(OCCOCCOCCOCCOC(=O)c1nn(Cc2ccc(F)cc2)c2c1CN(C(=O)[C@H]1CC1(F)F)CC2)c1ccc(-c2c3nc(c(-c4ccccc4)c4ccc([nH]4)c(-c4ccccc4)c4nc(c(-c5ccccc5)c5ccc2[nH]5)C=C4)C=C3)cc1
REMARK SMILES IDX 9 1 8 2 7 3 6 4 5 5 4 6 3 7 2 8 1 9 42 10 43 11 89 12 44 13
REMARK SMILES IDX 88 14 45 15 46 16 47 17 82 18 48 19 87 20 81 21 83 22 49 23
REMARK SMILES IDX 86 24 80 25 79 26 50 28 72 29 57 30 71 31 58 32 61 33 70 34
REMARK SMILES IDX 84 35 59 36 60 37 69 39 85 40 62 41 51 42 52 43 56 44 53 45
REMARK SMILES IDX 55 46 54 47 73 48 74 49 78 50 75 51 77 52 76 53 63 54 64 55
REMARK SMILES IDX 68 56 65 57 67 58 66 59 10 60 11 61 12 62 13 63 14 64 15 65
REMARK SMILES IDX 16 66 17 67 18 68 19 69 30 70 20 71 29 72 31 73 41 74 32 75
REMARK SMILES IDX 40 76 21 77 22 78 23 79 28 80 24 81 27 82 25 83 26 84 33 85
REMARK SMILES IDX 34 86 35 87 36 88 37 89 38 90 39 91
REMARK H PARENT 83 27 61 38
REMARK Flexibility Score: inf
ROOT
ATOM      1  O   UNL A   1      38.261  22.845  26.160  1.00  0.00    -0.377 OA
ENDROOT
BRANCH   1   2
ATOM      2  C   UNL A   1      39.376  23.513  26.719  1.00  0.00     0.188 C 
BRANCH   2   3
ATOM      3  C   UNL A   1      40.329  22.692  27.608  1.00  0.00     0.188 C 
BRANCH   3   4
ATOM      4  O   UNL A   1      41.126  21.589  27.199  1.00  0.00    -0.376 OA
BRANCH   4   5
ATOM      5  C   UNL A   1      41.872  21.379  26.019  1.00  0.00     0.202 C 
BRANCH   5   6
ATOM      6  C   UNL A   1      43.392  21.475  25.923  1.00  0.00     0.261 C 
BRANCH   6   7
ATOM      7  O   UNL A   1      43.932  22.741  26.255  1.00  0.00    -0.460 OA
BRANCH   7   8
ATOM      8  C   UNL A   1      43.654  23.928  25.684  1.00  0.00     0.338 C 
ATOM      9  O   UNL A   1      44.113  24.146  24.564  1.00  0.00    -0.246 OA
BRANCH   8  10
ATOM     10  C   UNL A   1      42.880  25.022  26.342  1.00  0.00     0.060 A 
ATOM     11  C   UNL A   1      41.911  25.845  25.761  1.00  0.00     0.016 A 
ATOM     12  C   UNL A   1      43.210  25.230  27.696  1.00  0.00     0.016 A 
ATOM     13  C   UNL A   1      41.468  26.974  26.420  1.00  0.00     0.010 A 
ATOM     14  C   UNL A   1      42.741  26.333  28.378  1.00  0.00     0.010 A 
ATOM     15  C   UNL A   1      41.958  27.247  27.690  1.00  0.00    -0.014 A 
BRANCH  15  16
ATOM     16  C   UNL A   1      41.628  28.533  28.260  1.00  0.00     0.031 A 
ATOM     17  C   UNL A   1      42.651  29.585  28.055  1.00  0.00     0.074 A 
ATOM     18  C   UNL A   1      40.459  28.716  28.902  1.00  0.00     0.049 A 
ATOM     19  N   UNL A   1      43.325  30.221  28.956  1.00  0.00    -0.248 NA
ATOM     20  C   UNL A   1      43.066  29.870  26.673  1.00  0.00     0.031 C 
ATOM     21  C   UNL A   1      39.302  27.817  28.958  1.00  0.00     0.029 A 
ATOM     22  N   UNL A   1      40.020  29.818  29.559  1.00  0.00    -0.354 N 
ATOM     23  C   UNL A   1      44.131  31.117  28.261  1.00  0.00     0.074 A 
ATOM     24  C   UNL A   1      44.034  30.765  26.868  1.00  0.00     0.031 C 
ATOM     25  C   UNL A   1      38.221  28.512  29.379  1.00  0.00     0.029 A 
ATOM     26  C   UNL A   1      38.648  29.846  29.761  1.00  0.00     0.049 A 
ATOM     27  H   UNL A   1      40.622  30.534  29.866  1.00  0.00     0.167 HD
ATOM     28  C   UNL A   1      44.643  32.229  28.856  1.00  0.00     0.031 A 
ATOM     29  C   UNL A   1      37.917  30.923  30.139  1.00  0.00     0.031 A 
ATOM     30  C   UNL A   1      44.661  32.114  30.289  1.00  0.00     0.049 A 
ATOM     31  C   UNL A   1      38.849  31.903  30.746  1.00  0.00     0.074 A 
ATOM     32  C   UNL A   1      45.297  31.270  31.179  1.00  0.00     0.029 A 
ATOM     33  N   UNL A   1      43.635  32.698  30.990  1.00  0.00    -0.354 N 
ATOM     34  N   UNL A   1      39.465  31.696  31.874  1.00  0.00    -0.248 NA
ATOM     35  C   UNL A   1      39.460  32.895  29.874  1.00  0.00     0.031 C 
ATOM     36  C   UNL A   1      44.332  31.022  32.199  1.00  0.00     0.029 A 
ATOM     37  C   UNL A   1      43.197  31.783  31.914  1.00  0.00     0.049 A 
ATOM     38  H   UNL A   1      43.280  33.606  30.855  1.00  0.00     0.167 HD
ATOM     39  C   UNL A   1      40.749  32.182  31.671  1.00  0.00     0.074 A 
ATOM     40  C   UNL A   1      40.658  32.994  30.457  1.00  0.00     0.031 C 
ATOM     41  C   UNL A   1      41.818  31.652  32.334  1.00  0.00     0.031 A 
BRANCH  28  42
ATOM     42  C   UNL A   1      44.745  33.549  28.141  1.00  0.00    -0.014 A 
ATOM     43  C   UNL A   1      45.971  33.932  27.573  1.00  0.00     0.009 A 
ATOM     44  C   UNL A   1      43.754  34.547  28.247  1.00  0.00     0.009 A 
ATOM     45  C   UNL A   1      46.207  35.258  27.184  1.00  0.00     0.001 A 
ATOM     46  C   UNL A   1      43.972  35.859  27.824  1.00  0.00     0.001 A 
ATOM     47  C   UNL A   1      45.210  36.221  27.315  1.00  0.00     0.000 A 
ENDBRANCH  28  42
BRANCH  29  48
ATOM     48  C   UNL A   1      36.552  31.287  29.703  1.00  0.00    -0.014 A 
ATOM     49  C   UNL A   1      35.758  32.154  30.468  1.00  0.00     0.009 A 
ATOM     50  C   UNL A   1      36.129  30.997  28.392  1.00  0.00     0.009 A 
ATOM     51  C   UNL A   1      34.603  32.736  29.929  1.00  0.00     0.001 A 
ATOM     52  C   UNL A   1      34.975  31.576  27.854  1.00  0.00     0.001 A 
ATOM     53  C   UNL A   1      34.220  32.457  28.619  1.00  0.00     0.000 A 
ENDBRANCH  29  48
BRANCH  41  54
ATOM     54  C   UNL A   1      41.540  30.650  33.432  1.00  0.00    -0.014 A 
ATOM     55  C   UNL A   1      41.393  29.270  33.195  1.00  0.00     0.009 A 
ATOM     56  C   UNL A   1      41.577  31.091  34.763  1.00  0.00     0.009 A 
ATOM     57  C   UNL A   1      41.253  28.368  34.256  1.00  0.00     0.001 A 
ATOM     58  C   UNL A   1      41.459  30.188  35.822  1.00  0.00     0.001 A 
ATOM     59  C   UNL A   1      41.290  28.829  35.570  1.00  0.00     0.000 A 
ENDBRANCH  41  54
ENDBRANCH  15  16
ENDBRANCH   8  10
ENDBRANCH   7   8
ENDBRANCH   6   7
ENDBRANCH   5   6
ENDBRANCH   4   5
ENDBRANCH   3   4
ENDBRANCH   2   3
ENDBRANCH   1   2
BRANCH   1  60
ATOM     60  C   UNL A   1      37.094  23.627  26.093  1.00  0.00     0.188 C 
BRANCH  60  61
ATOM     61  C   UNL A   1      35.847  22.836  25.642  1.00  0.00     0.188 C 
BRANCH  61  62
ATOM     62  O   UNL A   1      35.403  21.687  26.340  1.00  0.00    -0.376 OA
BRANCH  62  63
ATOM     63  C   UNL A   1      34.519  21.790  27.439  1.00  0.00     0.202 C 
BRANCH  63  64
ATOM     64  C   UNL A   1      33.563  22.985  27.605  1.00  0.00     0.261 C 
BRANCH  64  65
ATOM     65  O   UNL A   1      32.181  22.714  27.844  1.00  0.00    -0.458 OA
BRANCH  65  66
ATOM     66  C   UNL A   1      31.282  23.241  26.960  1.00  0.00     0.359 C 
ATOM     67  O   UNL A   1      30.281  23.876  27.278  1.00  0.00    -0.244 OA
BRANCH  66  68
ATOM     68  C   UNL A   1      31.716  23.058  25.568  1.00  0.00     0.175 A 
ATOM     69  N   UNL A   1      31.704  21.829  25.015  1.00  0.00    -0.165 NA
ATOM     70  C   UNL A   1      32.195  24.028  24.629  1.00  0.00     0.028 A 
ATOM     71  N   UNL A   1      32.106  22.011  23.742  1.00  0.00    -0.264 N 
ATOM     72  C   UNL A   1      32.424  23.306  23.473  1.00  0.00     0.046 A 
ATOM     73  C   UNL A   1      32.463  25.499  24.737  1.00  0.00     0.159 C 
ATOM     74  C   UNL A   1      32.862  23.887  22.179  1.00  0.00     0.078 C 
ATOM     75  N   UNL A   1      32.674  26.062  23.388  1.00  0.00    -0.337 N 
ATOM     76  C   UNL A   1      33.492  25.265  22.451  1.00  0.00     0.126 C 
BRANCH  71  77
ATOM     77  C   UNL A   1      31.989  20.907  22.798  1.00  0.00     0.180 C 
BRANCH  77  78
ATOM     78  C   UNL A   1      32.716  19.663  23.247  1.00  0.00    -0.026 A 
ATOM     79  C   UNL A   1      32.422  18.416  22.668  1.00  0.00     0.008 A 
ATOM     80  C   UNL A   1      33.745  19.744  24.199  1.00  0.00     0.008 A 
ATOM     81  C   UNL A   1      33.154  17.280  23.016  1.00  0.00     0.039 A 
ATOM     82  C   UNL A   1      34.476  18.606  24.545  1.00  0.00     0.039 A 
ATOM     83  C   UNL A   1      34.180  17.388  23.945  1.00  0.00     0.123 A 
ATOM     84  F   UNL A   1      34.900  16.305  24.263  1.00  0.00    -0.207 F 
ENDBRANCH  77  78
ENDBRANCH  71  77
BRANCH  75  85
ATOM     85  C   UNL A   1      32.193  27.334  23.118  1.00  0.00     0.232 C 
ATOM     86  O   UNL A   1      32.841  28.358  23.322  1.00  0.00    -0.274 OA
BRANCH  85  87
ATOM     87  C   UNL A   1      30.841  27.433  22.533  1.00  0.00     0.154 C 
ATOM     88  C   UNL A   1      29.628  27.133  23.403  1.00  0.00     0.097 C 
ATOM     89  C   UNL A   1      29.912  28.512  22.942  1.00  0.00     0.260 C 
ATOM     90  F   UNL A   1      30.225  29.473  23.871  1.00  0.00    -0.206 F 
ATOM     91  F   UNL A   1      29.058  29.089  22.028  1.00  0.00    -0.206 F 
ENDBRANCH  85  87
ENDBRANCH  75  85
ENDBRANCH  66  68
ENDBRANCH  65  66
ENDBRANCH  64  65
ENDBRANCH  63  64
ENDBRANCH  62  63
ENDBRANCH  61  62
ENDBRANCH  60  61
ENDBRANCH   1  60
TORSDOF 24
ENDMDL
MODEL 2
REMARK VINA RESULT:     -10.3      4.937     10.208
REMARK SMILES O=C(OCCOCCOCCOCCOC(=O)c1nn(Cc2ccc(F)cc2)c2c1CN(C(=O)[C@H]1CC1(F)F)CC2)c1ccc(-c2c3nc(c(-c4ccccc4)c4ccc([nH]4)c(-c4ccccc4)c4nc(c(-c5ccccc5)c5ccc2[nH]5)C=C4)C=C3)cc1
REMARK SMILES IDX 9 1 8 2 7 3 6 4 5 5 4 6 3 7 2 8 1 9 42 10 43 11 89 12 44 13
REMARK SMILES IDX 88 14 45 15 46 16 47 17 82 18 48 19 87 20 81 21 83 22 49 23
REMARK SMILES IDX 86 24 80 25 79 26 50 28 72 29 57 30 71 31 58 32 61 33 70 34
REMARK SMILES IDX 84 35 59 36 60 37 69 39 85 40 62 41 51 42 52 43 56 44 53 45
REMARK SMILES IDX 55 46 54 47 73 48 74 49 78 50 75 51 77 52 76 53 63 54 64 55
REMARK SMILES IDX 68 56 65 57 67 58 66 59 10 60 11 61 12 62 13 63 14 64 15 65
REMARK SMILES IDX 16 66 17 67 18 68 19 69 30 70 20 71 29 72 31 73 41 74 32 75
REMARK SMILES IDX 40 76 21 77 22 78 23 79 28 80 24 81 27 82 25 83 26 84 33 85
REMARK SMILES IDX 34 86 35 87 36 88 37 89 38 90 39 91
REMARK H PARENT 83 27 61 38
REMARK Flexibility Score: inf
ROOT
ATOM      1  O   UNL A   1      32.151  33.367  27.748  1.00  0.00    -0.377 OA
ENDROOT
BRANCH   1   2
ATOM      2  C   UNL A   1      33.498  33.802  27.780  1.00  0.00     0.188 C 
BRANCH   2   3
ATOM      3  C   UNL A   1      34.072  34.253  29.136  1.00  0.00     0.188 C 
BRANCH   3   4
ATOM      4  O   UNL A   1      35.408  34.078  29.587  1.00  0.00    -0.376 OA
BRANCH   4   5
ATOM      5  C   UNL A   1      36.270  32.963  29.506  1.00  0.00     0.202 C 
BRANCH   5   6
ATOM      6  C   UNL A   1      37.596  32.941  28.751  1.00  0.00     0.261 C 
BRANCH   6   7
ATOM      7  O   UNL A   1      38.747  33.091  29.562  1.00  0.00    -0.460 OA
BRANCH   7   8
ATOM      8  C   UNL A   1      39.309  34.238  29.986  1.00  0.00     0.338 C 
ATOM      9  O   UNL A   1      38.738  34.858  30.882  1.00  0.00    -0.246 OA
BRANCH   8  10
ATOM     10  C   UNL A   1      40.543  34.842  29.401  1.00  0.00     0.060 A 
ATOM     11  C   UNL A   1      41.786  35.001  30.019  1.00  0.00     0.016 A 
ATOM     12  C   UNL A   1      40.387  35.311  28.082  1.00  0.00     0.016 A 
ATOM     13  C   UNL A   1      42.753  35.803  29.447  1.00  0.00     0.010 A 
ATOM     14  C   UNL A   1      41.363  36.080  27.483  1.00  0.00     0.010 A 
ATOM     15  C   UNL A   1      42.491  36.402  28.222  1.00  0.00    -0.014 A 
BRANCH  15  16
ATOM     16  C   UNL A   1      43.440  37.388  27.756  1.00  0.00     0.031 A 
ATOM     17  C   UNL A   1      44.827  36.890  27.600  1.00  0.00     0.074 A 
ATOM     18  C   UNL A   1      43.040  38.643  27.480  1.00  0.00     0.049 A 
ATOM     19  N   UNL A   1      45.886  37.290  28.223  1.00  0.00    -0.248 NA
ATOM     20  C   UNL A   1      45.036  35.716  26.740  1.00  0.00     0.031 C 
ATOM     21  C   UNL A   1      41.671  39.161  27.385  1.00  0.00     0.029 A 
ATOM     22  N   UNL A   1      43.795  39.708  27.112  1.00  0.00    -0.354 N 
ATOM     23  C   UNL A   1      46.934  36.535  27.707  1.00  0.00     0.074 A 
ATOM     24  C   UNL A   1      46.340  35.496  26.906  1.00  0.00     0.031 C 
ATOM     25  C   UNL A   1      41.692  40.348  26.737  1.00  0.00     0.029 A 
ATOM     26  C   UNL A   1      43.075  40.731  26.515  1.00  0.00     0.049 A 
ATOM     27  H   UNL A   1      44.768  39.750  27.256  1.00  0.00     0.167 HD
ATOM     28  C   UNL A   1      48.226  36.954  27.789  1.00  0.00     0.031 A 
ATOM     29  C   UNL A   1      43.592  41.774  25.821  1.00  0.00     0.031 A 
ATOM     30  C   UNL A   1      48.409  37.938  28.821  1.00  0.00     0.049 A 
ATOM     31  C   UNL A   1      45.019  41.897  26.200  1.00  0.00     0.074 A 
ATOM     32  C   UNL A   1      48.260  37.933  30.194  1.00  0.00     0.029 A 
ATOM     33  N   UNL A   1      48.424  39.260  28.448  1.00  0.00    -0.354 N 
ATOM     34  N   UNL A   1      45.412  42.257  27.388  1.00  0.00    -0.248 NA
ATOM     35  C   UNL A   1      46.001  41.166  25.413  1.00  0.00     0.031 C 
ATOM     36  C   UNL A   1      47.700  39.208  30.505  1.00  0.00     0.029 A 
ATOM     37  C   UNL A   1      47.612  39.941  29.320  1.00  0.00     0.049 A 
ATOM     38  H   UNL A   1      48.925  39.648  27.694  1.00  0.00     0.167 HD
ATOM     39  C   UNL A   1      46.495  41.435  27.667  1.00  0.00     0.074 A 
ATOM     40  C   UNL A   1      46.870  40.852  26.379  1.00  0.00     0.031 C 
ATOM     41  C   UNL A   1      46.800  41.080  28.950  1.00  0.00     0.031 A 
BRANCH  28  42
ATOM     42  C   UNL A   1      49.211  36.752  26.669  1.00  0.00    -0.014 A 
ATOM     43  C   UNL A   1      48.912  37.252  25.391  1.00  0.00     0.009 A 
ATOM     44  C   UNL A   1      50.291  35.851  26.763  1.00  0.00     0.009 A 
ATOM     45  C   UNL A   1      49.625  36.826  24.262  1.00  0.00     0.001 A 
ATOM     46  C   UNL A   1      51.029  35.456  25.646  1.00  0.00     0.001 A 
ATOM     47  C   UNL A   1      50.678  35.925  24.390  1.00  0.00     0.000 A 
ENDBRANCH  28  42
BRANCH  29  48
ATOM     48  C   UNL A   1      43.027  42.432  24.623  1.00  0.00    -0.014 A 
ATOM     49  C   UNL A   1      43.672  43.528  24.031  1.00  0.00     0.009 A 
ATOM     50  C   UNL A   1      41.993  41.810  23.898  1.00  0.00     0.009 A 
ATOM     51  C   UNL A   1      43.319  43.962  22.746  1.00  0.00     0.001 A 
ATOM     52  C   UNL A   1      41.639  42.244  22.617  1.00  0.00     0.001 A 
ATOM     53  C   UNL A   1      42.312  43.312  22.035  1.00  0.00     0.000 A 
ENDBRANCH  29  48
BRANCH  41  54
ATOM     54  C   UNL A   1      46.043  41.760  30.068  1.00  0.00    -0.014 A 
ATOM     55  C   UNL A   1      46.470  42.959  30.668  1.00  0.00     0.009 A 
ATOM     56  C   UNL A   1      44.784  41.255  30.426  1.00  0.00     0.009 A 
ATOM     57  C   UNL A   1      45.675  43.612  31.619  1.00  0.00     0.001 A 
ATOM     58  C   UNL A   1      43.983  41.917  31.358  1.00  0.00     0.001 A 
ATOM     59  C   UNL A   1      44.429  43.091  31.960  1.00  0.00     0.000 A 
ENDBRANCH  41  54
ENDBRANCH  15  16
ENDBRANCH   8  10
ENDBRANCH   7   8
ENDBRANCH   6   7
ENDBRANCH   5   6
ENDBRANCH   4   5
ENDBRANCH   3   4
ENDBRANCH   2   3
ENDBRANCH   1   2
BRANCH   1  60
ATOM     60  C   UNL A   1      31.712  32.940  26.481  1.00  0.00     0.188 C 
BRANCH  60  61
ATOM     61  C   UNL A   1      31.170  31.495  26.473  1.00  0.00     0.188 C 
BRANCH  61  62
ATOM     62  O   UNL A   1      31.784  30.475  25.707  1.00  0.00    -0.376 OA
BRANCH  62  63
ATOM     63  C   UNL A   1      33.118  30.074  25.949  1.00  0.00     0.202 C 
BRANCH  63  64
ATOM     64  C   UNL A   1      33.595  28.635  25.683  1.00  0.00     0.261 C 
BRANCH  64  65
ATOM     65  O   UNL A   1      33.375  27.654  26.699  1.00  0.00    -0.458 OA
BRANCH  65  66
ATOM     66  C   UNL A   1      32.079  27.398  27.046  1.00  0.00     0.359 C 
ATOM     67  O   UNL A   1      31.537  27.805  28.069  1.00  0.00    -0.244 OA
BRANCH  66  68
ATOM     68  C   UNL A   1      31.366  26.669  25.988  1.00  0.00     0.175 A 
ATOM     69  N   UNL A   1      30.158  27.101  25.569  1.00  0.00    -0.165 NA
ATOM     70  C   UNL A   1      31.752  25.488  25.278  1.00  0.00     0.028 A 
ATOM     71  N   UNL A   1      29.807  26.258  24.578  1.00  0.00    -0.264 N 
ATOM     72  C   UNL A   1      30.722  25.271  24.382  1.00  0.00     0.046 A 
ATOM     73  C   UNL A   1      32.941  24.581  25.387  1.00  0.00     0.159 C 
ATOM     74  C   UNL A   1      30.694  24.193  23.360  1.00  0.00     0.078 C 
ATOM     75  N   UNL A   1      32.979  23.676  24.220  1.00  0.00    -0.337 N 
ATOM     76  C   UNL A   1      31.693  23.099  23.778  1.00  0.00     0.126 C 
BRANCH  71  77
ATOM     77  C   UNL A   1      28.649  26.578  23.754  1.00  0.00     0.180 C 
BRANCH  77  78
ATOM     78  C   UNL A   1      28.733  27.943  23.118  1.00  0.00    -0.026 A 
ATOM     79  C   UNL A   1      27.623  28.807  23.132  1.00  0.00     0.008 A 
ATOM     80  C   UNL A   1      29.940  28.398  22.563  1.00  0.00     0.008 A 
ATOM     81  C   UNL A   1      27.724  30.103  22.625  1.00  0.00     0.039 A 
ATOM     82  C   UNL A   1      30.039  29.696  22.058  1.00  0.00     0.039 A 
ATOM     83  C   UNL A   1      28.934  30.538  22.101  1.00  0.00     0.123 A 
ATOM     84  F   UNL A   1      29.041  31.789  21.636  1.00  0.00    -0.207 F 
ENDBRANCH  77  78
ENDBRANCH  71  77
BRANCH  75  85
ATOM     85  C   UNL A   1      34.213  23.338  23.684  1.00  0.00     0.232 C 
ATOM     86  O   UNL A   1      34.777  24.002  22.818  1.00  0.00    -0.274 OA
BRANCH  85  87
ATOM     87  C   UNL A   1      34.871  22.129  24.218  1.00  0.00     0.154 C 
ATOM     88  C   UNL A   1      36.392  22.060  24.247  1.00  0.00     0.097 C 
ATOM     89  C   UNL A   1      35.611  22.170  25.501  1.00  0.00     0.260 C 
ATOM     90  F   UNL A   1      35.739  23.302  26.269  1.00  0.00    -0.206 F 
ATOM     91  F   UNL A   1      35.589  21.093  26.360  1.00  0.00    -0.206 F 
ENDBRANCH  85  87
ENDBRANCH  75  85
ENDBRANCH  66  68
ENDBRANCH  65  66
ENDBRANCH  64  65
ENDBRANCH  63  64
ENDBRANCH  62  63
ENDBRANCH  61  62
ENDBRANCH  60  61
ENDBRANCH   1  60
TORSDOF 24
ENDMDL
MODEL 3
REMARK VINA RESULT:     -10.1      3.343      9.155
REMARK SMILES O=C(OCCOCCOCCOCCOC(=O)c1nn(Cc2ccc(F)cc2)c2c1CN(C(=O)[C@H]1CC1(F)F)CC2)c1ccc(-c2c3nc(c(-c4ccccc4)c4ccc([nH]4)c(-c4ccccc4)c4nc(c(-c5ccccc5)c5ccc2[nH]5)C=C4)C=C3)cc1
REMARK SMILES IDX 9 1 8 2 7 3 6 4 5 5 4 6 3 7 2 8 1 9 42 10 43 11 89 12 44 13
REMARK SMILES IDX 88 14 45 15 46 16 47 17 82 18 48 19 87 20 81 21 83 22 49 23
REMARK SMILES IDX 86 24 80 25 79 26 50 28 72 29 57 30 71 31 58 32 61 33 70 34
REMARK SMILES IDX 84 35 59 36 60 37 69 39 85 40 62 41 51 42 52 43 56 44 53 45
REMARK SMILES IDX 55 46 54 47 73 48 74 49 78 50 75 51 77 52 76 53 63 54 64 55
REMARK SMILES IDX 68 56 65 57 67 58 66 59 10 60 11 61 12 62 13 63 14 64 15 65
REMARK SMILES IDX 16 66 17 67 18 68 19 69 30 70 20 71 29 72 31 73 41 74 32 75
REMARK SMILES IDX 40 76 21 77 22 78 23 79 28 80 24 81 27 82 25 83 26 84 33 85
REMARK SMILES IDX 34 86 35 87 36 88 37 89 38 90 39 91
REMARK H PARENT 83 27 61 38
REMARK Flexibility Score: inf
ROOT
ATOM      1  O   UNL A   1      32.587  34.022  28.703  1.00  0.00    -0.377 OA
ENDROOT
BRANCH   1   2
ATOM      2  C   UNL A   1      33.482  35.076  29.006  1.00  0.00     0.188 C 
BRANCH   2   3
ATOM      3  C   UNL A   1      32.908  36.323  29.704  1.00  0.00     0.188 C 
BRANCH   3   4
ATOM      4  O   UNL A   1      33.488  37.020  30.798  1.00  0.00    -0.376 OA
BRANCH   4   5
ATOM      5  C   UNL A   1      33.030  37.203  32.121  1.00  0.00     0.202 C 
BRANCH   5   6
ATOM      6  C   UNL A   1      33.462  36.359  33.316  1.00  0.00     0.261 C 
BRANCH   6   7
ATOM      7  O   UNL A   1      34.540  35.476  33.064  1.00  0.00    -0.460 OA
BRANCH   7   8
ATOM      8  C   UNL A   1      34.483  34.144  32.875  1.00  0.00     0.338 C 
ATOM      9  O   UNL A   1      33.463  33.558  33.234  1.00  0.00    -0.246 OA
BRANCH   8  10
ATOM     10  C   UNL A   1      35.597  33.321  32.318  1.00  0.00     0.060 A 
ATOM     11  C   UNL A   1      35.541  31.990  31.896  1.00  0.00     0.016 A 
ATOM     12  C   UNL A   1      36.833  33.994  32.246  1.00  0.00     0.016 A 
ATOM     13  C   UNL A   1      36.702  31.287  31.645  1.00  0.00     0.010 A 
ATOM     14  C   UNL A   1      37.996  33.311  31.957  1.00  0.00     0.010 A 
ATOM     15  C   UNL A   1      37.922  31.940  31.764  1.00  0.00    -0.014 A 
BRANCH  15  16
ATOM     16  C   UNL A   1      39.114  31.125  31.692  1.00  0.00     0.031 A 
ATOM     17  C   UNL A   1      39.801  30.914  32.987  1.00  0.00     0.074 A 
ATOM     18  C   UNL A   1      39.516  30.607  30.517  1.00  0.00     0.049 A 
ATOM     19  N   UNL A   1      40.997  31.274  33.318  1.00  0.00    -0.248 NA
ATOM     20  C   UNL A   1      39.012  30.347  34.092  1.00  0.00     0.031 C 
ATOM     21  C   UNL A   1      38.791  30.570  29.243  1.00  0.00     0.029 A 
ATOM     22  N   UNL A   1      40.638  29.893  30.249  1.00  0.00    -0.354 N 
ATOM     23  C   UNL A   1      41.180  30.824  34.621  1.00  0.00     0.074 A 
ATOM     24  C   UNL A   1      39.891  30.388  35.092  1.00  0.00     0.031 C 
ATOM     25  C   UNL A   1      39.368  29.655  28.431  1.00  0.00     0.029 A 
ATOM     26  C   UNL A   1      40.577  29.165  29.071  1.00  0.00     0.049 A 
ATOM     27  H   UNL A   1      41.426  29.892  30.840  1.00  0.00     0.167 HD
ATOM     28  C   UNL A   1      42.422  30.630  35.143  1.00  0.00     0.031 A 
ATOM     29  C   UNL A   1      41.423  28.175  28.697  1.00  0.00     0.031 A 
ATOM     30  C   UNL A   1      43.430  31.357  34.421  1.00  0.00     0.049 A 
ATOM     31  C   UNL A   1      42.660  28.320  29.499  1.00  0.00     0.074 A 
ATOM     32  C   UNL A   1      43.671  32.696  34.189  1.00  0.00     0.029 A 
ATOM     33  N   UNL A   1      44.157  30.673  33.477  1.00  0.00    -0.354 N 
ATOM     34  N   UNL A   1      43.481  29.321  29.367  1.00  0.00    -0.248 NA
ATOM     35  C   UNL A   1      42.738  27.612  30.769  1.00  0.00     0.031 C 
ATOM     36  C   UNL A   1      44.118  32.758  32.836  1.00  0.00     0.029 A 
ATOM     37  C   UNL A   1      44.197  31.452  32.348  1.00  0.00     0.049 A 
ATOM     38  H   UNL A   1      44.574  29.788  33.590  1.00  0.00     0.167 HD
ATOM     39  C   UNL A   1      43.855  29.647  30.664  1.00  0.00     0.074 A 
ATOM     40  C   UNL A   1      43.442  28.502  31.475  1.00  0.00     0.031 C 
ATOM     41  C   UNL A   1      44.197  30.925  31.000  1.00  0.00     0.031 A 
BRANCH  28  42
ATOM     42  C   UNL A   1      42.741  29.473  36.051  1.00  0.00    -0.014 A 
ATOM     43  C   UNL A   1      43.933  29.487  36.793  1.00  0.00     0.009 A 
ATOM     44  C   UNL A   1      42.043  28.249  35.992  1.00  0.00     0.009 A 
ATOM     45  C   UNL A   1      44.427  28.321  37.394  1.00  0.00     0.001 A 
ATOM     46  C   UNL A   1      42.512  27.095  36.623  1.00  0.00     0.001 A 
ATOM     47  C   UNL A   1      43.718  27.126  37.304  1.00  0.00     0.000 A 
ENDBRANCH  28  42
BRANCH  29  48
ATOM     48  C   UNL A   1      41.096  26.938  27.955  1.00  0.00    -0.014 A 
ATOM     49  C   UNL A   1      40.218  25.986  28.494  1.00  0.00     0.009 A 
ATOM     50  C   UNL A   1      41.437  26.820  26.594  1.00  0.00     0.009 A 
ATOM     51  C   UNL A   1      39.673  24.975  27.690  1.00  0.00     0.001 A 
ATOM     52  C   UNL A   1      40.895  25.810  25.793  1.00  0.00     0.001 A 
ATOM     53  C   UNL A   1      40.002  24.896  26.339  1.00  0.00     0.000 A 
ENDBRANCH  29  48
BRANCH  41  54
ATOM     54  C   UNL A   1      44.340  31.934  29.883  1.00  0.00    -0.014 A 
ATOM     55  C   UNL A   1      45.529  32.106  29.150  1.00  0.00     0.009 A 
ATOM     56  C   UNL A   1      43.197  32.627  29.458  1.00  0.00     0.009 A 
ATOM     57  C   UNL A   1      45.578  32.969  28.048  1.00  0.00     0.001 A 
ATOM     58  C   UNL A   1      43.240  33.472  28.347  1.00  0.00     0.001 A 
ATOM     59  C   UNL A   1      44.431  33.649  27.646  1.00  0.00     0.000 A 
ENDBRANCH  41  54
ENDBRANCH  15  16
ENDBRANCH   8  10
ENDBRANCH   7   8
ENDBRANCH   6   7
ENDBRANCH   5   6
ENDBRANCH   4   5
ENDBRANCH   3   4
ENDBRANCH   2   3
ENDBRANCH   1   2
BRANCH   1  60
ATOM     60  C   UNL A   1      32.675  33.553  27.379  1.00  0.00     0.188 C 
BRANCH  60  61
ATOM     61  C   UNL A   1      31.677  32.419  27.061  1.00  0.00     0.188 C 
BRANCH  61  62
ATOM     62  O   UNL A   1      32.103  31.185  26.512  1.00  0.00    -0.376 OA
BRANCH  62  63
ATOM     63  C   UNL A   1      33.192  30.470  27.065  1.00  0.00     0.202 C 
BRANCH  63  64
ATOM     64  C   UNL A   1      33.703  29.159  26.442  1.00  0.00     0.261 C 
BRANCH  64  65
ATOM     65  O   UNL A   1      33.412  27.934  27.119  1.00  0.00    -0.458 OA
BRANCH  65  66
ATOM     66  C   UNL A   1      32.096  27.593  27.248  1.00  0.00     0.359 C 
ATOM     67  O   UNL A   1      31.380  27.919  28.190  1.00  0.00    -0.244 OA
BRANCH  66  68
ATOM     68  C   UNL A   1      31.599  26.882  26.062  1.00  0.00     0.175 A 
ATOM     69  N   UNL A   1      30.986  27.565  25.074  1.00  0.00    -0.165 NA
ATOM     70  C   UNL A   1      31.645  25.484  25.753  1.00  0.00     0.028 A 
ATOM     71  N   UNL A   1      30.702  26.645  24.132  1.00  0.00    -0.264 N 
ATOM     72  C   UNL A   1      31.064  25.387  24.503  1.00  0.00     0.046 A 
ATOM     73  C   UNL A   1      32.145  24.293  26.513  1.00  0.00     0.159 C 
ATOM     74  C   UNL A   1      30.945  24.134  23.714  1.00  0.00     0.078 C 
ATOM     75  N   UNL A   1      32.214  23.125  25.611  1.00  0.00    -0.337 N 
ATOM     76  C   UNL A   1      31.089  22.939  24.672  1.00  0.00     0.126 C 
BRANCH  71  77
ATOM     77  C   UNL A   1      30.235  27.090  22.825  1.00  0.00     0.180 C 
BRANCH  77  78
ATOM     78  C   UNL A   1      29.395  28.341  22.890  1.00  0.00    -0.026 A 
ATOM     79  C   UNL A   1      27.999  28.258  23.040  1.00  0.00     0.008 A 
ATOM     80  C   UNL A   1      30.001  29.608  22.872  1.00  0.00     0.008 A 
ATOM     81  C   UNL A   1      27.230  29.412  23.191  1.00  0.00     0.039 A 
ATOM     82  C   UNL A   1      29.230  30.761  23.025  1.00  0.00     0.039 A 
ATOM     83  C   UNL A   1      27.854  30.652  23.191  1.00  0.00     0.123 A 
ATOM     84  F   UNL A   1      27.121  31.761  23.360  1.00  0.00    -0.207 F 
ENDBRANCH  77  78
ENDBRANCH  71  77
BRANCH  75  85
ATOM     85  C   UNL A   1      33.258  22.226  25.769  1.00  0.00     0.232 C 
ATOM     86  O   UNL A   1      33.121  21.116  26.277  1.00  0.00    -0.274 OA
BRANCH  85  87
ATOM     87  C   UNL A   1      34.584  22.639  25.268  1.00  0.00     0.154 C 
ATOM     88  C   UNL A   1      35.409  21.659  24.445  1.00  0.00     0.097 C 
ATOM     89  C   UNL A   1      34.815  22.866  23.823  1.00  0.00     0.260 C 
ATOM     90  F   UNL A   1      33.843  22.711  22.865  1.00  0.00    -0.206 F 
ATOM     91  F   UNL A   1      35.658  23.867  23.393  1.00  0.00    -0.206 F 
ENDBRANCH  85  87
ENDBRANCH  75  85
ENDBRANCH  66  68
ENDBRANCH  65  66
ENDBRANCH  64  65
ENDBRANCH  63  64
ENDBRANCH  62  63
ENDBRANCH  61  62
ENDBRANCH  60  61
ENDBRANCH   1  60
TORSDOF 24
ENDMDL
