MODEL 1
REMARK VINA RESULT:      -7.3      0.000      0.000
REMARK SMILES Cc1ccc(S(=O)(=O)n2cc(C(=O)C(=O)N[C@@H](Cc3c[nH]c4ccccc34)C(=O)NCC(=O)OCCOCCOCCOCCOC(=O)c3ccc(-c4c5nc(c(-c6ccccc6)c6ccc([nH]6)c(-c6ccccc6)c6nc(c(-c7ccccc7)c7ccc4[nH]7)C=C6)C=C5)cc3)c3ccccc32)cc1
REMARK SMILES IDX 38 1 37 2 36 3 35 4 34 5 32 6 33 7 31 8 30 9 28 10 29 11
REMARK SMILES IDX 17 13 16 14 14 15 15 16 12 18 13 19 11 20 9 21 10 22 102 23
REMARK SMILES IDX 97 24 101 25 98 26 100 27 99 28 6 29 7 30 8 31 5 32 1 33
REMARK SMILES IDX 2 34 3 35 104 36 4 37 103 38 18 39 19 40 20 41 27 42 21 43
REMARK SMILES IDX 22 44 26 45 23 47 25 48 24 49 39 50 40 51 41 52 42 53 43 54
REMARK SMILES IDX 44 55 45 56 46 57 47 58 48 59 49 60 50 61 96 62 51 63 95 64
REMARK SMILES IDX 52 65 53 66 54 67 89 68 55 69 94 70 88 71 90 72 56 73 93 74
REMARK SMILES IDX 87 75 86 76 57 78 79 79 64 80 78 81 65 82 68 83 77 84 91 85
REMARK SMILES IDX 66 86 67 87 76 89 92 90 69 91 58 92 59 93 63 94 60 95 62 96
REMARK SMILES IDX 61 97 80 98 81 99 85 100 82 101 84 102 83 103 70 104 71 105
REMARK SMILES IDX 75 106 72 107 74 108 73 109
REMARK H PARENT 30 12 16 17 21 46 90 77 68 88
REMARK Flexibility Score: inf
ROOT
ATOM      1  C   UNL A   1      38.632  32.330  32.743  1.00  0.00     0.188 C 
ENDROOT
BRANCH   1   2
ATOM      2  O   UNL A   1      38.638  32.902  31.446  1.00  0.00    -0.376 OA
BRANCH   2   3
ATOM      3  C   UNL A   1      37.945  32.245  30.378  1.00  0.00     0.202 C 
BRANCH   3   4
ATOM      4  C   UNL A   1      38.408  30.850  29.916  1.00  0.00     0.261 C 
BRANCH   4   5
ATOM      5  O   UNL A   1      39.845  30.789  29.907  1.00  0.00    -0.462 OA
BRANCH   5   6
ATOM      6  C   UNL A   1      40.394  29.658  30.371  1.00  0.00     0.325 C 
ATOM      7  O   UNL A   1      39.869  28.914  31.198  1.00  0.00    -0.250 OA
BRANCH   6   8
ATOM      8  C   UNL A   1      41.749  29.373  29.754  1.00  0.00     0.238 C 
BRANCH   8   9
ATOM      9  N   UNL A   1      42.884  30.234  29.561  1.00  0.00    -0.343 N 
ATOM     10  C   UNL A   1      43.749  30.017  28.507  1.00  0.00     0.243 C 
ATOM     11  O   UNL A   1      44.094  30.985  27.824  1.00  0.00    -0.273 OA
ATOM     12  H   UNL A   1      43.045  30.981  30.182  1.00  0.00     0.164 HD
BRANCH  10  13
ATOM     13  C   UNL A   1      44.224  28.567  28.135  1.00  0.00     0.176 C 
BRANCH  13  14
ATOM     14  N   UNL A   1      44.913  28.561  26.820  1.00  0.00    -0.337 N 
ATOM     15  C   UNL A   1      44.537  28.058  25.578  1.00  0.00     0.293 C 
ATOM     16  O   UNL A   1      45.324  28.077  24.632  1.00  0.00    -0.265 OA
ATOM     17  H   UNL A   1      45.797  28.993  26.828  1.00  0.00     0.164 HD
BRANCH  15  18
ATOM     18  C   UNL A   1      43.128  27.511  25.325  1.00  0.00     0.252 C 
ATOM     19  O   UNL A   1      42.399  28.196  24.611  1.00  0.00    -0.283 OA
BRANCH  18  20
ATOM     20  C   UNL A   1      42.621  26.304  26.007  1.00  0.00     0.054 A 
ATOM     21  N   UNL A   1      42.235  24.258  26.911  1.00  0.00    -0.240 N 
ATOM     22  C   UNL A   1      42.956  24.940  25.923  1.00  0.00     0.117 A 
ATOM     23  C   UNL A   1      41.584  25.239  27.686  1.00  0.00     0.065 A 
ATOM     24  C   UNL A   1      41.487  26.353  26.862  1.00  0.00     0.012 A 
ATOM     25  C   UNL A   1      40.805  25.121  28.852  1.00  0.00     0.028 A 
ATOM     26  C   UNL A   1      40.425  27.256  27.064  1.00  0.00     0.011 A 
ATOM     27  C   UNL A   1      39.706  25.967  28.980  1.00  0.00     0.002 A 
ATOM     28  C   UNL A   1      39.488  26.991  28.067  1.00  0.00     0.001 A 
BRANCH  21  29
ATOM     29  S   UNL A   1      41.214  22.844  26.758  1.00  0.00     0.268 S 
ATOM     30  O   UNL A   1      41.204  22.309  28.109  1.00  0.00    -0.201 OA
ATOM     31  O   UNL A   1      41.898  22.143  25.675  1.00  0.00    -0.201 OA
BRANCH  29  32
ATOM     32  C   UNL A   1      39.555  22.660  26.211  1.00  0.00     0.088 A 
ATOM     33  C   UNL A   1      35.310  23.178  25.537  1.00  0.00     0.044 C 
ATOM     34  C   UNL A   1      36.791  22.976  25.696  1.00  0.00    -0.051 A 
ATOM     35  C   UNL A   1      37.531  24.067  26.118  1.00  0.00     0.005 A 
ATOM     36  C   UNL A   1      37.451  21.741  25.494  1.00  0.00     0.005 A 
ATOM     37  C   UNL A   1      38.883  23.908  26.351  1.00  0.00     0.022 A 
ATOM     38  C   UNL A   1      38.841  21.569  25.756  1.00  0.00     0.022 A 
ENDBRANCH  29  32
ENDBRANCH  21  29
ENDBRANCH  18  20
ENDBRANCH  15  18
ENDBRANCH  13  14
BRANCH  13  39
ATOM     39  C   UNL A   1      44.913  27.721  29.300  1.00  0.00     0.072 C 
BRANCH  39  40
ATOM     40  C   UNL A   1      45.405  26.298  29.055  1.00  0.00    -0.020 A 
ATOM     41  C   UNL A   1      45.855  25.747  27.859  1.00  0.00     0.087 A 
ATOM     42  C   UNL A   1      45.311  25.204  29.978  1.00  0.00     0.003 A 
ATOM     43  N   UNL A   1      45.774  24.370  27.963  1.00  0.00    -0.361 N 
ATOM     44  C   UNL A   1      45.215  24.060  29.183  1.00  0.00     0.046 A 
ATOM     45  C   UNL A   1      44.912  25.144  31.323  1.00  0.00     0.010 A 
ATOM     46  H   UNL A   1      46.066  23.723  27.282  1.00  0.00     0.166 HD
ATOM     47  C   UNL A   1      44.449  22.962  29.557  1.00  0.00     0.026 A 
ATOM     48  C   UNL A   1      44.004  24.147  31.649  1.00  0.00     0.001 A 
ATOM     49  C   UNL A   1      43.716  23.157  30.723  1.00  0.00     0.002 A 
ENDBRANCH  39  40
ENDBRANCH  13  39
ENDBRANCH  10  13
ENDBRANCH   8   9
ENDBRANCH   6   8
ENDBRANCH   5   6
ENDBRANCH   4   5
ENDBRANCH   3   4
ENDBRANCH   2   3
ENDBRANCH   1   2
BRANCH   1  50
ATOM     50  C   UNL A   1      39.920  32.279  33.568  1.00  0.00     0.188 C 
BRANCH  50  51
ATOM     51  O   UNL A   1      40.870  33.286  33.229  1.00  0.00    -0.377 OA
BRANCH  51  52
ATOM     52  C   UNL A   1      41.836  32.825  32.274  1.00  0.00     0.188 C 
BRANCH  52  53
ATOM     53  C   UNL A   1      42.974  32.104  32.980  1.00  0.00     0.188 C 
BRANCH  53  54
ATOM     54  O   UNL A   1      43.331  30.819  32.480  1.00  0.00    -0.376 OA
BRANCH  54  55
ATOM     55  C   UNL A   1      43.248  29.683  33.337  1.00  0.00     0.202 C 
BRANCH  55  56
ATOM     56  C   UNL A   1      41.950  29.529  34.134  1.00  0.00     0.261 C 
BRANCH  56  57
ATOM     57  O   UNL A   1      42.127  28.515  35.138  1.00  0.00    -0.460 OA
BRANCH  57  58
ATOM     58  C   UNL A   1      41.643  27.295  34.816  1.00  0.00     0.338 C 
ATOM     59  O   UNL A   1      40.707  27.087  34.032  1.00  0.00    -0.246 OA
BRANCH  58  60
ATOM     60  C   UNL A   1      42.137  26.283  35.787  1.00  0.00     0.060 A 
ATOM     61  C   UNL A   1      42.826  26.724  36.930  1.00  0.00     0.016 A 
ATOM     62  C   UNL A   1      42.283  24.967  35.354  1.00  0.00     0.016 A 
ATOM     63  C   UNL A   1      43.818  25.920  37.504  1.00  0.00     0.010 A 
ATOM     64  C   UNL A   1      43.339  24.229  35.850  1.00  0.00     0.010 A 
ATOM     65  C   UNL A   1      44.162  24.720  36.881  1.00  0.00    -0.014 A 
BRANCH  65  66
ATOM     66  C   UNL A   1      45.501  24.095  36.964  1.00  0.00     0.031 A 
ATOM     67  C   UNL A   1      45.869  23.213  38.135  1.00  0.00     0.074 A 
ATOM     68  C   UNL A   1      46.197  23.995  35.804  1.00  0.00     0.049 A 
ATOM     69  N   UNL A   1      46.932  22.479  38.225  1.00  0.00    -0.248 NA
ATOM     70  C   UNL A   1      45.053  23.126  39.350  1.00  0.00     0.031 C 
ATOM     71  C   UNL A   1      46.944  22.821  35.398  1.00  0.00     0.029 A 
ATOM     72  N   UNL A   1      46.300  24.789  34.678  1.00  0.00    -0.354 N 
ATOM     73  C   UNL A   1      46.844  21.695  39.364  1.00  0.00     0.074 A 
ATOM     74  C   UNL A   1      45.659  22.154  40.040  1.00  0.00     0.031 C 
ATOM     75  C   UNL A   1      47.525  22.983  34.208  1.00  0.00     0.029 A 
ATOM     76  C   UNL A   1      47.378  24.362  33.881  1.00  0.00     0.049 A 
ATOM     77  H   UNL A   1      45.706  25.544  34.466  1.00  0.00     0.167 HD
ATOM     78  C   UNL A   1      47.749  20.704  39.607  1.00  0.00     0.031 A 
ATOM     79  C   UNL A   1      48.471  25.152  33.703  1.00  0.00     0.031 A 
ATOM     80  C   UNL A   1      48.951  20.801  38.764  1.00  0.00     0.049 A 
ATOM     81  C   UNL A   1      49.697  24.743  34.526  1.00  0.00     0.074 A 
ATOM     82  C   UNL A   1      49.801  19.875  38.192  1.00  0.00     0.029 A 
ATOM     83  N   UNL A   1      49.435  22.058  38.359  1.00  0.00    -0.354 N 
ATOM     84  N   UNL A   1      49.705  23.896  35.542  1.00  0.00    -0.248 NA
ATOM     85  C   UNL A   1      51.034  25.244  34.222  1.00  0.00     0.031 C 
ATOM     86  C   UNL A   1      50.868  20.588  37.611  1.00  0.00     0.029 A 
ATOM     87  C   UNL A   1      50.561  21.938  37.587  1.00  0.00     0.049 A 
ATOM     88  H   UNL A   1      49.017  22.916  38.601  1.00  0.00     0.167 HD
ATOM     89  C   UNL A   1      50.984  23.798  36.054  1.00  0.00     0.074 A 
ATOM     90  C   UNL A   1      51.776  24.619  35.151  1.00  0.00     0.031 C 
ATOM     91  C   UNL A   1      51.367  23.078  37.162  1.00  0.00     0.031 A 
BRANCH  78  92
ATOM     92  C   UNL A   1      47.530  19.520  40.571  1.00  0.00    -0.014 A 
ATOM     93  C   UNL A   1      48.534  19.155  41.497  1.00  0.00     0.009 A 
ATOM     94  C   UNL A   1      46.435  18.637  40.526  1.00  0.00     0.009 A 
ATOM     95  C   UNL A   1      48.506  17.962  42.240  1.00  0.00     0.001 A 
ATOM     96  C   UNL A   1      46.361  17.474  41.321  1.00  0.00     0.001 A 
ATOM     97  C   UNL A   1      47.412  17.117  42.154  1.00  0.00     0.000 A 
ENDBRANCH  78  92
BRANCH  79  98
ATOM     98  C   UNL A   1      48.043  26.431  33.042  1.00  0.00    -0.014 A 
ATOM     99  C   UNL A   1      48.286  27.571  33.848  1.00  0.00     0.009 A 
ATOM    100  C   UNL A   1      48.255  26.560  31.657  1.00  0.00     0.009 A 
ATOM    101  C   UNL A   1      49.033  28.648  33.354  1.00  0.00     0.001 A 
ATOM    102  C   UNL A   1      48.991  27.654  31.164  1.00  0.00     0.001 A 
ATOM    103  C   UNL A   1      49.437  28.659  32.024  1.00  0.00     0.000 A 
ENDBRANCH  79  98
BRANCH  91 104
ATOM    104  C   UNL A   1      52.672  23.275  37.936  1.00  0.00    -0.014 A 
ATOM    105  C   UNL A   1      53.884  23.673  37.366  1.00  0.00     0.009 A 
ATOM    106  C   UNL A   1      52.667  23.190  39.353  1.00  0.00     0.009 A 
ATOM    107  C   UNL A   1      55.037  23.858  38.143  1.00  0.00     0.001 A 
ATOM    108  C   UNL A   1      53.804  23.388  40.137  1.00  0.00     0.001 A 
ATOM    109  C   UNL A   1      55.001  23.704  39.525  1.00  0.00     0.000 A 
ENDBRANCH  91 104
ENDBRANCH  65  66
ENDBRANCH  58  60
ENDBRANCH  57  58
ENDBRANCH  56  57
ENDBRANCH  55  56
ENDBRANCH  54  55
ENDBRANCH  53  54
ENDBRANCH  52  53
ENDBRANCH  51  52
ENDBRANCH  50  51
ENDBRANCH   1  50
TORSDOF 29
ENDMDL
MODEL 2
REMARK VINA RESULT:      -7.3      5.346     11.582
REMARK SMILES Cc1ccc(S(=O)(=O)n2cc(C(=O)C(=O)N[C@@H](Cc3c[nH]c4ccccc34)C(=O)NCC(=O)OCCOCCOCCOCCOC(=O)c3ccc(-c4c5nc(c(-c6ccccc6)c6ccc([nH]6)c(-c6ccccc6)c6nc(c(-c7ccccc7)c7ccc4[nH]7)C=C6)C=C5)cc3)c3ccccc32)cc1
REMARK SMILES IDX 38 1 37 2 36 3 35 4 34 5 32 6 33 7 31 8 30 9 28 10 29 11
REMARK SMILES IDX 17 13 16 14 14 15 15 16 12 18 13 19 11 20 9 21 10 22 102 23
REMARK SMILES IDX 97 24 101 25 98 26 100 27 99 28 6 29 7 30 8 31 5 32 1 33
REMARK SMILES IDX 2 34 3 35 104 36 4 37 103 38 18 39 19 40 20 41 27 42 21 43
REMARK SMILES IDX 22 44 26 45 23 47 25 48 24 49 39 50 40 51 41 52 42 53 43 54
REMARK SMILES IDX 44 55 45 56 46 57 47 58 48 59 49 60 50 61 96 62 51 63 95 64
REMARK SMILES IDX 52 65 53 66 54 67 89 68 55 69 94 70 88 71 90 72 56 73 93 74
REMARK SMILES IDX 87 75 86 76 57 78 79 79 64 80 78 81 65 82 68 83 77 84 91 85
REMARK SMILES IDX 66 86 67 87 76 89 92 90 69 91 58 92 59 93 63 94 60 95 62 96
REMARK SMILES IDX 61 97 80 98 81 99 85 100 82 101 84 102 83 103 70 104 71 105
REMARK SMILES IDX 75 106 72 107 74 108 73 109
REMARK H PARENT 30 12 16 17 21 46 90 77 68 88
REMARK Flexibility Score: inf
ROOT
ATOM      1  C   UNL A   1      35.322  35.209  32.593  1.00  0.00     0.188 C 
ENDROOT
BRANCH   1   2
ATOM      2  O   UNL A   1      36.204  35.227  33.703  1.00  0.00    -0.376 OA
BRANCH   2   3
ATOM      3  C   UNL A   1      37.256  34.260  33.789  1.00  0.00     0.202 C 
BRANCH   3   4
ATOM      4  C   UNL A   1      36.927  32.813  34.204  1.00  0.00     0.261 C 
BRANCH   4   5
ATOM      5  O   UNL A   1      36.458  32.070  33.065  1.00  0.00    -0.462 OA
BRANCH   5   6
ATOM      6  C   UNL A   1      37.138  30.956  32.762  1.00  0.00     0.325 C 
ATOM      7  O   UNL A   1      36.644  29.830  32.706  1.00  0.00    -0.250 OA
BRANCH   6   8
ATOM      8  C   UNL A   1      38.601  31.225  32.477  1.00  0.00     0.238 C 
BRANCH   8   9
ATOM      9  N   UNL A   1      39.784  30.633  33.040  1.00  0.00    -0.343 N 
ATOM     10  C   UNL A   1      40.593  31.366  33.885  1.00  0.00     0.243 C 
ATOM     11  O   UNL A   1      40.977  30.837  34.932  1.00  0.00    -0.273 OA
ATOM     12  H   UNL A   1      40.018  29.702  32.822  1.00  0.00     0.164 HD
BRANCH  10  13
ATOM     13  C   UNL A   1      40.954  32.861  33.565  1.00  0.00     0.176 C 
BRANCH  13  14
ATOM     14  N   UNL A   1      41.381  33.573  34.797  1.00  0.00    -0.337 N 
ATOM     15  C   UNL A   1      42.642  33.866  35.309  1.00  0.00     0.293 C 
ATOM     16  O   UNL A   1      42.761  34.386  36.416  1.00  0.00    -0.265 OA
ATOM     17  H   UNL A   1      40.636  33.896  35.352  1.00  0.00     0.164 HD
BRANCH  15  18
ATOM     18  C   UNL A   1      43.918  33.601  34.501  1.00  0.00     0.252 C 
ATOM     19  O   UNL A   1      44.481  34.589  34.036  1.00  0.00    -0.283 OA
BRANCH  18  20
ATOM     20  C   UNL A   1      44.374  32.234  34.182  1.00  0.00     0.054 A 
ATOM     21  N   UNL A   1      45.182  30.313  33.281  1.00  0.00    -0.240 N 
ATOM     22  C   UNL A   1      44.644  31.569  32.971  1.00  0.00     0.117 A 
ATOM     23  C   UNL A   1      45.375  30.290  34.678  1.00  0.00     0.065 A 
ATOM     24  C   UNL A   1      44.494  31.236  35.186  1.00  0.00     0.012 A 
ATOM     25  C   UNL A   1      45.965  29.318  35.507  1.00  0.00     0.028 A 
ATOM     26  C   UNL A   1      43.999  31.067  36.494  1.00  0.00     0.011 A 
ATOM     27  C   UNL A   1      45.393  29.110  36.760  1.00  0.00     0.002 A 
ATOM     28  C   UNL A   1      44.386  29.943  37.229  1.00  0.00     0.001 A 
BRANCH  21  29
ATOM     29  S   UNL A   1      44.690  28.729  32.720  1.00  0.00     0.268 S 
ATOM     30  O   UNL A   1      45.890  28.234  32.068  1.00  0.00    -0.201 OA
ATOM     31  O   UNL A   1      43.503  29.083  31.946  1.00  0.00    -0.201 OA
BRANCH  29  32
ATOM     32  C   UNL A   1      44.061  27.334  33.580  1.00  0.00     0.088 A 
ATOM     33  C   UNL A   1      43.161  23.306  34.890  1.00  0.00     0.044 C 
ATOM     34  C   UNL A   1      43.475  24.726  34.511  1.00  0.00    -0.051 A 
ATOM     35  C   UNL A   1      44.617  24.936  33.758  1.00  0.00     0.005 A 
ATOM     36  C   UNL A   1      42.654  25.835  34.828  1.00  0.00     0.005 A 
ATOM     37  C   UNL A   1      44.905  26.215  33.323  1.00  0.00     0.022 A 
ATOM     38  C   UNL A   1      42.936  27.150  34.360  1.00  0.00     0.022 A 
ENDBRANCH  29  32
ENDBRANCH  21  29
ENDBRANCH  18  20
ENDBRANCH  15  18
ENDBRANCH  13  14
BRANCH  13  39
ATOM     39  C   UNL A   1      41.831  33.119  32.257  1.00  0.00     0.072 C 
BRANCH  39  40
ATOM     40  C   UNL A   1      41.387  34.121  31.197  1.00  0.00    -0.020 A 
ATOM     41  C   UNL A   1      40.134  34.234  30.602  1.00  0.00     0.087 A 
ATOM     42  C   UNL A   1      42.244  35.016  30.472  1.00  0.00     0.003 A 
ATOM     43  N   UNL A   1      40.280  34.937  29.420  1.00  0.00    -0.361 N 
ATOM     44  C   UNL A   1      41.620  35.203  29.238  1.00  0.00     0.046 A 
ATOM     45  C   UNL A   1      43.608  35.323  30.608  1.00  0.00     0.010 A 
ATOM     46  H   UNL A   1      39.553  35.201  28.813  1.00  0.00     0.166 HD
ATOM     47  C   UNL A   1      42.341  35.369  28.061  1.00  0.00     0.026 A 
ATOM     48  C   UNL A   1      44.359  35.311  29.442  1.00  0.00     0.001 A 
ATOM     49  C   UNL A   1      43.715  35.220  28.218  1.00  0.00     0.002 A 
ENDBRANCH  39  40
ENDBRANCH  13  39
ENDBRANCH  10  13
ENDBRANCH   8   9
ENDBRANCH   6   8
ENDBRANCH   5   6
ENDBRANCH   4   5
ENDBRANCH   3   4
ENDBRANCH   2   3
ENDBRANCH   1   2
BRANCH   1  50
ATOM     50  C   UNL A   1      33.956  34.531  32.705  1.00  0.00     0.188 C 
BRANCH  50  51
ATOM     51  O   UNL A   1      33.094  34.767  31.594  1.00  0.00    -0.377 OA
BRANCH  51  52
ATOM     52  C   UNL A   1      33.802  35.270  30.452  1.00  0.00     0.188 C 
BRANCH  52  53
ATOM     53  C   UNL A   1      33.769  34.254  29.320  1.00  0.00     0.188 C 
BRANCH  53  54
ATOM     54  O   UNL A   1      33.819  32.879  29.686  1.00  0.00    -0.376 OA
BRANCH  54  55
ATOM     55  C   UNL A   1      35.083  32.233  29.820  1.00  0.00     0.202 C 
BRANCH  55  56
ATOM     56  C   UNL A   1      35.375  31.104  28.828  1.00  0.00     0.261 C 
BRANCH  56  57
ATOM     57  O   UNL A   1      36.418  30.267  29.355  1.00  0.00    -0.460 OA
BRANCH  57  58
ATOM     58  C   UNL A   1      37.317  29.827  28.447  1.00  0.00     0.338 C 
ATOM     59  O   UNL A   1      37.045  29.479  27.289  1.00  0.00    -0.246 OA
BRANCH  58  60
ATOM     60  C   UNL A   1      38.592  29.479  29.126  1.00  0.00     0.060 A 
ATOM     61  C   UNL A   1      39.476  30.515  29.474  1.00  0.00     0.016 A 
ATOM     62  C   UNL A   1      39.064  28.172  29.020  1.00  0.00     0.016 A 
ATOM     63  C   UNL A   1      40.856  30.280  29.502  1.00  0.00     0.010 A 
ATOM     64  C   UNL A   1      40.428  27.974  28.933  1.00  0.00     0.010 A 
ATOM     65  C   UNL A   1      41.339  29.032  29.103  1.00  0.00    -0.014 A 
BRANCH  65  66
ATOM     66  C   UNL A   1      42.674  28.812  28.505  1.00  0.00     0.031 A 
ATOM     67  C   UNL A   1      43.539  29.981  28.094  1.00  0.00     0.074 A 
ATOM     68  C   UNL A   1      43.244  27.600  28.724  1.00  0.00     0.049 A 
ATOM     69  N   UNL A   1      44.780  29.915  27.732  1.00  0.00    -0.248 NA
ATOM     70  C   UNL A   1      43.032  31.355  28.022  1.00  0.00     0.031 C 
ATOM     71  C   UNL A   1      44.639  27.404  29.067  1.00  0.00     0.029 A 
ATOM     72  N   UNL A   1      42.748  26.317  28.846  1.00  0.00    -0.354 N 
ATOM     73  C   UNL A   1      45.277  31.200  27.588  1.00  0.00     0.074 A 
ATOM     74  C   UNL A   1      44.138  32.061  27.762  1.00  0.00     0.031 C 
ATOM     75  C   UNL A   1      44.936  26.115  29.242  1.00  0.00     0.029 A 
ATOM     76  C   UNL A   1      43.800  25.384  28.789  1.00  0.00     0.049 A 
ATOM     77  H   UNL A   1      41.797  26.089  28.955  1.00  0.00     0.167 HD
ATOM     78  C   UNL A   1      46.608  31.420  27.381  1.00  0.00     0.031 A 
ATOM     79  C   UNL A   1      43.905  24.512  27.751  1.00  0.00     0.031 A 
ATOM     80  C   UNL A   1      47.340  30.203  26.993  1.00  0.00     0.049 A 
ATOM     81  C   UNL A   1      44.973  24.877  26.715  1.00  0.00     0.074 A 
ATOM     82  C   UNL A   1      48.618  29.735  27.229  1.00  0.00     0.029 A 
ATOM     83  N   UNL A   1      46.706  29.205  26.232  1.00  0.00    -0.354 N 
ATOM     84  N   UNL A   1      45.586  26.044  26.608  1.00  0.00    -0.248 NA
ATOM     85  C   UNL A   1      45.462  23.911  25.736  1.00  0.00     0.031 C 
ATOM     86  C   UNL A   1      48.782  28.563  26.464  1.00  0.00     0.029 A 
ATOM     87  C   UNL A   1      47.552  28.160  25.970  1.00  0.00     0.049 A 
ATOM     88  H   UNL A   1      45.772  29.253  25.926  1.00  0.00     0.167 HD
ATOM     89  C   UNL A   1      46.463  26.011  25.541  1.00  0.00     0.074 A 
ATOM     90  C   UNL A   1      46.380  24.635  25.075  1.00  0.00     0.031 C 
ATOM     91  C   UNL A   1      47.215  27.061  25.070  1.00  0.00     0.031 A 
BRANCH  78  92
ATOM     92  C   UNL A   1      47.334  32.758  27.628  1.00  0.00    -0.014 A 
ATOM     93  C   UNL A   1      47.519  33.240  28.944  1.00  0.00     0.009 A 
ATOM     94  C   UNL A   1      47.729  33.659  26.621  1.00  0.00     0.009 A 
ATOM     95  C   UNL A   1      47.959  34.542  29.238  1.00  0.00     0.001 A 
ATOM     96  C   UNL A   1      48.241  34.942  26.905  1.00  0.00     0.001 A 
ATOM     97  C   UNL A   1      48.325  35.398  28.213  1.00  0.00     0.000 A 
ENDBRANCH  78  92
BRANCH  79  98
ATOM     98  C   UNL A   1      42.679  23.646  27.718  1.00  0.00    -0.014 A 
ATOM     99  C   UNL A   1      41.973  23.745  26.492  1.00  0.00     0.009 A 
ATOM    100  C   UNL A   1      42.750  22.377  28.323  1.00  0.00     0.009 A 
ATOM    101  C   UNL A   1      41.674  22.599  25.746  1.00  0.00     0.001 A 
ATOM    102  C   UNL A   1      42.431  21.230  27.573  1.00  0.00     0.001 A 
ATOM    103  C   UNL A   1      41.960  21.341  26.264  1.00  0.00     0.000 A 
ENDBRANCH  79  98
BRANCH  91 104
ATOM    104  C   UNL A   1      47.873  27.128  23.690  1.00  0.00    -0.014 A 
ATOM    105  C   UNL A   1      48.803  26.205  23.204  1.00  0.00     0.009 A 
ATOM    106  C   UNL A   1      47.439  28.102  22.752  1.00  0.00     0.009 A 
ATOM    107  C   UNL A   1      49.347  26.316  21.916  1.00  0.00     0.001 A 
ATOM    108  C   UNL A   1      47.961  28.212  21.463  1.00  0.00     0.001 A 
ATOM    109  C   UNL A   1      48.936  27.325  21.050  1.00  0.00     0.000 A 
ENDBRANCH  91 104
ENDBRANCH  65  66
ENDBRANCH  58  60
ENDBRANCH  57  58
ENDBRANCH  56  57
ENDBRANCH  55  56
ENDBRANCH  54  55
ENDBRANCH  53  54
ENDBRANCH  52  53
ENDBRANCH  51  52
ENDBRANCH  50  51
ENDBRANCH   1  50
TORSDOF 29
ENDMDL
MODEL 3
REMARK VINA RESULT:      -7.1      4.286     11.091
REMARK SMILES Cc1ccc(S(=O)(=O)n2cc(C(=O)C(=O)N[C@@H](Cc3c[nH]c4ccccc34)C(=O)NCC(=O)OCCOCCOCCOCCOC(=O)c3ccc(-c4c5nc(c(-c6ccccc6)c6ccc([nH]6)c(-c6ccccc6)c6nc(c(-c7ccccc7)c7ccc4[nH]7)C=C6)C=C5)cc3)c3ccccc32)cc1
REMARK SMILES IDX 38 1 37 2 36 3 35 4 34 5 32 6 33 7 31 8 30 9 28 10 29 11
REMARK SMILES IDX 17 13 16 14 14 15 15 16 12 18 13 19 11 20 9 21 10 22 102 23
REMARK SMILES IDX 97 24 101 25 98 26 100 27 99 28 6 29 7 30 8 31 5 32 1 33
REMARK SMILES IDX 2 34 3 35 104 36 4 37 103 38 18 39 19 40 20 41 27 42 21 43
REMARK SMILES IDX 22 44 26 45 23 47 25 48 24 49 39 50 40 51 41 52 42 53 43 54
REMARK SMILES IDX 44 55 45 56 46 57 47 58 48 59 49 60 50 61 96 62 51 63 95 64
REMARK SMILES IDX 52 65 53 66 54 67 89 68 55 69 94 70 88 71 90 72 56 73 93 74
REMARK SMILES IDX 87 75 86 76 57 78 79 79 64 80 78 81 65 82 68 83 77 84 91 85
REMARK SMILES IDX 66 86 67 87 76 89 92 90 69 91 58 92 59 93 63 94 60 95 62 96
REMARK SMILES IDX 61 97 80 98 81 99 85 100 82 101 84 102 83 103 70 104 71 105
REMARK SMILES IDX 75 106 72 107 74 108 73 109
REMARK H PARENT 30 12 16 17 21 46 90 77 68 88
REMARK Flexibility Score: inf
ROOT
ATOM      1  C   UNL A   1      35.632  34.933  33.000  1.00  0.00     0.188 C 
ENDROOT
BRANCH   1   2
ATOM      2  O   UNL A   1      36.555  34.859  34.073  1.00  0.00    -0.376 OA
BRANCH   2   3
ATOM      3  C   UNL A   1      37.580  33.860  34.059  1.00  0.00     0.202 C 
BRANCH   3   4
ATOM      4  C   UNL A   1      37.260  32.436  34.553  1.00  0.00     0.261 C 
BRANCH   4   5
ATOM      5  O   UNL A   1      36.788  31.632  33.457  1.00  0.00    -0.462 OA
BRANCH   5   6
ATOM      6  C   UNL A   1      37.419  30.466  33.260  1.00  0.00     0.325 C 
ATOM      7  O   UNL A   1      36.861  29.412  32.959  1.00  0.00    -0.250 OA
BRANCH   6   8
ATOM      8  C   UNL A   1      38.920  30.580  33.435  1.00  0.00     0.238 C 
BRANCH   8   9
ATOM      9  N   UNL A   1      39.891  29.588  33.811  1.00  0.00    -0.343 N 
ATOM     10  C   UNL A   1      40.667  29.770  34.938  1.00  0.00     0.243 C 
ATOM     11  O   UNL A   1      40.796  28.822  35.718  1.00  0.00    -0.273 OA
ATOM     12  H   UNL A   1      40.002  28.778  33.264  1.00  0.00     0.164 HD
BRANCH  10  13
ATOM     13  C   UNL A   1      41.309  31.165  35.263  1.00  0.00     0.176 C 
BRANCH  13  14
ATOM     14  N   UNL A   1      41.642  31.267  36.707  1.00  0.00    -0.337 N 
ATOM     15  C   UNL A   1      42.822  31.032  37.406  1.00  0.00     0.293 C 
ATOM     16  O   UNL A   1      42.842  31.083  38.634  1.00  0.00    -0.265 OA
ATOM     17  H   UNL A   1      40.890  31.553  37.273  1.00  0.00     0.164 HD
BRANCH  15  18
ATOM     18  C   UNL A   1      44.143  30.752  36.680  1.00  0.00     0.252 C 
ATOM     19  O   UNL A   1      44.842  31.730  36.426  1.00  0.00    -0.283 OA
BRANCH  18  20
ATOM     20  C   UNL A   1      44.499  29.405  36.190  1.00  0.00     0.054 A 
ATOM     21  N   UNL A   1      44.976  27.518  35.021  1.00  0.00    -0.240 N 
ATOM     22  C   UNL A   1      44.304  28.746  34.962  1.00  0.00     0.117 A 
ATOM     23  C   UNL A   1      45.700  27.512  36.231  1.00  0.00     0.065 A 
ATOM     24  C   UNL A   1      45.045  28.419  37.055  1.00  0.00     0.012 A 
ATOM     25  C   UNL A   1      46.609  26.573  36.753  1.00  0.00     0.028 A 
ATOM     26  C   UNL A   1      45.108  28.236  38.450  1.00  0.00     0.011 A 
ATOM     27  C   UNL A   1      46.582  26.346  38.127  1.00  0.00     0.002 A 
ATOM     28  C   UNL A   1      45.801  27.134  38.961  1.00  0.00     0.001 A 
BRANCH  21  29
ATOM     29  S   UNL A   1      44.375  25.911  34.677  1.00  0.00     0.268 S 
ATOM     30  O   UNL A   1      43.779  26.067  33.360  1.00  0.00    -0.201 OA
ATOM     31  O   UNL A   1      43.545  25.683  35.856  1.00  0.00    -0.201 OA
BRANCH  29  32
ATOM     32  C   UNL A   1      45.187  24.356  34.598  1.00  0.00     0.088 A 
ATOM     33  C   UNL A   1      46.197  20.160  34.951  1.00  0.00     0.044 C 
ATOM     34  C   UNL A   1      45.881  21.617  34.758  1.00  0.00    -0.051 A 
ATOM     35  C   UNL A   1      44.548  21.984  34.823  1.00  0.00     0.005 A 
ATOM     36  C   UNL A   1      46.857  22.625  34.570  1.00  0.00     0.005 A 
ATOM     37  C   UNL A   1      44.217  23.322  34.726  1.00  0.00     0.022 A 
ATOM     38  C   UNL A   1      46.520  24.007  34.495  1.00  0.00     0.022 A 
ENDBRANCH  29  32
ENDBRANCH  21  29
ENDBRANCH  18  20
ENDBRANCH  15  18
ENDBRANCH  13  14
BRANCH  13  39
ATOM     39  C   UNL A   1      42.415  31.697  34.242  1.00  0.00     0.072 C 
BRANCH  39  40
ATOM     40  C   UNL A   1      42.181  32.956  33.413  1.00  0.00    -0.020 A 
ATOM     41  C   UNL A   1      42.229  34.279  33.841  1.00  0.00     0.087 A 
ATOM     42  C   UNL A   1      41.675  32.998  32.071  1.00  0.00     0.003 A 
ATOM     43  N   UNL A   1      41.538  35.052  32.927  1.00  0.00    -0.361 N 
ATOM     44  C   UNL A   1      41.001  34.217  31.971  1.00  0.00     0.046 A 
ATOM     45  C   UNL A   1      41.404  31.984  31.139  1.00  0.00     0.010 A 
ATOM     46  H   UNL A   1      41.444  36.031  32.954  1.00  0.00     0.166 HD
ATOM     47  C   UNL A   1      39.852  34.367  31.203  1.00  0.00     0.026 A 
ATOM     48  C   UNL A   1      40.172  32.046  30.504  1.00  0.00     0.001 A 
ATOM     49  C   UNL A   1      39.388  33.180  30.647  1.00  0.00     0.002 A 
ENDBRANCH  39  40
ENDBRANCH  13  39
ENDBRANCH  10  13
ENDBRANCH   8   9
ENDBRANCH   6   8
ENDBRANCH   5   6
ENDBRANCH   4   5
ENDBRANCH   3   4
ENDBRANCH   2   3
ENDBRANCH   1   2
BRANCH   1  50
ATOM     50  C   UNL A   1      34.219  34.369  33.158  1.00  0.00     0.188 C 
BRANCH  50  51
ATOM     51  O   UNL A   1      33.408  34.488  31.992  1.00  0.00    -0.377 OA
BRANCH  51  52
ATOM     52  C   UNL A   1      34.171  34.850  30.832  1.00  0.00     0.188 C 
BRANCH  52  53
ATOM     53  C   UNL A   1      34.289  33.665  29.887  1.00  0.00     0.188 C 
BRANCH  53  54
ATOM     54  O   UNL A   1      34.491  32.385  30.479  1.00  0.00    -0.376 OA
BRANCH  54  55
ATOM     55  C   UNL A   1      35.758  31.743  30.351  1.00  0.00     0.202 C 
BRANCH  55  56
ATOM     56  C   UNL A   1      35.834  30.591  29.345  1.00  0.00     0.261 C 
BRANCH  56  57
ATOM     57  O   UNL A   1      36.981  29.777  29.642  1.00  0.00    -0.460 OA
BRANCH  57  58
ATOM     58  C   UNL A   1      37.722  29.414  28.571  1.00  0.00     0.338 C 
ATOM     59  O   UNL A   1      37.429  29.653  27.391  1.00  0.00    -0.246 OA
BRANCH  58  60
ATOM     60  C   UNL A   1      38.726  28.395  28.974  1.00  0.00     0.060 A 
ATOM     61  C   UNL A   1      39.593  28.686  30.042  1.00  0.00     0.016 A 
ATOM     62  C   UNL A   1      39.064  27.400  28.058  1.00  0.00     0.016 A 
ATOM     63  C   UNL A   1      40.882  28.142  30.067  1.00  0.00     0.010 A 
ATOM     64  C   UNL A   1      40.372  26.960  28.025  1.00  0.00     0.010 A 
ATOM     65  C   UNL A   1      41.315  27.375  28.983  1.00  0.00    -0.014 A 
BRANCH  65  66
ATOM     66  C   UNL A   1      42.729  27.255  28.564  1.00  0.00     0.031 A 
ATOM     67  C   UNL A   1      43.675  28.426  28.694  1.00  0.00     0.074 A 
ATOM     68  C   UNL A   1      43.228  25.997  28.467  1.00  0.00     0.049 A 
ATOM     69  N   UNL A   1      44.959  28.386  28.530  1.00  0.00    -0.248 NA
ATOM     70  C   UNL A   1      43.216  29.787  28.990  1.00  0.00     0.031 C 
ATOM     71  C   UNL A   1      44.538  25.599  28.944  1.00  0.00     0.029 A 
ATOM     72  N   UNL A   1      42.693  24.781  28.089  1.00  0.00    -0.354 N 
ATOM     73  C   UNL A   1      45.499  29.609  28.888  1.00  0.00     0.074 A 
ATOM     74  C   UNL A   1      44.364  30.455  29.150  1.00  0.00     0.031 C 
ATOM     75  C   UNL A   1      44.775  24.303  28.738  1.00  0.00     0.029 A 
ATOM     76  C   UNL A   1      43.719  23.837  27.900  1.00  0.00     0.049 A 
ATOM     77  H   UNL A   1      41.733  24.602  27.967  1.00  0.00     0.167 HD
ATOM     78  C   UNL A   1      46.849  29.783  28.975  1.00  0.00     0.031 A 
ATOM     79  C   UNL A   1      43.985  23.331  26.667  1.00  0.00     0.031 A 
ATOM     80  C   UNL A   1      47.613  28.699  28.336  1.00  0.00     0.049 A 
ATOM     81  C   UNL A   1      45.224  23.923  25.986  1.00  0.00     0.074 A 
ATOM     82  C   UNL A   1      48.821  28.087  28.607  1.00  0.00     0.029 A 
ATOM     83  N   UNL A   1      47.100  28.041  27.205  1.00  0.00    -0.354 N 
ATOM     84  N   UNL A   1      45.869  25.015  26.358  1.00  0.00    -0.248 NA
ATOM     85  C   UNL A   1      45.855  23.280  24.837  1.00  0.00     0.031 C 
ATOM     86  C   UNL A   1      49.091  27.206  27.540  1.00  0.00     0.029 A 
ATOM     87  C   UNL A   1      47.958  27.071  26.756  1.00  0.00     0.049 A 
ATOM     88  H   UNL A   1      46.234  28.252  26.787  1.00  0.00     0.167 HD
ATOM     89  C   UNL A   1      46.917  25.254  25.490  1.00  0.00     0.074 A 
ATOM     90  C   UNL A   1      46.888  24.105  24.598  1.00  0.00     0.031 C 
ATOM     91  C   UNL A   1      47.760  26.340  25.508  1.00  0.00     0.031 A 
BRANCH  78  92
ATOM     92  C   UNL A   1      47.549  30.917  29.752  1.00  0.00    -0.014 A 
ATOM     93  C   UNL A   1      47.920  32.113  29.094  1.00  0.00     0.009 A 
ATOM     94  C   UNL A   1      48.000  30.824  31.082  1.00  0.00     0.009 A 
ATOM     95  C   UNL A   1      48.756  33.085  29.669  1.00  0.00     0.001 A 
ATOM     96  C   UNL A   1      48.779  31.828  31.694  1.00  0.00     0.001 A 
ATOM     97  C   UNL A   1      49.187  32.945  30.978  1.00  0.00     0.000 A 
ENDBRANCH  78  92
BRANCH  79  98
ATOM     98  C   UNL A   1      42.766  22.614  26.163  1.00  0.00    -0.014 A 
ATOM     99  C   UNL A   1      43.063  21.329  25.643  1.00  0.00     0.009 A 
ATOM    100  C   UNL A   1      41.569  22.757  26.890  1.00  0.00     0.009 A 
ATOM    101  C   UNL A   1      42.398  20.194  26.121  1.00  0.00     0.001 A 
ATOM    102  C   UNL A   1      40.895  21.612  27.353  1.00  0.00     0.001 A 
ATOM    103  C   UNL A   1      41.351  20.334  27.025  1.00  0.00     0.000 A 
ENDBRANCH  79  98
BRANCH  91 104
ATOM    104  C   UNL A   1      48.648  26.789  24.345  1.00  0.00    -0.014 A 
ATOM    105  C   UNL A   1      50.011  26.508  24.229  1.00  0.00     0.009 A 
ATOM    106  C   UNL A   1      48.060  27.420  23.216  1.00  0.00     0.009 A 
ATOM    107  C   UNL A   1      50.759  26.932  23.120  1.00  0.00     0.001 A 
ATOM    108  C   UNL A   1      48.791  27.830  22.101  1.00  0.00     0.001 A 
ATOM    109  C   UNL A   1      50.152  27.602  22.062  1.00  0.00     0.000 A 
ENDBRANCH  91 104
ENDBRANCH  65  66
ENDBRANCH  58  60
ENDBRANCH  57  58
ENDBRANCH  56  57
ENDBRANCH  55  56
ENDBRANCH  54  55
ENDBRANCH  53  54
ENDBRANCH  52  53
ENDBRANCH  51  52
ENDBRANCH  50  51
ENDBRANCH   1  50
TORSDOF 29
ENDMDL
