MODEL 1
REMARK VINA RESULT:      -9.8      0.000      0.000
REMARK SMILES CCOC(=O)c1ccc(NC(=O)[C@H]2CC=CC[C@@]2(C)C(=O)OCCOCCOCCOCCOC(=O)c2ccc(-c3c4nc(c(-c5ccccc5)c5ccc([nH]5)c(-c5ccccc5)c5nc(c(-c6ccccc6)c6ccc3[nH]6)C=C5)C=C4)cc2)cc1
REMARK SMILES IDX 26 1 25 2 24 3 23 4 22 5 20 6 21 7 18 8 13 9 14 10 15 11
REMARK SMILES IDX 17 12 19 13 16 14 11 15 10 16 12 18 9 19 6 20 7 21 86 22
REMARK SMILES IDX 8 23 85 24 4 25 5 26 3 27 2 28 1 29 27 30 28 31 29 32 30 33
REMARK SMILES IDX 31 34 32 35 33 36 34 37 35 38 36 39 37 40 38 41 84 42 39 43
REMARK SMILES IDX 83 44 40 45 41 46 42 47 77 48 43 49 82 50 76 51 78 52 44 53
REMARK SMILES IDX 81 54 75 55 74 56 45 58 67 59 52 60 66 61 53 62 56 63 65 64
REMARK SMILES IDX 79 65 54 66 55 67 64 69 80 70 57 71 46 72 47 73 51 74 48 75
REMARK SMILES IDX 50 76 49 77 68 78 69 79 73 80 70 81 72 82 71 83 58 84 59 85
REMARK SMILES IDX 63 86 60 87 62 88 61 89
REMARK H PARENT 10 17 78 57 56 68
REMARK Flexibility Score: inf
ROOT
ATOM      1  C   UNL A   1      35.682  31.710  27.645  1.00  0.00     0.188 C 
ENDROOT
BRANCH   1   2
ATOM      2  O   UNL A   1      35.607  30.311  27.879  1.00  0.00    -0.376 OA
BRANCH   2   3
ATOM      3  C   UNL A   1      35.056  29.366  26.979  1.00  0.00     0.202 C 
BRANCH   3   4
ATOM      4  C   UNL A   1      33.815  28.521  27.303  1.00  0.00     0.261 C 
BRANCH   4   5
ATOM      5  O   UNL A   1      33.152  27.859  26.219  1.00  0.00    -0.463 OA
BRANCH   5   6
ATOM      6  C   UNL A   1      31.891  28.294  26.003  1.00  0.00     0.313 C 
ATOM      7  O   UNL A   1      31.129  28.596  26.915  1.00  0.00    -0.252 OA
BRANCH   6   8
ATOM      8  C   UNL A   1      31.455  28.249  24.530  1.00  0.00     0.080 C 
ATOM      9  C   UNL A   1      30.695  26.891  24.305  1.00  0.00     0.100 C 
ATOM     10  C   UNL A   1      29.355  26.924  23.549  1.00  0.00     0.041 C 
ATOM     11  C   UNL A   1      28.811  28.267  23.172  1.00  0.00    -0.030 C 
ATOM     12  C   UNL A   1      30.643  29.564  24.267  1.00  0.00     0.046 C 
ATOM     13  C   UNL A   1      32.640  28.272  23.521  1.00  0.00     0.025 C 
ATOM     14  C   UNL A   1      29.381  29.434  23.482  1.00  0.00    -0.030 C 
BRANCH   9  15
ATOM     15  C   UNL A   1      30.752  25.869  25.467  1.00  0.00     0.228 C 
ATOM     16  N   UNL A   1      31.745  24.981  25.747  1.00  0.00    -0.326 N 
ATOM     17  H   UNL A   1      31.510  24.380  26.491  1.00  0.00     0.169 HD
ATOM     18  O   UNL A   1      29.774  25.809  26.232  1.00  0.00    -0.274 OA
BRANCH  16  19
ATOM     19  C   UNL A   1      33.021  24.715  25.230  1.00  0.00     0.041 A 
ATOM     20  C   UNL A   1      35.434  23.810  24.151  1.00  0.00     0.060 A 
ATOM     21  C   UNL A   1      35.332  24.033  25.511  1.00  0.00     0.018 A 
ATOM     22  C   UNL A   1      34.390  24.158  23.294  1.00  0.00     0.018 A 
ATOM     23  C   UNL A   1      34.131  24.491  26.022  1.00  0.00     0.027 A 
ATOM     24  C   UNL A   1      33.182  24.621  23.841  1.00  0.00     0.027 A 
BRANCH  20  25
ATOM     25  C   UNL A   1      36.565  22.983  23.733  1.00  0.00     0.338 C 
ATOM     26  O   UNL A   1      36.926  22.943  22.566  1.00  0.00    -0.246 OA
BRANCH  25  27
ATOM     27  O   UNL A   1      37.010  22.220  24.754  1.00  0.00    -0.462 OA
BRANCH  27  28
ATOM     28  C   UNL A   1      36.864  20.815  24.505  1.00  0.00     0.230 C 
ATOM     29  C   UNL A   1      35.583  20.285  25.130  1.00  0.00     0.049 C 
ENDBRANCH  27  28
ENDBRANCH  25  27
ENDBRANCH  20  25
ENDBRANCH  16  19
ENDBRANCH   9  15
ENDBRANCH   6   8
ENDBRANCH   5   6
ENDBRANCH   4   5
ENDBRANCH   3   4
ENDBRANCH   2   3
ENDBRANCH   1   2
BRANCH   1  30
ATOM     30  C   UNL A   1      34.520  32.680  27.905  1.00  0.00     0.188 C 
BRANCH  30  31
ATOM     31  O   UNL A   1      34.794  34.047  27.693  1.00  0.00    -0.377 OA
BRANCH  31  32
ATOM     32  C   UNL A   1      34.469  34.966  28.726  1.00  0.00     0.188 C 
BRANCH  32  33
ATOM     33  C   UNL A   1      34.077  34.412  30.109  1.00  0.00     0.188 C 
BRANCH  33  34
ATOM     34  O   UNL A   1      33.698  35.408  31.047  1.00  0.00    -0.376 OA
BRANCH  34  35
ATOM     35  C   UNL A   1      34.190  35.334  32.376  1.00  0.00     0.202 C 
BRANCH  35  36
ATOM     36  C   UNL A   1      35.560  34.671  32.601  1.00  0.00     0.261 C 
BRANCH  36  37
ATOM     37  O   UNL A   1      35.580  33.236  32.658  1.00  0.00    -0.460 OA
BRANCH  37  38
ATOM     38  C   UNL A   1      36.509  32.639  33.424  1.00  0.00     0.338 C 
ATOM     39  O   UNL A   1      36.578  32.645  34.647  1.00  0.00    -0.246 OA
BRANCH  38  40
ATOM     40  C   UNL A   1      37.341  31.783  32.556  1.00  0.00     0.060 A 
ATOM     41  C   UNL A   1      38.322  30.975  33.145  1.00  0.00     0.016 A 
ATOM     42  C   UNL A   1      37.170  31.792  31.169  1.00  0.00     0.016 A 
ATOM     43  C   UNL A   1      39.180  30.223  32.347  1.00  0.00     0.010 A 
ATOM     44  C   UNL A   1      38.047  31.058  30.367  1.00  0.00     0.010 A 
ATOM     45  C   UNL A   1      39.088  30.316  30.953  1.00  0.00    -0.014 A 
BRANCH  45  46
ATOM     46  C   UNL A   1      40.231  29.861  30.128  1.00  0.00     0.031 A 
ATOM     47  C   UNL A   1      41.344  30.842  29.869  1.00  0.00     0.074 A 
ATOM     48  C   UNL A   1      40.316  28.602  29.667  1.00  0.00     0.049 A 
ATOM     49  N   UNL A   1      42.443  30.691  29.177  1.00  0.00    -0.248 NA
ATOM     50  C   UNL A   1      41.194  32.176  30.477  1.00  0.00     0.031 C 
ATOM     51  C   UNL A   1      39.336  27.543  29.900  1.00  0.00     0.029 A 
ATOM     52  N   UNL A   1      41.285  28.005  28.902  1.00  0.00    -0.354 N 
ATOM     53  C   UNL A   1      43.109  31.909  29.261  1.00  0.00     0.074 A 
ATOM     54  C   UNL A   1      42.277  32.798  30.039  1.00  0.00     0.031 C 
ATOM     55  C   UNL A   1      39.755  26.422  29.285  1.00  0.00     0.029 A 
ATOM     56  C   UNL A   1      41.012  26.697  28.589  1.00  0.00     0.049 A 
ATOM     57  H   UNL A   1      42.101  28.471  28.604  1.00  0.00     0.167 HD
ATOM     58  C   UNL A   1      44.310  32.256  28.743  1.00  0.00     0.031 A 
ATOM     59  C   UNL A   1      41.692  25.828  27.815  1.00  0.00     0.031 A 
ATOM     60  C   UNL A   1      45.129  31.379  27.953  1.00  0.00     0.049 A 
ATOM     61  C   UNL A   1      42.982  26.269  27.172  1.00  0.00     0.074 A 
ATOM     62  C   UNL A   1      46.362  31.635  27.380  1.00  0.00     0.029 A 
ATOM     63  N   UNL A   1      44.791  30.077  27.617  1.00  0.00    -0.354 N 
ATOM     64  N   UNL A   1      43.611  27.416  27.271  1.00  0.00    -0.248 NA
ATOM     65  C   UNL A   1      43.664  25.283  26.319  1.00  0.00     0.031 C 
ATOM     66  C   UNL A   1      46.742  30.506  26.646  1.00  0.00     0.029 A 
ATOM     67  C   UNL A   1      45.780  29.525  26.822  1.00  0.00     0.049 A 
ATOM     68  H   UNL A   1      43.970  29.615  27.901  1.00  0.00     0.167 HD
ATOM     69  C   UNL A   1      44.775  27.278  26.524  1.00  0.00     0.074 A 
ATOM     70  C   UNL A   1      44.773  25.931  25.992  1.00  0.00     0.031 C 
ATOM     71  C   UNL A   1      45.763  28.181  26.303  1.00  0.00     0.031 A 
BRANCH  58  72
ATOM     72  C   UNL A   1      44.782  33.663  28.983  1.00  0.00    -0.014 A 
ATOM     73  C   UNL A   1      45.496  34.011  30.141  1.00  0.00     0.009 A 
ATOM     74  C   UNL A   1      44.521  34.655  28.024  1.00  0.00     0.009 A 
ATOM     75  C   UNL A   1      45.907  35.329  30.350  1.00  0.00     0.001 A 
ATOM     76  C   UNL A   1      44.961  35.965  28.221  1.00  0.00     0.001 A 
ATOM     77  C   UNL A   1      45.645  36.304  29.387  1.00  0.00     0.000 A 
ENDBRANCH  58  72
BRANCH  59  78
ATOM     78  C   UNL A   1      41.164  24.457  27.584  1.00  0.00    -0.014 A 
ATOM     79  C   UNL A   1      40.088  24.239  26.709  1.00  0.00     0.009 A 
ATOM     80  C   UNL A   1      41.713  23.360  28.267  1.00  0.00     0.009 A 
ATOM     81  C   UNL A   1      39.554  22.958  26.547  1.00  0.00     0.001 A 
ATOM     82  C   UNL A   1      41.199  22.076  28.077  1.00  0.00     0.001 A 
ATOM     83  C   UNL A   1      40.113  21.878  27.228  1.00  0.00     0.000 A 
ENDBRANCH  59  78
BRANCH  71  84
ATOM     84  C   UNL A   1      46.948  27.727  25.494  1.00  0.00    -0.014 A 
ATOM     85  C   UNL A   1      48.057  27.109  26.092  1.00  0.00     0.009 A 
ATOM     86  C   UNL A   1      46.933  27.891  24.099  1.00  0.00     0.009 A 
ATOM     87  C   UNL A   1      49.145  26.705  25.315  1.00  0.00     0.001 A 
ATOM     88  C   UNL A   1      48.006  27.454  23.321  1.00  0.00     0.001 A 
ATOM     89  C   UNL A   1      49.116  26.873  23.931  1.00  0.00     0.000 A 
ENDBRANCH  71  84
ENDBRANCH  45  46
ENDBRANCH  38  40
ENDBRANCH  37  38
ENDBRANCH  36  37
ENDBRANCH  35  36
ENDBRANCH  34  35
ENDBRANCH  33  34
ENDBRANCH  32  33
ENDBRANCH  31  32
ENDBRANCH  30  31
ENDBRANCH   1  30
TORSDOF 25
ENDMDL
MODEL 2
REMARK VINA RESULT:      -9.3      1.514      4.179
REMARK SMILES CCOC(=O)c1ccc(NC(=O)[C@H]2CC=CC[C@@]2(C)C(=O)OCCOCCOCCOCCOC(=O)c2ccc(-c3c4nc(c(-c5ccccc5)c5ccc([nH]5)c(-c5ccccc5)c5nc(c(-c6ccccc6)c6ccc3[nH]6)C=C5)C=C4)cc2)cc1
REMARK SMILES IDX 26 1 25 2 24 3 23 4 22 5 20 6 21 7 18 8 13 9 14 10 15 11
REMARK SMILES IDX 17 12 19 13 16 14 11 15 10 16 12 18 9 19 6 20 7 21 86 22
REMARK SMILES IDX 8 23 85 24 4 25 5 26 3 27 2 28 1 29 27 30 28 31 29 32 30 33
REMARK SMILES IDX 31 34 32 35 33 36 34 37 35 38 36 39 37 40 38 41 84 42 39 43
REMARK SMILES IDX 83 44 40 45 41 46 42 47 77 48 43 49 82 50 76 51 78 52 44 53
REMARK SMILES IDX 81 54 75 55 74 56 45 58 67 59 52 60 66 61 53 62 56 63 65 64
REMARK SMILES IDX 79 65 54 66 55 67 64 69 80 70 57 71 46 72 47 73 51 74 48 75
REMARK SMILES IDX 50 76 49 77 68 78 69 79 73 80 70 81 72 82 71 83 58 84 59 85
REMARK SMILES IDX 63 86 60 87 62 88 61 89
REMARK H PARENT 10 17 78 57 56 68
REMARK Flexibility Score: inf
ROOT
ATOM      1  C   UNL A   1      34.970  30.196  27.439  1.00  0.00     0.188 C 
ENDROOT
BRANCH   1   2
ATOM      2  O   UNL A   1      33.639  30.065  26.961  1.00  0.00    -0.376 OA
BRANCH   2   3
ATOM      3  C   UNL A   1      32.994  28.836  26.681  1.00  0.00     0.202 C 
BRANCH   3   4
ATOM      4  C   UNL A   1      33.751  27.560  26.286  1.00  0.00     0.261 C 
BRANCH   4   5
ATOM      5  O   UNL A   1      33.270  26.814  25.161  1.00  0.00    -0.463 OA
BRANCH   5   6
ATOM      6  C   UNL A   1      33.615  25.508  25.181  1.00  0.00     0.313 C 
ATOM      7  O   UNL A   1      34.778  25.130  25.081  1.00  0.00    -0.252 OA
BRANCH   6   8
ATOM      8  C   UNL A   1      32.420  24.542  25.209  1.00  0.00     0.080 C 
ATOM      9  C   UNL A   1      31.998  24.276  23.718  1.00  0.00     0.100 C 
ATOM     10  C   UNL A   1      31.744  22.821  23.284  1.00  0.00     0.041 C 
ATOM     11  C   UNL A   1      32.023  21.745  24.287  1.00  0.00    -0.030 C 
ATOM     12  C   UNL A   1      32.874  23.298  26.048  1.00  0.00     0.046 C 
ATOM     13  C   UNL A   1      31.167  25.111  25.935  1.00  0.00     0.025 C 
ATOM     14  C   UNL A   1      32.516  21.954  25.510  1.00  0.00    -0.030 C 
BRANCH   9  15
ATOM     15  C   UNL A   1      32.674  25.159  22.641  1.00  0.00     0.228 C 
ATOM     16  N   UNL A   1      32.342  26.427  22.276  1.00  0.00    -0.326 N 
ATOM     17  H   UNL A   1      32.870  26.746  21.508  1.00  0.00     0.169 HD
ATOM     18  O   UNL A   1      33.614  24.664  21.996  1.00  0.00    -0.274 OA
BRANCH  16  19
ATOM     19  C   UNL A   1      31.429  27.390  22.730  1.00  0.00     0.041 A 
ATOM     20  C   UNL A   1      29.478  29.319  23.257  1.00  0.00     0.060 A 
ATOM     21  C   UNL A   1      30.806  29.693  23.169  1.00  0.00     0.018 A 
ATOM     22  C   UNL A   1      29.115  27.972  23.219  1.00  0.00     0.018 A 
ATOM     23  C   UNL A   1      31.756  28.720  22.917  1.00  0.00     0.027 A 
ATOM     24  C   UNL A   1      30.102  27.006  22.963  1.00  0.00     0.027 A 
BRANCH  20  25
ATOM     25  C   UNL A   1      28.509  30.409  23.139  1.00  0.00     0.338 C 
ATOM     26  O   UNL A   1      28.460  31.307  23.966  1.00  0.00    -0.246 OA
BRANCH  25  27
ATOM     27  O   UNL A   1      27.651  30.185  22.121  1.00  0.00    -0.462 OA
BRANCH  27  28
ATOM     28  C   UNL A   1      28.093  30.760  20.883  1.00  0.00     0.230 C 
ATOM     29  C   UNL A   1      28.020  32.278  20.936  1.00  0.00     0.049 C 
ENDBRANCH  27  28
ENDBRANCH  25  27
ENDBRANCH  20  25
ENDBRANCH  16  19
ENDBRANCH   9  15
ENDBRANCH   6   8
ENDBRANCH   5   6
ENDBRANCH   4   5
ENDBRANCH   3   4
ENDBRANCH   2   3
ENDBRANCH   1   2
BRANCH   1  30
ATOM     30  C   UNL A   1      35.467  31.398  28.255  1.00  0.00     0.188 C 
BRANCH  30  31
ATOM     31  O   UNL A   1      34.480  32.132  28.944  1.00  0.00    -0.377 OA
BRANCH  31  32
ATOM     32  C   UNL A   1      34.694  33.521  29.149  1.00  0.00     0.188 C 
BRANCH  32  33
ATOM     33  C   UNL A   1      33.745  34.281  30.093  1.00  0.00     0.188 C 
BRANCH  33  34
ATOM     34  O   UNL A   1      34.399  34.939  31.168  1.00  0.00    -0.376 OA
BRANCH  34  35
ATOM     35  C   UNL A   1      33.890  34.795  32.485  1.00  0.00     0.202 C 
BRANCH  35  36
ATOM     36  C   UNL A   1      34.822  34.203  33.556  1.00  0.00     0.261 C 
BRANCH  36  37
ATOM     37  O   UNL A   1      36.133  33.807  33.123  1.00  0.00    -0.460 OA
BRANCH  37  38
ATOM     38  C   UNL A   1      36.789  32.876  33.836  1.00  0.00     0.338 C 
ATOM     39  O   UNL A   1      36.665  32.633  35.030  1.00  0.00    -0.246 OA
BRANCH  38  40
ATOM     40  C   UNL A   1      37.554  32.032  32.898  1.00  0.00     0.060 A 
ATOM     41  C   UNL A   1      38.494  31.130  33.415  1.00  0.00     0.016 A 
ATOM     42  C   UNL A   1      37.361  32.142  31.518  1.00  0.00     0.016 A 
ATOM     43  C   UNL A   1      39.292  30.383  32.552  1.00  0.00     0.010 A 
ATOM     44  C   UNL A   1      38.180  31.411  30.653  1.00  0.00     0.010 A 
ATOM     45  C   UNL A   1      39.183  30.572  31.170  1.00  0.00    -0.014 A 
BRANCH  45  46
ATOM     46  C   UNL A   1      40.284  30.106  30.295  1.00  0.00     0.031 A 
ATOM     47  C   UNL A   1      41.411  31.064  30.014  1.00  0.00     0.074 A 
ATOM     48  C   UNL A   1      40.321  28.855  29.806  1.00  0.00     0.049 A 
ATOM     49  N   UNL A   1      42.481  30.900  29.279  1.00  0.00    -0.248 NA
ATOM     50  C   UNL A   1      41.317  32.389  30.652  1.00  0.00     0.031 C 
ATOM     51  C   UNL A   1      39.324  27.816  30.056  1.00  0.00     0.029 A 
ATOM     52  N   UNL A   1      41.246  28.249  28.995  1.00  0.00    -0.354 N 
ATOM     53  C   UNL A   1      43.179  32.099  29.361  1.00  0.00     0.074 A 
ATOM     54  C   UNL A   1      42.399  32.993  30.186  1.00  0.00     0.031 C 
ATOM     55  C   UNL A   1      39.691  26.697  29.405  1.00  0.00     0.029 A 
ATOM     56  C   UNL A   1      40.928  26.955  28.668  1.00  0.00     0.049 A 
ATOM     57  H   UNL A   1      42.061  28.701  28.676  1.00  0.00     0.167 HD
ATOM     58  C   UNL A   1      44.369  32.428  28.805  1.00  0.00     0.031 A 
ATOM     59  C   UNL A   1      41.558  26.086  27.853  1.00  0.00     0.031 A 
ATOM     60  C   UNL A   1      45.137  31.547  27.970  1.00  0.00     0.049 A 
ATOM     61  C   UNL A   1      42.835  26.507  27.171  1.00  0.00     0.074 A 
ATOM     62  C   UNL A   1      46.354  31.783  27.357  1.00  0.00     0.029 A 
ATOM     63  N   UNL A   1      44.753  30.261  27.622  1.00  0.00    -0.354 N 
ATOM     64  N   UNL A   1      43.495  27.636  27.269  1.00  0.00    -0.248 NA
ATOM     65  C   UNL A   1      43.460  25.522  26.275  1.00  0.00     0.031 C 
ATOM     66  C   UNL A   1      46.679  30.660  26.587  1.00  0.00     0.029 A 
ATOM     67  C   UNL A   1      45.700  29.700  26.780  1.00  0.00     0.049 A 
ATOM     68  H   UNL A   1      43.932  29.813  27.927  1.00  0.00     0.167 HD
ATOM     69  C   UNL A   1      44.628  27.484  26.477  1.00  0.00     0.074 A 
ATOM     70  C   UNL A   1      44.572  26.149  25.920  1.00  0.00     0.031 C 
ATOM     71  C   UNL A   1      45.629  28.367  26.237  1.00  0.00     0.031 A 
BRANCH  58  72
ATOM     72  C   UNL A   1      44.886  33.818  29.054  1.00  0.00    -0.014 A 
ATOM     73  C   UNL A   1      44.210  34.950  28.569  1.00  0.00     0.009 A 
ATOM     74  C   UNL A   1      46.061  33.997  29.801  1.00  0.00     0.009 A 
ATOM     75  C   UNL A   1      44.722  36.229  28.797  1.00  0.00     0.001 A 
ATOM     76  C   UNL A   1      46.552  35.279  30.054  1.00  0.00     0.001 A 
ATOM     77  C   UNL A   1      45.888  36.393  29.545  1.00  0.00     0.000 A 
ENDBRANCH  58  72
BRANCH  59  78
ATOM     78  C   UNL A   1      40.987  24.733  27.615  1.00  0.00    -0.014 A 
ATOM     79  C   UNL A   1      41.564  23.595  28.201  1.00  0.00     0.009 A 
ATOM     80  C   UNL A   1      39.878  24.570  26.769  1.00  0.00     0.009 A 
ATOM     81  C   UNL A   1      41.062  22.322  27.920  1.00  0.00     0.001 A 
ATOM     82  C   UNL A   1      39.359  23.298  26.517  1.00  0.00     0.001 A 
ATOM     83  C   UNL A   1      39.958  22.175  27.082  1.00  0.00     0.000 A 
ENDBRANCH  59  78
BRANCH  71  84
ATOM     84  C   UNL A   1      46.772  27.901  25.376  1.00  0.00    -0.014 A 
ATOM     85  C   UNL A   1      46.729  27.997  23.976  1.00  0.00     0.009 A 
ATOM     86  C   UNL A   1      47.929  27.388  25.985  1.00  0.00     0.009 A 
ATOM     87  C   UNL A   1      47.802  27.548  23.204  1.00  0.00     0.001 A 
ATOM     88  C   UNL A   1      49.015  26.974  25.213  1.00  0.00     0.001 A 
ATOM     89  C   UNL A   1      48.946  27.042  23.823  1.00  0.00     0.000 A 
ENDBRANCH  71  84
ENDBRANCH  45  46
ENDBRANCH  38  40
ENDBRANCH  37  38
ENDBRANCH  36  37
ENDBRANCH  35  36
ENDBRANCH  34  35
ENDBRANCH  33  34
ENDBRANCH  32  33
ENDBRANCH  31  32
ENDBRANCH  30  31
ENDBRANCH   1  30
TORSDOF 25
ENDMDL
MODEL 3
REMARK VINA RESULT:      -9.3      3.973     10.081
REMARK SMILES CCOC(=O)c1ccc(NC(=O)[C@H]2CC=CC[C@@]2(C)C(=O)OCCOCCOCCOCCOC(=O)c2ccc(-c3c4nc(c(-c5ccccc5)c5ccc([nH]5)c(-c5ccccc5)c5nc(c(-c6ccccc6)c6ccc3[nH]6)C=C5)C=C4)cc2)cc1
REMARK SMILES IDX 26 1 25 2 24 3 23 4 22 5 20 6 21 7 18 8 13 9 14 10 15 11
REMARK SMILES IDX 17 12 19 13 16 14 11 15 10 16 12 18 9 19 6 20 7 21 86 22
REMARK SMILES IDX 8 23 85 24 4 25 5 26 3 27 2 28 1 29 27 30 28 31 29 32 30 33
REMARK SMILES IDX 31 34 32 35 33 36 34 37 35 38 36 39 37 40 38 41 84 42 39 43
REMARK SMILES IDX 83 44 40 45 41 46 42 47 77 48 43 49 82 50 76 51 78 52 44 53
REMARK SMILES IDX 81 54 75 55 74 56 45 58 67 59 52 60 66 61 53 62 56 63 65 64
REMARK SMILES IDX 79 65 54 66 55 67 64 69 80 70 57 71 46 72 47 73 51 74 48 75
REMARK SMILES IDX 50 76 49 77 68 78 69 79 73 80 70 81 72 82 71 83 58 84 59 85
REMARK SMILES IDX 63 86 60 87 62 88 61 89
REMARK H PARENT 10 17 78 57 56 68
REMARK Flexibility Score: inf
ROOT
ATOM      1  C   UNL A   1      39.775  21.816  26.145  1.00  0.00     0.188 C 
ENDROOT
BRANCH   1   2
ATOM      2  O   UNL A   1      38.863  22.837  25.770  1.00  0.00    -0.376 OA
BRANCH   2   3
ATOM      3  C   UNL A   1      37.470  22.655  25.586  1.00  0.00     0.202 C 
BRANCH   3   4
ATOM      4  C   UNL A   1      36.852  22.160  24.271  1.00  0.00     0.261 C 
BRANCH   4   5
ATOM      5  O   UNL A   1      35.491  21.711  24.295  1.00  0.00    -0.463 OA
BRANCH   5   6
ATOM      6  C   UNL A   1      34.604  22.633  23.862  1.00  0.00     0.313 C 
ATOM      7  O   UNL A   1      34.946  23.733  23.440  1.00  0.00    -0.252 OA
BRANCH   6   8
ATOM      8  C   UNL A   1      33.134  22.236  24.066  1.00  0.00     0.080 C 
ATOM      9  C   UNL A   1      32.633  22.945  25.377  1.00  0.00     0.100 C 
ATOM     10  C   UNL A   1      31.278  23.673  25.338  1.00  0.00     0.041 C 
ATOM     11  C   UNL A   1      30.575  23.747  24.017  1.00  0.00    -0.030 C 
ATOM     12  C   UNL A   1      32.387  22.599  22.737  1.00  0.00     0.046 C 
ATOM     13  C   UNL A   1      32.916  20.709  24.272  1.00  0.00     0.025 C 
ATOM     14  C   UNL A   1      31.060  23.268  22.869  1.00  0.00    -0.030 C 
BRANCH   9  15
ATOM     15  C   UNL A   1      33.714  23.647  26.237  1.00  0.00     0.228 C 
ATOM     16  N   UNL A   1      34.035  24.969  26.255  1.00  0.00    -0.326 N 
ATOM     17  H   UNL A   1      34.814  25.157  26.827  1.00  0.00     0.169 HD
ATOM     18  O   UNL A   1      34.406  22.936  26.986  1.00  0.00    -0.274 OA
BRANCH  16  19
ATOM     19  C   UNL A   1      33.522  26.128  25.654  1.00  0.00     0.041 A 
ATOM     20  C   UNL A   1      32.138  28.283  24.536  1.00  0.00     0.060 A 
ATOM     21  C   UNL A   1      32.735  27.348  23.711  1.00  0.00     0.018 A 
ATOM     22  C   UNL A   1      32.331  28.237  25.917  1.00  0.00     0.018 A 
ATOM     23  C   UNL A   1      33.423  26.295  24.286  1.00  0.00     0.027 A 
ATOM     24  C   UNL A   1      33.036  27.156  26.473  1.00  0.00     0.027 A 
BRANCH  20  25
ATOM     25  C   UNL A   1      31.128  29.128  23.901  1.00  0.00     0.338 C 
ATOM     26  O   UNL A   1      30.661  30.101  24.476  1.00  0.00    -0.246 OA
BRANCH  25  27
ATOM     27  O   UNL A   1      30.728  28.602  22.724  1.00  0.00    -0.462 OA
BRANCH  27  28
ATOM     28  C   UNL A   1      29.493  29.161  22.254  1.00  0.00     0.230 C 
ATOM     29  C   UNL A   1      28.350  28.818  23.198  1.00  0.00     0.049 C 
ENDBRANCH  27  28
ENDBRANCH  25  27
ENDBRANCH  20  25
ENDBRANCH  16  19
ENDBRANCH   9  15
ENDBRANCH   6   8
ENDBRANCH   5   6
ENDBRANCH   4   5
ENDBRANCH   3   4
ENDBRANCH   2   3
ENDBRANCH   1   2
BRANCH   1  30
ATOM     30  C   UNL A   1      40.479  21.763  27.509  1.00  0.00     0.188 C 
BRANCH  30  31
ATOM     31  O   UNL A   1      41.446  20.749  27.669  1.00  0.00    -0.377 OA
BRANCH  31  32
ATOM     32  C   UNL A   1      41.490  19.703  26.709  1.00  0.00     0.188 C 
BRANCH  32  33
ATOM     33  C   UNL A   1      42.862  19.243  26.182  1.00  0.00     0.188 C 
BRANCH  33  34
ATOM     34  O   UNL A   1      43.152  19.678  24.861  1.00  0.00    -0.376 OA
BRANCH  34  35
ATOM     35  C   UNL A   1      44.056  20.754  24.667  1.00  0.00     0.202 C 
BRANCH  35  36
ATOM     36  C   UNL A   1      44.218  21.774  25.807  1.00  0.00     0.261 C 
BRANCH  36  37
ATOM     37  O   UNL A   1      43.401  22.954  25.736  1.00  0.00    -0.460 OA
BRANCH  37  38
ATOM     38  C   UNL A   1      44.010  24.150  25.661  1.00  0.00     0.338 C 
ATOM     39  O   UNL A   1      44.911  24.477  24.898  1.00  0.00    -0.246 OA
BRANCH  38  40
ATOM     40  C   UNL A   1      43.273  25.097  26.520  1.00  0.00     0.060 A 
ATOM     41  C   UNL A   1      43.709  26.427  26.587  1.00  0.00     0.016 A 
ATOM     42  C   UNL A   1      42.171  24.673  27.269  1.00  0.00     0.016 A 
ATOM     43  C   UNL A   1      43.088  27.321  27.454  1.00  0.00     0.010 A 
ATOM     44  C   UNL A   1      41.565  25.565  28.157  1.00  0.00     0.010 A 
ATOM     45  C   UNL A   1      42.058  26.875  28.290  1.00  0.00    -0.014 A 
BRANCH  45  46
ATOM     46  C   UNL A   1      41.692  27.689  29.473  1.00  0.00     0.031 A 
ATOM     47  C   UNL A   1      40.464  28.555  29.375  1.00  0.00     0.074 A 
ATOM     48  C   UNL A   1      42.388  27.625  30.621  1.00  0.00     0.049 A 
ATOM     49  N   UNL A   1      39.940  29.361  30.263  1.00  0.00    -0.248 NA
ATOM     50  C   UNL A   1      39.727  28.504  28.101  1.00  0.00     0.031 C 
ATOM     51  C   UNL A   1      43.556  26.781  30.860  1.00  0.00     0.029 A 
ATOM     52  N   UNL A   1      42.201  28.291  31.805  1.00  0.00    -0.354 N 
ATOM     53  C   UNL A   1      38.820  29.913  29.652  1.00  0.00     0.074 A 
ATOM     54  C   UNL A   1      38.759  29.382  28.310  1.00  0.00     0.031 C 
ATOM     55  C   UNL A   1      43.985  26.983  32.119  1.00  0.00     0.029 A 
ATOM     56  C   UNL A   1      43.143  27.994  32.758  1.00  0.00     0.049 A 
ATOM     57  H   UNL A   1      41.461  28.923  31.958  1.00  0.00     0.167 HD
ATOM     58  C   UNL A   1      37.918  30.783  30.163  1.00  0.00     0.031 A 
ATOM     59  C   UNL A   1      43.313  28.496  33.997  1.00  0.00     0.031 A 
ATOM     60  C   UNL A   1      37.988  31.326  31.491  1.00  0.00     0.049 A 
ATOM     61  C   UNL A   1      42.347  29.533  34.511  1.00  0.00     0.074 A 
ATOM     62  C   UNL A   1      37.123  32.215  32.106  1.00  0.00     0.029 A 
ATOM     63  N   UNL A   1      38.988  31.039  32.407  1.00  0.00    -0.354 N 
ATOM     64  N   UNL A   1      41.283  30.036  33.932  1.00  0.00    -0.248 NA
ATOM     65  C   UNL A   1      42.601  30.060  35.860  1.00  0.00     0.031 C 
ATOM     66  C   UNL A   1      37.635  32.512  33.374  1.00  0.00     0.029 A 
ATOM     67  C   UNL A   1      38.777  31.753  33.574  1.00  0.00     0.049 A 
ATOM     68  H   UNL A   1      39.737  30.419  32.251  1.00  0.00     0.167 HD
ATOM     69  C   UNL A   1      40.723  30.910  34.858  1.00  0.00     0.074 A 
ATOM     70  C   UNL A   1      41.557  30.855  36.041  1.00  0.00     0.031 C 
ATOM     71  C   UNL A   1      39.615  31.684  34.744  1.00  0.00     0.031 A 
BRANCH  58  72
ATOM     72  C   UNL A   1      36.801  31.228  29.260  1.00  0.00    -0.014 A 
ATOM     73  C   UNL A   1      36.764  32.525  28.722  1.00  0.00     0.009 A 
ATOM     74  C   UNL A   1      35.776  30.327  28.929  1.00  0.00     0.009 A 
ATOM     75  C   UNL A   1      35.706  32.920  27.902  1.00  0.00     0.001 A 
ATOM     76  C   UNL A   1      34.737  30.715  28.083  1.00  0.00     0.001 A 
ATOM     77  C   UNL A   1      34.697  32.013  27.577  1.00  0.00     0.000 A 
ENDBRANCH  58  72
BRANCH  59  78
ATOM     78  C   UNL A   1      44.454  28.045  34.838  1.00  0.00    -0.014 A 
ATOM     79  C   UNL A   1      45.715  28.651  34.725  1.00  0.00     0.009 A 
ATOM     80  C   UNL A   1      44.294  26.979  35.738  1.00  0.00     0.009 A 
ATOM     81  C   UNL A   1      46.798  28.178  35.470  1.00  0.00     0.001 A 
ATOM     82  C   UNL A   1      45.371  26.531  36.506  1.00  0.00     0.001 A 
ATOM     83  C   UNL A   1      46.624  27.122  36.363  1.00  0.00     0.000 A 
ENDBRANCH  59  78
BRANCH  71  84
ATOM     84  C   UNL A   1      39.210  32.494  35.945  1.00  0.00    -0.014 A 
ATOM     85  C   UNL A   1      38.394  31.959  36.955  1.00  0.00     0.009 A 
ATOM     86  C   UNL A   1      39.686  33.808  36.083  1.00  0.00     0.009 A 
ATOM     87  C   UNL A   1      38.029  32.738  38.054  1.00  0.00     0.001 A 
ATOM     88  C   UNL A   1      39.348  34.573  37.201  1.00  0.00     0.001 A 
ATOM     89  C   UNL A   1      38.510  34.041  38.180  1.00  0.00     0.000 A 
ENDBRANCH  71  84
ENDBRANCH  45  46
ENDBRANCH  38  40
ENDBRANCH  37  38
ENDBRANCH  36  37
ENDBRANCH  35  36
ENDBRANCH  34  35
ENDBRANCH  33  34
ENDBRANCH  32  33
ENDBRANCH  31  32
ENDBRANCH  30  31
ENDBRANCH   1  30
TORSDOF 25
ENDMDL
