MODEL 1
REMARK VINA RESULT:      -7.6      0.000      0.000
REMARK SMILES CCCn1ncc(C(=O)N2CCC[C@@H]2C(=O)OCCOCCOCCOCCOC(=O)c2ccc(-c3c4nc(c(-c5ccccc5)c5ccc([nH]5)c(-c5ccccc5)c5nc(c(-c6ccccc6)c6ccc3[nH]6)C=C5)C=C4)cc2)c1C
REMARK SMILES IDX 22 1 21 2 20 3 19 4 18 5 17 6 15 7 16 8 14 9 10 10 11 11
REMARK SMILES IDX 12 12 13 13 8 14 9 15 7 16 4 17 5 18 80 19 6 20 81 21 3 22
REMARK SMILES IDX 2 23 1 24 23 25 24 26 25 27 26 28 27 29 28 30 29 31 30 32
REMARK SMILES IDX 31 33 32 34 33 35 79 36 34 37 78 38 35 39 36 40 37 41 72 42
REMARK SMILES IDX 38 43 77 44 71 45 73 46 39 47 76 48 70 49 69 50 40 52 62 53
REMARK SMILES IDX 47 54 61 55 48 56 51 57 60 58 74 59 49 60 50 61 59 63 75 64
REMARK SMILES IDX 52 65 41 66 42 67 46 68 43 69 45 70 44 71 63 72 64 73 68 74
REMARK SMILES IDX 65 75 67 76 66 77 53 78 54 79 58 80 55 81 57 82 56 83
REMARK H PARENT 73 51 51 62
REMARK Flexibility Score: inf
ROOT
ATOM      1  C   UNL A   1      46.700  41.839  23.453  1.00  0.00     0.188 C 
ENDROOT
BRANCH   1   2
ATOM      2  C   UNL A   1      47.092  41.458  22.012  1.00  0.00     0.188 C 
BRANCH   2   3
ATOM      3  O   UNL A   1      47.443  42.454  21.060  1.00  0.00    -0.376 OA
BRANCH   3   4
ATOM      4  C   UNL A   1      47.234  43.835  21.328  1.00  0.00     0.202 C 
BRANCH   4   5
ATOM      5  C   UNL A   1      48.386  44.820  21.116  1.00  0.00     0.261 C 
BRANCH   5   6
ATOM      6  O   UNL A   1      48.461  45.367  19.787  1.00  0.00    -0.462 OA
BRANCH   6   7
ATOM      7  C   UNL A   1      48.804  46.676  19.719  1.00  0.00     0.328 C 
ATOM      8  O   UNL A   1      49.008  47.389  20.699  1.00  0.00    -0.250 OA
BRANCH   7   9
ATOM      9  C   UNL A   1      48.792  47.252  18.298  1.00  0.00     0.195 C 
ATOM     10  N   UNL A   1      47.438  47.306  17.779  1.00  0.00    -0.325 N 
ATOM     11  C   UNL A   1      47.481  47.423  16.347  1.00  0.00     0.121 C 
ATOM     12  C   UNL A   1      48.594  46.460  15.988  1.00  0.00     0.024 C 
ATOM     13  C   UNL A   1      49.561  46.533  17.179  1.00  0.00     0.039 C 
BRANCH  10  14
ATOM     14  C   UNL A   1      46.428  47.875  18.516  1.00  0.00     0.258 C 
ATOM     15  O   UNL A   1      46.528  48.952  19.088  1.00  0.00    -0.269 OA
BRANCH  14  16
ATOM     16  C   UNL A   1      45.250  47.016  18.527  1.00  0.00     0.080 A 
ATOM     17  N   UNL A   1      43.302  46.057  18.151  1.00  0.00    -0.269 N 
ATOM     18  N   UNL A   1      43.849  45.306  19.129  1.00  0.00    -0.180 NA
ATOM     19  C   UNL A   1      44.085  47.127  17.783  1.00  0.00     0.048 A 
ATOM     20  C   UNL A   1      45.027  45.882  19.345  1.00  0.00     0.149 A 
ATOM     21  C   UNL A   1      43.678  48.174  16.812  1.00  0.00     0.067 C 
BRANCH  17  22
ATOM     22  C   UNL A   1      42.060  45.584  17.570  1.00  0.00     0.144 C 
BRANCH  22  23
ATOM     23  C   UNL A   1      41.058  45.040  18.584  1.00  0.00     0.020 C 
ATOM     24  C   UNL A   1      41.223  43.552  18.844  1.00  0.00     0.006 C 
ENDBRANCH  22  23
ENDBRANCH  17  22
ENDBRANCH  14  16
ENDBRANCH  10  14
ENDBRANCH   7   9
ENDBRANCH   6   7
ENDBRANCH   5   6
ENDBRANCH   4   5
ENDBRANCH   3   4
ENDBRANCH   2   3
ENDBRANCH   1   2
BRANCH   1  25
ATOM     25  O   UNL A   1      45.309  41.966  23.686  1.00  0.00    -0.377 OA
BRANCH  25  26
ATOM     26  C   UNL A   1      44.947  42.507  24.953  1.00  0.00     0.188 C 
BRANCH  26  27
ATOM     27  C   UNL A   1      43.925  41.719  25.796  1.00  0.00     0.188 C 
BRANCH  27  28
ATOM     28  O   UNL A   1      42.641  41.598  25.178  1.00  0.00    -0.376 OA
BRANCH  28  29
ATOM     29  C   UNL A   1      41.693  40.734  25.793  1.00  0.00     0.202 C 
BRANCH  29  30
ATOM     30  C   UNL A   1      42.058  40.353  27.231  1.00  0.00     0.261 C 
BRANCH  30  31
ATOM     31  O   UNL A   1      42.412  38.981  27.410  1.00  0.00    -0.460 OA
BRANCH  31  32
ATOM     32  C   UNL A   1      43.097  38.679  28.531  1.00  0.00     0.338 C 
ATOM     33  O   UNL A   1      43.478  39.455  29.390  1.00  0.00    -0.246 OA
BRANCH  32  34
ATOM     34  C   UNL A   1      43.391  37.238  28.554  1.00  0.00     0.060 A 
ATOM     35  C   UNL A   1      42.647  36.441  27.681  1.00  0.00     0.016 A 
ATOM     36  C   UNL A   1      44.188  36.677  29.563  1.00  0.00     0.016 A 
ATOM     37  C   UNL A   1      42.496  35.104  27.977  1.00  0.00     0.010 A 
ATOM     38  C   UNL A   1      44.040  35.338  29.859  1.00  0.00     0.010 A 
ATOM     39  C   UNL A   1      43.103  34.604  29.133  1.00  0.00    -0.014 A 
BRANCH  39  40
ATOM     40  C   UNL A   1      42.534  33.392  29.690  1.00  0.00     0.031 A 
ATOM     41  C   UNL A   1      43.176  32.112  29.352  1.00  0.00     0.074 A 
ATOM     42  C   UNL A   1      41.491  33.457  30.540  1.00  0.00     0.049 A 
ATOM     43  N   UNL A   1      42.640  31.094  28.765  1.00  0.00    -0.248 NA
ATOM     44  C   UNL A   1      44.594  31.954  29.692  1.00  0.00     0.031 C 
ATOM     45  C   UNL A   1      40.953  34.656  31.193  1.00  0.00     0.029 A 
ATOM     46  N   UNL A   1      40.765  32.443  31.093  1.00  0.00    -0.354 N 
ATOM     47  C   UNL A   1      43.600  30.093  28.811  1.00  0.00     0.074 A 
ATOM     48  C   UNL A   1      44.817  30.704  29.289  1.00  0.00     0.031 C 
ATOM     49  C   UNL A   1      40.147  34.280  32.209  1.00  0.00     0.029 A 
ATOM     50  C   UNL A   1      40.022  32.831  32.195  1.00  0.00     0.049 A 
ATOM     51  H   UNL A   1      40.769  31.523  30.742  1.00  0.00     0.167 HD
ATOM     52  C   UNL A   1      43.281  28.780  28.671  1.00  0.00     0.031 A 
ATOM     53  C   UNL A   1      39.404  32.024  33.086  1.00  0.00     0.031 A 
ATOM     54  C   UNL A   1      41.995  28.574  28.065  1.00  0.00     0.049 A 
ATOM     55  C   UNL A   1      39.249  30.685  32.478  1.00  0.00     0.074 A 
ATOM     56  C   UNL A   1      41.412  28.914  26.861  1.00  0.00     0.029 A 
ATOM     57  N   UNL A   1      40.972  28.151  28.875  1.00  0.00    -0.354 N 
ATOM     58  N   UNL A   1      38.416  30.409  31.517  1.00  0.00    -0.248 NA
ATOM     59  C   UNL A   1      40.272  29.678  32.721  1.00  0.00     0.031 C 
ATOM     60  C   UNL A   1      40.024  29.071  27.139  1.00  0.00     0.029 A 
ATOM     61  C   UNL A   1      39.838  28.825  28.501  1.00  0.00     0.049 A 
ATOM     62  H   UNL A   1      41.040  27.483  29.596  1.00  0.00     0.167 HD
ATOM     63  C   UNL A   1      39.044  29.419  30.777  1.00  0.00     0.074 A 
ATOM     64  C   UNL A   1      40.096  28.909  31.645  1.00  0.00     0.031 C 
ATOM     65  C   UNL A   1      38.839  29.310  29.430  1.00  0.00     0.031 A 
BRANCH  52  66
ATOM     66  C   UNL A   1      43.995  27.695  29.428  1.00  0.00    -0.014 A 
ATOM     67  C   UNL A   1      44.652  26.679  28.717  1.00  0.00     0.009 A 
ATOM     68  C   UNL A   1      43.812  27.494  30.812  1.00  0.00     0.009 A 
ATOM     69  C   UNL A   1      45.079  25.509  29.356  1.00  0.00     0.001 A 
ATOM     70  C   UNL A   1      44.278  26.350  31.460  1.00  0.00     0.001 A 
ATOM     71  C   UNL A   1      44.893  25.346  30.726  1.00  0.00     0.000 A 
ENDBRANCH  52  66
BRANCH  53  72
ATOM     72  C   UNL A   1      39.117  32.291  34.510  1.00  0.00    -0.014 A 
ATOM     73  C   UNL A   1      37.797  32.354  34.978  1.00  0.00     0.009 A 
ATOM     74  C   UNL A   1      40.151  32.270  35.465  1.00  0.00     0.009 A 
ATOM     75  C   UNL A   1      37.524  32.375  36.352  1.00  0.00     0.001 A 
ATOM     76  C   UNL A   1      39.880  32.305  36.834  1.00  0.00     0.001 A 
ATOM     77  C   UNL A   1      38.564  32.346  37.278  1.00  0.00     0.000 A 
ENDBRANCH  53  72
BRANCH  65  78
ATOM     78  C   UNL A   1      37.659  30.036  28.837  1.00  0.00    -0.014 A 
ATOM     79  C   UNL A   1      36.492  29.372  28.422  1.00  0.00     0.009 A 
ATOM     80  C   UNL A   1      37.669  31.439  28.817  1.00  0.00     0.009 A 
ATOM     81  C   UNL A   1      35.385  30.088  27.958  1.00  0.00     0.001 A 
ATOM     82  C   UNL A   1      36.555  32.156  28.375  1.00  0.00     0.001 A 
ATOM     83  C   UNL A   1      35.416  31.481  27.939  1.00  0.00     0.000 A 
ENDBRANCH  65  78
ENDBRANCH  39  40
ENDBRANCH  32  34
ENDBRANCH  31  32
ENDBRANCH  30  31
ENDBRANCH  29  30
ENDBRANCH  28  29
ENDBRANCH  27  28
ENDBRANCH  26  27
ENDBRANCH  25  26
ENDBRANCH   1  25
TORSDOF 24
ENDMDL
MODEL 2
REMARK VINA RESULT:      -7.3      7.758     12.010
REMARK SMILES CCCn1ncc(C(=O)N2CCC[C@@H]2C(=O)OCCOCCOCCOCCOC(=O)c2ccc(-c3c4nc(c(-c5ccccc5)c5ccc([nH]5)c(-c5ccccc5)c5nc(c(-c6ccccc6)c6ccc3[nH]6)C=C5)C=C4)cc2)c1C
REMARK SMILES IDX 22 1 21 2 20 3 19 4 18 5 17 6 15 7 16 8 14 9 10 10 11 11
REMARK SMILES IDX 12 12 13 13 8 14 9 15 7 16 4 17 5 18 80 19 6 20 81 21 3 22
REMARK SMILES IDX 2 23 1 24 23 25 24 26 25 27 26 28 27 29 28 30 29 31 30 32
REMARK SMILES IDX 31 33 32 34 33 35 79 36 34 37 78 38 35 39 36 40 37 41 72 42
REMARK SMILES IDX 38 43 77 44 71 45 73 46 39 47 76 48 70 49 69 50 40 52 62 53
REMARK SMILES IDX 47 54 61 55 48 56 51 57 60 58 74 59 49 60 50 61 59 63 75 64
REMARK SMILES IDX 52 65 41 66 42 67 46 68 43 69 45 70 44 71 63 72 64 73 68 74
REMARK SMILES IDX 65 75 67 76 66 77 53 78 54 79 58 80 55 81 57 82 56 83
REMARK H PARENT 73 51 51 62
REMARK Flexibility Score: inf
ROOT
ATOM      1  C   UNL A   1      46.278  32.632  26.850  1.00  0.00     0.188 C 
ENDROOT
BRANCH   1   2
ATOM      2  C   UNL A   1      47.449  31.780  27.375  1.00  0.00     0.188 C 
BRANCH   2   3
ATOM      3  O   UNL A   1      47.288  30.928  28.502  1.00  0.00    -0.376 OA
BRANCH   3   4
ATOM      4  C   UNL A   1      46.002  30.667  29.049  1.00  0.00     0.202 C 
BRANCH   4   5
ATOM      5  C   UNL A   1      45.373  29.285  28.852  1.00  0.00     0.261 C 
BRANCH   5   6
ATOM      6  O   UNL A   1      45.025  28.981  27.489  1.00  0.00    -0.462 OA
BRANCH   6   7
ATOM      7  C   UNL A   1      43.784  29.370  27.109  1.00  0.00     0.328 C 
ATOM      8  O   UNL A   1      43.536  30.428  26.535  1.00  0.00    -0.250 OA
BRANCH   7   9
ATOM      9  C   UNL A   1      42.665  28.432  27.577  1.00  0.00     0.195 C 
ATOM     10  N   UNL A   1      41.874  27.974  26.450  1.00  0.00    -0.325 N 
ATOM     11  C   UNL A   1      40.613  27.475  26.923  1.00  0.00     0.121 C 
ATOM     12  C   UNL A   1      40.250  28.497  27.981  1.00  0.00     0.024 C 
ATOM     13  C   UNL A   1      41.600  28.946  28.558  1.00  0.00     0.039 C 
BRANCH  10  14
ATOM     14  C   UNL A   1      42.483  27.447  25.336  1.00  0.00     0.258 C 
ATOM     15  O   UNL A   1      42.565  28.033  24.266  1.00  0.00    -0.269 OA
BRANCH  14  16
ATOM     16  C   UNL A   1      42.989  26.107  25.610  1.00  0.00     0.080 A 
ATOM     17  N   UNL A   1      44.238  24.324  25.947  1.00  0.00    -0.269 N 
ATOM     18  N   UNL A   1      42.977  23.872  26.109  1.00  0.00    -0.180 NA
ATOM     19  C   UNL A   1      44.299  25.654  25.600  1.00  0.00     0.048 A 
ATOM     20  C   UNL A   1      42.229  24.953  25.915  1.00  0.00     0.149 A 
ATOM     21  C   UNL A   1      45.549  26.378  25.255  1.00  0.00     0.067 C 
BRANCH  17  22
ATOM     22  C   UNL A   1      45.317  23.404  26.257  1.00  0.00     0.144 C 
BRANCH  22  23
ATOM     23  C   UNL A   1      45.948  22.743  25.035  1.00  0.00     0.020 C 
ATOM     24  C   UNL A   1      45.016  22.695  23.836  1.00  0.00     0.006 C 
ENDBRANCH  22  23
ENDBRANCH  17  22
ENDBRANCH  14  16
ENDBRANCH  10  14
ENDBRANCH   7   9
ENDBRANCH   6   7
ENDBRANCH   5   6
ENDBRANCH   4   5
ENDBRANCH   3   4
ENDBRANCH   2   3
ENDBRANCH   1   2
BRANCH   1  25
ATOM     25  O   UNL A   1      46.602  33.517  25.793  1.00  0.00    -0.377 OA
BRANCH  25  26
ATOM     26  C   UNL A   1      46.057  34.828  25.903  1.00  0.00     0.188 C 
BRANCH  26  27
ATOM     27  C   UNL A   1      44.961  35.056  26.963  1.00  0.00     0.188 C 
BRANCH  27  28
ATOM     28  O   UNL A   1      44.508  36.410  27.039  1.00  0.00    -0.376 OA
BRANCH  28  29
ATOM     29  C   UNL A   1      45.495  37.433  27.082  1.00  0.00     0.202 C 
BRANCH  29  30
ATOM     30  C   UNL A   1      45.360  38.361  28.292  1.00  0.00     0.261 C 
BRANCH  30  31
ATOM     31  O   UNL A   1      44.142  38.212  29.022  1.00  0.00    -0.460 OA
BRANCH  31  32
ATOM     32  C   UNL A   1      44.227  38.328  30.362  1.00  0.00     0.338 C 
ATOM     33  O   UNL A   1      44.362  39.356  31.003  1.00  0.00    -0.246 OA
BRANCH  32  34
ATOM     34  C   UNL A   1      44.196  36.991  30.974  1.00  0.00     0.060 A 
ATOM     35  C   UNL A   1      43.392  36.039  30.342  1.00  0.00     0.016 A 
ATOM     36  C   UNL A   1      44.742  36.764  32.246  1.00  0.00     0.016 A 
ATOM     37  C   UNL A   1      42.923  34.977  31.083  1.00  0.00     0.010 A 
ATOM     38  C   UNL A   1      44.275  35.698  32.989  1.00  0.00     0.010 A 
ATOM     39  C   UNL A   1      43.282  34.894  32.432  1.00  0.00    -0.014 A 
BRANCH  39  40
ATOM     40  C   UNL A   1      42.408  34.115  33.288  1.00  0.00     0.031 A 
ATOM     41  C   UNL A   1      42.549  32.651  33.266  1.00  0.00     0.074 A 
ATOM     42  C   UNL A   1      41.544  34.730  34.119  1.00  0.00     0.049 A 
ATOM     43  N   UNL A   1      41.646  31.778  32.965  1.00  0.00    -0.248 NA
ATOM     44  C   UNL A   1      43.863  32.091  33.601  1.00  0.00     0.031 C 
ATOM     45  C   UNL A   1      41.508  36.156  34.464  1.00  0.00     0.029 A 
ATOM     46  N   UNL A   1      40.588  34.185  34.925  1.00  0.00    -0.354 N 
ATOM     47  C   UNL A   1      42.220  30.544  33.238  1.00  0.00     0.074 A 
ATOM     48  C   UNL A   1      43.615  30.785  33.519  1.00  0.00     0.031 C 
ATOM     49  C   UNL A   1      40.738  36.324  35.560  1.00  0.00     0.029 A 
ATOM     50  C   UNL A   1      40.140  35.046  35.912  1.00  0.00     0.049 A 
ATOM     51  H   UNL A   1      40.249  33.267  34.815  1.00  0.00     0.167 HD
ATOM     52  C   UNL A   1      41.471  29.429  33.438  1.00  0.00     0.031 A 
ATOM     53  C   UNL A   1      39.390  34.729  36.991  1.00  0.00     0.031 A 
ATOM     54  C   UNL A   1      40.131  29.551  32.933  1.00  0.00     0.049 A 
ATOM     55  C   UNL A   1      38.735  33.427  36.741  1.00  0.00     0.074 A 
ATOM     56  C   UNL A   1      39.567  29.790  31.696  1.00  0.00     0.029 A 
ATOM     57  N   UNL A   1      39.120  29.705  33.847  1.00  0.00    -0.354 N 
ATOM     58  N   UNL A   1      37.759  33.248  35.899  1.00  0.00    -0.248 NA
ATOM     59  C   UNL A   1      39.387  32.210  37.204  1.00  0.00     0.031 C 
ATOM     60  C   UNL A   1      38.348  30.479  31.960  1.00  0.00     0.029 A 
ATOM     61  C   UNL A   1      38.240  30.628  33.344  1.00  0.00     0.049 A 
ATOM     62  H   UNL A   1      39.040  29.238  34.710  1.00  0.00     0.167 HD
ATOM     63  C   UNL A   1      37.939  31.961  35.416  1.00  0.00     0.074 A 
ATOM     64  C   UNL A   1      38.851  31.328  36.359  1.00  0.00     0.031 C 
ATOM     65  C   UNL A   1      37.565  31.627  34.145  1.00  0.00     0.031 A 
BRANCH  52  66
ATOM     66  C   UNL A   1      41.862  28.365  34.425  1.00  0.00    -0.014 A 
ATOM     67  C   UNL A   1      42.166  27.075  33.962  1.00  0.00     0.009 A 
ATOM     68  C   UNL A   1      41.680  28.521  35.815  1.00  0.00     0.009 A 
ATOM     69  C   UNL A   1      42.255  25.992  34.844  1.00  0.00     0.001 A 
ATOM     70  C   UNL A   1      41.814  27.452  36.702  1.00  0.00     0.001 A 
ATOM     71  C   UNL A   1      42.080  26.181  36.213  1.00  0.00     0.000 A 
ENDBRANCH  52  66
BRANCH  53  72
ATOM     72  C   UNL A   1      39.363  35.395  38.309  1.00  0.00    -0.014 A 
ATOM     73  C   UNL A   1      39.576  36.776  38.422  1.00  0.00     0.009 A 
ATOM     74  C   UNL A   1      38.910  34.705  39.450  1.00  0.00     0.009 A 
ATOM     75  C   UNL A   1      39.324  37.443  39.627  1.00  0.00     0.001 A 
ATOM     76  C   UNL A   1      38.671  35.368  40.656  1.00  0.00     0.001 A 
ATOM     77  C   UNL A   1      38.868  36.741  40.741  1.00  0.00     0.000 A 
ENDBRANCH  53  72
BRANCH  65  78
ATOM     78  C   UNL A   1      36.635  32.564  33.417  1.00  0.00    -0.014 A 
ATOM     79  C   UNL A   1      36.861  33.949  33.344  1.00  0.00     0.009 A 
ATOM     80  C   UNL A   1      35.574  32.022  32.676  1.00  0.00     0.009 A 
ATOM     81  C   UNL A   1      36.024  34.774  32.587  1.00  0.00     0.001 A 
ATOM     82  C   UNL A   1      34.750  32.843  31.902  1.00  0.00     0.001 A 
ATOM     83  C   UNL A   1      34.971  34.219  31.864  1.00  0.00     0.000 A 
ENDBRANCH  65  78
ENDBRANCH  39  40
ENDBRANCH  32  34
ENDBRANCH  31  32
ENDBRANCH  30  31
ENDBRANCH  29  30
ENDBRANCH  28  29
ENDBRANCH  27  28
ENDBRANCH  26  27
ENDBRANCH  25  26
ENDBRANCH   1  25
TORSDOF 24
ENDMDL
MODEL 3
REMARK VINA RESULT:      -7.3      2.812      5.487
REMARK SMILES CCCn1ncc(C(=O)N2CCC[C@@H]2C(=O)OCCOCCOCCOCCOC(=O)c2ccc(-c3c4nc(c(-c5ccccc5)c5ccc([nH]5)c(-c5ccccc5)c5nc(c(-c6ccccc6)c6ccc3[nH]6)C=C5)C=C4)cc2)c1C
REMARK SMILES IDX 22 1 21 2 20 3 19 4 18 5 17 6 15 7 16 8 14 9 10 10 11 11
REMARK SMILES IDX 12 12 13 13 8 14 9 15 7 16 4 17 5 18 80 19 6 20 81 21 3 22
REMARK SMILES IDX 2 23 1 24 23 25 24 26 25 27 26 28 27 29 28 30 29 31 30 32
REMARK SMILES IDX 31 33 32 34 33 35 79 36 34 37 78 38 35 39 36 40 37 41 72 42
REMARK SMILES IDX 38 43 77 44 71 45 73 46 39 47 76 48 70 49 69 50 40 52 62 53
REMARK SMILES IDX 47 54 61 55 48 56 51 57 60 58 74 59 49 60 50 61 59 63 75 64
REMARK SMILES IDX 52 65 41 66 42 67 46 68 43 69 45 70 44 71 63 72 64 73 68 74
REMARK SMILES IDX 65 75 67 76 66 77 53 78 54 79 58 80 55 81 57 82 56 83
REMARK H PARENT 73 51 51 62
REMARK Flexibility Score: inf
ROOT
ATOM      1  C   UNL A   1      43.404  38.570  27.136  1.00  0.00     0.188 C 
ENDROOT
BRANCH   1   2
ATOM      2  C   UNL A   1      41.971  39.096  26.926  1.00  0.00     0.188 C 
BRANCH   2   3
ATOM      3  O   UNL A   1      41.722  40.480  26.710  1.00  0.00    -0.376 OA
BRANCH   3   4
ATOM      4  C   UNL A   1      41.406  40.978  25.417  1.00  0.00     0.202 C 
BRANCH   4   5
ATOM      5  C   UNL A   1      42.483  41.715  24.617  1.00  0.00     0.261 C 
BRANCH   5   6
ATOM      6  O   UNL A   1      42.250  41.745  23.197  1.00  0.00    -0.462 OA
BRANCH   6   7
ATOM      7  C   UNL A   1      42.662  42.873  22.568  1.00  0.00     0.328 C 
ATOM      8  O   UNL A   1      42.958  43.917  23.143  1.00  0.00    -0.250 OA
BRANCH   7   9
ATOM      9  C   UNL A   1      42.606  42.789  21.038  1.00  0.00     0.195 C 
ATOM     10  N   UNL A   1      43.825  43.314  20.451  1.00  0.00    -0.325 N 
ATOM     11  C   UNL A   1      43.590  43.631  19.069  1.00  0.00     0.121 C 
ATOM     12  C   UNL A   1      42.216  44.266  19.122  1.00  0.00     0.024 C 
ATOM     13  C   UNL A   1      41.505  43.541  20.275  1.00  0.00     0.039 C 
BRANCH  10  14
ATOM     14  C   UNL A   1      45.054  42.888  20.890  1.00  0.00     0.258 C 
ATOM     15  O   UNL A   1      45.231  41.851  21.514  1.00  0.00    -0.269 OA
BRANCH  14  16
ATOM     16  C   UNL A   1      46.094  43.843  20.525  1.00  0.00     0.080 A 
ATOM     17  N   UNL A   1      47.424  45.592  20.356  1.00  0.00    -0.269 N 
ATOM     18  N   UNL A   1      47.911  44.725  19.445  1.00  0.00    -0.180 NA
ATOM     19  C   UNL A   1      46.301  45.128  21.004  1.00  0.00     0.048 A 
ATOM     20  C   UNL A   1      47.113  43.669  19.558  1.00  0.00     0.149 A 
ATOM     21  C   UNL A   1      45.500  45.919  21.972  1.00  0.00     0.067 C 
BRANCH  17  22
ATOM     22  C   UNL A   1      48.188  46.802  20.596  1.00  0.00     0.144 C 
BRANCH  22  23
ATOM     23  C   UNL A   1      49.389  46.614  21.518  1.00  0.00     0.020 C 
ATOM     24  C   UNL A   1      49.041  46.775  22.988  1.00  0.00     0.006 C 
ENDBRANCH  22  23
ENDBRANCH  17  22
ENDBRANCH  14  16
ENDBRANCH  10  14
ENDBRANCH   7   9
ENDBRANCH   6   7
ENDBRANCH   5   6
ENDBRANCH   4   5
ENDBRANCH   3   4
ENDBRANCH   2   3
ENDBRANCH   1   2
BRANCH   1  25
ATOM     25  O   UNL A   1      44.169  39.274  28.097  1.00  0.00    -0.377 OA
BRANCH  25  26
ATOM     26  C   UNL A   1      44.044  38.811  29.438  1.00  0.00     0.188 C 
BRANCH  26  27
ATOM     27  C   UNL A   1      45.115  37.828  29.954  1.00  0.00     0.188 C 
BRANCH  27  28
ATOM     28  O   UNL A   1      44.901  36.476  29.540  1.00  0.00    -0.376 OA
BRANCH  28  29
ATOM     29  C   UNL A   1      46.047  35.652  29.370  1.00  0.00     0.202 C 
BRANCH  29  30
ATOM     30  C   UNL A   1      46.894  36.028  28.151  1.00  0.00     0.261 C 
BRANCH  30  31
ATOM     31  O   UNL A   1      46.262  35.791  26.893  1.00  0.00    -0.460 OA
BRANCH  31  32
ATOM     32  C   UNL A   1      46.863  34.901  26.078  1.00  0.00     0.338 C 
ATOM     33  O   UNL A   1      47.809  35.104  25.338  1.00  0.00    -0.246 OA
BRANCH  32  34
ATOM     34  C   UNL A   1      46.158  33.612  26.153  1.00  0.00     0.060 A 
ATOM     35  C   UNL A   1      44.773  33.652  25.974  1.00  0.00     0.016 A 
ATOM     36  C   UNL A   1      46.804  32.458  26.622  1.00  0.00     0.016 A 
ATOM     37  C   UNL A   1      44.010  32.636  26.505  1.00  0.00     0.010 A 
ATOM     38  C   UNL A   1      46.041  31.438  27.152  1.00  0.00     0.010 A 
ATOM     39  C   UNL A   1      44.658  31.604  27.190  1.00  0.00    -0.014 A 
BRANCH  39  40
ATOM     40  C   UNL A   1      43.860  30.861  28.147  1.00  0.00     0.031 A 
ATOM     41  C   UNL A   1      43.090  29.708  27.654  1.00  0.00     0.074 A 
ATOM     42  C   UNL A   1      43.883  31.189  29.454  1.00  0.00     0.049 A 
ATOM     43  N   UNL A   1      41.813  29.529  27.717  1.00  0.00    -0.248 NA
ATOM     44  C   UNL A   1      43.834  28.630  26.993  1.00  0.00     0.031 C 
ATOM     45  C   UNL A   1      44.818  32.101  30.122  1.00  0.00     0.029 A 
ATOM     46  N   UNL A   1      43.146  30.681  30.483  1.00  0.00    -0.354 N 
ATOM     47  C   UNL A   1      41.598  28.237  27.258  1.00  0.00     0.074 A 
ATOM     48  C   UNL A   1      42.854  27.769  26.724  1.00  0.00     0.031 C 
ATOM     49  C   UNL A   1      44.739  31.912  31.457  1.00  0.00     0.029 A 
ATOM     50  C   UNL A   1      43.672  30.964  31.733  1.00  0.00     0.049 A 
ATOM     51  H   UNL A   1      42.319  30.163  30.350  1.00  0.00     0.167 HD
ATOM     52  C   UNL A   1      40.463  27.549  27.549  1.00  0.00     0.031 A 
ATOM     53  C   UNL A   1      43.314  30.407  32.911  1.00  0.00     0.031 A 
ATOM     54  C   UNL A   1      39.384  28.394  27.978  1.00  0.00     0.049 A 
ATOM     55  C   UNL A   1      41.981  29.786  32.752  1.00  0.00     0.074 A 
ATOM     56  C   UNL A   1      38.684  29.447  27.426  1.00  0.00     0.029 A 
ATOM     57  N   UNL A   1      39.058  28.380  29.311  1.00  0.00    -0.354 N 
ATOM     58  N   UNL A   1      40.871  30.454  32.630  1.00  0.00    -0.248 NA
ATOM     59  C   UNL A   1      41.900  28.376  32.399  1.00  0.00     0.031 C 
ATOM     60  C   UNL A   1      38.294  30.266  28.525  1.00  0.00     0.029 A 
ATOM     61  C   UNL A   1      38.786  29.670  29.687  1.00  0.00     0.049 A 
ATOM     62  H   UNL A   1      39.024  27.586  29.892  1.00  0.00     0.167 HD
ATOM     63  C   UNL A   1      40.075  29.672  31.809  1.00  0.00     0.074 A 
ATOM     64  C   UNL A   1      40.694  28.353  31.828  1.00  0.00     0.031 C 
ATOM     65  C   UNL A   1      39.163  30.239  30.964  1.00  0.00     0.031 A 
BRANCH  52  66
ATOM     66  C   UNL A   1      40.465  26.065  27.791  1.00  0.00    -0.014 A 
ATOM     67  C   UNL A   1      41.579  25.469  28.402  1.00  0.00     0.009 A 
ATOM     68  C   UNL A   1      39.524  25.201  27.192  1.00  0.00     0.009 A 
ATOM     69  C   UNL A   1      41.755  24.080  28.390  1.00  0.00     0.001 A 
ATOM     70  C   UNL A   1      39.673  23.814  27.219  1.00  0.00     0.001 A 
ATOM     71  C   UNL A   1      40.801  23.254  27.800  1.00  0.00     0.000 A 
ENDBRANCH  52  66
BRANCH  53  72
ATOM     72  C   UNL A   1      44.147  30.211  34.115  1.00  0.00    -0.014 A 
ATOM     73  C   UNL A   1      43.565  29.880  35.347  1.00  0.00     0.009 A 
ATOM     74  C   UNL A   1      45.548  30.134  34.011  1.00  0.00     0.009 A 
ATOM     75  C   UNL A   1      44.357  29.469  36.426  1.00  0.00     0.001 A 
ATOM     76  C   UNL A   1      46.340  29.738  35.091  1.00  0.00     0.001 A 
ATOM     77  C   UNL A   1      45.742  29.394  36.297  1.00  0.00     0.000 A 
ENDBRANCH  53  72
BRANCH  65  78
ATOM     78  C   UNL A   1      38.785  31.678  31.202  1.00  0.00    -0.014 A 
ATOM     79  C   UNL A   1      39.343  32.739  30.468  1.00  0.00     0.009 A 
ATOM     80  C   UNL A   1      37.745  31.964  32.099  1.00  0.00     0.009 A 
ATOM     81  C   UNL A   1      38.904  34.052  30.658  1.00  0.00     0.001 A 
ATOM     82  C   UNL A   1      37.290  33.274  32.273  1.00  0.00     0.001 A 
ATOM     83  C   UNL A   1      37.875  34.318  31.558  1.00  0.00     0.000 A 
ENDBRANCH  65  78
ENDBRANCH  39  40
ENDBRANCH  32  34
ENDBRANCH  31  32
ENDBRANCH  30  31
ENDBRANCH  29  30
ENDBRANCH  28  29
ENDBRANCH  27  28
ENDBRANCH  26  27
ENDBRANCH  25  26
ENDBRANCH   1  25
TORSDOF 24
ENDMDL
