MODEL 1
REMARK VINA RESULT:      -9.2      0.000      0.000
REMARK SMILES CC(=O)Nc1cccc(-c2cc(F)ccc2C(=O)OCCOCCOCCOCCOC(=O)c2ccc(-c3c4nc(c(-c5ccccc5)c5ccc([nH]5)c(-c5ccccc5)c5nc(c(-c6ccccc6)c6ccc3[nH]6)C=C5)C=C4)cc2)c1
REMARK SMILES IDX 25 1 24 2 23 3 22 4 21 5 20 6 19 7 17 8 18 9 16 10 10 11
REMARK SMILES IDX 11 12 12 13 15 14 13 15 14 16 9 17 5 18 6 19 82 20 7 21 8 22
REMARK SMILES IDX 4 23 1 24 2 25 3 26 26 28 27 29 28 30 29 31 30 32 31 33
REMARK SMILES IDX 32 34 33 35 34 36 35 37 81 38 36 39 80 40 37 41 38 42 39 43
REMARK SMILES IDX 74 44 40 45 79 46 73 47 75 48 41 49 78 50 72 51 71 52 42 54
REMARK SMILES IDX 64 55 49 56 63 57 50 58 53 59 62 60 76 61 51 62 52 63 61 65
REMARK SMILES IDX 77 66 54 67 43 68 44 69 48 70 45 71 47 72 46 73 65 74 66 75
REMARK SMILES IDX 70 76 67 77 69 78 68 79 55 80 56 81 60 82 57 83 59 84 58 85
REMARK H PARENT 4 27 75 53 53 64
REMARK Flexibility Score: inf
ROOT
ATOM      1  O   UNL A   1      34.521  25.707  25.188  1.00  0.00    -0.377 OA
ENDROOT
BRANCH   1   2
ATOM      2  C   UNL A   1      33.376  26.353  25.737  1.00  0.00     0.188 C 
BRANCH   2   3
ATOM      3  C   UNL A   1      33.226  27.897  25.785  1.00  0.00     0.188 C 
BRANCH   3   4
ATOM      4  O   UNL A   1      33.300  28.467  27.079  1.00  0.00    -0.376 OA
BRANCH   4   5
ATOM      5  C   UNL A   1      32.921  29.810  27.295  1.00  0.00     0.202 C 
BRANCH   5   6
ATOM      6  C   UNL A   1      33.976  30.918  27.230  1.00  0.00     0.261 C 
BRANCH   6   7
ATOM      7  O   UNL A   1      33.764  31.990  28.151  1.00  0.00    -0.460 OA
BRANCH   7   8
ATOM      8  C   UNL A   1      34.733  32.920  28.263  1.00  0.00     0.338 C 
ATOM      9  O   UNL A   1      35.715  33.027  27.547  1.00  0.00    -0.246 OA
BRANCH   8  10
ATOM     10  C   UNL A   1      34.367  33.918  29.310  1.00  0.00     0.068 A 
ATOM     11  C   UNL A   1      35.069  34.121  30.531  1.00  0.00    -0.001 A 
ATOM     12  C   UNL A   1      34.584  35.134  31.385  1.00  0.00     0.048 A 
ATOM     13  C   UNL A   1      33.428  35.849  31.079  1.00  0.00     0.123 A 
ATOM     14  C   UNL A   1      33.192  34.644  29.025  1.00  0.00     0.019 A 
ATOM     15  F   UNL A   1      32.987  36.784  31.930  1.00  0.00    -0.207 F 
ATOM     16  C   UNL A   1      32.713  35.595  29.919  1.00  0.00     0.040 A 
BRANCH  11  17
ATOM     17  C   UNL A   1      36.209  33.284  30.986  1.00  0.00    -0.015 A 
ATOM     18  C   UNL A   1      37.255  31.940  32.744  1.00  0.00     0.041 A 
ATOM     19  C   UNL A   1      38.484  32.046  32.087  1.00  0.00     0.026 A 
ATOM     20  C   UNL A   1      36.123  32.502  32.150  1.00  0.00     0.034 A 
ATOM     21  C   UNL A   1      38.579  32.719  30.870  1.00  0.00     0.003 A 
ATOM     22  C   UNL A   1      37.454  33.349  30.337  1.00  0.00     0.009 A 
BRANCH  18  23
ATOM     23  N   UNL A   1      37.271  31.395  34.041  1.00  0.00    -0.326 N 
ATOM     24  C   UNL A   1      37.718  33.386  35.484  1.00  0.00     0.114 C 
ATOM     25  C   UNL A   1      37.625  31.904  35.255  1.00  0.00     0.221 C 
ATOM     26  O   UNL A   1      37.836  31.117  36.181  1.00  0.00    -0.275 OA
ATOM     27  H   UNL A   1      36.965  30.460  34.080  1.00  0.00     0.169 HD
ENDBRANCH  18  23
ENDBRANCH  11  17
ENDBRANCH   8  10
ENDBRANCH   7   8
ENDBRANCH   6   7
ENDBRANCH   5   6
ENDBRANCH   4   5
ENDBRANCH   3   4
ENDBRANCH   2   3
ENDBRANCH   1   2
BRANCH   1  28
ATOM     28  C   UNL A   1      34.662  24.296  25.290  1.00  0.00     0.188 C 
BRANCH  28  29
ATOM     29  C   UNL A   1      35.932  23.626  24.721  1.00  0.00     0.188 C 
BRANCH  29  30
ATOM     30  O   UNL A   1      36.763  23.044  25.710  1.00  0.00    -0.376 OA
BRANCH  30  31
ATOM     31  C   UNL A   1      37.178  21.703  25.526  1.00  0.00     0.202 C 
BRANCH  31  32
ATOM     32  C   UNL A   1      38.682  21.394  25.458  1.00  0.00     0.261 C 
BRANCH  32  33
ATOM     33  O   UNL A   1      39.170  20.349  26.312  1.00  0.00    -0.460 OA
BRANCH  33  34
ATOM     34  C   UNL A   1      40.470  20.011  26.206  1.00  0.00     0.338 C 
ATOM     35  O   UNL A   1      40.939  19.006  25.694  1.00  0.00    -0.246 OA
BRANCH  34  36
ATOM     36  C   UNL A   1      41.262  21.171  26.663  1.00  0.00     0.060 A 
ATOM     37  C   UNL A   1      41.280  21.497  28.025  1.00  0.00     0.016 A 
ATOM     38  C   UNL A   1      41.992  21.924  25.742  1.00  0.00     0.016 A 
ATOM     39  C   UNL A   1      42.008  22.601  28.467  1.00  0.00     0.010 A 
ATOM     40  C   UNL A   1      42.701  23.043  26.182  1.00  0.00     0.010 A 
ATOM     41  C   UNL A   1      42.683  23.405  27.541  1.00  0.00    -0.014 A 
BRANCH  41  42
ATOM     42  C   UNL A   1      43.196  24.731  27.954  1.00  0.00     0.031 A 
ATOM     43  C   UNL A   1      42.202  25.799  28.315  1.00  0.00     0.074 A 
ATOM     44  C   UNL A   1      44.514  24.983  28.019  1.00  0.00     0.049 A 
ATOM     45  N   UNL A   1      42.406  27.044  28.659  1.00  0.00    -0.248 NA
ATOM     46  C   UNL A   1      40.784  25.407  28.274  1.00  0.00     0.031 C 
ATOM     47  C   UNL A   1      45.578  24.020  27.742  1.00  0.00     0.029 A 
ATOM     48  N   UNL A   1      45.178  26.142  28.334  1.00  0.00    -0.354 N 
ATOM     49  C   UNL A   1      41.143  27.588  28.860  1.00  0.00     0.074 A 
ATOM     50  C   UNL A   1      40.181  26.548  28.569  1.00  0.00     0.031 C 
ATOM     51  C   UNL A   1      46.765  24.633  27.890  1.00  0.00     0.029 A 
ATOM     52  C   UNL A   1      46.543  26.037  28.234  1.00  0.00     0.049 A 
ATOM     53  H   UNL A   1      44.720  26.969  28.606  1.00  0.00     0.167 HD
ATOM     54  C   UNL A   1      40.812  28.840  29.253  1.00  0.00     0.031 A 
ATOM     55  C   UNL A   1      47.499  26.974  28.380  1.00  0.00     0.031 A 
ATOM     56  C   UNL A   1      41.771  29.880  29.519  1.00  0.00     0.049 A 
ATOM     57  C   UNL A   1      47.109  28.383  28.739  1.00  0.00     0.074 A 
ATOM     58  C   UNL A   1      41.541  31.175  29.944  1.00  0.00     0.029 A 
ATOM     59  N   UNL A   1      43.142  29.744  29.368  1.00  0.00    -0.354 N 
ATOM     60  N   UNL A   1      45.915  28.880  28.959  1.00  0.00    -0.248 NA
ATOM     61  C   UNL A   1      48.201  29.357  28.880  1.00  0.00     0.031 C 
ATOM     62  C   UNL A   1      42.768  31.846  29.979  1.00  0.00     0.029 A 
ATOM     63  C   UNL A   1      43.770  30.946  29.653  1.00  0.00     0.049 A 
ATOM     64  H   UNL A   1      43.602  28.917  29.099  1.00  0.00     0.167 HD
ATOM     65  C   UNL A   1      46.113  30.216  29.290  1.00  0.00     0.074 A 
ATOM     66  C   UNL A   1      47.543  30.446  29.256  1.00  0.00     0.031 C 
ATOM     67  C   UNL A   1      45.194  31.165  29.601  1.00  0.00     0.031 A 
BRANCH  54  68
ATOM     68  C   UNL A   1      39.345  29.162  29.358  1.00  0.00    -0.014 A 
ATOM     69  C   UNL A   1      38.588  28.799  30.485  1.00  0.00     0.009 A 
ATOM     70  C   UNL A   1      38.710  29.836  28.304  1.00  0.00     0.009 A 
ATOM     71  C   UNL A   1      37.216  29.060  30.528  1.00  0.00     0.001 A 
ATOM     72  C   UNL A   1      37.346  30.127  28.366  1.00  0.00     0.001 A 
ATOM     73  C   UNL A   1      36.598  29.726  29.471  1.00  0.00     0.000 A 
ENDBRANCH  54  68
BRANCH  55  74
ATOM     74  C   UNL A   1      48.924  26.608  28.163  1.00  0.00    -0.014 A 
ATOM     75  C   UNL A   1      49.757  26.292  29.247  1.00  0.00     0.009 A 
ATOM     76  C   UNL A   1      49.456  26.563  26.864  1.00  0.00     0.009 A 
ATOM     77  C   UNL A   1      51.096  25.952  29.034  1.00  0.00     0.001 A 
ATOM     78  C   UNL A   1      50.785  26.193  26.653  1.00  0.00     0.001 A 
ATOM     79  C   UNL A   1      51.606  25.895  27.739  1.00  0.00     0.000 A 
ENDBRANCH  55  74
BRANCH  67  80
ATOM     80  C   UNL A   1      45.707  32.533  29.963  1.00  0.00    -0.014 A 
ATOM     81  C   UNL A   1      45.901  33.527  28.992  1.00  0.00     0.009 A 
ATOM     82  C   UNL A   1      45.951  32.847  31.311  1.00  0.00     0.009 A 
ATOM     83  C   UNL A   1      46.365  34.793  29.357  1.00  0.00     0.001 A 
ATOM     84  C   UNL A   1      46.382  34.123  31.676  1.00  0.00     0.001 A 
ATOM     85  C   UNL A   1      46.599  35.092  30.699  1.00  0.00     0.000 A 
ENDBRANCH  67  80
ENDBRANCH  41  42
ENDBRANCH  34  36
ENDBRANCH  33  34
ENDBRANCH  32  33
ENDBRANCH  31  32
ENDBRANCH  30  31
ENDBRANCH  29  30
ENDBRANCH  28  29
ENDBRANCH   1  28
TORSDOF 22
ENDMDL
MODEL 2
REMARK VINA RESULT:      -8.5      3.419     10.140
REMARK SMILES CC(=O)Nc1cccc(-c2cc(F)ccc2C(=O)OCCOCCOCCOCCOC(=O)c2ccc(-c3c4nc(c(-c5ccccc5)c5ccc([nH]5)c(-c5ccccc5)c5nc(c(-c6ccccc6)c6ccc3[nH]6)C=C5)C=C4)cc2)c1
REMARK SMILES IDX 25 1 24 2 23 3 22 4 21 5 20 6 19 7 17 8 18 9 16 10 10 11
REMARK SMILES IDX 11 12 12 13 15 14 13 15 14 16 9 17 5 18 6 19 82 20 7 21 8 22
REMARK SMILES IDX 4 23 1 24 2 25 3 26 26 28 27 29 28 30 29 31 30 32 31 33
REMARK SMILES IDX 32 34 33 35 34 36 35 37 81 38 36 39 80 40 37 41 38 42 39 43
REMARK SMILES IDX 74 44 40 45 79 46 73 47 75 48 41 49 78 50 72 51 71 52 42 54
REMARK SMILES IDX 64 55 49 56 63 57 50 58 53 59 62 60 76 61 51 62 52 63 61 65
REMARK SMILES IDX 77 66 54 67 43 68 44 69 48 70 45 71 47 72 46 73 65 74 66 75
REMARK SMILES IDX 70 76 67 77 69 78 68 79 55 80 56 81 60 82 57 83 59 84 58 85
REMARK H PARENT 4 27 75 53 53 64
REMARK Flexibility Score: inf
ROOT
ATOM      1  O   UNL A   1      33.880  30.921  27.970  1.00  0.00    -0.377 OA
ENDROOT
BRANCH   1   2
ATOM      2  C   UNL A   1      33.045  30.288  27.005  1.00  0.00     0.188 C 
BRANCH   2   3
ATOM      3  C   UNL A   1      33.517  29.083  26.149  1.00  0.00     0.188 C 
BRANCH   3   4
ATOM      4  O   UNL A   1      32.538  28.088  25.922  1.00  0.00    -0.376 OA
BRANCH   4   5
ATOM      5  C   UNL A   1      32.856  26.719  26.067  1.00  0.00     0.202 C 
BRANCH   5   6
ATOM      6  C   UNL A   1      33.341  25.918  24.856  1.00  0.00     0.261 C 
BRANCH   6   7
ATOM      7  O   UNL A   1      34.360  24.960  25.151  1.00  0.00    -0.460 OA
BRANCH   7   8
ATOM      8  C   UNL A   1      34.764  24.148  24.154  1.00  0.00     0.338 C 
ATOM      9  O   UNL A   1      34.437  24.230  22.982  1.00  0.00    -0.246 OA
BRANCH   8  10
ATOM     10  C   UNL A   1      35.805  23.204  24.652  1.00  0.00     0.068 A 
ATOM     11  C   UNL A   1      35.644  21.795  24.775  1.00  0.00    -0.001 A 
ATOM     12  C   UNL A   1      36.757  21.064  25.243  1.00  0.00     0.048 A 
ATOM     13  C   UNL A   1      37.931  21.703  25.635  1.00  0.00     0.123 A 
ATOM     14  C   UNL A   1      36.998  23.832  25.066  1.00  0.00     0.019 A 
ATOM     15  F   UNL A   1      38.955  20.973  26.097  1.00  0.00    -0.207 F 
ATOM     16  C   UNL A   1      38.053  23.082  25.576  1.00  0.00     0.040 A 
BRANCH  11  17
ATOM     17  C   UNL A   1      34.368  21.078  24.526  1.00  0.00    -0.015 A 
ATOM     18  C   UNL A   1      33.026  19.043  24.749  1.00  0.00     0.041 A 
ATOM     19  C   UNL A   1      32.170  19.503  23.744  1.00  0.00     0.026 A 
ATOM     20  C   UNL A   1      34.072  19.865  25.172  1.00  0.00     0.034 A 
ATOM     21  C   UNL A   1      32.371  20.753  23.164  1.00  0.00     0.003 A 
ATOM     22  C   UNL A   1      33.472  21.523  23.539  1.00  0.00     0.009 A 
BRANCH  18  23
ATOM     23  N   UNL A   1      32.861  17.709  25.165  1.00  0.00    -0.326 N 
ATOM     24  C   UNL A   1      34.158  16.420  23.462  1.00  0.00     0.114 C 
ATOM     25  C   UNL A   1      33.166  16.513  24.587  1.00  0.00     0.221 C 
ATOM     26  O   UNL A   1      32.634  15.493  25.033  1.00  0.00    -0.275 OA
ATOM     27  H   UNL A   1      32.441  17.622  26.052  1.00  0.00     0.169 HD
ENDBRANCH  18  23
ENDBRANCH  11  17
ENDBRANCH   8  10
ENDBRANCH   7   8
ENDBRANCH   6   7
ENDBRANCH   5   6
ENDBRANCH   4   5
ENDBRANCH   3   4
ENDBRANCH   2   3
ENDBRANCH   1   2
BRANCH   1  28
ATOM     28  C   UNL A   1      34.195  32.302  27.846  1.00  0.00     0.188 C 
BRANCH  28  29
ATOM     29  C   UNL A   1      35.589  32.797  28.290  1.00  0.00     0.188 C 
BRANCH  29  30
ATOM     30  O   UNL A   1      35.580  33.504  29.517  1.00  0.00    -0.376 OA
BRANCH  30  31
ATOM     31  C   UNL A   1      34.782  32.999  30.572  1.00  0.00     0.202 C 
BRANCH  31  32
ATOM     32  C   UNL A   1      35.357  31.901  31.480  1.00  0.00     0.261 C 
BRANCH  32  33
ATOM     33  O   UNL A   1      36.689  31.452  31.193  1.00  0.00    -0.460 OA
BRANCH  33  34
ATOM     34  C   UNL A   1      36.835  30.210  30.690  1.00  0.00     0.338 C 
ATOM     35  O   UNL A   1      35.973  29.355  30.559  1.00  0.00    -0.246 OA
BRANCH  34  36
ATOM     36  C   UNL A   1      38.204  30.117  30.146  1.00  0.00     0.060 A 
ATOM     37  C   UNL A   1      38.386  29.928  28.770  1.00  0.00     0.016 A 
ATOM     38  C   UNL A   1      39.303  30.229  30.999  1.00  0.00     0.016 A 
ATOM     39  C   UNL A   1      39.674  29.819  28.246  1.00  0.00     0.010 A 
ATOM     40  C   UNL A   1      40.591  30.095  30.478  1.00  0.00     0.010 A 
ATOM     41  C   UNL A   1      40.779  29.856  29.104  1.00  0.00    -0.014 A 
BRANCH  41  42
ATOM     42  C   UNL A   1      42.110  29.441  28.606  1.00  0.00     0.031 A 
ATOM     43  C   UNL A   1      42.310  28.002  28.220  1.00  0.00     0.074 A 
ATOM     44  C   UNL A   1      43.120  30.320  28.490  1.00  0.00     0.049 A 
ATOM     45  N   UNL A   1      43.390  27.394  27.805  1.00  0.00    -0.248 NA
ATOM     46  C   UNL A   1      41.128  27.132  28.323  1.00  0.00     0.031 C 
ATOM     47  C   UNL A   1      43.040  31.749  28.786  1.00  0.00     0.029 A 
ATOM     48  N   UNL A   1      44.419  30.125  28.094  1.00  0.00    -0.354 N 
ATOM     49  C   UNL A   1      43.023  26.068  27.613  1.00  0.00     0.074 A 
ATOM     50  C   UNL A   1      41.631  25.954  27.987  1.00  0.00     0.031 C 
ATOM     51  C   UNL A   1      44.247  32.302  28.571  1.00  0.00     0.029 A 
ATOM     52  C   UNL A   1      45.188  31.261  28.160  1.00  0.00     0.049 A 
ATOM     53  H   UNL A   1      44.768  29.256  27.793  1.00  0.00     0.167 HD
ATOM     54  C   UNL A   1      43.775  25.036  27.164  1.00  0.00     0.031 A 
ATOM     55  C   UNL A   1      46.505  31.433  27.937  1.00  0.00     0.031 A 
ATOM     56  C   UNL A   1      45.167  25.147  26.815  1.00  0.00     0.049 A 
ATOM     57  C   UNL A   1      47.345  30.256  27.516  1.00  0.00     0.074 A 
ATOM     58  C   UNL A   1      46.014  24.168  26.330  1.00  0.00     0.029 A 
ATOM     59  N   UNL A   1      45.919  26.306  26.933  1.00  0.00    -0.354 N 
ATOM     60  N   UNL A   1      46.983  29.014  27.305  1.00  0.00    -0.248 NA
ATOM     61  C   UNL A   1      48.776  30.511  27.292  1.00  0.00     0.031 C 
ATOM     62  C   UNL A   1      47.297  24.716  26.224  1.00  0.00     0.029 A 
ATOM     63  C   UNL A   1      47.231  26.057  26.567  1.00  0.00     0.049 A 
ATOM     64  H   UNL A   1      45.572  27.177  27.232  1.00  0.00     0.167 HD
ATOM     65  C   UNL A   1      48.132  28.345  26.898  1.00  0.00     0.074 A 
ATOM     66  C   UNL A   1      49.199  29.324  26.878  1.00  0.00     0.031 C 
ATOM     67  C   UNL A   1      48.288  27.038  26.565  1.00  0.00     0.031 A 
BRANCH  54  68
ATOM     68  C   UNL A   1      43.113  23.687  27.086  1.00  0.00    -0.014 A 
ATOM     69  C   UNL A   1      42.971  22.867  28.218  1.00  0.00     0.009 A 
ATOM     70  C   UNL A   1      42.629  23.226  25.852  1.00  0.00     0.009 A 
ATOM     71  C   UNL A   1      42.405  21.595  28.103  1.00  0.00     0.001 A 
ATOM     72  C   UNL A   1      42.031  21.969  25.747  1.00  0.00     0.001 A 
ATOM     73  C   UNL A   1      41.932  21.149  26.870  1.00  0.00     0.000 A 
ENDBRANCH  54  68
BRANCH  55  74
ATOM     74  C   UNL A   1      47.113  32.775  28.130  1.00  0.00    -0.014 A 
ATOM     75  C   UNL A   1      47.359  33.617  27.034  1.00  0.00     0.009 A 
ATOM     76  C   UNL A   1      47.442  33.227  29.419  1.00  0.00     0.009 A 
ATOM     77  C   UNL A   1      47.934  34.876  27.226  1.00  0.00     0.001 A 
ATOM     78  C   UNL A   1      47.987  34.498  29.608  1.00  0.00     0.001 A 
ATOM     79  C   UNL A   1      48.239  35.319  28.511  1.00  0.00     0.000 A 
ENDBRANCH  55  74
BRANCH  67  80
ATOM     80  C   UNL A   1      49.655  26.596  26.116  1.00  0.00    -0.014 A 
ATOM     81  C   UNL A   1      50.552  25.974  26.997  1.00  0.00     0.009 A 
ATOM     82  C   UNL A   1      50.030  26.761  24.772  1.00  0.00     0.009 A 
ATOM     83  C   UNL A   1      51.811  25.562  26.552  1.00  0.00     0.001 A 
ATOM     84  C   UNL A   1      51.274  26.317  24.322  1.00  0.00     0.001 A 
ATOM     85  C   UNL A   1      52.168  25.728  25.214  1.00  0.00     0.000 A 
ENDBRANCH  67  80
ENDBRANCH  41  42
ENDBRANCH  34  36
ENDBRANCH  33  34
ENDBRANCH  32  33
ENDBRANCH  31  32
ENDBRANCH  30  31
ENDBRANCH  29  30
ENDBRANCH  28  29
ENDBRANCH   1  28
TORSDOF 22
ENDMDL
MODEL 3
REMARK VINA RESULT:      -8.4      3.145      9.684
REMARK SMILES CC(=O)Nc1cccc(-c2cc(F)ccc2C(=O)OCCOCCOCCOCCOC(=O)c2ccc(-c3c4nc(c(-c5ccccc5)c5ccc([nH]5)c(-c5ccccc5)c5nc(c(-c6ccccc6)c6ccc3[nH]6)C=C5)C=C4)cc2)c1
REMARK SMILES IDX 25 1 24 2 23 3 22 4 21 5 20 6 19 7 17 8 18 9 16 10 10 11
REMARK SMILES IDX 11 12 12 13 15 14 13 15 14 16 9 17 5 18 6 19 82 20 7 21 8 22
REMARK SMILES IDX 4 23 1 24 2 25 3 26 26 28 27 29 28 30 29 31 30 32 31 33
REMARK SMILES IDX 32 34 33 35 34 36 35 37 81 38 36 39 80 40 37 41 38 42 39 43
REMARK SMILES IDX 74 44 40 45 79 46 73 47 75 48 41 49 78 50 72 51 71 52 42 54
REMARK SMILES IDX 64 55 49 56 63 57 50 58 53 59 62 60 76 61 51 62 52 63 61 65
REMARK SMILES IDX 77 66 54 67 43 68 44 69 48 70 45 71 47 72 46 73 65 74 66 75
REMARK SMILES IDX 70 76 67 77 69 78 68 79 55 80 56 81 60 82 57 83 59 84 58 85
REMARK H PARENT 4 27 75 53 53 64
REMARK Flexibility Score: inf
ROOT
ATOM      1  O   UNL A   1      33.539  32.057  27.523  1.00  0.00    -0.377 OA
ENDROOT
BRANCH   1   2
ATOM      2  C   UNL A   1      32.403  31.486  26.881  1.00  0.00     0.188 C 
BRANCH   2   3
ATOM      3  C   UNL A   1      32.358  30.006  26.416  1.00  0.00     0.188 C 
BRANCH   3   4
ATOM      4  O   UNL A   1      31.404  29.198  27.078  1.00  0.00    -0.376 OA
BRANCH   4   5
ATOM      5  C   UNL A   1      31.754  27.913  27.550  1.00  0.00     0.202 C 
BRANCH   5   6
ATOM      6  C   UNL A   1      31.315  26.671  26.772  1.00  0.00     0.261 C 
BRANCH   6   7
ATOM      7  O   UNL A   1      32.134  26.361  25.642  1.00  0.00    -0.460 OA
BRANCH   7   8
ATOM      8  C   UNL A   1      32.169  25.079  25.226  1.00  0.00     0.338 C 
ATOM      9  O   UNL A   1      31.937  24.095  25.908  1.00  0.00    -0.246 OA
BRANCH   8  10
ATOM     10  C   UNL A   1      32.390  25.024  23.752  1.00  0.00     0.068 A 
ATOM     11  C   UNL A   1      33.205  24.071  23.079  1.00  0.00    -0.001 A 
ATOM     12  C   UNL A   1      33.268  24.165  21.673  1.00  0.00     0.048 A 
ATOM     13  C   UNL A   1      32.624  25.191  20.985  1.00  0.00     0.123 A 
ATOM     14  C   UNL A   1      31.756  26.062  23.038  1.00  0.00     0.019 A 
ATOM     15  F   UNL A   1      32.732  25.258  19.652  1.00  0.00    -0.207 F 
ATOM     16  C   UNL A   1      31.889  26.155  21.656  1.00  0.00     0.040 A 
BRANCH  11  17
ATOM     17  C   UNL A   1      34.042  23.057  23.769  1.00  0.00    -0.015 A 
ATOM     18  C   UNL A   1      34.211  20.891  24.897  1.00  0.00     0.041 A 
ATOM     19  C   UNL A   1      35.438  21.277  25.445  1.00  0.00     0.026 A 
ATOM     20  C   UNL A   1      33.564  21.758  24.015  1.00  0.00     0.034 A 
ATOM     21  C   UNL A   1      35.994  22.515  25.129  1.00  0.00     0.003 A 
ATOM     22  C   UNL A   1      35.290  23.403  24.314  1.00  0.00     0.009 A 
BRANCH  18  23
ATOM     23  N   UNL A   1      33.638  19.705  25.392  1.00  0.00    -0.326 N 
ATOM     24  C   UNL A   1      32.546  18.719  23.371  1.00  0.00     0.114 C 
ATOM     25  C   UNL A   1      32.770  18.801  24.855  1.00  0.00     0.221 C 
ATOM     26  O   UNL A   1      32.192  18.020  25.615  1.00  0.00    -0.275 OA
ATOM     27  H   UNL A   1      33.919  19.483  26.309  1.00  0.00     0.169 HD
ENDBRANCH  18  23
ENDBRANCH  11  17
ENDBRANCH   8  10
ENDBRANCH   7   8
ENDBRANCH   6   7
ENDBRANCH   5   6
ENDBRANCH   4   5
ENDBRANCH   3   4
ENDBRANCH   2   3
ENDBRANCH   1   2
BRANCH   1  28
ATOM     28  C   UNL A   1      33.478  33.381  28.037  1.00  0.00     0.188 C 
BRANCH  28  29
ATOM     29  C   UNL A   1      34.717  33.970  28.745  1.00  0.00     0.188 C 
BRANCH  29  30
ATOM     30  O   UNL A   1      34.466  34.406  30.069  1.00  0.00    -0.376 OA
BRANCH  30  31
ATOM     31  C   UNL A   1      35.260  33.866  31.110  1.00  0.00     0.202 C 
BRANCH  31  32
ATOM     32  C   UNL A   1      36.653  33.312  30.772  1.00  0.00     0.261 C 
BRANCH  32  33
ATOM     33  O   UNL A   1      37.221  32.373  31.697  1.00  0.00    -0.460 OA
BRANCH  33  34
ATOM     34  C   UNL A   1      36.933  31.069  31.519  1.00  0.00     0.338 C 
ATOM     35  O   UNL A   1      35.855  30.517  31.679  1.00  0.00    -0.246 OA
BRANCH  34  36
ATOM     36  C   UNL A   1      38.122  30.438  30.914  1.00  0.00     0.060 A 
ATOM     37  C   UNL A   1      39.092  29.861  31.745  1.00  0.00     0.016 A 
ATOM     38  C   UNL A   1      38.267  30.408  29.526  1.00  0.00     0.016 A 
ATOM     39  C   UNL A   1      40.230  29.278  31.187  1.00  0.00     0.010 A 
ATOM     40  C   UNL A   1      39.417  29.846  28.970  1.00  0.00     0.010 A 
ATOM     41  C   UNL A   1      40.418  29.310  29.799  1.00  0.00    -0.014 A 
BRANCH  41  42
ATOM     42  C   UNL A   1      41.742  28.973  29.230  1.00  0.00     0.031 A 
ATOM     43  C   UNL A   1      41.962  27.579  28.713  1.00  0.00     0.074 A 
ATOM     44  C   UNL A   1      42.728  29.883  29.163  1.00  0.00     0.049 A 
ATOM     45  N   UNL A   1      43.042  27.037  28.215  1.00  0.00    -0.248 NA
ATOM     46  C   UNL A   1      40.802  26.674  28.772  1.00  0.00     0.031 C 
ATOM     47  C   UNL A   1      42.626  31.278  29.586  1.00  0.00     0.029 A 
ATOM     48  N   UNL A   1      44.019  29.756  28.715  1.00  0.00    -0.354 N 
ATOM     49  C   UNL A   1      42.699  25.723  27.917  1.00  0.00     0.074 A 
ATOM     50  C   UNL A   1      41.321  25.543  28.319  1.00  0.00     0.031 C 
ATOM     51  C   UNL A   1      43.813  31.878  29.387  1.00  0.00     0.029 A 
ATOM     52  C   UNL A   1      44.764  30.901  28.859  1.00  0.00     0.049 A 
ATOM     53  H   UNL A   1      44.377  28.925  28.329  1.00  0.00     0.167 HD
ATOM     54  C   UNL A   1      43.459  24.754  27.358  1.00  0.00     0.031 A 
ATOM     55  C   UNL A   1      46.070  31.123  28.615  1.00  0.00     0.031 A 
ATOM     56  C   UNL A   1      44.838  24.929  26.982  1.00  0.00     0.049 A 
ATOM     57  C   UNL A   1      46.923  30.009  28.068  1.00  0.00     0.074 A 
ATOM     58  C   UNL A   1      45.691  24.017  26.388  1.00  0.00     0.029 A 
ATOM     59  N   UNL A   1      45.566  26.091  27.180  1.00  0.00    -0.354 N 
ATOM     60  N   UNL A   1      46.582  28.781  27.759  1.00  0.00    -0.248 NA
ATOM     61  C   UNL A   1      48.340  30.318  27.827  1.00  0.00     0.031 C 
ATOM     62  C   UNL A   1      46.957  24.603  26.295  1.00  0.00     0.029 A 
ATOM     63  C   UNL A   1      46.873  25.907  26.757  1.00  0.00     0.049 A 
ATOM     64  H   UNL A   1      45.209  26.924  27.564  1.00  0.00     0.167 HD
ATOM     65  C   UNL A   1      47.732  28.179  27.263  1.00  0.00     0.074 A 
ATOM     66  C   UNL A   1      48.776  29.182  27.299  1.00  0.00     0.031 C 
ATOM     67  C   UNL A   1      47.906  26.911  26.811  1.00  0.00     0.031 A 
BRANCH  54  68
ATOM     68  C   UNL A   1      42.825  23.400  27.180  1.00  0.00    -0.014 A 
ATOM     69  C   UNL A   1      42.256  23.006  25.957  1.00  0.00     0.009 A 
ATOM     70  C   UNL A   1      42.793  22.505  28.261  1.00  0.00     0.009 A 
ATOM     71  C   UNL A   1      41.623  21.766  25.839  1.00  0.00     0.001 A 
ATOM     72  C   UNL A   1      42.191  21.253  28.129  1.00  0.00     0.001 A 
ATOM     73  C   UNL A   1      41.594  20.890  26.923  1.00  0.00     0.000 A 
ENDBRANCH  54  68
BRANCH  55  74
ATOM     74  C   UNL A   1      46.654  32.459  28.909  1.00  0.00    -0.014 A 
ATOM     75  C   UNL A   1      47.357  32.688  30.101  1.00  0.00     0.009 A 
ATOM     76  C   UNL A   1      46.519  33.510  27.987  1.00  0.00     0.009 A 
ATOM     77  C   UNL A   1      47.900  33.948  30.369  1.00  0.00     0.001 A 
ATOM     78  C   UNL A   1      47.090  34.758  28.245  1.00  0.00     0.001 A 
ATOM     79  C   UNL A   1      47.774  34.978  29.439  1.00  0.00     0.000 A 
ENDBRANCH  55  74
BRANCH  67  80
ATOM     80  C   UNL A   1      49.269  26.543  26.287  1.00  0.00    -0.014 A 
ATOM     81  C   UNL A   1      50.175  25.796  27.055  1.00  0.00     0.009 A 
ATOM     82  C   UNL A   1      49.631  26.911  24.980  1.00  0.00     0.009 A 
ATOM     83  C   UNL A   1      51.429  25.458  26.539  1.00  0.00     0.001 A 
ATOM     84  C   UNL A   1      50.870  26.541  24.455  1.00  0.00     0.001 A 
ATOM     85  C   UNL A   1      51.772  25.825  25.239  1.00  0.00     0.000 A 
ENDBRANCH  67  80
ENDBRANCH  41  42
ENDBRANCH  34  36
ENDBRANCH  33  34
ENDBRANCH  32  33
ENDBRANCH  31  32
ENDBRANCH  30  31
ENDBRANCH  29  30
ENDBRANCH  28  29
ENDBRANCH   1  28
TORSDOF 22
ENDMDL
