MODEL 1
REMARK VINA RESULT:      -7.4      0.000      0.000
REMARK SMILES Cc1ccc(Oc2ccc(NC(=O)CCCC(=O)OCCOCCOCCOCCOC(=O)c3ccc(-c4c5nc(c(-c6ccccc6)c6ccc([nH]6)c(-c6ccccc6)c6nc(c(-c7ccccc7)c7ccc4[nH]7)C=C6)C=C5)cc3)cc2)cc1C
REMARK SMILES IDX 23 1 22 2 21 3 20 4 19 5 17 6 18 7 16 8 15 9 14 10 12 11
REMARK SMILES IDX 11 12 13 14 10 15 7 16 8 17 83 18 9 19 82 20 6 21 5 22 1 23
REMARK SMILES IDX 2 24 3 25 85 26 4 27 84 28 86 29 24 30 25 31 26 32 27 33
REMARK SMILES IDX 28 34 29 35 30 36 31 37 32 38 33 39 34 40 35 41 81 42 36 43
REMARK SMILES IDX 80 44 37 45 38 46 39 47 74 48 40 49 79 50 73 51 75 52 41 53
REMARK SMILES IDX 78 54 72 55 71 56 42 58 64 59 49 60 63 61 50 62 53 63 62 64
REMARK SMILES IDX 76 65 51 66 52 67 61 69 77 70 54 71 43 72 44 73 48 74 45 75
REMARK SMILES IDX 47 76 46 77 65 78 66 79 70 80 67 81 69 82 68 83 55 84 56 85
REMARK SMILES IDX 60 86 57 87 59 88 58 89
REMARK H PARENT 11 13 75 57 53 68
REMARK Flexibility Score: inf
ROOT
ATOM      1  C   UNL A   1      38.160  28.604  29.305  1.00  0.00     0.188 C 
ENDROOT
BRANCH   1   2
ATOM      2  O   UNL A   1      39.250  27.696  29.267  1.00  0.00    -0.376 OA
BRANCH   2   3
ATOM      3  C   UNL A   1      39.750  27.358  27.984  1.00  0.00     0.202 C 
BRANCH   3   4
ATOM      4  C   UNL A   1      41.239  27.583  27.773  1.00  0.00     0.261 C 
BRANCH   4   5
ATOM      5  O   UNL A   1      42.174  27.054  28.732  1.00  0.00    -0.463 OA
BRANCH   5   6
ATOM      6  C   UNL A   1      43.319  26.404  28.439  1.00  0.00     0.305 C 
ATOM      7  O   UNL A   1      43.830  25.521  29.110  1.00  0.00    -0.252 OA
BRANCH   6   8
ATOM      8  C   UNL A   1      43.919  26.906  27.137  1.00  0.00     0.123 C 
BRANCH   8   9
ATOM      9  C   UNL A   1      45.399  26.593  26.889  1.00  0.00     0.022 C 
BRANCH   9  10
ATOM     10  C   UNL A   1      45.882  26.480  25.433  1.00  0.00     0.101 C 
BRANCH  10  11
ATOM     11  C   UNL A   1      46.587  25.182  25.080  1.00  0.00     0.224 C 
ATOM     12  N   UNL A   1      45.980  23.960  25.120  1.00  0.00    -0.326 N 
ATOM     13  H   UNL A   1      46.503  23.247  24.685  1.00  0.00     0.169 HD
ATOM     14  O   UNL A   1      47.746  25.226  24.650  1.00  0.00    -0.275 OA
BRANCH  12  15
ATOM     15  C   UNL A   1      44.763  23.515  25.657  1.00  0.00     0.041 A 
ATOM     16  C   UNL A   1      42.236  23.030  26.817  1.00  0.00     0.127 A 
ATOM     17  C   UNL A   1      43.404  22.585  27.422  1.00  0.00     0.049 A 
ATOM     18  C   UNL A   1      42.329  23.607  25.554  1.00  0.00     0.049 A 
ATOM     19  C   UNL A   1      44.663  22.811  26.844  1.00  0.00     0.030 A 
ATOM     20  C   UNL A   1      43.587  23.814  24.961  1.00  0.00     0.030 A 
BRANCH  16  21
ATOM     21  O   UNL A   1      41.012  23.056  27.451  1.00  0.00    -0.457 OA
BRANCH  21  22
ATOM     22  C   UNL A   1      39.836  23.027  26.730  1.00  0.00     0.127 A 
ATOM     23  C   UNL A   1      35.859  22.549  25.141  1.00  0.00     0.044 C 
ATOM     24  C   UNL A   1      37.294  22.702  25.562  1.00  0.00    -0.048 A 
ATOM     25  C   UNL A   1      37.702  23.944  26.063  1.00  0.00     0.007 A 
ATOM     26  C   UNL A   1      38.202  21.624  25.562  1.00  0.00    -0.045 A 
ATOM     27  C   UNL A   1      38.945  24.095  26.671  1.00  0.00     0.047 A 
ATOM     28  C   UNL A   1      39.478  21.808  26.136  1.00  0.00     0.050 A 
ATOM     29  C   UNL A   1      37.857  20.286  24.960  1.00  0.00     0.045 C 
ENDBRANCH  21  22
ENDBRANCH  16  21
ENDBRANCH  12  15
ENDBRANCH  10  11
ENDBRANCH   9  10
ENDBRANCH   8   9
ENDBRANCH   6   8
ENDBRANCH   5   6
ENDBRANCH   4   5
ENDBRANCH   3   4
ENDBRANCH   2   3
ENDBRANCH   1   2
BRANCH   1  30
ATOM     30  C   UNL A   1      38.431  29.979  28.668  1.00  0.00     0.188 C 
BRANCH  30  31
ATOM     31  O   UNL A   1      37.513  31.040  28.900  1.00  0.00    -0.377 OA
BRANCH  31  32
ATOM     32  C   UNL A   1      36.298  31.133  28.164  1.00  0.00     0.188 C 
BRANCH  32  33
ATOM     33  C   UNL A   1      35.032  31.741  28.784  1.00  0.00     0.188 C 
BRANCH  33  34
ATOM     34  O   UNL A   1      35.155  32.073  30.149  1.00  0.00    -0.376 OA
BRANCH  34  35
ATOM     35  C   UNL A   1      35.442  33.417  30.488  1.00  0.00     0.202 C 
BRANCH  35  36
ATOM     36  C   UNL A   1      36.819  33.768  31.081  1.00  0.00     0.261 C 
BRANCH  36  37
ATOM     37  O   UNL A   1      36.919  33.941  32.506  1.00  0.00    -0.460 OA
BRANCH  37  38
ATOM     38  C   UNL A   1      36.736  32.874  33.307  1.00  0.00     0.338 C 
ATOM     39  O   UNL A   1      35.714  32.564  33.900  1.00  0.00    -0.246 OA
BRANCH  38  40
ATOM     40  C   UNL A   1      37.928  32.002  33.192  1.00  0.00     0.060 A 
ATOM     41  C   UNL A   1      39.159  32.465  33.680  1.00  0.00     0.016 A 
ATOM     42  C   UNL A   1      37.836  30.737  32.603  1.00  0.00     0.016 A 
ATOM     43  C   UNL A   1      40.312  31.701  33.513  1.00  0.00     0.010 A 
ATOM     44  C   UNL A   1      38.998  29.983  32.409  1.00  0.00     0.010 A 
ATOM     45  C   UNL A   1      40.247  30.494  32.810  1.00  0.00    -0.014 A 
BRANCH  45  46
ATOM     46  C   UNL A   1      41.503  29.935  32.253  1.00  0.00     0.031 A 
ATOM     47  C   UNL A   1      42.151  30.671  31.110  1.00  0.00     0.074 A 
ATOM     48  C   UNL A   1      42.102  28.859  32.790  1.00  0.00     0.049 A 
ATOM     49  N   UNL A   1      43.270  30.417  30.481  1.00  0.00    -0.248 NA
ATOM     50  C   UNL A   1      41.435  31.855  30.609  1.00  0.00     0.031 C 
ATOM     51  C   UNL A   1      41.604  28.094  33.929  1.00  0.00     0.029 A 
ATOM     52  N   UNL A   1      43.270  28.231  32.440  1.00  0.00    -0.354 N 
ATOM     53  C   UNL A   1      43.384  31.402  29.509  1.00  0.00     0.074 A 
ATOM     54  C   UNL A   1      42.205  32.233  29.602  1.00  0.00     0.031 C 
ATOM     55  C   UNL A   1      42.463  27.091  34.185  1.00  0.00     0.029 A 
ATOM     56  C   UNL A   1      43.551  27.130  33.209  1.00  0.00     0.049 A 
ATOM     57  H   UNL A   1      43.851  28.540  31.708  1.00  0.00     0.167 HD
ATOM     58  C   UNL A   1      44.383  31.607  28.618  1.00  0.00     0.031 A 
ATOM     59  C   UNL A   1      44.564  26.246  33.124  1.00  0.00     0.031 A 
ATOM     60  C   UNL A   1      45.543  30.763  28.508  1.00  0.00     0.049 A 
ATOM     61  C   UNL A   1      45.630  26.440  32.078  1.00  0.00     0.074 A 
ATOM     62  C   UNL A   1      46.620  30.885  27.650  1.00  0.00     0.029 A 
ATOM     63  N   UNL A   1      45.765  29.627  29.274  1.00  0.00    -0.354 N 
ATOM     64  N   UNL A   1      45.746  27.393  31.183  1.00  0.00    -0.248 NA
ATOM     65  C   UNL A   1      46.713  25.448  32.042  1.00  0.00     0.031 C 
ATOM     66  C   UNL A   1      47.458  29.782  27.846  1.00  0.00     0.029 A 
ATOM     67  C   UNL A   1      46.945  29.018  28.883  1.00  0.00     0.049 A 
ATOM     68  H   UNL A   1      45.171  29.304  29.989  1.00  0.00     0.167 HD
ATOM     69  C   UNL A   1      46.926  27.131  30.496  1.00  0.00     0.074 A 
ATOM     70  C   UNL A   1      47.494  25.937  31.088  1.00  0.00     0.031 C 
ATOM     71  C   UNL A   1      47.492  27.821  29.474  1.00  0.00     0.031 A 
BRANCH  58  72
ATOM     72  C   UNL A   1      44.219  32.753  27.656  1.00  0.00    -0.014 A 
ATOM     73  C   UNL A   1      44.263  34.091  28.084  1.00  0.00     0.009 A 
ATOM     74  C   UNL A   1      43.992  32.486  26.296  1.00  0.00     0.009 A 
ATOM     75  C   UNL A   1      44.026  35.132  27.182  1.00  0.00     0.001 A 
ATOM     76  C   UNL A   1      43.795  33.529  25.391  1.00  0.00     0.001 A 
ATOM     77  C   UNL A   1      43.795  34.850  25.836  1.00  0.00     0.000 A 
ENDBRANCH  58  72
BRANCH  59  78
ATOM     78  C   UNL A   1      44.603  25.086  34.056  1.00  0.00    -0.014 A 
ATOM     79  C   UNL A   1      45.272  25.169  35.285  1.00  0.00     0.009 A 
ATOM     80  C   UNL A   1      43.937  23.895  33.724  1.00  0.00     0.009 A 
ATOM     81  C   UNL A   1      45.280  24.078  36.159  1.00  0.00     0.001 A 
ATOM     82  C   UNL A   1      43.922  22.818  34.612  1.00  0.00     0.001 A 
ATOM     83  C   UNL A   1      44.598  22.908  35.827  1.00  0.00     0.000 A 
ENDBRANCH  59  78
BRANCH  71  84
ATOM     84  C   UNL A   1      48.813  27.325  28.950  1.00  0.00    -0.014 A 
ATOM     85  C   UNL A   1      48.890  26.454  27.852  1.00  0.00     0.009 A 
ATOM     86  C   UNL A   1      50.004  27.781  29.539  1.00  0.00     0.009 A 
ATOM     87  C   UNL A   1      50.132  26.020  27.382  1.00  0.00     0.001 A 
ATOM     88  C   UNL A   1      51.244  27.374  29.044  1.00  0.00     0.001 A 
ATOM     89  C   UNL A   1      51.307  26.484  27.974  1.00  0.00     0.000 A 
ENDBRANCH  71  84
ENDBRANCH  45  46
ENDBRANCH  38  40
ENDBRANCH  37  38
ENDBRANCH  36  37
ENDBRANCH  35  36
ENDBRANCH  34  35
ENDBRANCH  33  34
ENDBRANCH  32  33
ENDBRANCH  31  32
ENDBRANCH  30  31
ENDBRANCH   1  30
TORSDOF 26
ENDMDL
MODEL 2
REMARK VINA RESULT:      -7.1      4.720      8.345
REMARK SMILES Cc1ccc(Oc2ccc(NC(=O)CCCC(=O)OCCOCCOCCOCCOC(=O)c3ccc(-c4c5nc(c(-c6ccccc6)c6ccc([nH]6)c(-c6ccccc6)c6nc(c(-c7ccccc7)c7ccc4[nH]7)C=C6)C=C5)cc3)cc2)cc1C
REMARK SMILES IDX 23 1 22 2 21 3 20 4 19 5 17 6 18 7 16 8 15 9 14 10 12 11
REMARK SMILES IDX 11 12 13 14 10 15 7 16 8 17 83 18 9 19 82 20 6 21 5 22 1 23
REMARK SMILES IDX 2 24 3 25 85 26 4 27 84 28 86 29 24 30 25 31 26 32 27 33
REMARK SMILES IDX 28 34 29 35 30 36 31 37 32 38 33 39 34 40 35 41 81 42 36 43
REMARK SMILES IDX 80 44 37 45 38 46 39 47 74 48 40 49 79 50 73 51 75 52 41 53
REMARK SMILES IDX 78 54 72 55 71 56 42 58 64 59 49 60 63 61 50 62 53 63 62 64
REMARK SMILES IDX 76 65 51 66 52 67 61 69 77 70 54 71 43 72 44 73 48 74 45 75
REMARK SMILES IDX 47 76 46 77 65 78 66 79 70 80 67 81 69 82 68 83 55 84 56 85
REMARK SMILES IDX 60 86 57 87 59 88 58 89
REMARK H PARENT 11 13 75 57 53 68
REMARK Flexibility Score: inf
ROOT
ATOM      1  C   UNL A   1      32.355  28.781  26.065  1.00  0.00     0.188 C 
ENDROOT
BRANCH   1   2
ATOM      2  O   UNL A   1      31.174  28.840  25.281  1.00  0.00    -0.376 OA
BRANCH   2   3
ATOM      3  C   UNL A   1      31.281  28.403  23.937  1.00  0.00     0.202 C 
BRANCH   3   4
ATOM      4  C   UNL A   1      30.307  27.313  23.515  1.00  0.00     0.261 C 
BRANCH   4   5
ATOM      5  O   UNL A   1      30.525  25.962  23.963  1.00  0.00    -0.463 OA
BRANCH   5   6
ATOM      6  C   UNL A   1      30.860  24.917  23.180  1.00  0.00     0.305 C 
ATOM      7  O   UNL A   1      30.243  23.867  23.089  1.00  0.00    -0.252 OA
BRANCH   6   8
ATOM      8  C   UNL A   1      32.127  25.202  22.394  1.00  0.00     0.123 C 
BRANCH   8   9
ATOM      9  C   UNL A   1      33.433  24.618  22.945  1.00  0.00     0.022 C 
BRANCH   9  10
ATOM     10  C   UNL A   1      33.797  23.173  22.567  1.00  0.00     0.101 C 
BRANCH  10  11
ATOM     11  C   UNL A   1      33.540  22.133  23.644  1.00  0.00     0.224 C 
ATOM     12  N   UNL A   1      34.343  21.965  24.736  1.00  0.00    -0.326 N 
ATOM     13  H   UNL A   1      33.946  21.391  25.431  1.00  0.00     0.169 HD
ATOM     14  O   UNL A   1      32.509  21.452  23.588  1.00  0.00    -0.275 OA
BRANCH  12  15
ATOM     15  C   UNL A   1      35.619  22.444  25.066  1.00  0.00     0.041 A 
ATOM     16  C   UNL A   1      38.157  23.158  26.075  1.00  0.00     0.127 A 
ATOM     17  C   UNL A   1      37.122  24.082  26.007  1.00  0.00     0.049 A 
ATOM     18  C   UNL A   1      37.954  21.903  25.509  1.00  0.00     0.049 A 
ATOM     19  C   UNL A   1      35.862  23.738  25.495  1.00  0.00     0.030 A 
ATOM     20  C   UNL A   1      36.700  21.561  24.974  1.00  0.00     0.030 A 
BRANCH  16  21
ATOM     21  O   UNL A   1      39.319  23.367  26.786  1.00  0.00    -0.457 OA
BRANCH  21  22
ATOM     22  C   UNL A   1      39.758  24.644  27.073  1.00  0.00     0.127 A 
ATOM     23  C   UNL A   1      41.568  28.260  28.563  1.00  0.00     0.044 C 
ATOM     24  C   UNL A   1      40.822  27.077  28.012  1.00  0.00    -0.048 A 
ATOM     25  C   UNL A   1      41.300  26.490  26.834  1.00  0.00     0.007 A 
ATOM     26  C   UNL A   1      39.733  26.488  28.686  1.00  0.00    -0.045 A 
ATOM     27  C   UNL A   1      40.798  25.270  26.390  1.00  0.00     0.047 A 
ATOM     28  C   UNL A   1      39.200  25.278  28.193  1.00  0.00     0.050 A 
ATOM     29  C   UNL A   1      39.114  27.115  29.910  1.00  0.00     0.045 C 
ENDBRANCH  21  22
ENDBRANCH  16  21
ENDBRANCH  12  15
ENDBRANCH  10  11
ENDBRANCH   9  10
ENDBRANCH   8   9
ENDBRANCH   6   8
ENDBRANCH   5   6
ENDBRANCH   4   5
ENDBRANCH   3   4
ENDBRANCH   2   3
ENDBRANCH   1   2
BRANCH   1  30
ATOM     30  C   UNL A   1      33.207  30.064  26.063  1.00  0.00     0.188 C 
BRANCH  30  31
ATOM     31  O   UNL A   1      33.249  30.866  27.236  1.00  0.00    -0.377 OA
BRANCH  31  32
ATOM     32  C   UNL A   1      32.742  32.196  27.234  1.00  0.00     0.188 C 
BRANCH  32  33
ATOM     33  C   UNL A   1      33.477  33.333  27.957  1.00  0.00     0.188 C 
BRANCH  33  34
ATOM     34  O   UNL A   1      34.858  33.404  27.677  1.00  0.00    -0.376 OA
BRANCH  34  35
ATOM     35  C   UNL A   1      35.757  33.503  28.764  1.00  0.00     0.202 C 
BRANCH  35  36
ATOM     36  C   UNL A   1      35.255  33.201  30.188  1.00  0.00     0.261 C 
BRANCH  36  37
ATOM     37  O   UNL A   1      35.227  31.829  30.620  1.00  0.00    -0.460 OA
BRANCH  37  38
ATOM     38  C   UNL A   1      36.275  31.033  30.335  1.00  0.00     0.338 C 
ATOM     39  O   UNL A   1      36.473  30.417  29.300  1.00  0.00    -0.246 OA
BRANCH  38  40
ATOM     40  C   UNL A   1      37.276  31.188  31.417  1.00  0.00     0.060 A 
ATOM     41  C   UNL A   1      38.591  31.541  31.079  1.00  0.00     0.016 A 
ATOM     42  C   UNL A   1      36.924  30.984  32.754  1.00  0.00     0.016 A 
ATOM     43  C   UNL A   1      39.572  31.614  32.065  1.00  0.00     0.010 A 
ATOM     44  C   UNL A   1      37.915  31.029  33.740  1.00  0.00     0.010 A 
ATOM     45  C   UNL A   1      39.253  31.285  33.387  1.00  0.00    -0.014 A 
BRANCH  45  46
ATOM     46  C   UNL A   1      40.358  30.929  34.310  1.00  0.00     0.031 A 
ATOM     47  C   UNL A   1      40.785  31.959  35.321  1.00  0.00     0.074 A 
ATOM     48  C   UNL A   1      40.914  29.707  34.314  1.00  0.00     0.049 A 
ATOM     49  N   UNL A   1      41.688  31.879  36.264  1.00  0.00    -0.248 NA
ATOM     50  C   UNL A   1      40.097  33.259  35.257  1.00  0.00     0.031 C 
ATOM     51  C   UNL A   1      40.551  28.608  33.423  1.00  0.00     0.029 A 
ATOM     52  N   UNL A   1      41.906  29.189  35.109  1.00  0.00    -0.354 N 
ATOM     53  C   UNL A   1      41.681  33.116  36.896  1.00  0.00     0.074 A 
ATOM     54  C   UNL A   1      40.716  33.941  36.206  1.00  0.00     0.031 C 
ATOM     55  C   UNL A   1      41.316  27.542  33.719  1.00  0.00     0.029 A 
ATOM     56  C   UNL A   1      42.238  27.895  34.797  1.00  0.00     0.049 A 
ATOM     57  H   UNL A   1      42.338  29.697  35.832  1.00  0.00     0.167 HD
ATOM     58  C   UNL A   1      42.407  33.532  37.960  1.00  0.00     0.031 A 
ATOM     59  C   UNL A   1      43.188  27.092  35.315  1.00  0.00     0.031 A 
ATOM     60  C   UNL A   1      43.386  32.718  38.629  1.00  0.00     0.049 A 
ATOM     61  C   UNL A   1      44.043  27.594  36.448  1.00  0.00     0.074 A 
ATOM     62  C   UNL A   1      44.170  33.035  39.724  1.00  0.00     0.029 A 
ATOM     63  N   UNL A   1      43.728  31.427  38.250  1.00  0.00    -0.354 N 
ATOM     64  N   UNL A   1      44.007  28.755  37.060  1.00  0.00    -0.248 NA
ATOM     65  C   UNL A   1      45.056  26.670  36.975  1.00  0.00     0.031 C 
ATOM     66  C   UNL A   1      45.037  31.964  39.961  1.00  0.00     0.029 A 
ATOM     67  C   UNL A   1      44.738  30.948  39.066  1.00  0.00     0.049 A 
ATOM     68  H   UNL A   1      43.314  30.929  37.509  1.00  0.00     0.167 HD
ATOM     69  C   UNL A   1      44.972  28.691  38.059  1.00  0.00     0.074 A 
ATOM     70  C   UNL A   1      45.566  27.371  37.979  1.00  0.00     0.031 C 
ATOM     71  C   UNL A   1      45.328  29.635  38.966  1.00  0.00     0.031 A 
BRANCH  58  72
ATOM     72  C   UNL A   1      42.204  34.953  38.414  1.00  0.00    -0.014 A 
ATOM     73  C   UNL A   1      43.006  36.004  37.939  1.00  0.00     0.009 A 
ATOM     74  C   UNL A   1      41.202  35.241  39.355  1.00  0.00     0.009 A 
ATOM     75  C   UNL A   1      42.847  37.299  38.439  1.00  0.00     0.001 A 
ATOM     76  C   UNL A   1      41.021  36.542  39.824  1.00  0.00     0.001 A 
ATOM     77  C   UNL A   1      41.853  37.567  39.379  1.00  0.00     0.000 A 
ENDBRANCH  58  72
BRANCH  59  78
ATOM     78  C   UNL A   1      43.386  25.732  34.746  1.00  0.00    -0.014 A 
ATOM     79  C   UNL A   1      44.283  25.512  33.691  1.00  0.00     0.009 A 
ATOM     80  C   UNL A   1      42.691  24.636  35.284  1.00  0.00     0.009 A 
ATOM     81  C   UNL A   1      44.475  24.225  33.182  1.00  0.00     0.001 A 
ATOM     82  C   UNL A   1      42.906  23.347  34.794  1.00  0.00     0.001 A 
ATOM     83  C   UNL A   1      43.794  23.143  33.739  1.00  0.00     0.000 A 
ENDBRANCH  59  78
BRANCH  71  84
ATOM     84  C   UNL A   1      46.386  29.267  39.971  1.00  0.00    -0.014 A 
ATOM     85  C   UNL A   1      47.728  29.640  39.800  1.00  0.00     0.009 A 
ATOM     86  C   UNL A   1      46.018  28.575  41.138  1.00  0.00     0.009 A 
ATOM     87  C   UNL A   1      48.684  29.294  40.757  1.00  0.00     0.001 A 
ATOM     88  C   UNL A   1      46.970  28.261  42.109  1.00  0.00     0.001 A 
ATOM     89  C   UNL A   1      48.304  28.610  41.912  1.00  0.00     0.000 A 
ENDBRANCH  71  84
ENDBRANCH  45  46
ENDBRANCH  38  40
ENDBRANCH  37  38
ENDBRANCH  36  37
ENDBRANCH  35  36
ENDBRANCH  34  35
ENDBRANCH  33  34
ENDBRANCH  32  33
ENDBRANCH  31  32
ENDBRANCH  30  31
ENDBRANCH   1  30
TORSDOF 26
ENDMDL
MODEL 3
REMARK VINA RESULT:      -6.7     11.647     18.724
REMARK SMILES Cc1ccc(Oc2ccc(NC(=O)CCCC(=O)OCCOCCOCCOCCOC(=O)c3ccc(-c4c5nc(c(-c6ccccc6)c6ccc([nH]6)c(-c6ccccc6)c6nc(c(-c7ccccc7)c7ccc4[nH]7)C=C6)C=C5)cc3)cc2)cc1C
REMARK SMILES IDX 23 1 22 2 21 3 20 4 19 5 17 6 18 7 16 8 15 9 14 10 12 11
REMARK SMILES IDX 11 12 13 14 10 15 7 16 8 17 83 18 9 19 82 20 6 21 5 22 1 23
REMARK SMILES IDX 2 24 3 25 85 26 4 27 84 28 86 29 24 30 25 31 26 32 27 33
REMARK SMILES IDX 28 34 29 35 30 36 31 37 32 38 33 39 34 40 35 41 81 42 36 43
REMARK SMILES IDX 80 44 37 45 38 46 39 47 74 48 40 49 79 50 73 51 75 52 41 53
REMARK SMILES IDX 78 54 72 55 71 56 42 58 64 59 49 60 63 61 50 62 53 63 62 64
REMARK SMILES IDX 76 65 51 66 52 67 61 69 77 70 54 71 43 72 44 73 48 74 45 75
REMARK SMILES IDX 47 76 46 77 65 78 66 79 70 80 67 81 69 82 68 83 55 84 56 85
REMARK SMILES IDX 60 86 57 87 59 88 58 89
REMARK H PARENT 11 13 75 57 53 68
REMARK Flexibility Score: inf
ROOT
ATOM      1  C   UNL A   1      47.629  15.798  45.483  1.00  0.00     0.188 C 
ENDROOT
BRANCH   1   2
ATOM      2  O   UNL A   1      46.317  15.854  44.944  1.00  0.00    -0.376 OA
BRANCH   2   3
ATOM      3  C   UNL A   1      45.569  14.650  44.965  1.00  0.00     0.202 C 
BRANCH   3   4
ATOM      4  C   UNL A   1      46.216  13.457  44.277  1.00  0.00     0.261 C 
BRANCH   4   5
ATOM      5  O   UNL A   1      46.655  12.339  45.070  1.00  0.00    -0.463 OA
BRANCH   5   6
ATOM      6  C   UNL A   1      46.476  11.038  44.764  1.00  0.00     0.305 C 
ATOM      7  O   UNL A   1      47.096  10.413  43.917  1.00  0.00    -0.252 OA
BRANCH   6   8
ATOM      8  C   UNL A   1      45.387  10.415  45.619  1.00  0.00     0.123 C 
BRANCH   8   9
ATOM      9  C   UNL A   1      43.941  10.811  45.300  1.00  0.00     0.022 C 
BRANCH   9  10
ATOM     10  C   UNL A   1      43.589  11.158  43.843  1.00  0.00     0.101 C 
BRANCH  10  11
ATOM     11  C   UNL A   1      42.209  10.721  43.385  1.00  0.00     0.224 C 
ATOM     12  N   UNL A   1      41.438  11.444  42.520  1.00  0.00    -0.326 N 
ATOM     13  H   UNL A   1      40.662  10.945  42.173  1.00  0.00     0.169 HD
ATOM     14  O   UNL A   1      41.781   9.615  43.736  1.00  0.00    -0.275 OA
BRANCH  12  15
ATOM     15  C   UNL A   1      41.528  12.754  42.027  1.00  0.00     0.041 A 
ATOM     16  C   UNL A   1      42.104  15.285  40.918  1.00  0.00     0.127 A 
ATOM     17  C   UNL A   1      41.896  15.126  42.283  1.00  0.00     0.049 A 
ATOM     18  C   UNL A   1      41.890  14.188  40.089  1.00  0.00     0.049 A 
ATOM     19  C   UNL A   1      41.596  13.873  42.839  1.00  0.00     0.030 A 
ATOM     20  C   UNL A   1      41.567  12.936  40.640  1.00  0.00     0.030 A 
BRANCH  16  21
ATOM     21  O   UNL A   1      42.638  16.426  40.358  1.00  0.00    -0.457 OA
BRANCH  21  22
ATOM     22  C   UNL A   1      43.911  16.850  40.683  1.00  0.00     0.127 A 
ATOM     23  C   UNL A   1      47.806  17.656  42.341  1.00  0.00     0.044 C 
ATOM     24  C   UNL A   1      46.445  17.511  41.719  1.00  0.00    -0.048 A 
ATOM     25  C   UNL A   1      46.319  16.677  40.601  1.00  0.00     0.007 A 
ATOM     26  C   UNL A   1      45.291  18.098  42.276  1.00  0.00    -0.045 A 
ATOM     27  C   UNL A   1      45.066  16.323  40.112  1.00  0.00     0.047 A 
ATOM     28  C   UNL A   1      44.030  17.770  41.735  1.00  0.00     0.050 A 
ATOM     29  C   UNL A   1      45.363  19.073  43.425  1.00  0.00     0.045 C 
ENDBRANCH  21  22
ENDBRANCH  16  21
ENDBRANCH  12  15
ENDBRANCH  10  11
ENDBRANCH   9  10
ENDBRANCH   8   9
ENDBRANCH   6   8
ENDBRANCH   5   6
ENDBRANCH   4   5
ENDBRANCH   3   4
ENDBRANCH   2   3
ENDBRANCH   1   2
BRANCH   1  30
ATOM     30  C   UNL A   1      47.724  15.243  46.917  1.00  0.00     0.188 C 
BRANCH  30  31
ATOM     31  O   UNL A   1      48.767  15.703  47.766  1.00  0.00    -0.377 OA
BRANCH  31  32
ATOM     32  C   UNL A   1      49.810  16.532  47.265  1.00  0.00     0.188 C 
BRANCH  32  33
ATOM     33  C   UNL A   1      51.281  16.262  47.610  1.00  0.00     0.188 C 
BRANCH  33  34
ATOM     34  O   UNL A   1      52.015  15.642  46.578  1.00  0.00    -0.376 OA
BRANCH  34  35
ATOM     35  C   UNL A   1      53.213  14.970  46.919  1.00  0.00     0.202 C 
BRANCH  35  36
ATOM     36  C   UNL A   1      54.466  15.171  46.047  1.00  0.00     0.261 C 
BRANCH  36  37
ATOM     37  O   UNL A   1      54.292  15.715  44.727  1.00  0.00    -0.460 OA
BRANCH  37  38
ATOM     38  C   UNL A   1      54.716  16.967  44.474  1.00  0.00     0.338 C 
ATOM     39  O   UNL A   1      55.835  17.419  44.663  1.00  0.00    -0.246 OA
BRANCH  38  40
ATOM     40  C   UNL A   1      53.651  17.671  43.723  1.00  0.00     0.060 A 
ATOM     41  C   UNL A   1      53.880  18.019  42.383  1.00  0.00     0.016 A 
ATOM     42  C   UNL A   1      52.434  17.990  44.333  1.00  0.00     0.016 A 
ATOM     43  C   UNL A   1      52.930  18.751  41.676  1.00  0.00     0.010 A 
ATOM     44  C   UNL A   1      51.492  18.751  43.633  1.00  0.00     0.010 A 
ATOM     45  C   UNL A   1      51.767  19.184  42.323  1.00  0.00    -0.014 A 
BRANCH  45  46
ATOM     46  C   UNL A   1      51.008  20.310  41.727  1.00  0.00     0.031 A 
ATOM     47  C   UNL A   1      51.280  21.695  42.253  1.00  0.00     0.074 A 
ATOM     48  C   UNL A   1      50.164  20.133  40.697  1.00  0.00     0.049 A 
ATOM     49  N   UNL A   1      50.787  22.845  41.871  1.00  0.00    -0.248 NA
ATOM     50  C   UNL A   1      52.243  21.792  43.363  1.00  0.00     0.031 C 
ATOM     51  C   UNL A   1      49.857  18.853  40.065  1.00  0.00     0.029 A 
ATOM     52  N   UNL A   1      49.414  21.046  40.001  1.00  0.00    -0.354 N 
ATOM     53  C   UNL A   1      51.371  23.796  42.698  1.00  0.00     0.074 A 
ATOM     54  C   UNL A   1      52.222  23.087  43.627  1.00  0.00     0.031 C 
ATOM     55  C   UNL A   1      48.976  19.062  39.071  1.00  0.00     0.029 A 
ATOM     56  C   UNL A   1      48.638  20.484  39.019  1.00  0.00     0.049 A 
ATOM     57  H   UNL A   1      49.431  22.013  40.187  1.00  0.00     0.167 HD
ATOM     58  C   UNL A   1      51.221  25.141  42.687  1.00  0.00     0.031 A 
ATOM     59  C   UNL A   1      47.745  21.051  38.185  1.00  0.00     0.031 A 
ATOM     60  C   UNL A   1      50.353  25.842  41.779  1.00  0.00     0.049 A 
ATOM     61  C   UNL A   1      47.529  22.540  38.234  1.00  0.00     0.074 A 
ATOM     62  C   UNL A   1      50.133  27.203  41.672  1.00  0.00     0.029 A 
ATOM     63  N   UNL A   1      49.545  25.229  40.832  1.00  0.00    -0.354 N 
ATOM     64  N   UNL A   1      48.110  23.435  38.998  1.00  0.00    -0.248 NA
ATOM     65  C   UNL A   1      46.549  23.100  37.293  1.00  0.00     0.031 C 
ATOM     66  C   UNL A   1      49.138  27.408  40.710  1.00  0.00     0.029 A 
ATOM     67  C   UNL A   1      48.798  26.182  40.161  1.00  0.00     0.049 A 
ATOM     68  H   UNL A   1      49.508  24.260  40.663  1.00  0.00     0.167 HD
ATOM     69  C   UNL A   1      47.586  24.665  38.614  1.00  0.00     0.074 A 
ATOM     70  C   UNL A   1      46.651  24.399  37.539  1.00  0.00     0.031 C 
ATOM     71  C   UNL A   1      47.860  25.901  39.101  1.00  0.00     0.031 A 
BRANCH  58  72
ATOM     72  C   UNL A   1      51.970  25.923  43.733  1.00  0.00    -0.014 A 
ATOM     73  C   UNL A   1      51.399  26.222  44.982  1.00  0.00     0.009 A 
ATOM     74  C   UNL A   1      53.264  26.388  43.453  1.00  0.00     0.009 A 
ATOM     75  C   UNL A   1      52.086  27.019  45.902  1.00  0.00     0.001 A 
ATOM     76  C   UNL A   1      53.963  27.150  44.389  1.00  0.00     0.001 A 
ATOM     77  C   UNL A   1      53.369  27.479  45.606  1.00  0.00     0.000 A 
ENDBRANCH  58  72
BRANCH  59  78
ATOM     78  C   UNL A   1      46.978  20.193  37.242  1.00  0.00    -0.014 A 
ATOM     79  C   UNL A   1      46.014  19.288  37.708  1.00  0.00     0.009 A 
ATOM     80  C   UNL A   1      47.192  20.302  35.858  1.00  0.00     0.009 A 
ATOM     81  C   UNL A   1      45.286  18.505  36.808  1.00  0.00     0.001 A 
ATOM     82  C   UNL A   1      46.443  19.540  34.960  1.00  0.00     0.001 A 
ATOM     83  C   UNL A   1      45.494  18.638  35.436  1.00  0.00     0.000 A 
ENDBRANCH  59  78
BRANCH  71  84
ATOM     84  C   UNL A   1      47.169  27.070  38.453  1.00  0.00    -0.014 A 
ATOM     85  C   UNL A   1      47.698  27.702  37.317  1.00  0.00     0.009 A 
ATOM     86  C   UNL A   1      45.938  27.514  38.963  1.00  0.00     0.009 A 
ATOM     87  C   UNL A   1      47.027  28.778  36.731  1.00  0.00     0.001 A 
ATOM     88  C   UNL A   1      45.252  28.565  38.354  1.00  0.00     0.001 A 
ATOM     89  C   UNL A   1      45.803  29.205  37.246  1.00  0.00     0.000 A 
ENDBRANCH  71  84
ENDBRANCH  45  46
ENDBRANCH  38  40
ENDBRANCH  37  38
ENDBRANCH  36  37
ENDBRANCH  35  36
ENDBRANCH  34  35
ENDBRANCH  33  34
ENDBRANCH  32  33
ENDBRANCH  31  32
ENDBRANCH  30  31
ENDBRANCH   1  30
TORSDOF 26
ENDMDL
