MODEL 1
REMARK VINA RESULT:      -9.3      0.000      0.000
REMARK SMILES O=C(CSc1nc2cnccc2n1CCC1CC1)OCCOCCOCCOCCOC(=O)c1ccc(-c2c3nc(c(-c4ccccc4)c4ccc([nH]4)c(-c4ccccc4)c4nc(c(-c5ccccc5)c5ccc2[nH]5)C=C4)C=C3)cc1
REMARK SMILES IDX 23 1 22 2 21 3 20 4 19 5 2 6 1 7 3 8 4 9 5 10 6 11 13 12
REMARK SMILES IDX 7 13 12 14 8 15 11 16 9 17 10 18 14 19 15 20 16 21 17 22
REMARK SMILES IDX 18 23 24 24 25 25 26 26 27 27 28 28 29 29 30 30 31 31 32 32
REMARK SMILES IDX 33 33 34 34 35 35 81 36 36 37 80 38 37 39 38 40 39 41 74 42
REMARK SMILES IDX 40 43 79 44 73 45 75 46 41 47 78 48 72 49 71 50 42 52 64 53
REMARK SMILES IDX 49 54 63 55 50 56 53 57 62 58 76 59 51 60 52 61 61 63 77 64
REMARK SMILES IDX 54 65 43 66 44 67 48 68 45 69 47 70 46 71 65 72 66 73 70 74
REMARK SMILES IDX 67 75 69 76 68 77 55 78 56 79 60 80 57 81 59 82 58 83
REMARK H PARENT 75 51 53 62
REMARK Flexibility Score: inf
ROOT
ATOM      1  C   UNL A   1      41.967  19.721  27.295  1.00  0.00     0.188 C 
ENDROOT
BRANCH   1   2
ATOM      2  O   UNL A   1      40.709  20.305  27.571  1.00  0.00    -0.376 OA
BRANCH   2   3
ATOM      3  C   UNL A   1      40.316  21.617  27.239  1.00  0.00     0.202 C 
BRANCH   3   4
ATOM      4  C   UNL A   1      39.549  21.942  25.958  1.00  0.00     0.261 C 
BRANCH   4   5
ATOM      5  O   UNL A   1      38.194  22.344  26.162  1.00  0.00    -0.463 OA
BRANCH   5   6
ATOM      6  C   UNL A   1      37.212  21.908  25.345  1.00  0.00     0.316 C 
ATOM      7  O   UNL A   1      37.291  22.084  24.131  1.00  0.00    -0.251 OA
BRANCH   6   8
ATOM      8  C   UNL A   1      35.900  21.588  25.995  1.00  0.00     0.200 C 
BRANCH   8   9
ATOM      9  S   UNL A   1      34.596  22.836  25.970  1.00  0.00    -0.076 SA
BRANCH   9  10
ATOM     10  C   UNL A   1      33.261  21.815  25.584  1.00  0.00     0.169 A 
ATOM     11  N   UNL A   1      33.148  20.665  26.198  1.00  0.00    -0.221 NA
ATOM     12  N   UNL A   1      32.608  21.826  24.371  1.00  0.00    -0.319 N 
ATOM     13  C   UNL A   1      32.805  19.797  25.206  1.00  0.00     0.108 A 
ATOM     14  C   UNL A   1      32.481  20.484  24.033  1.00  0.00     0.072 A 
ATOM     15  C   UNL A   1      32.846  18.401  25.200  1.00  0.00     0.141 A 
ATOM     16  C   UNL A   1      32.211  19.804  22.847  1.00  0.00     0.049 A 
ATOM     17  N   UNL A   1      32.612  17.719  24.052  1.00  0.00    -0.262 NA
ATOM     18  C   UNL A   1      32.315  18.419  22.932  1.00  0.00     0.113 A 
BRANCH  12  19
ATOM     19  C   UNL A   1      32.434  22.939  23.447  1.00  0.00     0.125 C 
BRANCH  19  20
ATOM     20  C   UNL A   1      31.114  23.711  23.508  1.00  0.00     0.025 C 
BRANCH  20  21
ATOM     21  C   UNL A   1      31.178  25.158  23.923  1.00  0.00    -0.009 C 
ATOM     22  C   UNL A   1      30.689  26.324  23.101  1.00  0.00     0.004 C 
ATOM     23  C   UNL A   1      29.877  25.867  24.263  1.00  0.00     0.004 C 
ENDBRANCH  20  21
ENDBRANCH  19  20
ENDBRANCH  12  19
ENDBRANCH   9  10
ENDBRANCH   8   9
ENDBRANCH   6   8
ENDBRANCH   5   6
ENDBRANCH   4   5
ENDBRANCH   3   4
ENDBRANCH   2   3
ENDBRANCH   1   2
BRANCH   1  24
ATOM     24  C   UNL A   1      42.180  19.388  25.825  1.00  0.00     0.188 C 
BRANCH  24  25
ATOM     25  O   UNL A   1      43.063  18.286  25.688  1.00  0.00    -0.377 OA
BRANCH  25  26
ATOM     26  C   UNL A   1      44.259  18.602  24.984  1.00  0.00     0.188 C 
BRANCH  26  27
ATOM     27  C   UNL A   1      44.597  20.113  24.941  1.00  0.00     0.188 C 
BRANCH  27  28
ATOM     28  O   UNL A   1      45.915  20.542  24.622  1.00  0.00    -0.376 OA
BRANCH  28  29
ATOM     29  C   UNL A   1      46.172  21.936  24.639  1.00  0.00     0.202 C 
BRANCH  29  30
ATOM     30  C   UNL A   1      45.232  22.812  23.793  1.00  0.00     0.261 C 
BRANCH  30  31
ATOM     31  O   UNL A   1      44.773  23.983  24.494  1.00  0.00    -0.460 OA
BRANCH  31  32
ATOM     32  C   UNL A   1      43.498  23.971  24.971  1.00  0.00     0.338 C 
ATOM     33  O   UNL A   1      42.769  23.016  25.079  1.00  0.00    -0.246 OA
BRANCH  32  34
ATOM     34  C   UNL A   1      43.272  25.282  25.647  1.00  0.00     0.060 A 
ATOM     35  C   UNL A   1      43.745  25.548  26.934  1.00  0.00     0.016 A 
ATOM     36  C   UNL A   1      42.336  26.145  25.053  1.00  0.00     0.016 A 
ATOM     37  C   UNL A   1      43.193  26.609  27.658  1.00  0.00     0.010 A 
ATOM     38  C   UNL A   1      41.785  27.205  25.783  1.00  0.00     0.010 A 
ATOM     39  C   UNL A   1      42.183  27.423  27.103  1.00  0.00    -0.014 A 
BRANCH  39  40
ATOM     40  C   UNL A   1      41.739  28.583  27.902  1.00  0.00     0.031 A 
ATOM     41  C   UNL A   1      42.713  29.717  27.910  1.00  0.00     0.074 A 
ATOM     42  C   UNL A   1      40.531  28.816  28.459  1.00  0.00     0.049 A 
ATOM     43  N   UNL A   1      43.255  30.329  28.913  1.00  0.00    -0.248 NA
ATOM     44  C   UNL A   1      43.171  30.179  26.589  1.00  0.00     0.031 C 
ATOM     45  C   UNL A   1      39.281  28.085  28.254  1.00  0.00     0.029 A 
ATOM     46  N   UNL A   1      40.153  29.857  29.275  1.00  0.00    -0.354 N 
ATOM     47  C   UNL A   1      44.032  31.343  28.355  1.00  0.00     0.074 A 
ATOM     48  C   UNL A   1      44.026  31.138  26.928  1.00  0.00     0.031 C 
ATOM     49  C   UNL A   1      38.255  28.805  28.765  1.00  0.00     0.029 A 
ATOM     50  C   UNL A   1      38.779  29.998  29.413  1.00  0.00     0.049 A 
ATOM     51  H   UNL A   1      40.800  30.451  29.721  1.00  0.00     0.167 HD
ATOM     52  C   UNL A   1      44.517  32.398  29.059  1.00  0.00     0.031 A 
ATOM     53  C   UNL A   1      38.106  31.052  29.937  1.00  0.00     0.031 A 
ATOM     54  C   UNL A   1      44.532  32.177  30.474  1.00  0.00     0.049 A 
ATOM     55  C   UNL A   1      39.041  31.901  30.712  1.00  0.00     0.074 A 
ATOM     56  C   UNL A   1      45.153  31.281  31.317  1.00  0.00     0.029 A 
ATOM     57  N   UNL A   1      43.601  32.837  31.234  1.00  0.00    -0.354 N 
ATOM     58  N   UNL A   1      39.552  31.608  31.871  1.00  0.00    -0.248 NA
ATOM     59  C   UNL A   1      39.629  33.051  30.040  1.00  0.00     0.031 C 
ATOM     60  C   UNL A   1      44.283  31.147  32.434  1.00  0.00     0.029 A 
ATOM     61  C   UNL A   1      43.179  31.971  32.206  1.00  0.00     0.049 A 
ATOM     62  H   UNL A   1      43.293  33.764  31.105  1.00  0.00     0.167 HD
ATOM     63  C   UNL A   1      40.753  32.300  31.921  1.00  0.00     0.074 A 
ATOM     64  C   UNL A   1      40.687  33.255  30.824  1.00  0.00     0.031 C 
ATOM     65  C   UNL A   1      41.809  31.862  32.666  1.00  0.00     0.031 A 
BRANCH  52  66
ATOM     66  C   UNL A   1      44.717  33.765  28.460  1.00  0.00    -0.014 A 
ATOM     67  C   UNL A   1      43.649  34.539  27.964  1.00  0.00     0.009 A 
ATOM     68  C   UNL A   1      45.955  34.414  28.609  1.00  0.00     0.009 A 
ATOM     69  C   UNL A   1      43.809  35.880  27.606  1.00  0.00     0.001 A 
ATOM     70  C   UNL A   1      46.106  35.772  28.299  1.00  0.00     0.001 A 
ATOM     71  C   UNL A   1      45.034  36.503  27.793  1.00  0.00     0.000 A 
ENDBRANCH  52  66
BRANCH  53  72
ATOM     72  C   UNL A   1      36.748  31.543  29.590  1.00  0.00    -0.014 A 
ATOM     73  C   UNL A   1      36.152  31.189  28.365  1.00  0.00     0.009 A 
ATOM     74  C   UNL A   1      36.137  32.567  30.335  1.00  0.00     0.009 A 
ATOM     75  C   UNL A   1      35.005  31.838  27.893  1.00  0.00     0.001 A 
ATOM     76  C   UNL A   1      34.995  33.227  29.857  1.00  0.00     0.001 A 
ATOM     77  C   UNL A   1      34.435  32.868  28.633  1.00  0.00     0.000 A 
ENDBRANCH  53  72
BRANCH  65  78
ATOM     78  C   UNL A   1      41.581  30.919  33.817  1.00  0.00    -0.014 A 
ATOM     79  C   UNL A   1      41.739  31.427  35.121  1.00  0.00     0.009 A 
ATOM     80  C   UNL A   1      41.408  29.540  33.662  1.00  0.00     0.009 A 
ATOM     81  C   UNL A   1      41.764  30.581  36.232  1.00  0.00     0.001 A 
ATOM     82  C   UNL A   1      41.388  28.707  34.783  1.00  0.00     0.001 A 
ATOM     83  C   UNL A   1      41.592  29.216  36.061  1.00  0.00     0.000 A 
ENDBRANCH  65  78
ENDBRANCH  39  40
ENDBRANCH  32  34
ENDBRANCH  31  32
ENDBRANCH  30  31
ENDBRANCH  29  30
ENDBRANCH  28  29
ENDBRANCH  27  28
ENDBRANCH  26  27
ENDBRANCH  25  26
ENDBRANCH  24  25
ENDBRANCH   1  24
TORSDOF 25
ENDMDL
MODEL 2
REMARK VINA RESULT:      -9.2      1.171      2.721
REMARK SMILES O=C(CSc1nc2cnccc2n1CCC1CC1)OCCOCCOCCOCCOC(=O)c1ccc(-c2c3nc(c(-c4ccccc4)c4ccc([nH]4)c(-c4ccccc4)c4nc(c(-c5ccccc5)c5ccc2[nH]5)C=C4)C=C3)cc1
REMARK SMILES IDX 23 1 22 2 21 3 20 4 19 5 2 6 1 7 3 8 4 9 5 10 6 11 13 12
REMARK SMILES IDX 7 13 12 14 8 15 11 16 9 17 10 18 14 19 15 20 16 21 17 22
REMARK SMILES IDX 18 23 24 24 25 25 26 26 27 27 28 28 29 29 30 30 31 31 32 32
REMARK SMILES IDX 33 33 34 34 35 35 81 36 36 37 80 38 37 39 38 40 39 41 74 42
REMARK SMILES IDX 40 43 79 44 73 45 75 46 41 47 78 48 72 49 71 50 42 52 64 53
REMARK SMILES IDX 49 54 63 55 50 56 53 57 62 58 76 59 51 60 52 61 61 63 77 64
REMARK SMILES IDX 54 65 43 66 44 67 48 68 45 69 47 70 46 71 65 72 66 73 70 74
REMARK SMILES IDX 67 75 69 76 68 77 55 78 56 79 60 80 57 81 59 82 58 83
REMARK H PARENT 75 51 53 62
REMARK Flexibility Score: inf
ROOT
ATOM      1  C   UNL A   1      43.127  18.581  26.150  1.00  0.00     0.188 C 
ENDROOT
BRANCH   1   2
ATOM      2  O   UNL A   1      41.782  18.838  25.796  1.00  0.00    -0.376 OA
BRANCH   2   3
ATOM      3  C   UNL A   1      40.836  19.525  26.585  1.00  0.00     0.202 C 
BRANCH   3   4
ATOM      4  C   UNL A   1      40.208  20.846  26.143  1.00  0.00     0.261 C 
BRANCH   4   5
ATOM      5  O   UNL A   1      38.895  20.725  25.594  1.00  0.00    -0.463 OA
BRANCH   5   6
ATOM      6  C   UNL A   1      38.124  21.816  25.399  1.00  0.00     0.316 C 
ATOM      7  O   UNL A   1      38.340  22.849  26.029  1.00  0.00    -0.251 OA
BRANCH   6   8
ATOM      8  C   UNL A   1      36.809  21.586  24.720  1.00  0.00     0.200 C 
BRANCH   8   9
ATOM      9  S   UNL A   1      35.297  22.073  25.578  1.00  0.00    -0.076 SA
BRANCH   9  10
ATOM     10  C   UNL A   1      34.288  22.341  24.206  1.00  0.00     0.169 A 
ATOM     11  N   UNL A   1      34.511  23.388  23.453  1.00  0.00    -0.221 NA
ATOM     12  N   UNL A   1      32.989  21.893  24.105  1.00  0.00    -0.319 N 
ATOM     13  C   UNL A   1      33.268  23.885  23.206  1.00  0.00     0.108 A 
ATOM     14  C   UNL A   1      32.281  22.987  23.623  1.00  0.00     0.072 A 
ATOM     15  C   UNL A   1      32.899  25.143  22.724  1.00  0.00     0.141 A 
ATOM     16  C   UNL A   1      30.930  23.325  23.580  1.00  0.00     0.049 A 
ATOM     17  N   UNL A   1      31.592  25.503  22.697  1.00  0.00    -0.262 NA
ATOM     18  C   UNL A   1      30.666  24.612  23.121  1.00  0.00     0.113 A 
BRANCH  12  19
ATOM     19  C   UNL A   1      32.389  20.714  24.714  1.00  0.00     0.125 C 
BRANCH  19  20
ATOM     20  C   UNL A   1      33.193  19.412  24.682  1.00  0.00     0.025 C 
BRANCH  20  21
ATOM     21  C   UNL A   1      32.593  18.247  23.938  1.00  0.00    -0.009 C 
ATOM     22  C   UNL A   1      32.521  18.115  22.437  1.00  0.00     0.004 C 
ATOM     23  C   UNL A   1      33.530  17.315  23.186  1.00  0.00     0.004 C 
ENDBRANCH  20  21
ENDBRANCH  19  20
ENDBRANCH  12  19
ENDBRANCH   9  10
ENDBRANCH   8   9
ENDBRANCH   6   8
ENDBRANCH   5   6
ENDBRANCH   4   5
ENDBRANCH   3   4
ENDBRANCH   2   3
ENDBRANCH   1   2
BRANCH   1  24
ATOM     24  C   UNL A   1      44.098  18.678  24.982  1.00  0.00     0.188 C 
BRANCH  24  25
ATOM     25  O   UNL A   1      45.393  18.253  25.376  1.00  0.00    -0.377 OA
BRANCH  25  26
ATOM     26  C   UNL A   1      46.405  19.226  25.140  1.00  0.00     0.188 C 
BRANCH  26  27
ATOM     27  C   UNL A   1      45.892  20.546  24.514  1.00  0.00     0.188 C 
BRANCH  27  28
ATOM     28  O   UNL A   1      46.590  21.764  24.739  1.00  0.00    -0.376 OA
BRANCH  28  29
ATOM     29  C   UNL A   1      45.914  22.972  24.440  1.00  0.00     0.202 C 
BRANCH  29  30
ATOM     30  C   UNL A   1      44.428  22.845  24.059  1.00  0.00     0.261 C 
BRANCH  30  31
ATOM     31  O   UNL A   1      43.580  23.746  24.795  1.00  0.00    -0.460 OA
BRANCH  31  32
ATOM     32  C   UNL A   1      43.228  23.385  26.060  1.00  0.00     0.338 C 
ATOM     33  O   UNL A   1      43.339  22.295  26.566  1.00  0.00    -0.246 OA
BRANCH  32  34
ATOM     34  C   UNL A   1      42.988  24.645  26.823  1.00  0.00     0.060 A 
ATOM     35  C   UNL A   1      42.131  24.695  27.925  1.00  0.00     0.016 A 
ATOM     36  C   UNL A   1      43.440  25.837  26.234  1.00  0.00     0.016 A 
ATOM     37  C   UNL A   1      41.646  25.933  28.356  1.00  0.00     0.010 A 
ATOM     38  C   UNL A   1      42.950  27.074  26.668  1.00  0.00     0.010 A 
ATOM     39  C   UNL A   1      42.022  27.129  27.709  1.00  0.00    -0.014 A 
BRANCH  39  40
ATOM     40  C   UNL A   1      41.543  28.395  28.301  1.00  0.00     0.031 A 
ATOM     41  C   UNL A   1      42.492  29.537  28.127  1.00  0.00     0.074 A 
ATOM     42  C   UNL A   1      40.325  28.689  28.804  1.00  0.00     0.049 A 
ATOM     43  N   UNL A   1      43.010  30.319  29.019  1.00  0.00    -0.248 NA
ATOM     44  C   UNL A   1      42.953  29.785  26.751  1.00  0.00     0.031 C 
ATOM     45  C   UNL A   1      39.094  27.904  28.714  1.00  0.00     0.029 A 
ATOM     46  N   UNL A   1      39.915  29.841  29.433  1.00  0.00    -0.354 N 
ATOM     47  C   UNL A   1      43.771  31.245  28.305  1.00  0.00     0.074 A 
ATOM     48  C   UNL A   1      43.784  30.806  26.932  1.00  0.00     0.031 C 
ATOM     49  C   UNL A   1      38.047  28.674  29.092  1.00  0.00     0.029 A 
ATOM     50  C   UNL A   1      38.537  29.970  29.537  1.00  0.00     0.049 A 
ATOM     51  H   UNL A   1      40.544  30.516  29.779  1.00  0.00     0.167 HD
ATOM     52  C   UNL A   1      44.225  32.413  28.829  1.00  0.00     0.031 A 
ATOM     53  C   UNL A   1      37.836  31.081  29.875  1.00  0.00     0.031 A 
ATOM     54  C   UNL A   1      44.230  32.429  30.260  1.00  0.00     0.049 A 
ATOM     55  C   UNL A   1      38.744  32.068  30.504  1.00  0.00     0.074 A 
ATOM     56  C   UNL A   1      44.862  31.700  31.244  1.00  0.00     0.029 A 
ATOM     57  N   UNL A   1      43.277  33.184  30.894  1.00  0.00    -0.354 N 
ATOM     58  N   UNL A   1      39.250  31.984  31.699  1.00  0.00    -0.248 NA
ATOM     59  C   UNL A   1      39.314  33.105  29.655  1.00  0.00     0.031 C 
ATOM     60  C   UNL A   1      43.984  31.732  32.362  1.00  0.00     0.029 A 
ATOM     61  C   UNL A   1      42.864  32.481  31.993  1.00  0.00     0.049 A 
ATOM     62  H   UNL A   1      42.950  34.069  30.611  1.00  0.00     0.167 HD
ATOM     63  C   UNL A   1      40.435  32.702  31.642  1.00  0.00     0.074 A 
ATOM     64  C   UNL A   1      40.358  33.461  30.401  1.00  0.00     0.031 C 
ATOM     65  C   UNL A   1      41.492  32.418  32.456  1.00  0.00     0.031 A 
BRANCH  52  66
ATOM     66  C   UNL A   1      44.401  33.666  28.012  1.00  0.00    -0.014 A 
ATOM     67  C   UNL A   1      45.629  34.017  27.415  1.00  0.00     0.009 A 
ATOM     68  C   UNL A   1      43.270  34.398  27.612  1.00  0.00     0.009 A 
ATOM     69  C   UNL A   1      45.733  35.059  26.492  1.00  0.00     0.001 A 
ATOM     70  C   UNL A   1      43.363  35.410  26.648  1.00  0.00     0.001 A 
ATOM     71  C   UNL A   1      44.595  35.744  26.092  1.00  0.00     0.000 A 
ENDBRANCH  52  66
BRANCH  53  72
ATOM     72  C   UNL A   1      36.471  31.476  29.441  1.00  0.00    -0.014 A 
ATOM     73  C   UNL A   1      36.016  31.168  28.146  1.00  0.00     0.009 A 
ATOM     74  C   UNL A   1      35.706  32.381  30.199  1.00  0.00     0.009 A 
ATOM     75  C   UNL A   1      34.856  31.748  27.620  1.00  0.00     0.001 A 
ATOM     76  C   UNL A   1      34.550  32.972  29.667  1.00  0.00     0.001 A 
ATOM     77  C   UNL A   1      34.131  32.662  28.375  1.00  0.00     0.000 A 
ENDBRANCH  53  72
BRANCH  65  78
ATOM     78  C   UNL A   1      41.272  31.674  33.746  1.00  0.00    -0.014 A 
ATOM     79  C   UNL A   1      41.274  30.266  33.698  1.00  0.00     0.009 A 
ATOM     80  C   UNL A   1      40.883  32.293  34.938  1.00  0.00     0.009 A 
ATOM     81  C   UNL A   1      40.863  29.502  34.792  1.00  0.00     0.001 A 
ATOM     82  C   UNL A   1      40.517  31.520  36.041  1.00  0.00     0.001 A 
ATOM     83  C   UNL A   1      40.479  30.132  35.966  1.00  0.00     0.000 A 
ENDBRANCH  65  78
ENDBRANCH  39  40
ENDBRANCH  32  34
ENDBRANCH  31  32
ENDBRANCH  30  31
ENDBRANCH  29  30
ENDBRANCH  28  29
ENDBRANCH  27  28
ENDBRANCH  26  27
ENDBRANCH  25  26
ENDBRANCH  24  25
ENDBRANCH   1  24
TORSDOF 25
ENDMDL
MODEL 3
REMARK VINA RESULT:      -9.0      2.549      4.860
REMARK SMILES O=C(CSc1nc2cnccc2n1CCC1CC1)OCCOCCOCCOCCOC(=O)c1ccc(-c2c3nc(c(-c4ccccc4)c4ccc([nH]4)c(-c4ccccc4)c4nc(c(-c5ccccc5)c5ccc2[nH]5)C=C4)C=C3)cc1
REMARK SMILES IDX 23 1 22 2 21 3 20 4 19 5 2 6 1 7 3 8 4 9 5 10 6 11 13 12
REMARK SMILES IDX 7 13 12 14 8 15 11 16 9 17 10 18 14 19 15 20 16 21 17 22
REMARK SMILES IDX 18 23 24 24 25 25 26 26 27 27 28 28 29 29 30 30 31 31 32 32
REMARK SMILES IDX 33 33 34 34 35 35 81 36 36 37 80 38 37 39 38 40 39 41 74 42
REMARK SMILES IDX 40 43 79 44 73 45 75 46 41 47 78 48 72 49 71 50 42 52 64 53
REMARK SMILES IDX 49 54 63 55 50 56 53 57 62 58 76 59 51 60 52 61 61 63 77 64
REMARK SMILES IDX 54 65 43 66 44 67 48 68 45 69 47 70 46 71 65 72 66 73 70 74
REMARK SMILES IDX 67 75 69 76 68 77 55 78 56 79 60 80 57 81 59 82 58 83
REMARK H PARENT 75 51 53 62
REMARK Flexibility Score: inf
ROOT
ATOM      1  C   UNL A   1      35.157  22.905  26.101  1.00  0.00     0.188 C 
ENDROOT
BRANCH   1   2
ATOM      2  O   UNL A   1      35.100  24.114  25.369  1.00  0.00    -0.376 OA
BRANCH   2   3
ATOM      3  C   UNL A   1      34.012  24.559  24.590  1.00  0.00     0.202 C 
BRANCH   3   4
ATOM      4  C   UNL A   1      34.011  25.915  23.887  1.00  0.00     0.261 C 
BRANCH   4   5
ATOM      5  O   UNL A   1      34.001  25.845  22.461  1.00  0.00    -0.463 OA
BRANCH   5   6
ATOM      6  C   UNL A   1      32.898  25.442  21.796  1.00  0.00     0.316 C 
ATOM      7  O   UNL A   1      33.000  24.727  20.801  1.00  0.00    -0.251 OA
BRANCH   6   8
ATOM      8  C   UNL A   1      31.640  26.209  22.069  1.00  0.00     0.200 C 
BRANCH   8   9
ATOM      9  S   UNL A   1      30.616  25.718  23.473  1.00  0.00    -0.076 SA
BRANCH   9  10
ATOM     10  C   UNL A   1      29.881  27.241  23.809  1.00  0.00     0.169 A 
ATOM     11  N   UNL A   1      28.608  27.397  23.553  1.00  0.00    -0.221 NA
ATOM     12  N   UNL A   1      30.562  28.438  23.825  1.00  0.00    -0.319 N 
ATOM     13  C   UNL A   1      28.540  28.627  22.971  1.00  0.00     0.108 A 
ATOM     14  C   UNL A   1      29.755  29.305  23.098  1.00  0.00     0.072 A 
ATOM     15  C   UNL A   1      27.506  29.194  22.222  1.00  0.00     0.141 A 
ATOM     16  C   UNL A   1      29.965  30.536  22.480  1.00  0.00     0.049 A 
ATOM     17  N   UNL A   1      27.696  30.378  21.590  1.00  0.00    -0.262 NA
ATOM     18  C   UNL A   1      28.891  31.000  21.725  1.00  0.00     0.113 A 
BRANCH  12  19
ATOM     19  C   UNL A   1      31.959  28.680  24.156  1.00  0.00     0.125 C 
BRANCH  19  20
ATOM     20  C   UNL A   1      32.259  29.653  25.299  1.00  0.00     0.025 C 
BRANCH  20  21
ATOM     21  C   UNL A   1      31.890  29.217  26.693  1.00  0.00    -0.009 C 
ATOM     22  C   UNL A   1      31.662  27.791  27.129  1.00  0.00     0.004 C 
ATOM     23  C   UNL A   1      32.931  28.470  27.512  1.00  0.00     0.004 C 
ENDBRANCH  20  21
ENDBRANCH  19  20
ENDBRANCH  12  19
ENDBRANCH   9  10
ENDBRANCH   8   9
ENDBRANCH   6   8
ENDBRANCH   5   6
ENDBRANCH   4   5
ENDBRANCH   3   4
ENDBRANCH   2   3
ENDBRANCH   1   2
BRANCH   1  24
ATOM     24  C   UNL A   1      35.009  21.658  25.241  1.00  0.00     0.188 C 
BRANCH  24  25
ATOM     25  O   UNL A   1      36.146  20.821  25.379  1.00  0.00    -0.377 OA
BRANCH  25  26
ATOM     26  C   UNL A   1      37.326  21.369  24.801  1.00  0.00     0.188 C 
BRANCH  26  27
ATOM     27  C   UNL A   1      38.646  20.827  25.403  1.00  0.00     0.188 C 
BRANCH  27  28
ATOM     28  O   UNL A   1      39.394  21.618  26.317  1.00  0.00    -0.376 OA
BRANCH  28  29
ATOM     29  C   UNL A   1      40.551  21.038  26.894  1.00  0.00     0.202 C 
BRANCH  29  30
ATOM     30  C   UNL A   1      41.863  21.823  26.724  1.00  0.00     0.261 C 
BRANCH  30  31
ATOM     31  O   UNL A   1      41.799  22.804  25.672  1.00  0.00    -0.460 OA
BRANCH  31  32
ATOM     32  C   UNL A   1      42.935  23.499  25.390  1.00  0.00     0.338 C 
ATOM     33  O   UNL A   1      43.802  23.194  24.608  1.00  0.00    -0.246 OA
BRANCH  32  34
ATOM     34  C   UNL A   1      42.768  24.864  25.969  1.00  0.00     0.060 A 
ATOM     35  C   UNL A   1      43.379  25.246  27.165  1.00  0.00     0.016 A 
ATOM     36  C   UNL A   1      41.758  25.667  25.412  1.00  0.00     0.016 A 
ATOM     37  C   UNL A   1      42.898  26.365  27.851  1.00  0.00     0.010 A 
ATOM     38  C   UNL A   1      41.278  26.785  26.104  1.00  0.00     0.010 A 
ATOM     39  C   UNL A   1      41.820  27.121  27.346  1.00  0.00    -0.014 A 
BRANCH  39  40
ATOM     40  C   UNL A   1      41.452  28.346  28.085  1.00  0.00     0.031 A 
ATOM     41  C   UNL A   1      42.474  29.434  27.993  1.00  0.00     0.074 A 
ATOM     42  C   UNL A   1      40.274  28.667  28.662  1.00  0.00     0.049 A 
ATOM     43  N   UNL A   1      43.074  30.080  28.940  1.00  0.00    -0.248 NA
ATOM     44  C   UNL A   1      42.908  29.795  26.634  1.00  0.00     0.031 C 
ATOM     45  C   UNL A   1      38.988  27.981  28.540  1.00  0.00     0.029 A 
ATOM     46  N   UNL A   1      39.967  29.771  29.423  1.00  0.00    -0.354 N 
ATOM     47  C   UNL A   1      43.875  31.023  28.298  1.00  0.00     0.074 A 
ATOM     48  C   UNL A   1      43.815  30.733  26.888  1.00  0.00     0.031 C 
ATOM     49  C   UNL A   1      38.011  28.775  29.035  1.00  0.00     0.029 A 
ATOM     50  C   UNL A   1      38.606  29.980  29.593  1.00  0.00     0.049 A 
ATOM     51  H   UNL A   1      40.654  30.361  29.813  1.00  0.00     0.167 HD
ATOM     52  C   UNL A   1      44.428  32.096  28.922  1.00  0.00     0.031 A 
ATOM     53  C   UNL A   1      37.996  31.094  30.071  1.00  0.00     0.031 A 
ATOM     54  C   UNL A   1      44.479  31.959  30.346  1.00  0.00     0.049 A 
ATOM     55  C   UNL A   1      38.992  31.945  30.764  1.00  0.00     0.074 A 
ATOM     56  C   UNL A   1      45.089  31.089  31.224  1.00  0.00     0.029 A 
ATOM     57  N   UNL A   1      43.602  32.705  31.092  1.00  0.00    -0.354 N 
ATOM     58  N   UNL A   1      39.528  31.700  31.924  1.00  0.00    -0.248 NA
ATOM     59  C   UNL A   1      39.607  33.025  30.006  1.00  0.00     0.031 C 
ATOM     60  C   UNL A   1      44.250  31.061  32.372  1.00  0.00     0.029 A 
ATOM     61  C   UNL A   1      43.175  31.918  32.127  1.00  0.00     0.049 A 
ATOM     62  H   UNL A   1      43.331  33.635  30.915  1.00  0.00     0.167 HD
ATOM     63  C   UNL A   1      40.758  32.339  31.895  1.00  0.00     0.074 A 
ATOM     64  C   UNL A   1      40.697  33.228  30.744  1.00  0.00     0.031 C 
ATOM     65  C   UNL A   1      41.818  31.899  32.634  1.00  0.00     0.031 A 
BRANCH  52  66
ATOM     66  C   UNL A   1      44.667  33.414  28.234  1.00  0.00    -0.014 A 
ATOM     67  C   UNL A   1      45.907  33.756  27.660  1.00  0.00     0.009 A 
ATOM     68  C   UNL A   1      43.575  34.243  27.924  1.00  0.00     0.009 A 
ATOM     69  C   UNL A   1      46.062  34.880  26.845  1.00  0.00     0.001 A 
ATOM     70  C   UNL A   1      43.717  35.341  27.067  1.00  0.00     0.001 A 
ATOM     71  C   UNL A   1      44.961  35.662  26.531  1.00  0.00     0.000 A 
ENDBRANCH  52  66
BRANCH  53  72
ATOM     72  C   UNL A   1      36.650  31.624  29.735  1.00  0.00    -0.014 A 
ATOM     73  C   UNL A   1      36.262  31.787  28.392  1.00  0.00     0.009 A 
ATOM     74  C   UNL A   1      35.839  32.215  30.720  1.00  0.00     0.009 A 
ATOM     75  C   UNL A   1      35.123  32.521  28.043  1.00  0.00     0.001 A 
ATOM     76  C   UNL A   1      34.704  32.961  30.370  1.00  0.00     0.001 A 
ATOM     77  C   UNL A   1      34.352  33.122  29.031  1.00  0.00     0.000 A 
ENDBRANCH  53  72
BRANCH  65  78
ATOM     78  C   UNL A   1      41.587  31.038  33.847  1.00  0.00    -0.014 A 
ATOM     79  C   UNL A   1      41.872  31.595  35.109  1.00  0.00     0.009 A 
ATOM     80  C   UNL A   1      41.289  29.674  33.779  1.00  0.00     0.009 A 
ATOM     81  C   UNL A   1      41.897  30.807  36.262  1.00  0.00     0.001 A 
ATOM     82  C   UNL A   1      41.273  28.903  34.943  1.00  0.00     0.001 A 
ATOM     83  C   UNL A   1      41.601  29.455  36.176  1.00  0.00     0.000 A 
ENDBRANCH  65  78
ENDBRANCH  39  40
ENDBRANCH  32  34
ENDBRANCH  31  32
ENDBRANCH  30  31
ENDBRANCH  29  30
ENDBRANCH  28  29
ENDBRANCH  27  28
ENDBRANCH  26  27
ENDBRANCH  25  26
ENDBRANCH  24  25
ENDBRANCH   1  24
TORSDOF 25
ENDMDL
