MODEL 1
REMARK VINA RESULT:      -9.3      0.000      0.000
REMARK SMILES Cc1c(CC(=O)OCCOCCOCCOCCOC(=O)c2ccc(-c3c4nc(c(-c5ccccc5)c5ccc([nH]5)c(-c5ccccc5)c5nc(c(-c6ccccc6)c6ccc3[nH]6)C=C5)C=C4)cc2)cc(-c2ccccc2)cc1-c1ccccc1
REMARK SMILES IDX 13 1 12 2 11 3 10 4 9 5 8 6 7 7 5 8 6 9 4 10 3 11 1 12 2 13
REMARK SMILES IDX 79 14 70 15 78 16 71 17 80 18 81 19 85 20 82 21 84 22 83 23
REMARK SMILES IDX 72 24 73 25 77 26 74 27 76 28 75 29 14 30 15 31 16 32 17 33
REMARK SMILES IDX 18 34 19 35 20 36 21 37 22 38 23 39 69 40 24 41 68 42 25 43
REMARK SMILES IDX 26 44 27 45 62 46 28 47 67 48 61 49 63 50 29 51 66 52 60 53
REMARK SMILES IDX 59 54 30 56 52 57 37 58 51 59 38 60 41 61 50 62 64 63 39 64
REMARK SMILES IDX 40 65 49 67 65 68 42 69 31 70 32 71 36 72 33 73 35 74 34 75
REMARK SMILES IDX 53 76 54 77 58 78 55 79 57 80 56 81 43 82 44 83 48 84 45 85
REMARK SMILES IDX 47 86 46 87
REMARK H PARENT 63 55 41 66
REMARK Flexibility Score: inf
ROOT
ATOM      1  O   UNL A   1      43.876  43.039  23.836  1.00  0.00    -0.377 OA
ENDROOT
BRANCH   1   2
ATOM      2  C   UNL A   1      43.018  42.558  22.827  1.00  0.00     0.188 C 
BRANCH   2   3
ATOM      3  C   UNL A   1      41.632  43.063  22.381  1.00  0.00     0.188 C 
BRANCH   3   4
ATOM      4  O   UNL A   1      41.409  43.856  21.233  1.00  0.00    -0.376 OA
BRANCH   4   5
ATOM      5  C   UNL A   1      41.586  43.241  19.981  1.00  0.00     0.202 C 
BRANCH   5   6
ATOM      6  C   UNL A   1      40.875  43.889  18.794  1.00  0.00     0.261 C 
BRANCH   6   7
ATOM      7  O   UNL A   1      41.707  44.004  17.621  1.00  0.00    -0.463 OA
BRANCH   7   8
ATOM      8  C   UNL A   1      41.773  45.240  17.066  1.00  0.00     0.310 C 
ATOM      9  O   UNL A   1      41.425  45.502  15.919  1.00  0.00    -0.252 OA
BRANCH   8  10
ATOM     10  C   UNL A   1      42.410  46.275  17.970  1.00  0.00     0.158 C 
BRANCH  10  11
ATOM     11  C   UNL A   1      43.922  46.272  18.195  1.00  0.00    -0.033 A 
ATOM     12  C   UNL A   1      44.203  48.287  16.667  1.00  0.00     0.045 C 
ATOM     13  C   UNL A   1      44.757  47.267  17.634  1.00  0.00    -0.039 A 
ATOM     14  C   UNL A   1      46.117  47.328  18.026  1.00  0.00    -0.015 A 
ATOM     15  C   UNL A   1      44.515  45.296  19.044  1.00  0.00     0.013 A 
ATOM     16  C   UNL A   1      46.683  46.250  18.723  1.00  0.00     0.017 A 
ATOM     17  C   UNL A   1      45.915  45.200  19.219  1.00  0.00    -0.017 A 
BRANCH  14  18
ATOM     18  C   UNL A   1      46.909  48.568  17.989  1.00  0.00    -0.018 A 
ATOM     19  C   UNL A   1      47.971  48.773  17.097  1.00  0.00     0.009 A 
ATOM     20  C   UNL A   1      46.723  49.493  19.034  1.00  0.00     0.009 A 
ATOM     21  C   UNL A   1      48.832  49.861  17.266  1.00  0.00     0.001 A 
ATOM     22  C   UNL A   1      47.575  50.579  19.198  1.00  0.00     0.001 A 
ATOM     23  C   UNL A   1      48.637  50.758  18.317  1.00  0.00     0.000 A 
ENDBRANCH  14  18
BRANCH  17  24
ATOM     24  C   UNL A   1      46.609  44.043  19.835  1.00  0.00    -0.018 A 
ATOM     25  C   UNL A   1      45.857  42.998  20.420  1.00  0.00     0.009 A 
ATOM     26  C   UNL A   1      48.002  43.928  19.878  1.00  0.00     0.009 A 
ATOM     27  C   UNL A   1      46.466  41.917  21.069  1.00  0.00     0.001 A 
ATOM     28  C   UNL A   1      48.614  42.829  20.503  1.00  0.00     0.001 A 
ATOM     29  C   UNL A   1      47.849  41.836  21.114  1.00  0.00     0.000 A 
ENDBRANCH  17  24
ENDBRANCH  10  11
ENDBRANCH   8  10
ENDBRANCH   7   8
ENDBRANCH   6   7
ENDBRANCH   5   6
ENDBRANCH   4   5
ENDBRANCH   3   4
ENDBRANCH   2   3
ENDBRANCH   1   2
BRANCH   1  30
ATOM     30  C   UNL A   1      43.772  42.488  25.117  1.00  0.00     0.188 C 
BRANCH  30  31
ATOM     31  C   UNL A   1      42.750  41.433  25.366  1.00  0.00     0.188 C 
BRANCH  31  32
ATOM     32  O   UNL A   1      43.447  40.286  25.814  1.00  0.00    -0.376 OA
BRANCH  32  33
ATOM     33  C   UNL A   1      42.627  39.353  26.491  1.00  0.00     0.202 C 
BRANCH  33  34
ATOM     34  C   UNL A   1      43.464  38.259  27.165  1.00  0.00     0.261 C 
BRANCH  34  35
ATOM     35  O   UNL A   1      43.236  37.009  26.466  1.00  0.00    -0.460 OA
BRANCH  35  36
ATOM     36  C   UNL A   1      42.725  35.977  27.207  1.00  0.00     0.338 C 
ATOM     37  O   UNL A   1      41.832  36.078  28.020  1.00  0.00    -0.246 OA
BRANCH  36  38
ATOM     38  C   UNL A   1      43.624  34.772  27.110  1.00  0.00     0.060 A 
ATOM     39  C   UNL A   1      43.532  33.908  26.000  1.00  0.00     0.016 A 
ATOM     40  C   UNL A   1      44.265  34.322  28.256  1.00  0.00     0.016 A 
ATOM     41  C   UNL A   1      43.912  32.548  26.103  1.00  0.00     0.010 A 
ATOM     42  C   UNL A   1      44.541  32.968  28.379  1.00  0.00     0.010 A 
ATOM     43  C   UNL A   1      44.330  32.040  27.332  1.00  0.00    -0.014 A 
BRANCH  43  44
ATOM     44  C   UNL A   1      44.369  30.599  27.738  1.00  0.00     0.031 A 
ATOM     45  C   UNL A   1      45.629  29.830  27.441  1.00  0.00     0.074 A 
ATOM     46  C   UNL A   1      43.493  30.084  28.656  1.00  0.00     0.049 A 
ATOM     47  N   UNL A   1      45.873  28.635  27.852  1.00  0.00    -0.248 NA
ATOM     48  C   UNL A   1      46.770  30.373  26.700  1.00  0.00     0.031 C 
ATOM     49  C   UNL A   1      43.710  28.945  29.566  1.00  0.00     0.029 A 
ATOM     50  N   UNL A   1      42.223  30.514  29.056  1.00  0.00    -0.354 N 
ATOM     51  C   UNL A   1      47.220  28.373  27.727  1.00  0.00     0.074 A 
ATOM     52  C   UNL A   1      47.733  29.483  26.968  1.00  0.00     0.031 C 
ATOM     53  C   UNL A   1      42.632  28.702  30.327  1.00  0.00     0.029 A 
ATOM     54  C   UNL A   1      41.564  29.467  29.743  1.00  0.00     0.049 A 
ATOM     55  H   UNL A   1      41.846  31.407  28.887  1.00  0.00     0.167 HD
ATOM     56  C   UNL A   1      47.740  27.288  28.374  1.00  0.00     0.031 A 
ATOM     57  C   UNL A   1      40.434  28.916  29.216  1.00  0.00     0.031 A 
ATOM     58  C   UNL A   1      46.672  26.409  28.896  1.00  0.00     0.049 A 
ATOM     59  C   UNL A   1      40.789  27.551  28.653  1.00  0.00     0.074 A 
ATOM     60  C   UNL A   1      46.366  25.834  30.116  1.00  0.00     0.029 A 
ATOM     61  N   UNL A   1      45.568  26.140  28.074  1.00  0.00    -0.354 N 
ATOM     62  N   UNL A   1      42.019  27.222  28.327  1.00  0.00    -0.248 NA
ATOM     63  C   UNL A   1      39.892  26.400  28.597  1.00  0.00     0.031 C 
ATOM     64  C   UNL A   1      44.997  25.416  30.072  1.00  0.00     0.029 A 
ATOM     65  C   UNL A   1      44.504  25.630  28.791  1.00  0.00     0.049 A 
ATOM     66  H   UNL A   1      45.553  26.295  27.103  1.00  0.00     0.167 HD
ATOM     67  C   UNL A   1      42.123  25.873  28.203  1.00  0.00     0.074 A 
ATOM     68  C   UNL A   1      40.749  25.405  28.292  1.00  0.00     0.031 C 
ATOM     69  C   UNL A   1      43.297  25.186  28.099  1.00  0.00     0.031 A 
BRANCH  56  70
ATOM     70  C   UNL A   1      49.226  27.069  28.647  1.00  0.00    -0.014 A 
ATOM     71  C   UNL A   1      50.139  27.026  27.574  1.00  0.00     0.009 A 
ATOM     72  C   UNL A   1      49.791  26.823  29.915  1.00  0.00     0.009 A 
ATOM     73  C   UNL A   1      51.508  26.756  27.752  1.00  0.00     0.001 A 
ATOM     74  C   UNL A   1      51.166  26.589  30.107  1.00  0.00     0.001 A 
ATOM     75  C   UNL A   1      52.026  26.549  29.022  1.00  0.00     0.000 A 
ENDBRANCH  56  70
BRANCH  57  76
ATOM     76  C   UNL A   1      39.502  30.018  28.797  1.00  0.00    -0.014 A 
ATOM     77  C   UNL A   1      38.625  29.642  27.743  1.00  0.00     0.009 A 
ATOM     78  C   UNL A   1      39.017  30.935  29.745  1.00  0.00     0.009 A 
ATOM     79  C   UNL A   1      37.254  29.925  27.808  1.00  0.00     0.001 A 
ATOM     80  C   UNL A   1      37.642  31.242  29.783  1.00  0.00     0.001 A 
ATOM     81  C   UNL A   1      36.755  30.681  28.861  1.00  0.00     0.000 A 
ENDBRANCH  57  76
BRANCH  69  82
ATOM     82  C   UNL A   1      43.399  23.960  27.240  1.00  0.00    -0.014 A 
ATOM     83  C   UNL A   1      42.840  22.735  27.627  1.00  0.00     0.009 A 
ATOM     84  C   UNL A   1      43.840  24.079  25.905  1.00  0.00     0.009 A 
ATOM     85  C   UNL A   1      42.776  21.660  26.742  1.00  0.00     0.001 A 
ATOM     86  C   UNL A   1      43.730  23.023  25.003  1.00  0.00     0.001 A 
ATOM     87  C   UNL A   1      43.213  21.807  25.429  1.00  0.00     0.000 A 
ENDBRANCH  69  82
ENDBRANCH  43  44
ENDBRANCH  36  38
ENDBRANCH  35  36
ENDBRANCH  34  35
ENDBRANCH  33  34
ENDBRANCH  32  33
ENDBRANCH  31  32
ENDBRANCH  30  31
ENDBRANCH   1  30
TORSDOF 23
ENDMDL
MODEL 2
REMARK VINA RESULT:      -9.2     12.317     17.682
REMARK SMILES Cc1c(CC(=O)OCCOCCOCCOCCOC(=O)c2ccc(-c3c4nc(c(-c5ccccc5)c5ccc([nH]5)c(-c5ccccc5)c5nc(c(-c6ccccc6)c6ccc3[nH]6)C=C5)C=C4)cc2)cc(-c2ccccc2)cc1-c1ccccc1
REMARK SMILES IDX 13 1 12 2 11 3 10 4 9 5 8 6 7 7 5 8 6 9 4 10 3 11 1 12 2 13
REMARK SMILES IDX 79 14 70 15 78 16 71 17 80 18 81 19 85 20 82 21 84 22 83 23
REMARK SMILES IDX 72 24 73 25 77 26 74 27 76 28 75 29 14 30 15 31 16 32 17 33
REMARK SMILES IDX 18 34 19 35 20 36 21 37 22 38 23 39 69 40 24 41 68 42 25 43
REMARK SMILES IDX 26 44 27 45 62 46 28 47 67 48 61 49 63 50 29 51 66 52 60 53
REMARK SMILES IDX 59 54 30 56 52 57 37 58 51 59 38 60 41 61 50 62 64 63 39 64
REMARK SMILES IDX 40 65 49 67 65 68 42 69 31 70 32 71 36 72 33 73 35 74 34 75
REMARK SMILES IDX 53 76 54 77 58 78 55 79 57 80 56 81 43 82 44 83 48 84 45 85
REMARK SMILES IDX 47 86 46 87
REMARK H PARENT 63 55 41 66
REMARK Flexibility Score: inf
ROOT
ATOM      1  O   UNL A   1      42.842  22.883  29.321  1.00  0.00    -0.377 OA
ENDROOT
BRANCH   1   2
ATOM      2  C   UNL A   1      42.760  22.577  27.948  1.00  0.00     0.188 C 
BRANCH   2   3
ATOM      3  C   UNL A   1      42.572  23.509  26.735  1.00  0.00     0.188 C 
BRANCH   3   4
ATOM      4  O   UNL A   1      41.568  24.499  26.643  1.00  0.00    -0.376 OA
BRANCH   4   5
ATOM      5  C   UNL A   1      40.392  24.293  27.387  1.00  0.00     0.202 C 
BRANCH   5   6
ATOM      6  C   UNL A   1      39.072  24.578  26.674  1.00  0.00     0.261 C 
BRANCH   6   7
ATOM      7  O   UNL A   1      38.116  23.504  26.786  1.00  0.00    -0.463 OA
BRANCH   7   8
ATOM      8  C   UNL A   1      38.169  22.564  25.810  1.00  0.00     0.310 C 
ATOM      9  O   UNL A   1      38.990  21.654  25.770  1.00  0.00    -0.252 OA
BRANCH   8  10
ATOM     10  C   UNL A   1      37.165  22.791  24.698  1.00  0.00     0.158 C 
BRANCH  10  11
ATOM     11  C   UNL A   1      35.741  22.249  24.826  1.00  0.00    -0.033 A 
ATOM     12  C   UNL A   1      34.866  24.556  25.446  1.00  0.00     0.045 C 
ATOM     13  C   UNL A   1      34.647  23.100  25.110  1.00  0.00    -0.039 A 
ATOM     14  C   UNL A   1      33.331  22.580  25.031  1.00  0.00    -0.015 A 
ATOM     15  C   UNL A   1      35.478  20.870  24.587  1.00  0.00     0.013 A 
ATOM     16  C   UNL A   1      33.140  21.192  24.963  1.00  0.00     0.017 A 
ATOM     17  C   UNL A   1      34.196  20.305  24.773  1.00  0.00    -0.017 A 
BRANCH  14  18
ATOM     18  C   UNL A   1      32.155  23.416  24.742  1.00  0.00    -0.018 A 
ATOM     19  C   UNL A   1      31.779  23.786  23.442  1.00  0.00     0.009 A 
ATOM     20  C   UNL A   1      31.511  24.038  25.828  1.00  0.00     0.009 A 
ATOM     21  C   UNL A   1      30.804  24.767  23.244  1.00  0.00     0.001 A 
ATOM     22  C   UNL A   1      30.536  25.009  25.631  1.00  0.00     0.001 A 
ATOM     23  C   UNL A   1      30.189  25.380  24.337  1.00  0.00     0.000 A 
ENDBRANCH  14  18
BRANCH  17  24
ATOM     24  C   UNL A   1      33.918  18.850  24.835  1.00  0.00    -0.018 A 
ATOM     25  C   UNL A   1      32.712  18.384  25.407  1.00  0.00     0.009 A 
ATOM     26  C   UNL A   1      34.809  17.885  24.355  1.00  0.00     0.009 A 
ATOM     27  C   UNL A   1      32.432  17.019  25.546  1.00  0.00     0.001 A 
ATOM     28  C   UNL A   1      34.517  16.516  24.467  1.00  0.00     0.001 A 
ATOM     29  C   UNL A   1      33.341  16.083  25.078  1.00  0.00     0.000 A 
ENDBRANCH  17  24
ENDBRANCH  10  11
ENDBRANCH   8  10
ENDBRANCH   7   8
ENDBRANCH   6   7
ENDBRANCH   5   6
ENDBRANCH   4   5
ENDBRANCH   3   4
ENDBRANCH   2   3
ENDBRANCH   1   2
BRANCH   1  30
ATOM     30  C   UNL A   1      44.108  23.008  29.901  1.00  0.00     0.188 C 
BRANCH  30  31
ATOM     31  C   UNL A   1      44.593  24.363  30.286  1.00  0.00     0.188 C 
BRANCH  31  32
ATOM     32  O   UNL A   1      43.492  25.242  30.163  1.00  0.00    -0.376 OA
BRANCH  32  33
ATOM     33  C   UNL A   1      43.689  26.490  30.800  1.00  0.00     0.202 C 
BRANCH  33  34
ATOM     34  C   UNL A   1      43.328  27.655  29.872  1.00  0.00     0.261 C 
BRANCH  34  35
ATOM     35  O   UNL A   1      43.577  27.246  28.503  1.00  0.00    -0.460 OA
BRANCH  35  36
ATOM     36  C   UNL A   1      44.406  28.048  27.765  1.00  0.00     0.338 C 
ATOM     37  O   UNL A   1      44.044  28.829  26.912  1.00  0.00    -0.246 OA
BRANCH  36  38
ATOM     38  C   UNL A   1      45.837  27.607  27.929  1.00  0.00     0.060 A 
ATOM     39  C   UNL A   1      46.176  26.244  27.807  1.00  0.00     0.016 A 
ATOM     40  C   UNL A   1      46.735  28.466  28.549  1.00  0.00     0.016 A 
ATOM     41  C   UNL A   1      47.314  25.716  28.462  1.00  0.00     0.010 A 
ATOM     42  C   UNL A   1      47.790  27.924  29.267  1.00  0.00     0.010 A 
ATOM     43  C   UNL A   1      48.082  26.539  29.285  1.00  0.00    -0.014 A 
BRANCH  43  44
ATOM     44  C   UNL A   1      49.033  26.099  30.355  1.00  0.00     0.031 A 
ATOM     45  C   UNL A   1      50.492  26.018  29.992  1.00  0.00     0.074 A 
ATOM     46  C   UNL A   1      48.692  26.130  31.681  1.00  0.00     0.049 A 
ATOM     47  N   UNL A   1      51.445  25.798  30.829  1.00  0.00    -0.248 NA
ATOM     48  C   UNL A   1      51.020  26.245  28.645  1.00  0.00     0.031 C 
ATOM     49  C   UNL A   1      49.592  26.296  32.836  1.00  0.00     0.029 A 
ATOM     50  N   UNL A   1      47.443  26.106  32.308  1.00  0.00    -0.354 N 
ATOM     51  C   UNL A   1      52.648  26.146  30.255  1.00  0.00     0.074 A 
ATOM     52  C   UNL A   1      52.331  26.388  28.873  1.00  0.00     0.031 C 
ATOM     53  C   UNL A   1      48.921  26.267  33.998  1.00  0.00     0.029 A 
ATOM     54  C   UNL A   1      47.607  25.780  33.677  1.00  0.00     0.049 A 
ATOM     55  H   UNL A   1      46.582  26.288  31.868  1.00  0.00     0.167 HD
ATOM     56  C   UNL A   1      53.745  26.276  31.059  1.00  0.00     0.031 A 
ATOM     57  C   UNL A   1      47.084  24.620  34.165  1.00  0.00     0.031 A 
ATOM     58  C   UNL A   1      53.485  25.742  32.414  1.00  0.00     0.049 A 
ATOM     59  C   UNL A   1      48.226  23.642  34.386  1.00  0.00     0.074 A 
ATOM     60  C   UNL A   1      53.625  26.208  33.709  1.00  0.00     0.029 A 
ATOM     61  N   UNL A   1      52.802  24.523  32.532  1.00  0.00    -0.354 N 
ATOM     62  N   UNL A   1      49.381  23.756  33.770  1.00  0.00    -0.248 NA
ATOM     63  C   UNL A   1      48.268  22.614  35.422  1.00  0.00     0.031 C 
ATOM     64  C   UNL A   1      52.837  25.370  34.562  1.00  0.00     0.029 A 
ATOM     65  C   UNL A   1      52.313  24.328  33.808  1.00  0.00     0.049 A 
ATOM     66  H   UNL A   1      52.686  23.883  31.794  1.00  0.00     0.167 HD
ATOM     67  C   UNL A   1      50.320  23.003  34.398  1.00  0.00     0.074 A 
ATOM     68  C   UNL A   1      49.561  22.234  35.372  1.00  0.00     0.031 C 
ATOM     69  C   UNL A   1      51.662  23.069  34.161  1.00  0.00     0.031 A 
BRANCH  56  70
ATOM     70  C   UNL A   1      55.031  26.999  30.665  1.00  0.00    -0.014 A 
ATOM     71  C   UNL A   1      55.230  28.339  31.053  1.00  0.00     0.009 A 
ATOM     72  C   UNL A   1      56.051  26.458  29.856  1.00  0.00     0.009 A 
ATOM     73  C   UNL A   1      56.358  29.083  30.663  1.00  0.00     0.001 A 
ATOM     74  C   UNL A   1      57.201  27.183  29.492  1.00  0.00     0.001 A 
ATOM     75  C   UNL A   1      57.352  28.501  29.890  1.00  0.00     0.000 A 
ENDBRANCH  56  70
BRANCH  57  76
ATOM     76  C   UNL A   1      45.661  24.490  33.700  1.00  0.00    -0.014 A 
ATOM     77  C   UNL A   1      45.252  23.141  33.517  1.00  0.00     0.009 A 
ATOM     78  C   UNL A   1      44.689  25.409  34.130  1.00  0.00     0.009 A 
ATOM     79  C   UNL A   1      44.029  22.682  34.026  1.00  0.00     0.001 A 
ATOM     80  C   UNL A   1      43.448  24.943  34.608  1.00  0.00     0.001 A 
ATOM     81  C   UNL A   1      43.150  23.578  34.622  1.00  0.00     0.000 A 
ENDBRANCH  57  76
BRANCH  69  82
ATOM     82  C   UNL A   1      52.517  21.838  34.222  1.00  0.00    -0.014 A 
ATOM     83  C   UNL A   1      53.185  21.457  35.394  1.00  0.00     0.009 A 
ATOM     84  C   UNL A   1      52.463  20.898  33.172  1.00  0.00     0.009 A 
ATOM     85  C   UNL A   1      53.817  20.219  35.494  1.00  0.00     0.001 A 
ATOM     86  C   UNL A   1      53.050  19.639  33.287  1.00  0.00     0.001 A 
ATOM     87  C   UNL A   1      53.742  19.308  34.444  1.00  0.00     0.000 A 
ENDBRANCH  69  82
ENDBRANCH  43  44
ENDBRANCH  36  38
ENDBRANCH  35  36
ENDBRANCH  34  35
ENDBRANCH  33  34
ENDBRANCH  32  33
ENDBRANCH  31  32
ENDBRANCH  30  31
ENDBRANCH   1  30
TORSDOF 23
ENDMDL
MODEL 3
REMARK VINA RESULT:      -9.0      8.413     14.892
REMARK SMILES Cc1c(CC(=O)OCCOCCOCCOCCOC(=O)c2ccc(-c3c4nc(c(-c5ccccc5)c5ccc([nH]5)c(-c5ccccc5)c5nc(c(-c6ccccc6)c6ccc3[nH]6)C=C5)C=C4)cc2)cc(-c2ccccc2)cc1-c1ccccc1
REMARK SMILES IDX 13 1 12 2 11 3 10 4 9 5 8 6 7 7 5 8 6 9 4 10 3 11 1 12 2 13
REMARK SMILES IDX 79 14 70 15 78 16 71 17 80 18 81 19 85 20 82 21 84 22 83 23
REMARK SMILES IDX 72 24 73 25 77 26 74 27 76 28 75 29 14 30 15 31 16 32 17 33
REMARK SMILES IDX 18 34 19 35 20 36 21 37 22 38 23 39 69 40 24 41 68 42 25 43
REMARK SMILES IDX 26 44 27 45 62 46 28 47 67 48 61 49 63 50 29 51 66 52 60 53
REMARK SMILES IDX 59 54 30 56 52 57 37 58 51 59 38 60 41 61 50 62 64 63 39 64
REMARK SMILES IDX 40 65 49 67 65 68 42 69 31 70 32 71 36 72 33 73 35 74 34 75
REMARK SMILES IDX 53 76 54 77 58 78 55 79 57 80 56 81 43 82 44 83 48 84 45 85
REMARK SMILES IDX 47 86 46 87
REMARK H PARENT 63 55 41 66
REMARK Flexibility Score: inf
ROOT
ATOM      1  O   UNL A   1      43.334  21.557  24.679  1.00  0.00    -0.377 OA
ENDROOT
BRANCH   1   2
ATOM      2  C   UNL A   1      44.559  20.922  24.965  1.00  0.00     0.188 C 
BRANCH   2   3
ATOM      3  C   UNL A   1      45.934  21.528  25.304  1.00  0.00     0.188 C 
BRANCH   3   4
ATOM      4  O   UNL A   1      46.117  22.692  26.084  1.00  0.00    -0.376 OA
BRANCH   4   5
ATOM      5  C   UNL A   1      46.691  23.808  25.449  1.00  0.00     0.202 C 
BRANCH   5   6
ATOM      6  C   UNL A   1      45.727  24.883  24.949  1.00  0.00     0.261 C 
BRANCH   6   7
ATOM      7  O   UNL A   1      46.215  26.226  25.144  1.00  0.00    -0.463 OA
BRANCH   7   8
ATOM      8  C   UNL A   1      45.278  27.150  25.475  1.00  0.00     0.310 C 
ATOM      9  O   UNL A   1      44.750  27.914  24.675  1.00  0.00    -0.252 OA
BRANCH   8  10
ATOM     10  C   UNL A   1      44.999  27.223  26.962  1.00  0.00     0.158 C 
BRANCH  10  11
ATOM     11  C   UNL A   1      46.021  27.860  27.905  1.00  0.00    -0.033 A 
ATOM     12  C   UNL A   1      45.752  25.952  29.566  1.00  0.00     0.045 C 
ATOM     13  C   UNL A   1      46.426  27.221  29.100  1.00  0.00    -0.039 A 
ATOM     14  C   UNL A   1      47.508  27.761  29.838  1.00  0.00    -0.015 A 
ATOM     15  C   UNL A   1      46.645  29.091  27.554  1.00  0.00     0.013 A 
ATOM     16  C   UNL A   1      47.967  29.054  29.544  1.00  0.00     0.017 A 
ATOM     17  C   UNL A   1      47.532  29.761  28.427  1.00  0.00    -0.017 A 
BRANCH  14  18
ATOM     18  C   UNL A   1      48.366  26.949  30.715  1.00  0.00    -0.018 A 
ATOM     19  C   UNL A   1      49.376  26.105  30.232  1.00  0.00     0.009 A 
ATOM     20  C   UNL A   1      48.012  26.859  32.075  1.00  0.00     0.009 A 
ATOM     21  C   UNL A   1      49.993  25.184  31.084  1.00  0.00     0.001 A 
ATOM     22  C   UNL A   1      48.630  25.949  32.924  1.00  0.00     0.001 A 
ATOM     23  C   UNL A   1      49.616  25.104  32.425  1.00  0.00     0.000 A 
ENDBRANCH  14  18
BRANCH  17  24
ATOM     24  C   UNL A   1      47.975  31.166  28.261  1.00  0.00    -0.018 A 
ATOM     25  C   UNL A   1      48.602  31.841  29.334  1.00  0.00     0.009 A 
ATOM     26  C   UNL A   1      47.797  31.884  27.074  1.00  0.00     0.009 A 
ATOM     27  C   UNL A   1      48.982  33.186  29.247  1.00  0.00     0.001 A 
ATOM     28  C   UNL A   1      48.203  33.225  26.976  1.00  0.00     0.001 A 
ATOM     29  C   UNL A   1      48.776  33.880  28.065  1.00  0.00     0.000 A 
ENDBRANCH  17  24
ENDBRANCH  10  11
ENDBRANCH   8  10
ENDBRANCH   7   8
ENDBRANCH   6   7
ENDBRANCH   5   6
ENDBRANCH   4   5
ENDBRANCH   3   4
ENDBRANCH   2   3
ENDBRANCH   1   2
BRANCH   1  30
ATOM     30  C   UNL A   1      42.652  22.190  25.723  1.00  0.00     0.188 C 
BRANCH  30  31
ATOM     31  C   UNL A   1      41.680  21.401  26.531  1.00  0.00     0.188 C 
BRANCH  31  32
ATOM     32  O   UNL A   1      40.933  22.330  27.293  1.00  0.00    -0.376 OA
BRANCH  32  33
ATOM     33  C   UNL A   1      39.676  22.646  26.727  1.00  0.00     0.202 C 
BRANCH  33  34
ATOM     34  C   UNL A   1      39.137  23.975  27.271  1.00  0.00     0.261 C 
BRANCH  34  35
ATOM     35  O   UNL A   1      39.276  24.984  26.239  1.00  0.00    -0.460 OA
BRANCH  35  36
ATOM     36  C   UNL A   1      40.424  25.730  26.261  1.00  0.00     0.338 C 
ATOM     37  O   UNL A   1      41.250  25.767  25.375  1.00  0.00    -0.246 OA
BRANCH  36  38
ATOM     38  C   UNL A   1      40.680  26.247  27.653  1.00  0.00     0.060 A 
ATOM     39  C   UNL A   1      40.018  27.404  28.111  1.00  0.00     0.016 A 
ATOM     40  C   UNL A   1      41.812  25.813  28.330  1.00  0.00     0.016 A 
ATOM     41  C   UNL A   1      40.589  28.218  29.119  1.00  0.00     0.010 A 
ATOM     42  C   UNL A   1      42.412  26.666  29.244  1.00  0.00     0.010 A 
ATOM     43  C   UNL A   1      41.848  27.906  29.628  1.00  0.00    -0.014 A 
BRANCH  43  44
ATOM     44  C   UNL A   1      42.773  28.830  30.358  1.00  0.00     0.031 A 
ATOM     45  C   UNL A   1      43.395  29.952  29.569  1.00  0.00     0.074 A 
ATOM     46  C   UNL A   1      42.777  28.916  31.725  1.00  0.00     0.049 A 
ATOM     47  N   UNL A   1      44.091  30.908  30.076  1.00  0.00    -0.248 NA
ATOM     48  C   UNL A   1      43.231  30.132  28.124  1.00  0.00     0.031 C 
ATOM     49  C   UNL A   1      43.144  30.079  32.552  1.00  0.00     0.029 A 
ATOM     50  N   UNL A   1      42.370  28.003  32.703  1.00  0.00    -0.354 N 
ATOM     51  C   UNL A   1      44.193  31.935  29.163  1.00  0.00     0.074 A 
ATOM     52  C   UNL A   1      43.665  31.385  27.942  1.00  0.00     0.031 C 
ATOM     53  C   UNL A   1      43.047  29.810  33.863  1.00  0.00     0.029 A 
ATOM     54  C   UNL A   1      42.908  28.382  33.957  1.00  0.00     0.049 A 
ATOM     55  H   UNL A   1      41.797  27.219  32.546  1.00  0.00     0.167 HD
ATOM     56  C   UNL A   1      44.627  33.156  29.595  1.00  0.00     0.031 A 
ATOM     57  C   UNL A   1      43.807  27.570  34.582  1.00  0.00     0.031 A 
ATOM     58  C   UNL A   1      45.179  33.077  30.965  1.00  0.00     0.049 A 
ATOM     59  C   UNL A   1      45.185  28.194  34.446  1.00  0.00     0.074 A 
ATOM     60  C   UNL A   1      44.983  33.753  32.156  1.00  0.00     0.029 A 
ATOM     61  N   UNL A   1      46.017  32.000  31.287  1.00  0.00    -0.354 N 
ATOM     62  N   UNL A   1      45.474  29.068  33.508  1.00  0.00    -0.248 NA
ATOM     63  C   UNL A   1      46.266  28.076  35.421  1.00  0.00     0.031 C 
ATOM     64  C   UNL A   1      45.528  32.951  33.209  1.00  0.00     0.029 A 
ATOM     65  C   UNL A   1      46.158  31.847  32.651  1.00  0.00     0.049 A 
ATOM     66  H   UNL A   1      46.452  31.422  30.619  1.00  0.00     0.167 HD
ATOM     67  C   UNL A   1      46.619  29.727  33.821  1.00  0.00     0.074 A 
ATOM     68  C   UNL A   1      47.130  29.013  34.981  1.00  0.00     0.031 C 
ATOM     69  C   UNL A   1      47.076  30.844  33.187  1.00  0.00     0.031 A 
BRANCH  56  70
ATOM     70  C   UNL A   1      44.448  34.464  28.828  1.00  0.00    -0.014 A 
ATOM     71  C   UNL A   1      43.212  35.139  28.871  1.00  0.00     0.009 A 
ATOM     72  C   UNL A   1      45.415  35.050  27.985  1.00  0.00     0.009 A 
ATOM     73  C   UNL A   1      42.959  36.309  28.131  1.00  0.00     0.001 A 
ATOM     74  C   UNL A   1      45.183  36.241  27.271  1.00  0.00     0.001 A 
ATOM     75  C   UNL A   1      43.950  36.868  27.338  1.00  0.00     0.000 A 
ENDBRANCH  56  70
BRANCH  57  76
ATOM     76  C   UNL A   1      43.284  26.161  34.573  1.00  0.00    -0.014 A 
ATOM     77  C   UNL A   1      44.124  25.255  33.871  1.00  0.00     0.009 A 
ATOM     78  C   UNL A   1      42.573  25.663  35.677  1.00  0.00     0.009 A 
ATOM     79  C   UNL A   1      44.468  24.013  34.424  1.00  0.00     0.001 A 
ATOM     80  C   UNL A   1      42.900  24.398  36.207  1.00  0.00     0.001 A 
ATOM     81  C   UNL A   1      43.894  23.610  35.624  1.00  0.00     0.000 A 
ENDBRANCH  57  76
BRANCH  69  82
ATOM     82  C   UNL A   1      48.546  31.071  32.986  1.00  0.00    -0.014 A 
ATOM     83  C   UNL A   1      49.371  30.102  32.397  1.00  0.00     0.009 A 
ATOM     84  C   UNL A   1      49.082  32.365  33.154  1.00  0.00     0.009 A 
ATOM     85  C   UNL A   1      50.687  30.395  32.045  1.00  0.00     0.001 A 
ATOM     86  C   UNL A   1      50.381  32.674  32.755  1.00  0.00     0.001 A 
ATOM     87  C   UNL A   1      51.189  31.682  32.216  1.00  0.00     0.000 A 
ENDBRANCH  69  82
ENDBRANCH  43  44
ENDBRANCH  36  38
ENDBRANCH  35  36
ENDBRANCH  34  35
ENDBRANCH  33  34
ENDBRANCH  32  33
ENDBRANCH  31  32
ENDBRANCH  30  31
ENDBRANCH   1  30
TORSDOF 23
ENDMDL
