MODEL 1
REMARK VINA RESULT:      -9.8      0.000      0.000
REMARK SMILES Cc1cc(C)c2c(c1)C=C(C(=O)OCCOCCOCCOCCOC(=O)c1ccc(-c3c4nc(c(-c5ccccc5)c5ccc([nH]5)c(-c5ccccc5)c5nc(c(-c6ccccc6)c6ccc3[nH]6)C=C5)C=C4)cc1)[C@@H](C(F)(F)F)O2
REMARK SMILES IDX 20 1 19 2 18 3 17 4 16 5 15 6 14 7 13 8 11 9 12 10 10 11
REMARK SMILES IDX 1 12 2 13 3 14 8 15 4 16 7 17 5 18 6 19 9 20 81 21 76 22
REMARK SMILES IDX 77 23 78 24 79 25 80 26 21 27 22 28 23 29 24 30 25 31 26 32
REMARK SMILES IDX 27 33 28 34 29 35 75 36 30 37 74 38 31 39 32 40 33 41 68 42
REMARK SMILES IDX 34 43 73 44 67 45 69 46 35 47 72 48 66 49 65 50 36 52 58 53
REMARK SMILES IDX 43 54 57 55 44 56 47 57 56 58 70 59 45 60 46 61 55 63 71 64
REMARK SMILES IDX 48 65 37 66 38 67 42 68 39 69 41 70 40 71 59 72 60 73 64 74
REMARK SMILES IDX 61 75 63 76 62 77 49 78 50 79 54 80 51 81 53 82 52 83
REMARK H PARENT 69 51 47 62
REMARK Flexibility Score: inf
ROOT
ATOM      1  C   UNL A   1      36.087  21.797  26.121  1.00  0.00     0.188 C 
ENDROOT
BRANCH   1   2
ATOM      2  O   UNL A   1      34.767  21.465  26.557  1.00  0.00    -0.377 OA
BRANCH   2   3
ATOM      3  C   UNL A   1      33.675  21.907  25.767  1.00  0.00     0.188 C 
BRANCH   3   4
ATOM      4  C   UNL A   1      33.286  20.913  24.654  1.00  0.00     0.188 C 
BRANCH   4   5
ATOM      5  O   UNL A   1      32.066  21.233  24.011  1.00  0.00    -0.376 OA
BRANCH   5   6
ATOM      6  C   UNL A   1      31.888  22.452  23.308  1.00  0.00     0.202 C 
BRANCH   6   7
ATOM      7  C   UNL A   1      31.155  23.689  23.864  1.00  0.00     0.261 C 
BRANCH   7   8
ATOM      8  O   UNL A   1      30.663  24.644  22.927  1.00  0.00    -0.460 OA
BRANCH   8   9
ATOM      9  C   UNL A   1      31.533  25.556  22.458  1.00  0.00     0.338 C 
ATOM     10  O   UNL A   1      32.260  25.443  21.487  1.00  0.00    -0.246 OA
BRANCH   9  11
ATOM     11  C   UNL A   1      31.331  26.802  23.228  1.00  0.00     0.087 C 
ATOM     12  C   UNL A   1      28.236  32.112  23.048  1.00  0.00     0.044 C 
ATOM     13  C   UNL A   1      29.155  31.074  23.621  1.00  0.00    -0.050 A 
ATOM     14  C   UNL A   1      30.001  31.395  24.691  1.00  0.00     0.010 A 
ATOM     15  C   UNL A   1      29.247  29.807  23.039  1.00  0.00     0.015 A 
ATOM     16  C   UNL A   1      30.913  30.456  25.196  1.00  0.00    -0.008 A 
ATOM     17  C   UNL A   1      30.178  28.876  23.509  1.00  0.00     0.018 A 
ATOM     18  C   UNL A   1      31.835  30.834  26.322  1.00  0.00     0.048 C 
ATOM     19  C   UNL A   1      30.984  29.185  24.608  1.00  0.00     0.130 A 
ATOM     20  C   UNL A   1      30.370  27.628  22.794  1.00  0.00     0.027 C 
ATOM     21  O   UNL A   1      31.877  28.303  25.148  1.00  0.00    -0.475 OA
ATOM     22  C   UNL A   1      32.142  27.046  24.474  1.00  0.00     0.316 C 
BRANCH  22  23
ATOM     23  C   UNL A   1      33.649  26.955  24.208  1.00  0.00     0.430 C 
ATOM     24  F   UNL A   1      33.987  27.582  23.055  1.00  0.00    -0.167 F 
ATOM     25  F   UNL A   1      34.374  27.539  25.190  1.00  0.00    -0.167 F 
ATOM     26  F   UNL A   1      34.066  25.672  24.109  1.00  0.00    -0.167 F 
ENDBRANCH  22  23
ENDBRANCH   9  11
ENDBRANCH   8   9
ENDBRANCH   7   8
ENDBRANCH   6   7
ENDBRANCH   5   6
ENDBRANCH   4   5
ENDBRANCH   3   4
ENDBRANCH   2   3
ENDBRANCH   1   2
BRANCH   1  27
ATOM     27  C   UNL A   1      36.808  21.006  25.000  1.00  0.00     0.188 C 
BRANCH  27  28
ATOM     28  O   UNL A   1      38.198  21.276  24.891  1.00  0.00    -0.376 OA
BRANCH  28  29
ATOM     29  C   UNL A   1      38.878  21.801  26.017  1.00  0.00     0.202 C 
BRANCH  29  30
ATOM     30  C   UNL A   1      40.325  21.328  26.217  1.00  0.00     0.261 C 
BRANCH  30  31
ATOM     31  O   UNL A   1      41.170  22.214  26.966  1.00  0.00    -0.460 OA
BRANCH  31  32
ATOM     32  C   UNL A   1      41.755  23.225  26.292  1.00  0.00     0.338 C 
ATOM     33  O   UNL A   1      42.386  23.154  25.250  1.00  0.00    -0.246 OA
BRANCH  32  34
ATOM     34  C   UNL A   1      41.336  24.487  26.933  1.00  0.00     0.060 A 
ATOM     35  C   UNL A   1      41.922  25.691  26.518  1.00  0.00     0.016 A 
ATOM     36  C   UNL A   1      40.370  24.476  27.941  1.00  0.00     0.016 A 
ATOM     37  C   UNL A   1      41.576  26.886  27.145  1.00  0.00     0.010 A 
ATOM     38  C   UNL A   1      40.046  25.668  28.589  1.00  0.00     0.010 A 
ATOM     39  C   UNL A   1      40.681  26.869  28.222  1.00  0.00    -0.014 A 
BRANCH  39  40
ATOM     40  C   UNL A   1      40.609  28.032  29.134  1.00  0.00     0.031 A 
ATOM     41  C   UNL A   1      41.655  28.139  30.210  1.00  0.00     0.074 A 
ATOM     42  C   UNL A   1      39.662  28.976  29.011  1.00  0.00     0.049 A 
ATOM     43  N   UNL A   1      41.753  28.996  31.193  1.00  0.00    -0.248 NA
ATOM     44  C   UNL A   1      42.738  27.141  30.168  1.00  0.00     0.031 C 
ATOM     45  C   UNL A   1      38.646  29.031  27.962  1.00  0.00     0.029 A 
ATOM     46  N   UNL A   1      39.404  30.074  29.792  1.00  0.00    -0.354 N 
ATOM     47  C   UNL A   1      42.900  28.635  31.889  1.00  0.00     0.074 A 
ATOM     48  C   UNL A   1      43.450  27.468  31.236  1.00  0.00     0.031 C 
ATOM     49  C   UNL A   1      37.868  30.108  28.170  1.00  0.00     0.029 A 
ATOM     50  C   UNL A   1      38.302  30.787  29.390  1.00  0.00     0.049 A 
ATOM     51  H   UNL A   1      39.957  30.327  30.567  1.00  0.00     0.167 HD
ATOM     52  C   UNL A   1      43.449  29.225  32.975  1.00  0.00     0.031 A 
ATOM     53  C   UNL A   1      37.700  31.849  29.962  1.00  0.00     0.031 A 
ATOM     54  C   UNL A   1      42.889  30.371  33.637  1.00  0.00     0.049 A 
ATOM     55  C   UNL A   1      38.262  32.415  31.240  1.00  0.00     0.074 A 
ATOM     56  C   UNL A   1      43.359  31.033  34.756  1.00  0.00     0.029 A 
ATOM     57  N   UNL A   1      41.732  31.022  33.240  1.00  0.00    -0.354 N 
ATOM     58  N   UNL A   1      39.335  32.058  31.905  1.00  0.00    -0.248 NA
ATOM     59  C   UNL A   1      37.525  33.534  31.846  1.00  0.00     0.031 C 
ATOM     60  C   UNL A   1      42.452  32.049  35.073  1.00  0.00     0.029 A 
ATOM     61  C   UNL A   1      41.455  32.062  34.109  1.00  0.00     0.049 A 
ATOM     62  H   UNL A   1      41.187  30.779  32.457  1.00  0.00     0.167 HD
ATOM     63  C   UNL A   1      39.415  32.921  32.992  1.00  0.00     0.074 A 
ATOM     64  C   UNL A   1      38.296  33.833  32.884  1.00  0.00     0.031 C 
ATOM     65  C   UNL A   1      40.330  32.954  33.993  1.00  0.00     0.031 A 
BRANCH  52  66
ATOM     66  C   UNL A   1      44.704  28.615  33.534  1.00  0.00    -0.014 A 
ATOM     67  C   UNL A   1      44.651  27.578  34.480  1.00  0.00     0.009 A 
ATOM     68  C   UNL A   1      45.955  29.056  33.079  1.00  0.00     0.009 A 
ATOM     69  C   UNL A   1      45.828  27.011  34.973  1.00  0.00     0.001 A 
ATOM     70  C   UNL A   1      47.129  28.467  33.551  1.00  0.00     0.001 A 
ATOM     71  C   UNL A   1      47.065  27.450  34.502  1.00  0.00     0.000 A 
ENDBRANCH  52  66
BRANCH  53  72
ATOM     72  C   UNL A   1      36.480  32.435  29.345  1.00  0.00    -0.014 A 
ATOM     73  C   UNL A   1      35.209  31.927  29.656  1.00  0.00     0.009 A 
ATOM     74  C   UNL A   1      36.578  33.499  28.434  1.00  0.00     0.009 A 
ATOM     75  C   UNL A   1      34.065  32.461  29.056  1.00  0.00     0.001 A 
ATOM     76  C   UNL A   1      35.430  34.051  27.860  1.00  0.00     0.001 A 
ATOM     77  C   UNL A   1      34.176  33.527  28.166  1.00  0.00     0.000 A 
ENDBRANCH  53  72
BRANCH  65  78
ATOM     78  C   UNL A   1      40.171  34.023  35.041  1.00  0.00    -0.014 A 
ATOM     79  C   UNL A   1      40.736  35.296  34.874  1.00  0.00     0.009 A 
ATOM     80  C   UNL A   1      39.406  33.765  36.189  1.00  0.00     0.009 A 
ATOM     81  C   UNL A   1      40.570  36.277  35.854  1.00  0.00     0.001 A 
ATOM     82  C   UNL A   1      39.212  34.759  37.150  1.00  0.00     0.001 A 
ATOM     83  C   UNL A   1      39.804  36.010  36.988  1.00  0.00     0.000 A 
ENDBRANCH  65  78
ENDBRANCH  39  40
ENDBRANCH  32  34
ENDBRANCH  31  32
ENDBRANCH  30  31
ENDBRANCH  29  30
ENDBRANCH  28  29
ENDBRANCH  27  28
ENDBRANCH   1  27
TORSDOF 21
ENDMDL
MODEL 2
REMARK VINA RESULT:      -9.7      4.328      9.805
REMARK SMILES Cc1cc(C)c2c(c1)C=C(C(=O)OCCOCCOCCOCCOC(=O)c1ccc(-c3c4nc(c(-c5ccccc5)c5ccc([nH]5)c(-c5ccccc5)c5nc(c(-c6ccccc6)c6ccc3[nH]6)C=C5)C=C4)cc1)[C@@H](C(F)(F)F)O2
REMARK SMILES IDX 20 1 19 2 18 3 17 4 16 5 15 6 14 7 13 8 11 9 12 10 10 11
REMARK SMILES IDX 1 12 2 13 3 14 8 15 4 16 7 17 5 18 6 19 9 20 81 21 76 22
REMARK SMILES IDX 77 23 78 24 79 25 80 26 21 27 22 28 23 29 24 30 25 31 26 32
REMARK SMILES IDX 27 33 28 34 29 35 75 36 30 37 74 38 31 39 32 40 33 41 68 42
REMARK SMILES IDX 34 43 73 44 67 45 69 46 35 47 72 48 66 49 65 50 36 52 58 53
REMARK SMILES IDX 43 54 57 55 44 56 47 57 56 58 70 59 45 60 46 61 55 63 71 64
REMARK SMILES IDX 48 65 37 66 38 67 42 68 39 69 41 70 40 71 59 72 60 73 64 74
REMARK SMILES IDX 61 75 63 76 62 77 49 78 50 79 54 80 51 81 53 82 52 83
REMARK H PARENT 69 51 47 62
REMARK Flexibility Score: inf
ROOT
ATOM      1  C   UNL A   1      34.080  33.874  29.092  1.00  0.00     0.188 C 
ENDROOT
BRANCH   1   2
ATOM      2  O   UNL A   1      34.177  32.786  28.170  1.00  0.00    -0.377 OA
BRANCH   2   3
ATOM      3  C   UNL A   1      34.408  31.488  28.695  1.00  0.00     0.188 C 
BRANCH   3   4
ATOM      4  C   UNL A   1      33.899  30.359  27.776  1.00  0.00     0.188 C 
BRANCH   4   5
ATOM      5  O   UNL A   1      33.530  30.805  26.484  1.00  0.00    -0.376 OA
BRANCH   5   6
ATOM      6  C   UNL A   1      32.992  29.923  25.513  1.00  0.00     0.202 C 
BRANCH   6   7
ATOM      7  C   UNL A   1      31.662  29.158  25.661  1.00  0.00     0.261 C 
BRANCH   7   8
ATOM      8  O   UNL A   1      31.698  27.738  25.537  1.00  0.00    -0.460 OA
BRANCH   8   9
ATOM      9  C   UNL A   1      31.774  27.019  26.670  1.00  0.00     0.338 C 
ATOM     10  O   UNL A   1      31.369  27.345  27.771  1.00  0.00    -0.246 OA
BRANCH   9  11
ATOM     11  C   UNL A   1      32.284  25.677  26.314  1.00  0.00     0.087 C 
ATOM     12  C   UNL A   1      36.795  22.935  23.163  1.00  0.00     0.044 C 
ATOM     13  C   UNL A   1      35.582  23.013  24.041  1.00  0.00    -0.050 A 
ATOM     14  C   UNL A   1      34.804  21.871  24.273  1.00  0.00     0.010 A 
ATOM     15  C   UNL A   1      35.159  24.240  24.561  1.00  0.00     0.015 A 
ATOM     16  C   UNL A   1      33.629  21.941  25.038  1.00  0.00    -0.008 A 
ATOM     17  C   UNL A   1      33.972  24.329  25.294  1.00  0.00     0.018 A 
ATOM     18  C   UNL A   1      32.792  20.710  25.244  1.00  0.00     0.048 C 
ATOM     19  C   UNL A   1      33.227  23.178  25.563  1.00  0.00     0.130 A 
ATOM     20  C   UNL A   1      33.467  25.631  25.689  1.00  0.00     0.027 C 
ATOM     21  O   UNL A   1      32.085  23.187  26.314  1.00  0.00    -0.475 OA
ATOM     22  C   UNL A   1      31.507  24.454  26.723  1.00  0.00     0.316 C 
BRANCH  22  23
ATOM     23  C   UNL A   1      30.057  24.499  26.227  1.00  0.00     0.430 C 
ATOM     24  F   UNL A   1      29.499  25.716  26.438  1.00  0.00    -0.167 F 
ATOM     25  F   UNL A   1      29.967  24.258  24.898  1.00  0.00    -0.167 F 
ATOM     26  F   UNL A   1      29.282  23.584  26.854  1.00  0.00    -0.167 F 
ENDBRANCH  22  23
ENDBRANCH   9  11
ENDBRANCH   8   9
ENDBRANCH   7   8
ENDBRANCH   6   7
ENDBRANCH   5   6
ENDBRANCH   4   5
ENDBRANCH   3   4
ENDBRANCH   2   3
ENDBRANCH   1   2
BRANCH   1  27
ATOM     27  C   UNL A   1      35.053  34.029  30.288  1.00  0.00     0.188 C 
BRANCH  27  28
ATOM     28  O   UNL A   1      34.510  34.723  31.402  1.00  0.00    -0.376 OA
BRANCH  28  29
ATOM     29  C   UNL A   1      34.043  33.972  32.508  1.00  0.00     0.202 C 
BRANCH  29  30
ATOM     30  C   UNL A   1      35.112  33.486  33.497  1.00  0.00     0.261 C 
BRANCH  30  31
ATOM     31  O   UNL A   1      35.745  32.242  33.167  1.00  0.00    -0.460 OA
BRANCH  31  32
ATOM     32  C   UNL A   1      36.925  31.973  33.762  1.00  0.00     0.338 C 
ATOM     33  O   UNL A   1      37.207  32.104  34.941  1.00  0.00    -0.246 OA
BRANCH  32  34
ATOM     34  C   UNL A   1      37.781  31.297  32.767  1.00  0.00     0.060 A 
ATOM     35  C   UNL A   1      38.831  30.482  33.211  1.00  0.00     0.016 A 
ATOM     36  C   UNL A   1      37.545  31.473  31.402  1.00  0.00     0.016 A 
ATOM     37  C   UNL A   1      39.680  29.876  32.287  1.00  0.00     0.010 A 
ATOM     38  C   UNL A   1      38.413  30.891  30.479  1.00  0.00     0.010 A 
ATOM     39  C   UNL A   1      39.509  30.126  30.921  1.00  0.00    -0.014 A 
BRANCH  39  40
ATOM     40  C   UNL A   1      40.609  29.827  29.977  1.00  0.00     0.031 A 
ATOM     41  C   UNL A   1      40.591  28.491  29.287  1.00  0.00     0.074 A 
ATOM     42  C   UNL A   1      41.588  30.711  29.721  1.00  0.00     0.049 A 
ATOM     43  N   UNL A   1      41.485  27.947  28.503  1.00  0.00    -0.248 NA
ATOM     44  C   UNL A   1      39.399  27.655  29.516  1.00  0.00     0.031 C 
ATOM     45  C   UNL A   1      41.672  32.067  30.259  1.00  0.00     0.029 A 
ATOM     46  N   UNL A   1      42.706  30.586  28.937  1.00  0.00    -0.354 N 
ATOM     47  C   UNL A   1      40.968  26.706  28.152  1.00  0.00     0.074 A 
ATOM     48  C   UNL A   1      39.698  26.563  28.829  1.00  0.00     0.031 C 
ATOM     49  C   UNL A   1      42.792  32.648  29.793  1.00  0.00     0.029 A 
ATOM     50  C   UNL A   1      43.522  31.690  28.965  1.00  0.00     0.049 A 
ATOM     51  H   UNL A   1      42.905  29.781  28.405  1.00  0.00     0.167 HD
ATOM     52  C   UNL A   1      41.501  25.769  27.336  1.00  0.00     0.031 A 
ATOM     53  C   UNL A   1      44.733  31.887  28.406  1.00  0.00     0.031 A 
ATOM     54  C   UNL A   1      42.774  25.903  26.683  1.00  0.00     0.049 A 
ATOM     55  C   UNL A   1      45.362  30.780  27.599  1.00  0.00     0.074 A 
ATOM     56  C   UNL A   1      43.413  25.002  25.850  1.00  0.00     0.029 A 
ATOM     57  N   UNL A   1      43.603  27.008  26.792  1.00  0.00    -0.354 N 
ATOM     58  N   UNL A   1      44.878  29.602  27.288  1.00  0.00    -0.248 NA
ATOM     59  C   UNL A   1      46.709  31.036  27.067  1.00  0.00     0.031 C 
ATOM     60  C   UNL A   1      44.657  25.537  25.505  1.00  0.00     0.029 A 
ATOM     61  C   UNL A   1      44.762  26.801  26.065  1.00  0.00     0.049 A 
ATOM     62  H   UNL A   1      43.398  27.819  27.311  1.00  0.00     0.167 HD
ATOM     63  C   UNL A   1      45.849  28.986  26.506  1.00  0.00     0.074 A 
ATOM     64  C   UNL A   1      46.938  29.930  26.372  1.00  0.00     0.031 C 
ATOM     65  C   UNL A   1      45.842  27.748  25.951  1.00  0.00     0.031 A 
BRANCH  52  66
ATOM     66  C   UNL A   1      40.722  24.500  27.136  1.00  0.00    -0.014 A 
ATOM     67  C   UNL A   1      39.525  24.487  26.402  1.00  0.00     0.009 A 
ATOM     68  C   UNL A   1      41.213  23.292  27.656  1.00  0.00     0.009 A 
ATOM     69  C   UNL A   1      38.826  23.293  26.211  1.00  0.00     0.001 A 
ATOM     70  C   UNL A   1      40.527  22.096  27.438  1.00  0.00     0.001 A 
ATOM     71  C   UNL A   1      39.332  22.098  26.722  1.00  0.00     0.000 A 
ENDBRANCH  52  66
BRANCH  53  72
ATOM     72  C   UNL A   1      45.445  33.177  28.608  1.00  0.00    -0.014 A 
ATOM     73  C   UNL A   1      46.326  33.344  29.688  1.00  0.00     0.009 A 
ATOM     74  C   UNL A   1      45.241  34.254  27.730  1.00  0.00     0.009 A 
ATOM     75  C   UNL A   1      46.975  34.565  29.893  1.00  0.00     0.001 A 
ATOM     76  C   UNL A   1      45.915  35.463  27.919  1.00  0.00     0.001 A 
ATOM     77  C   UNL A   1      46.775  35.620  29.003  1.00  0.00     0.000 A 
ENDBRANCH  53  72
BRANCH  65  78
ATOM     78  C   UNL A   1      47.040  27.349  25.132  1.00  0.00    -0.014 A 
ATOM     79  C   UNL A   1      47.172  27.748  23.793  1.00  0.00     0.009 A 
ATOM     80  C   UNL A   1      48.073  26.605  25.723  1.00  0.00     0.009 A 
ATOM     81  C   UNL A   1      48.295  27.375  23.052  1.00  0.00     0.001 A 
ATOM     82  C   UNL A   1      49.211  26.265  24.990  1.00  0.00     0.001 A 
ATOM     83  C   UNL A   1      49.316  26.639  23.652  1.00  0.00     0.000 A 
ENDBRANCH  65  78
ENDBRANCH  39  40
ENDBRANCH  32  34
ENDBRANCH  31  32
ENDBRANCH  30  31
ENDBRANCH  29  30
ENDBRANCH  28  29
ENDBRANCH  27  28
ENDBRANCH   1  27
TORSDOF 21
ENDMDL
MODEL 3
REMARK VINA RESULT:      -9.5      3.395      4.893
REMARK SMILES Cc1cc(C)c2c(c1)C=C(C(=O)OCCOCCOCCOCCOC(=O)c1ccc(-c3c4nc(c(-c5ccccc5)c5ccc([nH]5)c(-c5ccccc5)c5nc(c(-c6ccccc6)c6ccc3[nH]6)C=C5)C=C4)cc1)[C@@H](C(F)(F)F)O2
REMARK SMILES IDX 20 1 19 2 18 3 17 4 16 5 15 6 14 7 13 8 11 9 12 10 10 11
REMARK SMILES IDX 1 12 2 13 3 14 8 15 4 16 7 17 5 18 6 19 9 20 81 21 76 22
REMARK SMILES IDX 77 23 78 24 79 25 80 26 21 27 22 28 23 29 24 30 25 31 26 32
REMARK SMILES IDX 27 33 28 34 29 35 75 36 30 37 74 38 31 39 32 40 33 41 68 42
REMARK SMILES IDX 34 43 73 44 67 45 69 46 35 47 72 48 66 49 65 50 36 52 58 53
REMARK SMILES IDX 43 54 57 55 44 56 47 57 56 58 70 59 45 60 46 61 55 63 71 64
REMARK SMILES IDX 48 65 37 66 38 67 42 68 39 69 41 70 40 71 59 72 60 73 64 74
REMARK SMILES IDX 61 75 63 76 62 77 49 78 50 79 54 80 51 81 53 82 52 83
REMARK H PARENT 69 51 47 62
REMARK Flexibility Score: inf
ROOT
ATOM      1  C   UNL A   1      36.540  23.220  25.087  1.00  0.00     0.188 C 
ENDROOT
BRANCH   1   2
ATOM      2  O   UNL A   1      35.199  23.650  24.843  1.00  0.00    -0.377 OA
BRANCH   2   3
ATOM      3  C   UNL A   1      34.168  23.103  25.651  1.00  0.00     0.188 C 
BRANCH   3   4
ATOM      4  C   UNL A   1      33.221  24.170  26.236  1.00  0.00     0.188 C 
BRANCH   4   5
ATOM      5  O   UNL A   1      31.888  24.058  25.772  1.00  0.00    -0.376 OA
BRANCH   5   6
ATOM      6  C   UNL A   1      31.555  23.287  24.630  1.00  0.00     0.202 C 
BRANCH   6   7
ATOM      7  C   UNL A   1      31.791  23.728  23.172  1.00  0.00     0.261 C 
BRANCH   7   8
ATOM      8  O   UNL A   1      31.193  24.951  22.746  1.00  0.00    -0.460 OA
BRANCH   8   9
ATOM      9  C   UNL A   1      32.018  25.947  22.377  1.00  0.00     0.338 C 
ATOM     10  O   UNL A   1      32.883  25.900  21.521  1.00  0.00    -0.246 OA
BRANCH   9  11
ATOM     11  C   UNL A   1      31.575  27.174  23.072  1.00  0.00     0.087 C 
ATOM     12  C   UNL A   1      28.041  32.141  22.269  1.00  0.00     0.044 C 
ATOM     13  C   UNL A   1      28.955  31.208  23.006  1.00  0.00    -0.050 A 
ATOM     14  C   UNL A   1      29.585  31.625  24.186  1.00  0.00     0.010 A 
ATOM     15  C   UNL A   1      29.263  29.951  22.479  1.00  0.00     0.015 A 
ATOM     16  C   UNL A   1      30.495  30.788  24.853  1.00  0.00    -0.008 A 
ATOM     17  C   UNL A   1      30.194  29.123  23.114  1.00  0.00     0.018 A 
ATOM     18  C   UNL A   1      31.185  31.269  26.098  1.00  0.00     0.048 C 
ATOM     19  C   UNL A   1      30.782  29.524  24.317  1.00  0.00     0.130 A 
ATOM     20  C   UNL A   1      30.619  27.894  22.471  1.00  0.00     0.027 C 
ATOM     21  O   UNL A   1      31.660  28.743  25.014  1.00  0.00    -0.475 OA
ATOM     22  C   UNL A   1      32.151  27.512  24.422  1.00  0.00     0.316 C 
BRANCH  22  23
ATOM     23  C   UNL A   1      33.683  27.571  24.398  1.00  0.00     0.430 C 
ATOM     24  F   UNL A   1      34.218  26.384  24.022  1.00  0.00    -0.167 F 
ATOM     25  F   UNL A   1      34.142  28.495  23.523  1.00  0.00    -0.167 F 
ATOM     26  F   UNL A   1      34.193  27.879  25.613  1.00  0.00    -0.167 F 
ENDBRANCH  22  23
ENDBRANCH   9  11
ENDBRANCH   8   9
ENDBRANCH   7   8
ENDBRANCH   6   7
ENDBRANCH   5   6
ENDBRANCH   4   5
ENDBRANCH   3   4
ENDBRANCH   2   3
ENDBRANCH   1   2
BRANCH   1  27
ATOM     27  C   UNL A   1      36.865  21.800  25.616  1.00  0.00     0.188 C 
BRANCH  27  28
ATOM     28  O   UNL A   1      37.383  20.912  24.634  1.00  0.00    -0.376 OA
BRANCH  28  29
ATOM     29  C   UNL A   1      37.712  19.589  25.022  1.00  0.00     0.202 C 
BRANCH  29  30
ATOM     30  C   UNL A   1      39.177  19.341  25.408  1.00  0.00     0.261 C 
BRANCH  30  31
ATOM     31  O   UNL A   1      39.619  19.982  26.612  1.00  0.00    -0.460 OA
BRANCH  31  32
ATOM     32  C   UNL A   1      40.925  20.308  26.694  1.00  0.00     0.338 C 
ATOM     33  O   UNL A   1      41.879  19.647  26.316  1.00  0.00    -0.246 OA
BRANCH  32  34
ATOM     34  C   UNL A   1      41.006  21.709  27.151  1.00  0.00     0.060 A 
ATOM     35  C   UNL A   1      40.190  22.674  26.543  1.00  0.00     0.016 A 
ATOM     36  C   UNL A   1      41.888  22.065  28.173  1.00  0.00     0.016 A 
ATOM     37  C   UNL A   1      40.288  24.010  26.926  1.00  0.00     0.010 A 
ATOM     38  C   UNL A   1      42.007  23.407  28.535  1.00  0.00     0.010 A 
ATOM     39  C   UNL A   1      41.239  24.388  27.882  1.00  0.00    -0.014 A 
BRANCH  39  40
ATOM     40  C   UNL A   1      41.626  25.811  28.008  1.00  0.00     0.031 A 
ATOM     41  C   UNL A   1      42.928  26.236  27.386  1.00  0.00     0.074 A 
ATOM     42  C   UNL A   1      40.849  26.707  28.637  1.00  0.00     0.049 A 
ATOM     43  N   UNL A   1      43.541  27.390  27.444  1.00  0.00    -0.248 NA
ATOM     44  C   UNL A   1      43.633  25.217  26.588  1.00  0.00     0.031 C 
ATOM     45  C   UNL A   1      39.530  26.440  29.206  1.00  0.00     0.029 A 
ATOM     46  N   UNL A   1      41.071  28.035  28.903  1.00  0.00    -0.354 N 
ATOM     47  C   UNL A   1      44.704  27.233  26.701  1.00  0.00     0.074 A 
ATOM     48  C   UNL A   1      44.728  25.868  26.224  1.00  0.00     0.031 C 
ATOM     49  C   UNL A   1      39.062  27.571  29.763  1.00  0.00     0.029 A 
ATOM     50  C   UNL A   1      40.066  28.624  29.630  1.00  0.00     0.049 A 
ATOM     51  H   UNL A   1      41.874  28.518  28.602  1.00  0.00     0.167 HD
ATOM     52  C   UNL A   1      45.666  28.145  26.435  1.00  0.00     0.031 A 
ATOM     53  C   UNL A   1      39.986  29.865  30.150  1.00  0.00     0.031 A 
ATOM     54  C   UNL A   1      45.652  29.494  26.929  1.00  0.00     0.049 A 
ATOM     55  C   UNL A   1      41.128  30.828  29.942  1.00  0.00     0.074 A 
ATOM     56  C   UNL A   1      46.590  30.492  26.733  1.00  0.00     0.029 A 
ATOM     57  N   UNL A   1      44.651  30.033  27.721  1.00  0.00    -0.354 N 
ATOM     58  N   UNL A   1      42.233  30.667  29.255  1.00  0.00    -0.248 NA
ATOM     59  C   UNL A   1      41.005  32.145  30.585  1.00  0.00     0.031 C 
ATOM     60  C   UNL A   1      46.185  31.617  27.457  1.00  0.00     0.029 A 
ATOM     61  C   UNL A   1      44.960  31.342  28.047  1.00  0.00     0.049 A 
ATOM     62  H   UNL A   1      43.840  29.555  28.010  1.00  0.00     0.167 HD
ATOM     63  C   UNL A   1      42.927  31.867  29.364  1.00  0.00     0.074 A 
ATOM     64  C   UNL A   1      42.105  32.753  30.162  1.00  0.00     0.031 C 
ATOM     65  C   UNL A   1      44.137  32.206  28.853  1.00  0.00     0.031 A 
BRANCH  52  66
ATOM     66  C   UNL A   1      46.833  27.698  25.600  1.00  0.00    -0.014 A 
ATOM     67  C   UNL A   1      47.923  27.022  26.173  1.00  0.00     0.009 A 
ATOM     68  C   UNL A   1      46.823  27.920  24.215  1.00  0.00     0.009 A 
ATOM     69  C   UNL A   1      48.988  26.598  25.376  1.00  0.00     0.001 A 
ATOM     70  C   UNL A   1      47.875  27.468  23.417  1.00  0.00     0.001 A 
ATOM     71  C   UNL A   1      48.960  26.813  23.999  1.00  0.00     0.000 A 
ENDBRANCH  52  66
BRANCH  53  72
ATOM     72  C   UNL A   1      38.790  30.267  30.939  1.00  0.00    -0.014 A 
ATOM     73  C   UNL A   1      37.721  30.935  30.323  1.00  0.00     0.009 A 
ATOM     74  C   UNL A   1      38.715  29.994  32.315  1.00  0.00     0.009 A 
ATOM     75  C   UNL A   1      36.610  31.336  31.069  1.00  0.00     0.001 A 
ATOM     76  C   UNL A   1      37.589  30.368  33.052  1.00  0.00     0.001 A 
ATOM     77  C   UNL A   1      36.541  31.044  32.431  1.00  0.00     0.000 A 
ENDBRANCH  53  72
BRANCH  65  78
ATOM     78  C   UNL A   1      44.638  33.599  29.123  1.00  0.00    -0.014 A 
ATOM     79  C   UNL A   1      45.449  33.879  30.233  1.00  0.00     0.009 A 
ATOM     80  C   UNL A   1      44.332  34.636  28.227  1.00  0.00     0.009 A 
ATOM     81  C   UNL A   1      45.911  35.178  30.462  1.00  0.00     0.001 A 
ATOM     82  C   UNL A   1      44.825  35.925  28.439  1.00  0.00     0.001 A 
ATOM     83  C   UNL A   1      45.603  36.197  29.562  1.00  0.00     0.000 A 
ENDBRANCH  65  78
ENDBRANCH  39  40
ENDBRANCH  32  34
ENDBRANCH  31  32
ENDBRANCH  30  31
ENDBRANCH  29  30
ENDBRANCH  28  29
ENDBRANCH  27  28
ENDBRANCH   1  27
TORSDOF 21
ENDMDL
