MODEL 1
REMARK VINA RESULT:      -9.9      0.000      0.000
REMARK SMILES CC(C)(CCc1ccc(Cl)c2ccccc12)C(=O)OCCOCCOCCOCCOC(=O)c1ccc(-c2c3nc(c(-c4ccccc4)c4ccc([nH]4)c(-c4ccccc4)c4nc(c(-c5ccccc5)c5ccc2[nH]5)C=C4)C=C3)cc1
REMARK SMILES IDX 24 1 23 2 22 3 21 4 20 5 19 6 17 7 18 8 2 9 1 10 3 11 4 12
REMARK SMILES IDX 5 13 6 14 7 15 16 16 8 17 11 18 15 19 9 20 12 21 14 22 10 23
REMARK SMILES IDX 13 24 25 25 26 26 27 27 28 28 29 29 30 30 31 31 32 32 33 33
REMARK SMILES IDX 34 34 35 35 81 36 36 37 80 38 37 39 38 40 39 41 74 42 40 43
REMARK SMILES IDX 79 44 73 45 75 46 41 47 78 48 72 49 71 50 42 52 64 53 49 54
REMARK SMILES IDX 63 55 50 56 53 57 62 58 76 59 51 60 52 61 61 63 77 64 54 65
REMARK SMILES IDX 43 66 44 67 48 68 45 69 47 70 46 71 65 72 66 73 70 74 67 75
REMARK SMILES IDX 69 76 68 77 55 78 56 79 60 80 57 81 59 82 58 83
REMARK H PARENT 75 51 53 62
REMARK Flexibility Score: inf
ROOT
ATOM      1  C   UNL A   1      36.260  30.105  29.264  1.00  0.00     0.188 C 
ENDROOT
BRANCH   1   2
ATOM      2  C   UNL A   1      36.062  31.567  28.014  1.00  0.00     0.188 C 
BRANCH   2   3
ATOM      3  O   UNL A   1      34.482  31.984  27.314  1.00  0.00    -0.376 OA
BRANCH   3   4
ATOM      4  C   UNL A   1      32.932  31.157  27.439  1.00  0.00     0.202 C 
BRANCH   4   5
ATOM      5  C   UNL A   1      32.049  29.924  26.357  1.00  0.00     0.261 C 
BRANCH   5   6
ATOM      6  O   UNL A   1      32.325  28.345  26.234  1.00  0.00    -0.463 OA
BRANCH   6   7
ATOM      7  C   UNL A   1      31.432  27.392  25.667  1.00  0.00     0.311 C 
ATOM      8  O   UNL A   1      30.886  26.549  26.382  1.00  0.00    -0.252 OA
BRANCH   7   9
ATOM      9  C   UNL A   1      31.158  27.379  23.957  1.00  0.00     0.063 C 
ATOM     10  C   UNL A   1      30.867  28.606  22.997  1.00  0.00     0.023 C 
ATOM     11  C   UNL A   1      29.729  26.742  23.803  1.00  0.00     0.023 C 
BRANCH   9  12
ATOM     12  C   UNL A   1      32.264  26.595  23.225  1.00  0.00     0.023 C 
BRANCH  12  13
ATOM     13  C   UNL A   1      31.889  25.169  22.637  1.00  0.00     0.037 C 
BRANCH  13  14
ATOM     14  C   UNL A   1      32.214  23.783  23.368  1.00  0.00    -0.040 A 
ATOM     15  C   UNL A   1      30.915  23.354  24.450  1.00  0.00     0.006 A 
ATOM     16  C   UNL A   1      33.903  23.552  23.778  1.00  0.00    -0.014 A 
ATOM     17  C   UNL A   1      31.239  22.921  26.104  1.00  0.00     0.021 A 
ATOM     18  C   UNL A   1      34.375  23.281  25.409  1.00  0.00     0.001 A 
ATOM     19  C   UNL A   1      34.898  23.220  22.787  1.00  0.00     0.009 A 
ATOM     20  C   UNL A   1      32.958  23.005  26.729  1.00  0.00     0.048 A 
ATOM     21  C   UNL A   1      35.970  23.015  25.219  1.00  0.00     0.010 A 
ATOM     22  C   UNL A   1      36.291  23.057  22.915  1.00  0.00     0.001 A 
ATOM     23  Cl  UNL A   1      32.922  22.304  28.434  1.00  0.00    -0.084 Cl
ATOM     24  C   UNL A   1      36.848  22.989  24.140  1.00  0.00     0.001 A 
ENDBRANCH  13  14
ENDBRANCH  12  13
ENDBRANCH   9  12
ENDBRANCH   7   9
ENDBRANCH   6   7
ENDBRANCH   5   6
ENDBRANCH   4   5
ENDBRANCH   3   4
ENDBRANCH   2   3
ENDBRANCH   1   2
BRANCH   1  25
ATOM     25  O   UNL A   1      37.563  28.674  28.652  1.00  0.00    -0.377 OA
BRANCH  25  26
ATOM     26  C   UNL A   1      38.963  27.903  29.248  1.00  0.00     0.188 C 
BRANCH  26  27
ATOM     27  C   UNL A   1      39.539  26.336  29.125  1.00  0.00     0.188 C 
BRANCH  27  28
ATOM     28  O   UNL A   1      39.247  25.314  28.157  1.00  0.00    -0.376 OA
BRANCH  28  29
ATOM     29  C   UNL A   1      39.985  24.161  27.744  1.00  0.00     0.202 C 
BRANCH  29  30
ATOM     30  C   UNL A   1      39.366  23.105  26.840  1.00  0.00     0.261 C 
BRANCH  30  31
ATOM     31  O   UNL A   1      40.331  22.426  26.050  1.00  0.00    -0.460 OA
BRANCH  31  32
ATOM     32  C   UNL A   1      41.282  21.788  26.772  1.00  0.00     0.338 C 
ATOM     33  O   UNL A   1      41.294  20.630  27.143  1.00  0.00    -0.246 OA
BRANCH  32  34
ATOM     34  C   UNL A   1      42.436  22.691  26.811  1.00  0.00     0.060 A 
ATOM     35  C   UNL A   1      43.246  22.673  27.955  1.00  0.00     0.016 A 
ATOM     36  C   UNL A   1      42.755  23.474  25.700  1.00  0.00     0.016 A 
ATOM     37  C   UNL A   1      44.359  23.498  28.017  1.00  0.00     0.010 A 
ATOM     38  C   UNL A   1      43.835  24.345  25.785  1.00  0.00     0.010 A 
ATOM     39  C   UNL A   1      44.597  24.393  26.966  1.00  0.00    -0.014 A 
BRANCH  39  40
ATOM     40  C   UNL A   1      45.378  25.608  27.256  1.00  0.00     0.031 A 
ATOM     41  C   UNL A   1      44.673  26.692  28.021  1.00  0.00     0.074 A 
ATOM     42  C   UNL A   1      46.663  25.729  26.890  1.00  0.00     0.049 A 
ATOM     43  N   UNL A   1      45.081  27.894  28.326  1.00  0.00    -0.248 NA
ATOM     44  C   UNL A   1      43.321  26.371  28.514  1.00  0.00     0.031 C 
ATOM     45  C   UNL A   1      47.468  24.694  26.248  1.00  0.00     0.029 A 
ATOM     46  N   UNL A   1      47.510  26.797  27.015  1.00  0.00    -0.354 N 
ATOM     47  C   UNL A   1      44.035  28.468  29.038  1.00  0.00     0.074 A 
ATOM     48  C   UNL A   1      42.971  27.498  29.109  1.00  0.00     0.031 C 
ATOM     49  C   UNL A   1      48.698  25.188  26.018  1.00  0.00     0.029 A 
ATOM     50  C   UNL A   1      48.740  26.584  26.449  1.00  0.00     0.049 A 
ATOM     51  H   UNL A   1      47.261  27.635  27.468  1.00  0.00     0.167 HD
ATOM     52  C   UNL A   1      43.967  29.705  29.582  1.00  0.00     0.031 A 
ATOM     53  C   UNL A   1      49.761  27.443  26.269  1.00  0.00     0.031 A 
ATOM     54  C   UNL A   1      45.018  30.675  29.465  1.00  0.00     0.049 A 
ATOM     55  C   UNL A   1      49.604  28.865  26.747  1.00  0.00     0.074 A 
ATOM     56  C   UNL A   1      45.050  31.973  29.939  1.00  0.00     0.029 A 
ATOM     57  N   UNL A   1      46.219  30.451  28.809  1.00  0.00    -0.354 N 
ATOM     58  N   UNL A   1      48.607  29.416  27.399  1.00  0.00    -0.248 NA
ATOM     59  C   UNL A   1      50.714  29.785  26.458  1.00  0.00     0.031 C 
ATOM     60  C   UNL A   1      46.246  32.556  29.510  1.00  0.00     0.029 A 
ATOM     61  C   UNL A   1      46.990  31.597  28.838  1.00  0.00     0.049 A 
ATOM     62  H   UNL A   1      46.483  29.602  28.387  1.00  0.00     0.167 HD
ATOM     63  C   UNL A   1      48.983  30.735  27.628  1.00  0.00     0.074 A 
ATOM     64  C   UNL A   1      50.303  30.896  27.053  1.00  0.00     0.031 C 
ATOM     65  C   UNL A   1      48.302  31.725  28.257  1.00  0.00     0.031 A 
BRANCH  52  66
ATOM     66  C   UNL A   1      42.688  30.080  30.272  1.00  0.00    -0.014 A 
ATOM     67  C   UNL A   1      42.474  29.803  31.632  1.00  0.00     0.009 A 
ATOM     68  C   UNL A   1      41.668  30.709  29.541  1.00  0.00     0.009 A 
ATOM     69  C   UNL A   1      41.254  30.116  32.235  1.00  0.00     0.001 A 
ATOM     70  C   UNL A   1      40.462  31.051  30.154  1.00  0.00     0.001 A 
ATOM     71  C   UNL A   1      40.251  30.745  31.497  1.00  0.00     0.000 A 
ENDBRANCH  52  66
BRANCH  53  72
ATOM     72  C   UNL A   1      50.995  27.006  25.565  1.00  0.00    -0.014 A 
ATOM     73  C   UNL A   1      52.075  26.468  26.279  1.00  0.00     0.009 A 
ATOM     74  C   UNL A   1      51.108  27.144  24.171  1.00  0.00     0.009 A 
ATOM     75  C   UNL A   1      53.250  26.102  25.618  1.00  0.00     0.001 A 
ATOM     76  C   UNL A   1      52.272  26.746  23.509  1.00  0.00     0.001 A 
ATOM     77  C   UNL A   1      53.345  26.236  24.234  1.00  0.00     0.000 A 
ENDBRANCH  53  72
BRANCH  65  78
ATOM     78  C   UNL A   1      48.991  33.055  28.399  1.00  0.00    -0.014 A 
ATOM     79  C   UNL A   1      49.836  33.331  29.483  1.00  0.00     0.009 A 
ATOM     80  C   UNL A   1      48.835  34.021  27.393  1.00  0.00     0.009 A 
ATOM     81  C   UNL A   1      50.488  34.562  29.572  1.00  0.00     0.001 A 
ATOM     82  C   UNL A   1      49.515  35.236  27.465  1.00  0.00     0.001 A 
ATOM     83  C   UNL A   1      50.333  35.510  28.560  1.00  0.00     0.000 A 
ENDBRANCH  65  78
ENDBRANCH  39  40
ENDBRANCH  32  34
ENDBRANCH  31  32
ENDBRANCH  30  31
ENDBRANCH  29  30
ENDBRANCH  28  29
ENDBRANCH  27  28
ENDBRANCH  26  27
ENDBRANCH  25  26
ENDBRANCH   1  25
TORSDOF 23
ENDMDL
MODEL 2
REMARK VINA RESULT:      -9.8      7.510     12.890
REMARK SMILES CC(C)(CCc1ccc(Cl)c2ccccc12)C(=O)OCCOCCOCCOCCOC(=O)c1ccc(-c2c3nc(c(-c4ccccc4)c4ccc([nH]4)c(-c4ccccc4)c4nc(c(-c5ccccc5)c5ccc2[nH]5)C=C4)C=C3)cc1
REMARK SMILES IDX 24 1 23 2 22 3 21 4 20 5 19 6 17 7 18 8 2 9 1 10 3 11 4 12
REMARK SMILES IDX 5 13 6 14 7 15 16 16 8 17 11 18 15 19 9 20 12 21 14 22 10 23
REMARK SMILES IDX 13 24 25 25 26 26 27 27 28 28 29 29 30 30 31 31 32 32 33 33
REMARK SMILES IDX 34 34 35 35 81 36 36 37 80 38 37 39 38 40 39 41 74 42 40 43
REMARK SMILES IDX 79 44 73 45 75 46 41 47 78 48 72 49 71 50 42 52 64 53 49 54
REMARK SMILES IDX 63 55 50 56 53 57 62 58 76 59 51 60 52 61 61 63 77 64 54 65
REMARK SMILES IDX 43 66 44 67 48 68 45 69 47 70 46 71 65 72 66 73 70 74 67 75
REMARK SMILES IDX 69 76 68 77 55 78 56 79 60 80 57 81 59 82 58 83
REMARK H PARENT 75 51 53 62
REMARK Flexibility Score: inf
ROOT
ATOM      1  C   UNL A   1      33.284  25.034  25.846  1.00  0.00     0.188 C 
ENDROOT
BRANCH   1   2
ATOM      2  C   UNL A   1      35.116  24.641  25.370  1.00  0.00     0.188 C 
BRANCH   2   3
ATOM      3  O   UNL A   1      35.592  23.046  24.743  1.00  0.00    -0.376 OA
BRANCH   3   4
ATOM      4  C   UNL A   1      36.565  21.781  25.487  1.00  0.00     0.202 C 
BRANCH   4   5
ATOM      5  C   UNL A   1      38.378  21.355  25.421  1.00  0.00     0.261 C 
BRANCH   5   6
ATOM      6  O   UNL A   1      39.515  21.718  26.497  1.00  0.00    -0.463 OA
BRANCH   6   7
ATOM      7  C   UNL A   1      40.919  21.639  26.274  1.00  0.00     0.311 C 
ATOM      8  O   UNL A   1      41.451  20.552  26.036  1.00  0.00    -0.252 OA
BRANCH   7   9
ATOM      9  C   UNL A   1      41.893  23.066  26.397  1.00  0.00     0.063 C 
ATOM     10  C   UNL A   1      43.058  23.548  25.437  1.00  0.00     0.023 C 
ATOM     11  C   UNL A   1      42.833  22.784  27.625  1.00  0.00     0.023 C 
BRANCH   9  12
ATOM     12  C   UNL A   1      41.016  24.321  26.568  1.00  0.00     0.023 C 
BRANCH  12  13
ATOM     13  C   UNL A   1      41.529  25.673  25.915  1.00  0.00     0.037 C 
BRANCH  13  14
ATOM     14  C   UNL A   1      42.082  26.920  26.751  1.00  0.00    -0.040 A 
ATOM     15  C   UNL A   1      43.680  26.576  27.360  1.00  0.00     0.006 A 
ATOM     16  C   UNL A   1      40.869  27.761  27.698  1.00  0.00    -0.014 A 
ATOM     17  C   UNL A   1      44.064  26.815  29.040  1.00  0.00     0.021 A 
ATOM     18  C   UNL A   1      41.048  27.920  29.400  1.00  0.00     0.001 A 
ATOM     19  C   UNL A   1      39.896  28.642  27.097  1.00  0.00     0.009 A 
ATOM     20  C   UNL A   1      42.744  27.350  30.191  1.00  0.00     0.048 A 
ATOM     21  C   UNL A   1      39.762  28.855  29.750  1.00  0.00     0.010 A 
ATOM     22  C   UNL A   1      38.825  29.346  27.678  1.00  0.00     0.001 A 
ATOM     23  Cl  UNL A   1      43.568  27.669  31.809  1.00  0.00    -0.084 Cl
ATOM     24  C   UNL A   1      38.727  29.429  29.019  1.00  0.00     0.001 A 
ENDBRANCH  13  14
ENDBRANCH  12  13
ENDBRANCH   9  12
ENDBRANCH   7   9
ENDBRANCH   6   7
ENDBRANCH   5   6
ENDBRANCH   4   5
ENDBRANCH   3   4
ENDBRANCH   2   3
ENDBRANCH   1   2
BRANCH   1  25
ATOM     25  O   UNL A   1      32.740  26.957  25.493  1.00  0.00    -0.377 OA
BRANCH  25  26
ATOM     26  C   UNL A   1      33.295  28.520  25.892  1.00  0.00     0.188 C 
BRANCH  26  27
ATOM     27  C   UNL A   1      34.065  29.144  27.241  1.00  0.00     0.188 C 
BRANCH  27  28
ATOM     28  O   UNL A   1      34.555  30.470  27.498  1.00  0.00    -0.376 OA
BRANCH  28  29
ATOM     29  C   UNL A   1      35.339  31.000  28.571  1.00  0.00     0.202 C 
BRANCH  29  30
ATOM     30  C   UNL A   1      34.899  32.238  29.339  1.00  0.00     0.261 C 
BRANCH  30  31
ATOM     31  O   UNL A   1      35.315  32.217  30.696  1.00  0.00    -0.460 OA
BRANCH  31  32
ATOM     32  C   UNL A   1      34.752  33.184  31.459  1.00  0.00     0.338 C 
ATOM     33  O   UNL A   1      33.686  33.745  31.295  1.00  0.00    -0.246 OA
BRANCH  32  34
ATOM     34  C   UNL A   1      35.557  33.255  32.682  1.00  0.00     0.060 A 
ATOM     35  C   UNL A   1      35.328  34.326  33.557  1.00  0.00     0.016 A 
ATOM     36  C   UNL A   1      36.457  32.234  32.994  1.00  0.00     0.016 A 
ATOM     37  C   UNL A   1      36.055  34.412  34.735  1.00  0.00     0.010 A 
ATOM     38  C   UNL A   1      37.228  32.352  34.143  1.00  0.00     0.010 A 
ATOM     39  C   UNL A   1      37.063  33.472  34.979  1.00  0.00    -0.014 A 
BRANCH  39  40
ATOM     40  C   UNL A   1      38.169  33.858  35.872  1.00  0.00     0.031 A 
ATOM     41  C   UNL A   1      37.995  33.544  37.331  1.00  0.00     0.074 A 
ATOM     42  C   UNL A   1      39.290  34.428  35.407  1.00  0.00     0.049 A 
ATOM     43  N   UNL A   1      38.755  33.855  38.346  1.00  0.00    -0.248 NA
ATOM     44  C   UNL A   1      36.796  32.764  37.693  1.00  0.00     0.031 C 
ATOM     45  C   UNL A   1      39.605  34.670  34.002  1.00  0.00     0.029 A 
ATOM     46  N   UNL A   1      40.376  34.907  36.090  1.00  0.00    -0.354 N 
ATOM     47  C   UNL A   1      38.123  33.316  39.459  1.00  0.00     0.074 A 
ATOM     48  C   UNL A   1      36.914  32.673  39.006  1.00  0.00     0.031 C 
ATOM     49  C   UNL A   1      40.805  35.273  33.927  1.00  0.00     0.029 A 
ATOM     50  C   UNL A   1      41.309  35.502  35.280  1.00  0.00     0.049 A 
ATOM     51  H   UNL A   1      40.477  34.831  37.066  1.00  0.00     0.167 HD
ATOM     52  C   UNL A   1      38.516  33.359  40.752  1.00  0.00     0.031 A 
ATOM     53  C   UNL A   1      42.419  36.187  35.612  1.00  0.00     0.031 A 
ATOM     54  C   UNL A   1      39.698  34.041  41.193  1.00  0.00     0.049 A 
ATOM     55  C   UNL A   1      42.757  36.356  37.072  1.00  0.00     0.074 A 
ATOM     56  C   UNL A   1      40.180  34.188  42.480  1.00  0.00     0.029 A 
ATOM     57  N   UNL A   1      40.577  34.706  40.351  1.00  0.00    -0.354 N 
ATOM     58  N   UNL A   1      42.148  35.867  38.126  1.00  0.00    -0.248 NA
ATOM     59  C   UNL A   1      43.935  37.177  37.386  1.00  0.00     0.031 C 
ATOM     60  C   UNL A   1      41.317  35.001  42.422  1.00  0.00     0.029 A 
ATOM     61  C   UNL A   1      41.584  35.293  41.092  1.00  0.00     0.049 A 
ATOM     62  H   UNL A   1      40.496  34.752  39.371  1.00  0.00     0.167 HD
ATOM     63  C   UNL A   1      42.886  36.292  39.225  1.00  0.00     0.074 A 
ATOM     64  C   UNL A   1      43.993  37.069  38.706  1.00  0.00     0.031 C 
ATOM     65  C   UNL A   1      42.673  36.061  40.545  1.00  0.00     0.031 A 
BRANCH  52  66
ATOM     66  C   UNL A   1      37.611  32.718  41.765  1.00  0.00    -0.014 A 
ATOM     67  C   UNL A   1      36.523  33.407  42.324  1.00  0.00     0.009 A 
ATOM     68  C   UNL A   1      37.863  31.401  42.180  1.00  0.00     0.009 A 
ATOM     69  C   UNL A   1      35.730  32.804  43.302  1.00  0.00     0.001 A 
ATOM     70  C   UNL A   1      37.050  30.788  43.133  1.00  0.00     0.001 A 
ATOM     71  C   UNL A   1      35.991  31.493  43.702  1.00  0.00     0.000 A 
ENDBRANCH  52  66
BRANCH  53  72
ATOM     72  C   UNL A   1      43.262  36.807  34.556  1.00  0.00    -0.014 A 
ATOM     73  C   UNL A   1      44.284  36.076  33.934  1.00  0.00     0.009 A 
ATOM     74  C   UNL A   1      43.061  38.145  34.177  1.00  0.00     0.009 A 
ATOM     75  C   UNL A   1      45.104  36.678  32.976  1.00  0.00     0.001 A 
ATOM     76  C   UNL A   1      43.860  38.734  33.195  1.00  0.00     0.001 A 
ATOM     77  C   UNL A   1      44.887  38.004  32.603  1.00  0.00     0.000 A 
ENDBRANCH  53  72
BRANCH  65  78
ATOM     78  C   UNL A   1      43.680  36.614  41.515  1.00  0.00    -0.014 A 
ATOM     79  C   UNL A   1      44.831  35.896  41.868  1.00  0.00     0.009 A 
ATOM     80  C   UNL A   1      43.499  37.908  42.032  1.00  0.00     0.009 A 
ATOM     81  C   UNL A   1      45.765  36.449  42.746  1.00  0.00     0.001 A 
ATOM     82  C   UNL A   1      44.451  38.472  42.880  1.00  0.00     0.001 A 
ATOM     83  C   UNL A   1      45.579  37.738  43.245  1.00  0.00     0.000 A 
ENDBRANCH  65  78
ENDBRANCH  39  40
ENDBRANCH  32  34
ENDBRANCH  31  32
ENDBRANCH  30  31
ENDBRANCH  29  30
ENDBRANCH  28  29
ENDBRANCH  27  28
ENDBRANCH  26  27
ENDBRANCH  25  26
ENDBRANCH   1  25
TORSDOF 23
ENDMDL
MODEL 3
REMARK VINA RESULT:      -9.7      7.474     12.920
REMARK SMILES CC(C)(CCc1ccc(Cl)c2ccccc12)C(=O)OCCOCCOCCOCCOC(=O)c1ccc(-c2c3nc(c(-c4ccccc4)c4ccc([nH]4)c(-c4ccccc4)c4nc(c(-c5ccccc5)c5ccc2[nH]5)C=C4)C=C3)cc1
REMARK SMILES IDX 24 1 23 2 22 3 21 4 20 5 19 6 17 7 18 8 2 9 1 10 3 11 4 12
REMARK SMILES IDX 5 13 6 14 7 15 16 16 8 17 11 18 15 19 9 20 12 21 14 22 10 23
REMARK SMILES IDX 13 24 25 25 26 26 27 27 28 28 29 29 30 30 31 31 32 32 33 33
REMARK SMILES IDX 34 34 35 35 81 36 36 37 80 38 37 39 38 40 39 41 74 42 40 43
REMARK SMILES IDX 79 44 73 45 75 46 41 47 78 48 72 49 71 50 42 52 64 53 49 54
REMARK SMILES IDX 63 55 50 56 53 57 62 58 76 59 51 60 52 61 61 63 77 64 54 65
REMARK SMILES IDX 43 66 44 67 48 68 45 69 47 70 46 71 65 72 66 73 70 74 67 75
REMARK SMILES IDX 69 76 68 77 55 78 56 79 60 80 57 81 59 82 58 83
REMARK H PARENT 75 51 53 62
REMARK Flexibility Score: inf
ROOT
ATOM      1  C   UNL A   1      33.037  25.469  25.851  1.00  0.00     0.188 C 
ENDROOT
BRANCH   1   2
ATOM      2  C   UNL A   1      34.736  24.942  25.094  1.00  0.00     0.188 C 
BRANCH   2   3
ATOM      3  O   UNL A   1      35.056  23.261  24.607  1.00  0.00    -0.376 OA
BRANCH   3   4
ATOM      4  C   UNL A   1      36.072  22.036  25.361  1.00  0.00     0.202 C 
BRANCH   4   5
ATOM      5  C   UNL A   1      37.840  21.507  25.106  1.00  0.00     0.261 C 
BRANCH   5   6
ATOM      6  O   UNL A   1      38.870  20.951  26.208  1.00  0.00    -0.463 OA
BRANCH   6   7
ATOM      7  C   UNL A   1      40.015  20.148  25.937  1.00  0.00     0.311 C 
ATOM      8  O   UNL A   1      39.898  19.087  25.322  1.00  0.00    -0.252 OA
BRANCH   7   9
ATOM      9  C   UNL A   1      41.568  20.636  26.528  1.00  0.00     0.063 C 
ATOM     10  C   UNL A   1      42.993  20.365  25.891  1.00  0.00     0.023 C 
ATOM     11  C   UNL A   1      41.803  19.722  27.786  1.00  0.00     0.023 C 
BRANCH   9  12
ATOM     12  C   UNL A   1      41.589  22.142  26.849  1.00  0.00     0.023 C 
BRANCH  12  13
ATOM     13  C   UNL A   1      42.684  22.661  27.875  1.00  0.00     0.037 C 
BRANCH  13  14
ATOM     14  C   UNL A   1      43.130  24.191  28.013  1.00  0.00    -0.040 A 
ATOM     15  C   UNL A   1      41.751  25.189  28.397  1.00  0.00     0.006 A 
ATOM     16  C   UNL A   1      44.378  24.693  26.888  1.00  0.00    -0.014 A 
ATOM     17  C   UNL A   1      41.406  26.624  27.477  1.00  0.00     0.021 A 
ATOM     18  C   UNL A   1      44.099  25.997  25.802  1.00  0.00     0.001 A 
ATOM     19  C   UNL A   1      45.760  24.314  27.050  1.00  0.00     0.009 A 
ATOM     20  C   UNL A   1      42.457  27.035  26.034  1.00  0.00     0.048 A 
ATOM     21  C   UNL A   1      45.564  26.122  25.102  1.00  0.00     0.010 A 
ATOM     22  C   UNL A   1      46.876  24.567  26.230  1.00  0.00     0.001 A 
ATOM     23  Cl  UNL A   1      41.902  28.692  25.447  1.00  0.00    -0.084 Cl
ATOM     24  C   UNL A   1      46.777  25.452  25.218  1.00  0.00     0.001 A 
ENDBRANCH  13  14
ENDBRANCH  12  13
ENDBRANCH   9  12
ENDBRANCH   7   9
ENDBRANCH   6   7
ENDBRANCH   5   6
ENDBRANCH   4   5
ENDBRANCH   3   4
ENDBRANCH   2   3
ENDBRANCH   1   2
BRANCH   1  25
ATOM     25  O   UNL A   1      32.640  27.451  25.671  1.00  0.00    -0.377 OA
BRANCH  25  26
ATOM     26  C   UNL A   1      33.366  28.930  26.115  1.00  0.00     0.188 C 
BRANCH  26  27
ATOM     27  C   UNL A   1      34.259  29.404  27.449  1.00  0.00     0.188 C 
BRANCH  27  28
ATOM     28  O   UNL A   1      34.720  30.707  27.841  1.00  0.00    -0.376 OA
BRANCH  28  29
ATOM     29  C   UNL A   1      35.465  31.147  28.980  1.00  0.00     0.202 C 
BRANCH  29  30
ATOM     30  C   UNL A   1      34.951  32.258  29.883  1.00  0.00     0.261 C 
BRANCH  30  31
ATOM     31  O   UNL A   1      35.246  32.031  31.254  1.00  0.00    -0.460 OA
BRANCH  31  32
ATOM     32  C   UNL A   1      34.747  32.973  32.088  1.00  0.00     0.338 C 
ATOM     33  O   UNL A   1      33.672  33.537  32.027  1.00  0.00    -0.246 OA
BRANCH  32  34
ATOM     34  C   UNL A   1      35.648  33.009  33.244  1.00  0.00     0.060 A 
ATOM     35  C   UNL A   1      35.467  34.032  34.185  1.00  0.00     0.016 A 
ATOM     36  C   UNL A   1      36.592  31.998  33.433  1.00  0.00     0.016 A 
ATOM     37  C   UNL A   1      36.286  34.082  35.304  1.00  0.00     0.010 A 
ATOM     38  C   UNL A   1      37.452  32.083  34.520  1.00  0.00     0.010 A 
ATOM     39  C   UNL A   1      37.332  33.158  35.420  1.00  0.00    -0.014 A 
BRANCH  39  40
ATOM     40  C   UNL A   1      38.498  33.532  36.238  1.00  0.00     0.031 A 
ATOM     41  C   UNL A   1      38.468  33.110  37.680  1.00  0.00     0.074 A 
ATOM     42  C   UNL A   1      39.549  34.182  35.719  1.00  0.00     0.049 A 
ATOM     43  N   UNL A   1      39.304  33.384  38.644  1.00  0.00    -0.248 NA
ATOM     44  C   UNL A   1      37.339  32.254  38.087  1.00  0.00     0.031 C 
ATOM     45  C   UNL A   1      39.725  34.535  34.313  1.00  0.00     0.029 A 
ATOM     46  N   UNL A   1      40.673  34.661  36.337  1.00  0.00    -0.354 N 
ATOM     47  C   UNL A   1      38.797  32.741  39.766  1.00  0.00     0.074 A 
ATOM     48  C   UNL A   1      37.578  32.077  39.375  1.00  0.00     0.031 C 
ATOM     49  C   UNL A   1      40.890  35.194  34.178  1.00  0.00     0.029 A 
ATOM     50  C   UNL A   1      41.505  35.352  35.495  1.00  0.00     0.049 A 
ATOM     51  H   UNL A   1      40.865  34.523  37.293  1.00  0.00     0.167 HD
ATOM     52  C   UNL A   1      39.304  32.713  41.020  1.00  0.00     0.031 A 
ATOM     53  C   UNL A   1      42.613  36.062  35.777  1.00  0.00     0.031 A 
ATOM     54  C   UNL A   1      40.494  33.416  41.404  1.00  0.00     0.049 A 
ATOM     55  C   UNL A   1      43.075  36.146  37.210  1.00  0.00     0.074 A 
ATOM     56  C   UNL A   1      41.084  33.495  42.651  1.00  0.00     0.029 A 
ATOM     57  N   UNL A   1      41.266  34.176  40.538  1.00  0.00    -0.354 N 
ATOM     58  N   UNL A   1      42.583  35.557  38.276  1.00  0.00    -0.248 NA
ATOM     59  C   UNL A   1      44.243  36.995  37.479  1.00  0.00     0.031 C 
ATOM     60  C   UNL A   1      42.179  34.360  42.553  1.00  0.00     0.029 A 
ATOM     61  C   UNL A   1      42.313  34.756  41.230  1.00  0.00     0.049 A 
ATOM     62  H   UNL A   1      41.095  34.286  39.576  1.00  0.00     0.167 HD
ATOM     63  C   UNL A   1      43.401  35.939  39.334  1.00  0.00     0.074 A 
ATOM     64  C   UNL A   1      44.425  36.799  38.777  1.00  0.00     0.031 C 
ATOM     65  C   UNL A   1      43.318  35.607  40.646  1.00  0.00     0.031 A 
BRANCH  52  66
ATOM     66  C   UNL A   1      38.520  31.963  42.058  1.00  0.00    -0.014 A 
ATOM     67  C   UNL A   1      38.816  30.629  42.385  1.00  0.00     0.009 A 
ATOM     68  C   UNL A   1      37.455  32.600  42.712  1.00  0.00     0.009 A 
ATOM     69  C   UNL A   1      38.037  29.940  43.317  1.00  0.00     0.001 A 
ATOM     70  C   UNL A   1      36.699  31.919  43.668  1.00  0.00     0.001 A 
ATOM     71  C   UNL A   1      36.983  30.587  43.961  1.00  0.00     0.000 A 
ENDBRANCH  52  66
BRANCH  53  72
ATOM     72  C   UNL A   1      43.332  36.791  34.699  1.00  0.00    -0.014 A 
ATOM     73  C   UNL A   1      44.292  36.141  33.911  1.00  0.00     0.009 A 
ATOM     74  C   UNL A   1      43.076  38.153  34.466  1.00  0.00     0.009 A 
ATOM     75  C   UNL A   1      44.998  36.842  32.931  1.00  0.00     0.001 A 
ATOM     76  C   UNL A   1      43.760  38.843  33.463  1.00  0.00     0.001 A 
ATOM     77  C   UNL A   1      44.728  38.191  32.703  1.00  0.00     0.000 A 
ENDBRANCH  53  72
BRANCH  65  78
ATOM     78  C   UNL A   1      44.386  36.138  41.562  1.00  0.00    -0.014 A 
ATOM     79  C   UNL A   1      45.708  35.675  41.493  1.00  0.00     0.009 A 
ATOM     80  C   UNL A   1      44.070  37.165  42.466  1.00  0.00     0.009 A 
ATOM     81  C   UNL A   1      46.686  36.210  42.333  1.00  0.00     0.001 A 
ATOM     82  C   UNL A   1      45.056  37.722  43.279  1.00  0.00     0.001 A 
ATOM     83  C   UNL A   1      46.362  37.237  43.220  1.00  0.00     0.000 A 
ENDBRANCH  65  78
ENDBRANCH  39  40
ENDBRANCH  32  34
ENDBRANCH  31  32
ENDBRANCH  30  31
ENDBRANCH  29  30
ENDBRANCH  28  29
ENDBRANCH  27  28
ENDBRANCH  26  27
ENDBRANCH  25  26
ENDBRANCH   1  25
TORSDOF 23
ENDMDL
