MODEL 1
REMARK VINA RESULT:     -10.2      0.000      0.000
REMARK SMILES CC1=C2C(CSc3c(Cl)cccc3Cl)=CC(=O)N=C2S[C@H]1C(=O)OCCOCCOCCOCCOC(=O)c1ccc(-c2c3nc(c(-c4ccccc4)c4ccc([nH]4)c(-c4ccccc4)c4nc(c(-c5ccccc5)c5ccc2[nH]5)C=C4)C=C3)cc1
REMARK SMILES IDX 29 1 28 2 27 3 26 4 25 5 24 6 22 7 23 8 21 9 1 10 2 11 3 12
REMARK SMILES IDX 4 13 19 14 20 15 15 16 18 17 16 18 17 19 5 20 6 21 7 22 8 23
REMARK SMILES IDX 13 24 9 25 10 26 12 27 14 28 11 29 30 30 31 31 32 32 33 33
REMARK SMILES IDX 34 34 35 35 36 36 37 37 38 38 39 39 40 40 86 41 41 42 85 43
REMARK SMILES IDX 42 44 43 45 44 46 79 47 45 48 84 49 78 50 80 51 46 52 83 53
REMARK SMILES IDX 77 54 76 55 47 57 69 58 54 59 68 60 55 61 58 62 67 63 81 64
REMARK SMILES IDX 56 65 57 66 66 68 82 69 59 70 48 71 49 72 53 73 50 74 52 75
REMARK SMILES IDX 51 76 70 77 71 78 75 79 72 80 74 81 73 82 60 83 61 84 65 85
REMARK SMILES IDX 62 86 64 87 63 88
REMARK H PARENT 80 56 58 67
REMARK Flexibility Score: inf
ROOT
ATOM      1  C   UNL A   1      34.091  31.310  28.037  1.00  0.00     0.188 C 
ENDROOT
BRANCH   1   2
ATOM      2  C   UNL A   1      34.011  30.058  27.161  1.00  0.00     0.188 C 
BRANCH   2   3
ATOM      3  O   UNL A   1      32.763  29.700  26.603  1.00  0.00    -0.376 OA
BRANCH   3   4
ATOM      4  C   UNL A   1      32.639  29.611  25.188  1.00  0.00     0.202 C 
BRANCH   4   5
ATOM      5  C   UNL A   1      31.264  29.686  24.507  1.00  0.00     0.261 C 
BRANCH   5   6
ATOM      6  O   UNL A   1      30.626  28.415  24.253  1.00  0.00    -0.462 OA
BRANCH   6   7
ATOM      7  C   UNL A   1      30.482  28.015  22.959  1.00  0.00     0.323 C 
ATOM      8  O   UNL A   1      29.908  28.677  22.097  1.00  0.00    -0.251 OA
BRANCH   7   9
ATOM      9  C   UNL A   1      31.126  26.649  22.638  1.00  0.00     0.189 C 
ATOM     10  C   UNL A   1      33.645  27.113  22.673  1.00  0.00     0.042 C 
ATOM     11  C   UNL A   1      32.487  26.358  23.253  1.00  0.00    -0.039 C 
ATOM     12  C   UNL A   1      32.520  25.441  24.241  1.00  0.00     0.012 C 
ATOM     13  C   UNL A   1      33.565  24.813  25.047  1.00  0.00    -0.022 C 
ATOM     14  C   UNL A   1      31.151  24.920  24.495  1.00  0.00     0.109 C 
ATOM     15  S   UNL A   1      30.059  25.287  23.193  1.00  0.00    -0.086 SA
ATOM     16  C   UNL A   1      33.134  24.124  26.124  1.00  0.00     0.079 C 
ATOM     17  N   UNL A   1      30.766  24.245  25.515  1.00  0.00    -0.202 NA
ATOM     18  C   UNL A   1      31.691  24.031  26.504  1.00  0.00     0.271 C 
ATOM     19  O   UNL A   1      31.397  23.696  27.643  1.00  0.00    -0.267 OA
BRANCH  13  20
ATOM     20  C   UNL A   1      34.997  24.756  24.555  1.00  0.00     0.111 C 
BRANCH  20  21
ATOM     21  S   UNL A   1      35.483  23.358  23.475  1.00  0.00    -0.118 SA
BRANCH  21  22
ATOM     22  C   UNL A   1      34.452  21.933  23.912  1.00  0.00     0.045 A 
ATOM     23  C   UNL A   1      34.803  20.914  24.824  1.00  0.00     0.056 A 
ATOM     24  C   UNL A   1      33.235  21.741  23.206  1.00  0.00     0.056 A 
ATOM     25  Cl  UNL A   1      36.385  20.728  25.502  1.00  0.00    -0.083 Cl
ATOM     26  C   UNL A   1      33.908  19.877  25.147  1.00  0.00     0.022 A 
ATOM     27  C   UNL A   1      32.393  20.643  23.464  1.00  0.00     0.022 A 
ATOM     28  Cl  UNL A   1      32.652  22.853  22.004  1.00  0.00    -0.083 Cl
ATOM     29  C   UNL A   1      32.701  19.742  24.475  1.00  0.00     0.003 A 
ENDBRANCH  21  22
ENDBRANCH  20  21
ENDBRANCH  13  20
ENDBRANCH   7   9
ENDBRANCH   6   7
ENDBRANCH   5   6
ENDBRANCH   4   5
ENDBRANCH   3   4
ENDBRANCH   2   3
ENDBRANCH   1   2
BRANCH   1  30
ATOM     30  O   UNL A   1      34.999  32.317  27.639  1.00  0.00    -0.377 OA
BRANCH  30  31
ATOM     31  C   UNL A   1      34.792  33.676  28.014  1.00  0.00     0.188 C 
BRANCH  31  32
ATOM     32  C   UNL A   1      33.612  34.095  28.916  1.00  0.00     0.188 C 
BRANCH  32  33
ATOM     33  O   UNL A   1      33.918  35.047  29.922  1.00  0.00    -0.376 OA
BRANCH  33  34
ATOM     34  C   UNL A   1      34.588  34.587  31.086  1.00  0.00     0.202 C 
BRANCH  34  35
ATOM     35  C   UNL A   1      34.072  33.294  31.707  1.00  0.00     0.261 C 
BRANCH  35  36
ATOM     36  O   UNL A   1      34.973  32.197  31.643  1.00  0.00    -0.460 OA
BRANCH  36  37
ATOM     37  C   UNL A   1      35.932  32.153  32.584  1.00  0.00     0.338 C 
ATOM     38  O   UNL A   1      35.872  32.494  33.749  1.00  0.00    -0.246 OA
BRANCH  37  39
ATOM     39  C   UNL A   1      37.058  31.510  31.915  1.00  0.00     0.060 A 
ATOM     40  C   UNL A   1      38.021  30.849  32.682  1.00  0.00     0.016 A 
ATOM     41  C   UNL A   1      37.076  31.486  30.520  1.00  0.00     0.016 A 
ATOM     42  C   UNL A   1      39.044  30.169  32.036  1.00  0.00     0.010 A 
ATOM     43  C   UNL A   1      38.098  30.805  29.878  1.00  0.00     0.010 A 
ATOM     44  C   UNL A   1      39.096  30.169  30.636  1.00  0.00    -0.014 A 
BRANCH  44  45
ATOM     45  C   UNL A   1      40.293  29.667  29.942  1.00  0.00     0.031 A 
ATOM     46  C   UNL A   1      41.429  30.622  29.738  1.00  0.00     0.074 A 
ATOM     47  C   UNL A   1      40.341  28.404  29.492  1.00  0.00     0.049 A 
ATOM     48  N   UNL A   1      42.541  30.459  29.073  1.00  0.00    -0.248 NA
ATOM     49  C   UNL A   1      41.283  31.953  30.357  1.00  0.00     0.031 C 
ATOM     50  C   UNL A   1      39.290  27.402  29.663  1.00  0.00     0.029 A 
ATOM     51  N   UNL A   1      41.315  27.757  28.779  1.00  0.00    -0.354 N 
ATOM     52  C   UNL A   1      43.213  31.670  29.174  1.00  0.00     0.074 A 
ATOM     53  C   UNL A   1      42.380  32.566  29.942  1.00  0.00     0.031 C 
ATOM     54  C   UNL A   1      39.677  26.261  29.068  1.00  0.00     0.029 A 
ATOM     55  C   UNL A   1      40.976  26.471  28.436  1.00  0.00     0.049 A 
ATOM     56  H   UNL A   1      42.174  28.173  28.537  1.00  0.00     0.167 HD
ATOM     57  C   UNL A   1      44.423  31.999  28.669  1.00  0.00     0.031 A 
ATOM     58  C   UNL A   1      41.636  25.587  27.666  1.00  0.00     0.031 A 
ATOM     59  C   UNL A   1      45.225  31.098  27.890  1.00  0.00     0.049 A 
ATOM     60  C   UNL A   1      42.954  25.997  27.066  1.00  0.00     0.074 A 
ATOM     61  C   UNL A   1      46.470  31.313  27.329  1.00  0.00     0.029 A 
ATOM     62  N   UNL A   1      44.849  29.804  27.559  1.00  0.00    -0.354 N 
ATOM     63  N   UNL A   1      43.600  27.134  27.184  1.00  0.00    -0.248 NA
ATOM     64  C   UNL A   1      43.640  25.002  26.230  1.00  0.00     0.031 C 
ATOM     65  C   UNL A   1      46.825  30.165  26.615  1.00  0.00     0.029 A 
ATOM     66  C   UNL A   1      45.832  29.213  26.786  1.00  0.00     0.049 A 
ATOM     67  H   UNL A   1      44.009  29.371  27.833  1.00  0.00     0.167 HD
ATOM     68  C   UNL A   1      44.780  26.980  26.468  1.00  0.00     0.074 A 
ATOM     69  C   UNL A   1      44.764  25.636  25.926  1.00  0.00     0.031 C 
ATOM     70  C   UNL A   1      45.789  27.865  26.278  1.00  0.00     0.031 A 
BRANCH  57  71
ATOM     71  C   UNL A   1      44.913  33.399  28.910  1.00  0.00    -0.014 A 
ATOM     72  C   UNL A   1      44.612  34.444  28.021  1.00  0.00     0.009 A 
ATOM     73  C   UNL A   1      45.688  33.677  30.046  1.00  0.00     0.009 A 
ATOM     74  C   UNL A   1      45.110  35.729  28.244  1.00  0.00     0.001 A 
ATOM     75  C   UNL A   1      46.160  34.969  30.283  1.00  0.00     0.001 A 
ATOM     76  C   UNL A   1      45.880  35.991  29.378  1.00  0.00     0.000 A 
ENDBRANCH  57  71
BRANCH  58  77
ATOM     77  C   UNL A   1      41.057  24.242  27.408  1.00  0.00    -0.014 A 
ATOM     78  C   UNL A   1      40.038  24.073  26.457  1.00  0.00     0.009 A 
ATOM     79  C   UNL A   1      41.519  23.116  28.109  1.00  0.00     0.009 A 
ATOM     80  C   UNL A   1      39.477  22.813  26.235  1.00  0.00     0.001 A 
ATOM     81  C   UNL A   1      40.978  21.853  27.864  1.00  0.00     0.001 A 
ATOM     82  C   UNL A   1      39.950  21.703  26.934  1.00  0.00     0.000 A 
ENDBRANCH  58  77
BRANCH  70  83
ATOM     83  C   UNL A   1      46.986  27.389  25.507  1.00  0.00    -0.014 A 
ATOM     84  C   UNL A   1      47.125  27.644  24.134  1.00  0.00     0.009 A 
ATOM     85  C   UNL A   1      48.027  26.736  26.190  1.00  0.00     0.009 A 
ATOM     86  C   UNL A   1      48.273  27.230  23.456  1.00  0.00     0.001 A 
ATOM     87  C   UNL A   1      49.184  26.353  25.515  1.00  0.00     0.001 A 
ATOM     88  C   UNL A   1      49.303  26.593  24.148  1.00  0.00     0.000 A 
ENDBRANCH  70  83
ENDBRANCH  44  45
ENDBRANCH  37  39
ENDBRANCH  36  37
ENDBRANCH  35  36
ENDBRANCH  34  35
ENDBRANCH  33  34
ENDBRANCH  32  33
ENDBRANCH  31  32
ENDBRANCH  30  31
ENDBRANCH   1  30
TORSDOF 23
ENDMDL
MODEL 2
REMARK VINA RESULT:      -9.8      1.456      2.125
REMARK SMILES CC1=C2C(CSc3c(Cl)cccc3Cl)=CC(=O)N=C2S[C@H]1C(=O)OCCOCCOCCOCCOC(=O)c1ccc(-c2c3nc(c(-c4ccccc4)c4ccc([nH]4)c(-c4ccccc4)c4nc(c(-c5ccccc5)c5ccc2[nH]5)C=C4)C=C3)cc1
REMARK SMILES IDX 29 1 28 2 27 3 26 4 25 5 24 6 22 7 23 8 21 9 1 10 2 11 3 12
REMARK SMILES IDX 4 13 19 14 20 15 15 16 18 17 16 18 17 19 5 20 6 21 7 22 8 23
REMARK SMILES IDX 13 24 9 25 10 26 12 27 14 28 11 29 30 30 31 31 32 32 33 33
REMARK SMILES IDX 34 34 35 35 36 36 37 37 38 38 39 39 40 40 86 41 41 42 85 43
REMARK SMILES IDX 42 44 43 45 44 46 79 47 45 48 84 49 78 50 80 51 46 52 83 53
REMARK SMILES IDX 77 54 76 55 47 57 69 58 54 59 68 60 55 61 58 62 67 63 81 64
REMARK SMILES IDX 56 65 57 66 66 68 82 69 59 70 48 71 49 72 53 73 50 74 52 75
REMARK SMILES IDX 51 76 70 77 71 78 75 79 72 80 74 81 73 82 60 83 61 84 65 85
REMARK SMILES IDX 62 86 64 87 63 88
REMARK H PARENT 80 56 58 67
REMARK Flexibility Score: inf
ROOT
ATOM      1  C   UNL A   1      34.399  31.189  28.015  1.00  0.00     0.188 C 
ENDROOT
BRANCH   1   2
ATOM      2  C   UNL A   1      34.312  30.049  26.998  1.00  0.00     0.188 C 
BRANCH   2   3
ATOM      3  O   UNL A   1      33.035  29.588  26.606  1.00  0.00    -0.376 OA
BRANCH   3   4
ATOM      4  C   UNL A   1      32.677  29.631  25.228  1.00  0.00     0.202 C 
BRANCH   4   5
ATOM      5  C   UNL A   1      31.358  29.019  24.733  1.00  0.00     0.261 C 
BRANCH   5   6
ATOM      6  O   UNL A   1      30.816  27.962  25.555  1.00  0.00    -0.462 OA
BRANCH   6   7
ATOM      7  C   UNL A   1      30.700  26.718  25.011  1.00  0.00     0.323 C 
ATOM      8  O   UNL A   1      29.794  26.384  24.252  1.00  0.00    -0.251 OA
BRANCH   7   9
ATOM      9  C   UNL A   1      31.828  25.742  25.407  1.00  0.00     0.189 C 
ATOM     10  C   UNL A   1      30.597  23.659  26.248  1.00  0.00     0.042 C 
ATOM     11  C   UNL A   1      31.548  24.254  25.254  1.00  0.00    -0.039 C 
ATOM     12  C   UNL A   1      32.195  23.617  24.257  1.00  0.00     0.012 C 
ATOM     13  C   UNL A   1      32.290  22.235  23.791  1.00  0.00    -0.022 C 
ATOM     14  C   UNL A   1      33.061  24.576  23.521  1.00  0.00     0.109 C 
ATOM     15  S   UNL A   1      33.321  26.043  24.415  1.00  0.00    -0.086 SA
ATOM     16  C   UNL A   1      32.854  22.069  22.576  1.00  0.00     0.079 C 
ATOM     17  N   UNL A   1      33.608  24.389  22.376  1.00  0.00    -0.202 NA
ATOM     18  C   UNL A   1      33.321  23.212  21.734  1.00  0.00     0.271 C 
ATOM     19  O   UNL A   1      33.501  23.034  20.537  1.00  0.00    -0.267 OA
BRANCH  13  20
ATOM     20  C   UNL A   1      31.989  21.079  24.722  1.00  0.00     0.111 C 
BRANCH  20  21
ATOM     21  S   UNL A   1      33.113  20.798  26.142  1.00  0.00    -0.118 SA
BRANCH  21  22
ATOM     22  C   UNL A   1      34.804  21.144  25.590  1.00  0.00     0.045 A 
ATOM     23  C   UNL A   1      35.642  20.244  24.898  1.00  0.00     0.056 A 
ATOM     24  C   UNL A   1      35.398  22.375  25.975  1.00  0.00     0.056 A 
ATOM     25  Cl  UNL A   1      35.278  18.568  24.667  1.00  0.00    -0.083 Cl
ATOM     26  C   UNL A   1      36.922  20.626  24.454  1.00  0.00     0.022 A 
ATOM     27  C   UNL A   1      36.718  22.707  25.614  1.00  0.00     0.022 A 
ATOM     28  Cl  UNL A   1      34.551  23.594  26.879  1.00  0.00    -0.083 Cl
ATOM     29  C   UNL A   1      37.460  21.857  24.803  1.00  0.00     0.003 A 
ENDBRANCH  21  22
ENDBRANCH  20  21
ENDBRANCH  13  20
ENDBRANCH   7   9
ENDBRANCH   6   7
ENDBRANCH   5   6
ENDBRANCH   4   5
ENDBRANCH   3   4
ENDBRANCH   2   3
ENDBRANCH   1   2
BRANCH   1  30
ATOM     30  O   UNL A   1      35.395  32.168  27.802  1.00  0.00    -0.377 OA
BRANCH  30  31
ATOM     31  C   UNL A   1      35.207  33.510  28.244  1.00  0.00     0.188 C 
BRANCH  31  32
ATOM     32  C   UNL A   1      34.010  33.907  29.133  1.00  0.00     0.188 C 
BRANCH  32  33
ATOM     33  O   UNL A   1      34.288  34.868  30.139  1.00  0.00    -0.376 OA
BRANCH  33  34
ATOM     34  C   UNL A   1      34.875  34.408  31.347  1.00  0.00     0.202 C 
BRANCH  34  35
ATOM     35  C   UNL A   1      34.319  33.114  31.931  1.00  0.00     0.261 C 
BRANCH  35  36
ATOM     36  O   UNL A   1      35.213  32.009  31.899  1.00  0.00    -0.460 OA
BRANCH  36  37
ATOM     37  C   UNL A   1      36.210  32.019  32.801  1.00  0.00     0.338 C 
ATOM     38  O   UNL A   1      36.179  32.367  33.965  1.00  0.00    -0.246 OA
BRANCH  37  39
ATOM     39  C   UNL A   1      37.337  31.423  32.093  1.00  0.00     0.060 A 
ATOM     40  C   UNL A   1      38.352  30.803  32.825  1.00  0.00     0.016 A 
ATOM     41  C   UNL A   1      37.307  31.399  30.698  1.00  0.00     0.016 A 
ATOM     42  C   UNL A   1      39.380  30.166  32.144  1.00  0.00     0.010 A 
ATOM     43  C   UNL A   1      38.333  30.760  30.021  1.00  0.00     0.010 A 
ATOM     44  C   UNL A   1      39.383  30.167  30.742  1.00  0.00    -0.014 A 
BRANCH  44  45
ATOM     45  C   UNL A   1      40.575  29.714  30.007  1.00  0.00     0.031 A 
ATOM     46  C   UNL A   1      41.634  30.732  29.708  1.00  0.00     0.074 A 
ATOM     47  C   UNL A   1      40.684  28.440  29.602  1.00  0.00     0.049 A 
ATOM     48  N   UNL A   1      42.719  30.613  28.993  1.00  0.00    -0.248 NA
ATOM     49  C   UNL A   1      41.431  32.074  30.283  1.00  0.00     0.031 C 
ATOM     50  C   UNL A   1      39.711  27.381  29.866  1.00  0.00     0.029 A 
ATOM     51  N   UNL A   1      41.662  27.828  28.865  1.00  0.00    -0.354 N 
ATOM     52  C   UNL A   1      43.315  31.867  29.013  1.00  0.00     0.074 A 
ATOM     53  C   UNL A   1      42.462  32.739  29.788  1.00  0.00     0.031 C 
ATOM     54  C   UNL A   1      40.143  26.243  29.296  1.00  0.00     0.029 A 
ATOM     55  C   UNL A   1      41.392  26.510  28.589  1.00  0.00     0.049 A 
ATOM     56  H   UNL A   1      42.479  28.288  28.563  1.00  0.00     0.167 HD
ATOM     57  C   UNL A   1      44.473  32.253  28.433  1.00  0.00     0.031 A 
ATOM     58  C   UNL A   1      42.071  25.639  27.820  1.00  0.00     0.031 A 
ATOM     59  C   UNL A   1      45.294  31.374  27.649  1.00  0.00     0.049 A 
ATOM     60  C   UNL A   1      43.327  26.108  27.137  1.00  0.00     0.074 A 
ATOM     61  C   UNL A   1      46.493  31.645  27.016  1.00  0.00     0.029 A 
ATOM     62  N   UNL A   1      44.989  30.046  27.386  1.00  0.00    -0.354 N 
ATOM     63  N   UNL A   1      43.901  27.288  27.178  1.00  0.00    -0.248 NA
ATOM     64  C   UNL A   1      44.035  25.125  26.305  1.00  0.00     0.031 C 
ATOM     65  C   UNL A   1      46.887  30.494  26.328  1.00  0.00     0.029 A 
ATOM     66  C   UNL A   1      45.968  29.488  26.587  1.00  0.00     0.049 A 
ATOM     67  H   UNL A   1      44.193  29.572  27.720  1.00  0.00     0.167 HD
ATOM     68  C   UNL A   1      45.052  27.181  26.408  1.00  0.00     0.074 A 
ATOM     69  C   UNL A   1      45.099  25.817  25.919  1.00  0.00     0.031 C 
ATOM     70  C   UNL A   1      45.990  28.120  26.133  1.00  0.00     0.031 A 
BRANCH  57  71
ATOM     71  C   UNL A   1      44.881  33.690  28.596  1.00  0.00    -0.014 A 
ATOM     72  C   UNL A   1      44.478  34.674  27.678  1.00  0.00     0.009 A 
ATOM     73  C   UNL A   1      45.681  34.066  29.685  1.00  0.00     0.009 A 
ATOM     74  C   UNL A   1      44.901  35.996  27.826  1.00  0.00     0.001 A 
ATOM     75  C   UNL A   1      46.077  35.394  29.849  1.00  0.00     0.001 A 
ATOM     76  C   UNL A   1      45.696  36.356  28.915  1.00  0.00     0.000 A 
ENDBRANCH  57  71
BRANCH  58  77
ATOM     77  C   UNL A   1      41.570  24.250  27.643  1.00  0.00    -0.014 A 
ATOM     78  C   UNL A   1      40.667  23.942  26.613  1.00  0.00     0.009 A 
ATOM     79  C   UNL A   1      41.990  23.222  28.502  1.00  0.00     0.009 A 
ATOM     80  C   UNL A   1      40.177  22.642  26.465  1.00  0.00     0.001 A 
ATOM     81  C   UNL A   1      41.523  21.918  28.333  1.00  0.00     0.001 A 
ATOM     82  C   UNL A   1      40.608  21.630  27.321  1.00  0.00     0.000 A 
ENDBRANCH  58  77
BRANCH  70  83
ATOM     83  C   UNL A   1      47.177  27.691  25.319  1.00  0.00    -0.014 A 
ATOM     84  C   UNL A   1      47.176  27.773  23.918  1.00  0.00     0.009 A 
ATOM     85  C   UNL A   1      48.342  27.264  25.978  1.00  0.00     0.009 A 
ATOM     86  C   UNL A   1      48.312  27.412  23.193  1.00  0.00     0.001 A 
ATOM     87  C   UNL A   1      49.484  26.934  25.252  1.00  0.00     0.001 A 
ATOM     88  C   UNL A   1      49.467  27.001  23.860  1.00  0.00     0.000 A 
ENDBRANCH  70  83
ENDBRANCH  44  45
ENDBRANCH  37  39
ENDBRANCH  36  37
ENDBRANCH  35  36
ENDBRANCH  34  35
ENDBRANCH  33  34
ENDBRANCH  32  33
ENDBRANCH  31  32
ENDBRANCH  30  31
ENDBRANCH   1  30
TORSDOF 23
ENDMDL
MODEL 3
REMARK VINA RESULT:      -9.3      1.533      5.949
REMARK SMILES CC1=C2C(CSc3c(Cl)cccc3Cl)=CC(=O)N=C2S[C@H]1C(=O)OCCOCCOCCOCCOC(=O)c1ccc(-c2c3nc(c(-c4ccccc4)c4ccc([nH]4)c(-c4ccccc4)c4nc(c(-c5ccccc5)c5ccc2[nH]5)C=C4)C=C3)cc1
REMARK SMILES IDX 29 1 28 2 27 3 26 4 25 5 24 6 22 7 23 8 21 9 1 10 2 11 3 12
REMARK SMILES IDX 4 13 19 14 20 15 15 16 18 17 16 18 17 19 5 20 6 21 7 22 8 23
REMARK SMILES IDX 13 24 9 25 10 26 12 27 14 28 11 29 30 30 31 31 32 32 33 33
REMARK SMILES IDX 34 34 35 35 36 36 37 37 38 38 39 39 40 40 86 41 41 42 85 43
REMARK SMILES IDX 42 44 43 45 44 46 79 47 45 48 84 49 78 50 80 51 46 52 83 53
REMARK SMILES IDX 77 54 76 55 47 57 69 58 54 59 68 60 55 61 58 62 67 63 81 64
REMARK SMILES IDX 56 65 57 66 66 68 82 69 59 70 48 71 49 72 53 73 50 74 52 75
REMARK SMILES IDX 51 76 70 77 71 78 75 79 72 80 74 81 73 82 60 83 61 84 65 85
REMARK SMILES IDX 62 86 64 87 63 88
REMARK H PARENT 80 56 58 67
REMARK Flexibility Score: inf
ROOT
ATOM      1  C   UNL A   1      34.163  30.660  27.816  1.00  0.00     0.188 C 
ENDROOT
BRANCH   1   2
ATOM      2  C   UNL A   1      33.989  29.485  26.852  1.00  0.00     0.188 C 
BRANCH   2   3
ATOM      3  O   UNL A   1      32.708  29.239  26.309  1.00  0.00    -0.376 OA
BRANCH   3   4
ATOM      4  C   UNL A   1      32.279  29.992  25.180  1.00  0.00     0.202 C 
BRANCH   4   5
ATOM      5  C   UNL A   1      31.119  29.507  24.297  1.00  0.00     0.261 C 
BRANCH   5   6
ATOM      6  O   UNL A   1      30.351  28.405  24.831  1.00  0.00    -0.462 OA
BRANCH   6   7
ATOM      7  C   UNL A   1      30.478  27.186  24.238  1.00  0.00     0.323 C 
ATOM      8  O   UNL A   1      29.753  26.786  23.329  1.00  0.00    -0.251 OA
BRANCH   7   9
ATOM      9  C   UNL A   1      31.640  26.329  24.785  1.00  0.00     0.189 C 
ATOM     10  C   UNL A   1      30.482  24.382  25.981  1.00  0.00     0.042 C 
ATOM     11  C   UNL A   1      31.410  24.828  24.891  1.00  0.00    -0.039 C 
ATOM     12  C   UNL A   1      32.074  24.052  24.012  1.00  0.00     0.012 C 
ATOM     13  C   UNL A   1      32.214  22.614  23.789  1.00  0.00    -0.022 C 
ATOM     14  C   UNL A   1      32.905  24.897  23.114  1.00  0.00     0.109 C 
ATOM     15  S   UNL A   1      33.118  26.504  23.741  1.00  0.00    -0.086 SA
ATOM     16  C   UNL A   1      32.780  22.260  22.615  1.00  0.00     0.079 C 
ATOM     17  N   UNL A   1      33.454  24.535  22.014  1.00  0.00    -0.202 NA
ATOM     18  C   UNL A   1      33.204  23.257  21.585  1.00  0.00     0.271 C 
ATOM     19  O   UNL A   1      33.386  22.882  20.435  1.00  0.00    -0.267 OA
BRANCH  13  20
ATOM     20  C   UNL A   1      31.955  21.625  24.906  1.00  0.00     0.111 C 
BRANCH  20  21
ATOM     21  S   UNL A   1      33.250  21.409  26.185  1.00  0.00    -0.118 SA
BRANCH  21  22
ATOM     22  C   UNL A   1      34.828  21.952  25.477  1.00  0.00     0.045 A 
ATOM     23  C   UNL A   1      35.752  21.125  24.804  1.00  0.00     0.056 A 
ATOM     24  C   UNL A   1      35.243  23.290  25.706  1.00  0.00     0.056 A 
ATOM     25  Cl  UNL A   1      35.644  19.398  24.750  1.00  0.00    -0.083 Cl
ATOM     26  C   UNL A   1      36.926  21.651  24.232  1.00  0.00     0.022 A 
ATOM     27  C   UNL A   1      36.468  23.780  25.217  1.00  0.00     0.022 A 
ATOM     28  Cl  UNL A   1      34.272  24.449  26.563  1.00  0.00    -0.083 Cl
ATOM     29  C   UNL A   1      37.284  22.977  24.430  1.00  0.00     0.003 A 
ENDBRANCH  21  22
ENDBRANCH  20  21
ENDBRANCH  13  20
ENDBRANCH   7   9
ENDBRANCH   6   7
ENDBRANCH   5   6
ENDBRANCH   4   5
ENDBRANCH   3   4
ENDBRANCH   2   3
ENDBRANCH   1   2
BRANCH   1  30
ATOM     30  O   UNL A   1      35.311  31.466  27.648  1.00  0.00    -0.377 OA
BRANCH  30  31
ATOM     31  C   UNL A   1      35.291  32.848  27.996  1.00  0.00     0.188 C 
BRANCH  31  32
ATOM     32  C   UNL A   1      34.180  33.439  28.890  1.00  0.00     0.188 C 
BRANCH  32  33
ATOM     33  O   UNL A   1      34.589  34.474  29.770  1.00  0.00    -0.376 OA
BRANCH  33  34
ATOM     34  C   UNL A   1      35.191  34.096  30.999  1.00  0.00     0.202 C 
BRANCH  34  35
ATOM     35  C   UNL A   1      34.603  32.881  31.705  1.00  0.00     0.261 C 
BRANCH  35  36
ATOM     36  O   UNL A   1      35.443  31.735  31.726  1.00  0.00    -0.460 OA
BRANCH  36  37
ATOM     37  C   UNL A   1      36.440  31.738  32.629  1.00  0.00     0.338 C 
ATOM     38  O   UNL A   1      36.392  32.004  33.814  1.00  0.00    -0.246 OA
BRANCH  37  39
ATOM     39  C   UNL A   1      37.597  31.255  31.885  1.00  0.00     0.060 A 
ATOM     40  C   UNL A   1      38.681  30.716  32.582  1.00  0.00     0.016 A 
ATOM     41  C   UNL A   1      37.535  31.251  30.491  1.00  0.00     0.016 A 
ATOM     42  C   UNL A   1      39.744  30.183  31.866  1.00  0.00     0.010 A 
ATOM     43  C   UNL A   1      38.596  30.716  29.778  1.00  0.00     0.010 A 
ATOM     44  C   UNL A   1      39.711  30.207  30.465  1.00  0.00    -0.014 A 
BRANCH  44  45
ATOM     45  C   UNL A   1      40.920  29.872  29.694  1.00  0.00     0.031 A 
ATOM     46  C   UNL A   1      41.042  28.476  29.165  1.00  0.00     0.074 A 
ATOM     47  C   UNL A   1      41.882  30.787  29.502  1.00  0.00     0.049 A 
ATOM     48  N   UNL A   1      42.043  27.906  28.552  1.00  0.00    -0.248 NA
ATOM     49  C   UNL A   1      39.877  27.595  29.371  1.00  0.00     0.031 C 
ATOM     50  C   UNL A   1      41.838  32.174  29.965  1.00  0.00     0.029 A 
ATOM     51  N   UNL A   1      43.097  30.676  28.879  1.00  0.00    -0.354 N 
ATOM     52  C   UNL A   1      41.639  26.597  28.320  1.00  0.00     0.074 A 
ATOM     53  C   UNL A   1      40.314  26.448  28.878  1.00  0.00     0.031 C 
ATOM     54  C   UNL A   1      42.979  32.787  29.609  1.00  0.00     0.029 A 
ATOM     55  C   UNL A   1      43.848  31.823  28.940  1.00  0.00     0.049 A 
ATOM     56  H   UNL A   1      43.400  29.853  28.431  1.00  0.00     0.167 HD
ATOM     57  C   UNL A   1      42.318  25.610  27.696  1.00  0.00     0.031 A 
ATOM     58  C   UNL A   1      45.110  32.045  28.528  1.00  0.00     0.031 A 
ATOM     59  C   UNL A   1      43.644  25.775  27.168  1.00  0.00     0.049 A 
ATOM     60  C   UNL A   1      45.867  30.913  27.887  1.00  0.00     0.074 A 
ATOM     61  C   UNL A   1      44.433  24.852  26.508  1.00  0.00     0.029 A 
ATOM     62  N   UNL A   1      44.377  26.951  27.250  1.00  0.00    -0.354 N 
ATOM     63  N   UNL A   1      45.474  29.684  27.647  1.00  0.00    -0.248 NA
ATOM     64  C   UNL A   1      47.242  31.198  27.454  1.00  0.00     0.031 C 
ATOM     65  C   UNL A   1      45.664  25.455  26.236  1.00  0.00     0.029 A 
ATOM     66  C   UNL A   1      45.617  26.772  26.667  1.00  0.00     0.049 A 
ATOM     67  H   UNL A   1      44.060  27.787  27.661  1.00  0.00     0.167 HD
ATOM     68  C   UNL A   1      46.536  29.059  27.007  1.00  0.00     0.074 A 
ATOM     69  C   UNL A   1      47.588  30.049  26.888  1.00  0.00     0.031 C 
ATOM     70  C   UNL A   1      46.634  27.786  26.552  1.00  0.00     0.031 A 
BRANCH  57  71
ATOM     71  C   UNL A   1      41.650  24.268  27.598  1.00  0.00    -0.014 A 
ATOM     72  C   UNL A   1      42.005  23.210  28.451  1.00  0.00     0.009 A 
ATOM     73  C   UNL A   1      40.649  24.058  26.638  1.00  0.00     0.009 A 
ATOM     74  C   UNL A   1      41.399  21.959  28.317  1.00  0.00     0.001 A 
ATOM     75  C   UNL A   1      40.022  22.816  26.526  1.00  0.00     0.001 A 
ATOM     76  C   UNL A   1      40.404  21.765  27.358  1.00  0.00     0.000 A 
ENDBRANCH  57  71
BRANCH  58  77
ATOM     77  C   UNL A   1      45.737  33.379  28.722  1.00  0.00    -0.014 A 
ATOM     78  C   UNL A   1      45.369  34.466  27.913  1.00  0.00     0.009 A 
ATOM     79  C   UNL A   1      46.707  33.576  29.717  1.00  0.00     0.009 A 
ATOM     80  C   UNL A   1      45.979  35.712  28.080  1.00  0.00     0.001 A 
ATOM     81  C   UNL A   1      47.293  34.830  29.902  1.00  0.00     0.001 A 
ATOM     82  C   UNL A   1      46.936  35.895  29.076  1.00  0.00     0.000 A 
ENDBRANCH  58  77
BRANCH  70  83
ATOM     83  C   UNL A   1      47.895  27.409  25.829  1.00  0.00    -0.014 A 
ATOM     84  C   UNL A   1      49.000  26.874  26.508  1.00  0.00     0.009 A 
ATOM     85  C   UNL A   1      47.944  27.527  24.430  1.00  0.00     0.009 A 
ATOM     86  C   UNL A   1      50.139  26.488  25.800  1.00  0.00     0.001 A 
ATOM     87  C   UNL A   1      49.072  27.112  23.724  1.00  0.00     0.001 A 
ATOM     88  C   UNL A   1      50.171  26.599  24.410  1.00  0.00     0.000 A 
ENDBRANCH  70  83
ENDBRANCH  44  45
ENDBRANCH  37  39
ENDBRANCH  36  37
ENDBRANCH  35  36
ENDBRANCH  34  35
ENDBRANCH  33  34
ENDBRANCH  32  33
ENDBRANCH  31  32
ENDBRANCH  30  31
ENDBRANCH   1  30
TORSDOF 23
ENDMDL
