MODEL 1
REMARK VINA RESULT:      -9.3      0.000      0.000
REMARK SMILES Cc1ccsc1CNS(=O)(=O)c1ccc(C(=O)OCCOCCOCCOCCOC(=O)c2ccc(-c3c4nc(c(-c5ccccc5)c5ccc([nH]5)c(-c5ccccc5)c5nc(c(-c6ccccc6)c6ccc3[nH]6)C=C5)C=C4)cc2)s1
REMARK SMILES IDX 23 1 22 2 21 3 20 4 19 5 18 6 16 7 17 8 15 9 12 10 13 11
REMARK SMILES IDX 81 12 14 13 9 14 10 15 11 16 8 17 7 19 6 20 1 21 2 22 3 23
REMARK SMILES IDX 4 24 5 25 24 26 25 27 26 28 27 29 28 30 29 31 30 32 31 33
REMARK SMILES IDX 32 34 33 35 34 36 80 37 35 38 79 39 36 40 37 41 38 42 73 43
REMARK SMILES IDX 39 44 78 45 72 46 74 47 40 48 77 49 71 50 70 51 41 53 63 54
REMARK SMILES IDX 48 55 62 56 49 57 52 58 61 59 75 60 50 61 51 62 60 64 76 65
REMARK SMILES IDX 53 66 42 67 43 68 47 69 44 70 46 71 45 72 64 73 65 74 69 75
REMARK SMILES IDX 66 76 68 77 67 78 54 79 55 80 59 81 56 82 58 83 57 84
REMARK H PARENT 8 18 74 52 52 63
REMARK Flexibility Score: inf
ROOT
ATOM      1  C   UNL A   1      42.234  20.751  25.987  1.00  0.00     0.188 C 
ENDROOT
BRANCH   1   2
ATOM      2  C   UNL A   1      41.634  20.481  27.376  1.00  0.00     0.188 C 
BRANCH   2   3
ATOM      3  O   UNL A   1      40.219  20.667  27.422  1.00  0.00    -0.376 OA
BRANCH   3   4
ATOM      4  C   UNL A   1      39.549  20.698  26.165  1.00  0.00     0.202 C 
BRANCH   4   5
ATOM      5  C   UNL A   1      38.798  21.999  25.841  1.00  0.00     0.261 C 
BRANCH   5   6
ATOM      6  O   UNL A   1      37.381  21.852  25.652  1.00  0.00    -0.459 OA
BRANCH   6   7
ATOM      7  C   UNL A   1      36.592  22.911  25.965  1.00  0.00     0.348 C 
ATOM      8  O   UNL A   1      37.006  24.053  26.133  1.00  0.00    -0.245 OA
BRANCH   7   9
ATOM      9  C   UNL A   1      35.205  22.488  25.922  1.00  0.00     0.113 A 
ATOM     10  C   UNL A   1      32.728  22.587  25.900  1.00  0.00     0.135 A 
ATOM     11  C   UNL A   1      33.212  21.406  25.369  1.00  0.00     0.034 A 
ATOM     12  S   UNL A   1      34.000  23.530  26.538  1.00  0.00    -0.115 S 
ATOM     13  C   UNL A   1      34.639  21.347  25.381  1.00  0.00     0.029 A 
BRANCH  10  14
ATOM     14  S   UNL A   1      31.069  23.213  26.070  1.00  0.00     0.250 S 
ATOM     15  O   UNL A   1      31.092  24.045  27.251  1.00  0.00    -0.206 OA
ATOM     16  O   UNL A   1      30.235  22.032  26.003  1.00  0.00    -0.206 OA
BRANCH  14  17
ATOM     17  N   UNL A   1      30.617  24.170  24.754  1.00  0.00    -0.205 NA
ATOM     18  H   UNL A   1      31.404  24.190  24.104  1.00  0.00     0.141 HD
BRANCH  17  19
ATOM     19  C   UNL A   1      30.245  25.562  25.045  1.00  0.00     0.145 C 
BRANCH  19  20
ATOM     20  C   UNL A   1      31.199  26.538  24.410  1.00  0.00     0.022 A 
ATOM     21  C   UNL A   1      32.689  27.125  26.434  1.00  0.00     0.045 C 
ATOM     22  C   UNL A   1      32.277  27.194  24.997  1.00  0.00    -0.036 A 
ATOM     23  C   UNL A   1      33.018  27.943  24.022  1.00  0.00     0.015 A 
ATOM     24  C   UNL A   1      32.495  27.840  22.756  1.00  0.00     0.065 A 
ATOM     25  S   UNL A   1      31.110  26.850  22.720  1.00  0.00    -0.147 S 
ENDBRANCH  19  20
ENDBRANCH  17  19
ENDBRANCH  14  17
ENDBRANCH  10  14
ENDBRANCH   7   9
ENDBRANCH   6   7
ENDBRANCH   5   6
ENDBRANCH   4   5
ENDBRANCH   3   4
ENDBRANCH   2   3
ENDBRANCH   1   2
BRANCH   1  26
ATOM     26  O   UNL A   1      42.503  19.563  25.263  1.00  0.00    -0.377 OA
BRANCH  26  27
ATOM     27  C   UNL A   1      43.797  18.980  25.409  1.00  0.00     0.188 C 
BRANCH  27  28
ATOM     28  C   UNL A   1      45.056  19.652  24.818  1.00  0.00     0.188 C 
BRANCH  28  29
ATOM     29  O   UNL A   1      44.799  20.450  23.663  1.00  0.00    -0.376 OA
BRANCH  29  30
ATOM     30  C   UNL A   1      44.896  21.860  23.833  1.00  0.00     0.202 C 
BRANCH  30  31
ATOM     31  C   UNL A   1      45.554  22.266  25.158  1.00  0.00     0.261 C 
BRANCH  31  32
ATOM     32  O   UNL A   1      44.789  23.195  25.943  1.00  0.00    -0.460 OA
BRANCH  32  33
ATOM     33  C   UNL A   1      44.928  24.506  25.649  1.00  0.00     0.338 C 
ATOM     34  O   UNL A   1      45.490  24.994  24.685  1.00  0.00    -0.246 OA
BRANCH  33  35
ATOM     35  C   UNL A   1      44.117  25.272  26.612  1.00  0.00     0.060 A 
ATOM     36  C   UNL A   1      44.312  26.655  26.708  1.00  0.00     0.016 A 
ATOM     37  C   UNL A   1      43.179  24.627  27.422  1.00  0.00     0.016 A 
ATOM     38  C   UNL A   1      43.594  27.393  27.649  1.00  0.00     0.010 A 
ATOM     39  C   UNL A   1      42.472  25.363  28.372  1.00  0.00     0.010 A 
ATOM     40  C   UNL A   1      42.702  26.743  28.511  1.00  0.00    -0.014 A 
BRANCH  40  41
ATOM     41  C   UNL A   1      42.146  27.457  29.682  1.00  0.00     0.031 A 
ATOM     42  C   UNL A   1      40.844  28.191  29.518  1.00  0.00     0.074 A 
ATOM     43  C   UNL A   1      42.787  27.469  30.863  1.00  0.00     0.049 A 
ATOM     44  N   UNL A   1      40.194  28.930  30.379  1.00  0.00    -0.248 NA
ATOM     45  C   UNL A   1      40.189  28.077  28.204  1.00  0.00     0.031 C 
ATOM     46  C   UNL A   1      44.036  26.772  31.159  1.00  0.00     0.029 A 
ATOM     47  N   UNL A   1      42.469  28.110  32.035  1.00  0.00    -0.354 N 
ATOM     48  C   UNL A   1      39.058  29.370  29.713  1.00  0.00     0.074 A 
ATOM     49  C   UNL A   1      39.118  28.837  28.369  1.00  0.00     0.031 C 
ATOM     50  C   UNL A   1      44.387  27.033  32.431  1.00  0.00     0.029 A 
ATOM     51  C   UNL A   1      43.404  27.938  33.024  1.00  0.00     0.049 A 
ATOM     52  H   UNL A   1      41.649  28.643  32.153  1.00  0.00     0.167 HD
ATOM     53  C   UNL A   1      38.051  30.145  30.176  1.00  0.00     0.031 A 
ATOM     54  C   UNL A   1      43.467  28.472  34.260  1.00  0.00     0.031 A 
ATOM     55  C   UNL A   1      37.999  30.700  31.501  1.00  0.00     0.049 A 
ATOM     56  C   UNL A   1      42.381  29.405  34.722  1.00  0.00     0.074 A 
ATOM     57  C   UNL A   1      37.014  31.489  32.068  1.00  0.00     0.029 A 
ATOM     58  N   UNL A   1      38.985  30.535  32.460  1.00  0.00    -0.354 N 
ATOM     59  N   UNL A   1      41.294  29.786  34.095  1.00  0.00    -0.248 NA
ATOM     60  C   UNL A   1      42.532  29.982  36.066  1.00  0.00     0.031 C 
ATOM     61  C   UNL A   1      37.429  31.843  33.357  1.00  0.00     0.029 A 
ATOM     62  C   UNL A   1      38.648  31.233  33.607  1.00  0.00     0.049 A 
ATOM     63  H   UNL A   1      39.804  30.000  32.343  1.00  0.00     0.167 HD
ATOM     64  C   UNL A   1      40.622  30.627  34.975  1.00  0.00     0.074 A 
ATOM     65  C   UNL A   1      41.417  30.689  36.185  1.00  0.00     0.031 C 
ATOM     66  C   UNL A   1      39.452  31.287  34.799  1.00  0.00     0.031 A 
BRANCH  53  67
ATOM     67  C   UNL A   1      36.939  30.465  29.221  1.00  0.00    -0.014 A 
ATOM     68  C   UNL A   1      36.776  31.760  28.703  1.00  0.00     0.009 A 
ATOM     69  C   UNL A   1      36.052  29.455  28.822  1.00  0.00     0.009 A 
ATOM     70  C   UNL A   1      35.726  32.043  27.828  1.00  0.00     0.001 A 
ATOM     71  C   UNL A   1      35.016  29.736  27.928  1.00  0.00     0.001 A 
ATOM     72  C   UNL A   1      34.850  31.030  27.439  1.00  0.00     0.000 A 
ENDBRANCH  53  67
BRANCH  54  73
ATOM     73  C   UNL A   1      44.617  28.162  35.148  1.00  0.00    -0.014 A 
ATOM     74  C   UNL A   1      45.808  28.897  35.058  1.00  0.00     0.009 A 
ATOM     75  C   UNL A   1      44.538  27.106  36.070  1.00  0.00     0.009 A 
ATOM     76  C   UNL A   1      46.905  28.567  35.857  1.00  0.00     0.001 A 
ATOM     77  C   UNL A   1      45.629  26.793  36.885  1.00  0.00     0.001 A 
ATOM     78  C   UNL A   1      46.814  27.518  36.772  1.00  0.00     0.000 A 
ENDBRANCH  54  73
BRANCH  66  79
ATOM     79  C   UNL A   1      38.946  32.113  35.948  1.00  0.00    -0.014 A 
ATOM     80  C   UNL A   1      38.074  31.572  36.904  1.00  0.00     0.009 A 
ATOM     81  C   UNL A   1      39.388  33.437  36.099  1.00  0.00     0.009 A 
ATOM     82  C   UNL A   1      37.631  32.351  37.975  1.00  0.00     0.001 A 
ATOM     83  C   UNL A   1      38.964  34.204  37.185  1.00  0.00     0.001 A 
ATOM     84  C   UNL A   1      38.080  33.663  38.117  1.00  0.00     0.000 A 
ENDBRANCH  66  79
ENDBRANCH  40  41
ENDBRANCH  33  35
ENDBRANCH  32  33
ENDBRANCH  31  32
ENDBRANCH  30  31
ENDBRANCH  29  30
ENDBRANCH  28  29
ENDBRANCH  27  28
ENDBRANCH  26  27
ENDBRANCH   1  26
TORSDOF 24
ENDMDL
MODEL 2
REMARK VINA RESULT:      -9.3      3.552      8.429
REMARK SMILES Cc1ccsc1CNS(=O)(=O)c1ccc(C(=O)OCCOCCOCCOCCOC(=O)c2ccc(-c3c4nc(c(-c5ccccc5)c5ccc([nH]5)c(-c5ccccc5)c5nc(c(-c6ccccc6)c6ccc3[nH]6)C=C5)C=C4)cc2)s1
REMARK SMILES IDX 23 1 22 2 21 3 20 4 19 5 18 6 16 7 17 8 15 9 12 10 13 11
REMARK SMILES IDX 81 12 14 13 9 14 10 15 11 16 8 17 7 19 6 20 1 21 2 22 3 23
REMARK SMILES IDX 4 24 5 25 24 26 25 27 26 28 27 29 28 30 29 31 30 32 31 33
REMARK SMILES IDX 32 34 33 35 34 36 80 37 35 38 79 39 36 40 37 41 38 42 73 43
REMARK SMILES IDX 39 44 78 45 72 46 74 47 40 48 77 49 71 50 70 51 41 53 63 54
REMARK SMILES IDX 48 55 62 56 49 57 52 58 61 59 75 60 50 61 51 62 60 64 76 65
REMARK SMILES IDX 53 66 42 67 43 68 47 69 44 70 46 71 45 72 64 73 65 74 69 75
REMARK SMILES IDX 66 76 68 77 67 78 54 79 55 80 59 81 56 82 58 83 57 84
REMARK H PARENT 8 18 74 52 52 63
REMARK Flexibility Score: inf
ROOT
ATOM      1  C   UNL A   1      31.175  25.089  26.298  1.00  0.00     0.188 C 
ENDROOT
BRANCH   1   2
ATOM      2  C   UNL A   1      31.833  23.845  26.917  1.00  0.00     0.188 C 
BRANCH   2   3
ATOM      3  O   UNL A   1      31.192  22.626  26.540  1.00  0.00    -0.376 OA
BRANCH   3   4
ATOM      4  C   UNL A   1      31.359  22.222  25.184  1.00  0.00     0.202 C 
BRANCH   4   5
ATOM      5  C   UNL A   1      32.478  21.199  24.927  1.00  0.00     0.261 C 
BRANCH   5   6
ATOM      6  O   UNL A   1      33.287  21.463  23.769  1.00  0.00    -0.459 OA
BRANCH   6   7
ATOM      7  C   UNL A   1      34.222  22.441  23.866  1.00  0.00     0.348 C 
ATOM      8  O   UNL A   1      35.338  22.283  24.348  1.00  0.00    -0.245 OA
BRANCH   7   9
ATOM      9  C   UNL A   1      33.730  23.625  23.186  1.00  0.00     0.113 A 
ATOM     10  C   UNL A   1      33.441  26.000  22.537  1.00  0.00     0.135 A 
ATOM     11  C   UNL A   1      33.001  25.129  21.557  1.00  0.00     0.034 A 
ATOM     12  S   UNL A   1      33.901  25.147  23.942  1.00  0.00    -0.115 S 
ATOM     13  C   UNL A   1      33.167  23.760  21.930  1.00  0.00     0.029 A 
BRANCH  10  14
ATOM     14  S   UNL A   1      33.535  27.779  22.580  1.00  0.00     0.250 S 
ATOM     15  O   UNL A   1      34.340  28.147  21.438  1.00  0.00    -0.206 OA
ATOM     16  O   UNL A   1      33.966  28.080  23.928  1.00  0.00    -0.206 OA
BRANCH  14  17
ATOM     17  N   UNL A   1      32.015  28.495  22.412  1.00  0.00    -0.205 NA
ATOM     18  H   UNL A   1      31.982  29.299  23.041  1.00  0.00     0.141 HD
BRANCH  17  19
ATOM     19  C   UNL A   1      30.848  27.650  22.708  1.00  0.00     0.145 C 
BRANCH  19  20
ATOM     20  C   UNL A   1      29.565  28.437  22.662  1.00  0.00     0.022 A 
ATOM     21  C   UNL A   1      27.963  26.792  23.841  1.00  0.00     0.045 C 
ATOM     22  C   UNL A   1      28.321  28.084  23.177  1.00  0.00    -0.036 A 
ATOM     23  C   UNL A   1      27.383  29.163  23.043  1.00  0.00     0.015 A 
ATOM     24  C   UNL A   1      27.925  30.273  22.442  1.00  0.00     0.065 A 
ATOM     25  S   UNL A   1      29.561  30.037  22.030  1.00  0.00    -0.147 S 
ENDBRANCH  19  20
ENDBRANCH  17  19
ENDBRANCH  14  17
ENDBRANCH  10  14
ENDBRANCH   7   9
ENDBRANCH   6   7
ENDBRANCH   5   6
ENDBRANCH   4   5
ENDBRANCH   3   4
ENDBRANCH   2   3
ENDBRANCH   1   2
BRANCH   1  26
ATOM     26  O   UNL A   1      31.408  26.267  27.052  1.00  0.00    -0.377 OA
BRANCH  26  27
ATOM     27  C   UNL A   1      31.412  27.510  26.350  1.00  0.00     0.188 C 
BRANCH  27  28
ATOM     28  C   UNL A   1      32.283  28.697  26.816  1.00  0.00     0.188 C 
BRANCH  28  29
ATOM     29  O   UNL A   1      31.533  29.826  27.263  1.00  0.00    -0.376 OA
BRANCH  29  30
ATOM     30  C   UNL A   1      31.414  30.909  26.348  1.00  0.00     0.202 C 
BRANCH  30  31
ATOM     31  C   UNL A   1      31.651  32.279  26.996  1.00  0.00     0.261 C 
BRANCH  31  32
ATOM     32  O   UNL A   1      33.024  32.556  27.317  1.00  0.00    -0.460 OA
BRANCH  32  33
ATOM     33  C   UNL A   1      33.265  33.632  28.096  1.00  0.00     0.338 C 
ATOM     34  O   UNL A   1      32.525  34.575  28.308  1.00  0.00    -0.246 OA
BRANCH  33  35
ATOM     35  C   UNL A   1      34.531  33.393  28.814  1.00  0.00     0.060 A 
ATOM     36  C   UNL A   1      35.732  33.784  28.208  1.00  0.00     0.016 A 
ATOM     37  C   UNL A   1      34.532  32.779  30.068  1.00  0.00     0.016 A 
ATOM     38  C   UNL A   1      36.946  33.521  28.843  1.00  0.00     0.010 A 
ATOM     39  C   UNL A   1      35.747  32.504  30.696  1.00  0.00     0.010 A 
ATOM     40  C   UNL A   1      36.958  32.844  30.070  1.00  0.00    -0.014 A 
BRANCH  40  41
ATOM     41  C   UNL A   1      38.230  32.319  30.616  1.00  0.00     0.031 A 
ATOM     42  C   UNL A   1      38.790  31.054  30.030  1.00  0.00     0.074 A 
ATOM     43  C   UNL A   1      38.868  32.941  31.623  1.00  0.00     0.049 A 
ATOM     44  N   UNL A   1      39.852  30.376  30.381  1.00  0.00    -0.248 NA
ATOM     45  C   UNL A   1      38.050  30.474  28.896  1.00  0.00     0.031 C 
ATOM     46  C   UNL A   1      38.446  34.189  32.254  1.00  0.00     0.029 A 
ATOM     47  N   UNL A   1      40.010  32.588  32.297  1.00  0.00    -0.354 N 
ATOM     48  C   UNL A   1      39.907  29.292  29.514  1.00  0.00     0.074 A 
ATOM     49  C   UNL A   1      38.760  29.387  28.639  1.00  0.00     0.031 C 
ATOM     50  C   UNL A   1      39.314  34.493  33.236  1.00  0.00     0.029 A 
ATOM     51  C   UNL A   1      40.331  33.446  33.319  1.00  0.00     0.049 A 
ATOM     52  H   UNL A   1      40.547  31.794  32.069  1.00  0.00     0.167 HD
ATOM     53  C   UNL A   1      40.832  28.306  29.449  1.00  0.00     0.031 A 
ATOM     54  C   UNL A   1      41.320  33.377  34.230  1.00  0.00     0.031 A 
ATOM     55  C   UNL A   1      41.958  28.192  30.334  1.00  0.00     0.049 A 
ATOM     56  C   UNL A   1      42.284  32.221  34.195  1.00  0.00     0.074 A 
ATOM     57  C   UNL A   1      42.957  27.234  30.340  1.00  0.00     0.029 A 
ATOM     58  N   UNL A   1      42.226  29.059  31.381  1.00  0.00    -0.354 N 
ATOM     59  N   UNL A   1      42.345  31.220  33.350  1.00  0.00    -0.248 NA
ATOM     60  C   UNL A   1      43.316  32.188  35.242  1.00  0.00     0.031 C 
ATOM     61  C   UNL A   1      43.802  27.494  31.424  1.00  0.00     0.029 A 
ATOM     62  C   UNL A   1      43.357  28.642  32.061  1.00  0.00     0.049 A 
ATOM     63  H   UNL A   1      41.690  29.854  31.607  1.00  0.00     0.167 HD
ATOM     64  C   UNL A   1      43.434  30.453  33.749  1.00  0.00     0.074 A 
ATOM     65  C   UNL A   1      44.011  31.111  34.903  1.00  0.00     0.031 C 
ATOM     66  C   UNL A   1      43.914  29.307  33.208  1.00  0.00     0.031 A 
BRANCH  53  67
ATOM     67  C   UNL A   1      40.633  27.252  28.400  1.00  0.00    -0.014 A 
ATOM     68  C   UNL A   1      39.881  26.096  28.665  1.00  0.00     0.009 A 
ATOM     69  C   UNL A   1      41.193  27.424  27.126  1.00  0.00     0.009 A 
ATOM     70  C   UNL A   1      39.721  25.118  27.682  1.00  0.00     0.001 A 
ATOM     71  C   UNL A   1      41.012  26.455  26.137  1.00  0.00     0.001 A 
ATOM     72  C   UNL A   1      40.284  25.300  26.418  1.00  0.00     0.000 A 
ENDBRANCH  53  67
BRANCH  54  73
ATOM     73  C   UNL A   1      41.441  34.422  35.280  1.00  0.00    -0.014 A 
ATOM     74  C   UNL A   1      42.264  35.541  35.083  1.00  0.00     0.009 A 
ATOM     75  C   UNL A   1      40.757  34.287  36.499  1.00  0.00     0.009 A 
ATOM     76  C   UNL A   1      42.417  36.492  36.093  1.00  0.00     0.001 A 
ATOM     77  C   UNL A   1      40.894  35.253  37.498  1.00  0.00     0.001 A 
ATOM     78  C   UNL A   1      41.730  36.350  37.298  1.00  0.00     0.000 A 
ENDBRANCH  54  73
BRANCH  66  79
ATOM     79  C   UNL A   1      45.137  28.704  33.841  1.00  0.00    -0.014 A 
ATOM     80  C   UNL A   1      46.423  29.162  33.519  1.00  0.00     0.009 A 
ATOM     81  C   UNL A   1      44.994  27.697  34.809  1.00  0.00     0.009 A 
ATOM     82  C   UNL A   1      47.546  28.603  34.132  1.00  0.00     0.001 A 
ATOM     83  C   UNL A   1      46.116  27.159  35.440  1.00  0.00     0.001 A 
ATOM     84  C   UNL A   1      47.391  27.606  35.095  1.00  0.00     0.000 A 
ENDBRANCH  66  79
ENDBRANCH  40  41
ENDBRANCH  33  35
ENDBRANCH  32  33
ENDBRANCH  31  32
ENDBRANCH  30  31
ENDBRANCH  29  30
ENDBRANCH  28  29
ENDBRANCH  27  28
ENDBRANCH  26  27
ENDBRANCH   1  26
TORSDOF 24
ENDMDL
MODEL 3
REMARK VINA RESULT:      -9.2      4.615     10.966
REMARK SMILES Cc1ccsc1CNS(=O)(=O)c1ccc(C(=O)OCCOCCOCCOCCOC(=O)c2ccc(-c3c4nc(c(-c5ccccc5)c5ccc([nH]5)c(-c5ccccc5)c5nc(c(-c6ccccc6)c6ccc3[nH]6)C=C5)C=C4)cc2)s1
REMARK SMILES IDX 23 1 22 2 21 3 20 4 19 5 18 6 16 7 17 8 15 9 12 10 13 11
REMARK SMILES IDX 81 12 14 13 9 14 10 15 11 16 8 17 7 19 6 20 1 21 2 22 3 23
REMARK SMILES IDX 4 24 5 25 24 26 25 27 26 28 27 29 28 30 29 31 30 32 31 33
REMARK SMILES IDX 32 34 33 35 34 36 80 37 35 38 79 39 36 40 37 41 38 42 73 43
REMARK SMILES IDX 39 44 78 45 72 46 74 47 40 48 77 49 71 50 70 51 41 53 63 54
REMARK SMILES IDX 48 55 62 56 49 57 52 58 61 59 75 60 50 61 51 62 60 64 76 65
REMARK SMILES IDX 53 66 42 67 43 68 47 69 44 70 46 71 45 72 64 73 65 74 69 75
REMARK SMILES IDX 66 76 68 77 67 78 54 79 55 80 59 81 56 82 58 83 57 84
REMARK H PARENT 8 18 74 52 52 63
REMARK Flexibility Score: inf
ROOT
ATOM      1  C   UNL A   1      33.921  34.619  29.064  1.00  0.00     0.188 C 
ENDROOT
BRANCH   1   2
ATOM      2  C   UNL A   1      34.174  33.106  29.168  1.00  0.00     0.188 C 
BRANCH   2   3
ATOM      3  O   UNL A   1      33.915  32.409  27.948  1.00  0.00    -0.376 OA
BRANCH   3   4
ATOM      4  C   UNL A   1      34.485  31.109  27.836  1.00  0.00     0.202 C 
BRANCH   4   5
ATOM      5  C   UNL A   1      33.743  30.134  26.906  1.00  0.00     0.261 C 
BRANCH   5   6
ATOM      6  O   UNL A   1      33.446  28.853  27.483  1.00  0.00    -0.459 OA
BRANCH   6   7
ATOM      7  C   UNL A   1      32.239  28.301  27.198  1.00  0.00     0.348 C 
ATOM      8  O   UNL A   1      31.305  28.240  27.989  1.00  0.00    -0.245 OA
BRANCH   7   9
ATOM      9  C   UNL A   1      32.211  27.940  25.793  1.00  0.00     0.113 A 
ATOM     10  C   UNL A   1      32.529  26.646  23.702  1.00  0.00     0.135 A 
ATOM     11  C   UNL A   1      31.543  27.609  23.582  1.00  0.00     0.034 A 
ATOM     12  S   UNL A   1      33.310  26.768  25.215  1.00  0.00    -0.115 S 
ATOM     13  C   UNL A   1      31.359  28.355  24.785  1.00  0.00     0.029 A 
BRANCH  10  14
ATOM     14  S   UNL A   1      33.117  25.409  22.563  1.00  0.00     0.250 S 
ATOM     15  O   UNL A   1      34.163  24.704  23.270  1.00  0.00    -0.206 OA
ATOM     16  O   UNL A   1      33.400  26.148  21.352  1.00  0.00    -0.206 OA
BRANCH  14  17
ATOM     17  N   UNL A   1      31.911  24.301  22.156  1.00  0.00    -0.205 NA
ATOM     18  H   UNL A   1      31.510  24.595  21.264  1.00  0.00     0.141 HD
BRANCH  17  19
ATOM     19  C   UNL A   1      30.804  24.146  23.112  1.00  0.00     0.145 C 
BRANCH  19  20
ATOM     20  C   UNL A   1      31.223  23.359  24.326  1.00  0.00     0.022 A 
ATOM     21  C   UNL A   1      32.401  21.356  23.203  1.00  0.00     0.045 C 
ATOM     22  C   UNL A   1      31.941  22.168  24.373  1.00  0.00    -0.036 A 
ATOM     23  C   UNL A   1      32.251  21.805  25.727  1.00  0.00     0.015 A 
ATOM     24  C   UNL A   1      31.769  22.706  26.646  1.00  0.00     0.065 A 
ATOM     25  S   UNL A   1      30.940  23.992  25.900  1.00  0.00    -0.147 S 
ENDBRANCH  19  20
ENDBRANCH  17  19
ENDBRANCH  14  17
ENDBRANCH  10  14
ENDBRANCH   7   9
ENDBRANCH   6   7
ENDBRANCH   5   6
ENDBRANCH   4   5
ENDBRANCH   3   4
ENDBRANCH   2   3
ENDBRANCH   1   2
BRANCH   1  26
ATOM     26  O   UNL A   1      32.689  35.011  29.644  1.00  0.00    -0.377 OA
BRANCH  26  27
ATOM     27  C   UNL A   1      32.663  36.238  30.372  1.00  0.00     0.188 C 
BRANCH  27  28
ATOM     28  C   UNL A   1      33.158  36.320  31.833  1.00  0.00     0.188 C 
BRANCH  28  29
ATOM     29  O   UNL A   1      33.549  35.063  32.384  1.00  0.00    -0.376 OA
BRANCH  29  30
ATOM     30  C   UNL A   1      34.412  35.109  33.516  1.00  0.00     0.202 C 
BRANCH  30  31
ATOM     31  C   UNL A   1      35.841  34.649  33.206  1.00  0.00     0.261 C 
BRANCH  31  32
ATOM     32  O   UNL A   1      36.121  33.287  33.569  1.00  0.00    -0.460 OA
BRANCH  32  33
ATOM     33  C   UNL A   1      35.876  32.342  32.636  1.00  0.00     0.338 C 
ATOM     34  O   UNL A   1      34.792  31.924  32.270  1.00  0.00    -0.246 OA
BRANCH  33  35
ATOM     35  C   UNL A   1      37.156  32.012  31.983  1.00  0.00     0.060 A 
ATOM     36  C   UNL A   1      37.273  32.192  30.600  1.00  0.00     0.016 A 
ATOM     37  C   UNL A   1      38.227  31.518  32.731  1.00  0.00     0.016 A 
ATOM     38  C   UNL A   1      38.457  31.836  29.952  1.00  0.00     0.010 A 
ATOM     39  C   UNL A   1      39.405  31.149  32.081  1.00  0.00     0.010 A 
ATOM     40  C   UNL A   1      39.511  31.276  30.685  1.00  0.00    -0.014 A 
BRANCH  40  41
ATOM     41  C   UNL A   1      40.652  30.647  29.984  1.00  0.00     0.031 A 
ATOM     42  C   UNL A   1      41.901  31.459  29.782  1.00  0.00     0.074 A 
ATOM     43  C   UNL A   1      40.580  29.387  29.522  1.00  0.00     0.049 A 
ATOM     44  N   UNL A   1      43.002  31.144  29.150  1.00  0.00    -0.248 NA
ATOM     45  C   UNL A   1      41.906  32.810  30.370  1.00  0.00     0.031 C 
ATOM     46  C   UNL A   1      39.441  28.487  29.682  1.00  0.00     0.029 A 
ATOM     47  N   UNL A   1      41.495  28.655  28.806  1.00  0.00    -0.354 N 
ATOM     48  C   UNL A   1      43.828  32.255  29.263  1.00  0.00     0.074 A 
ATOM     49  C   UNL A   1      43.094  33.260  30.000  1.00  0.00     0.031 C 
ATOM     50  C   UNL A   1      39.720  27.322  29.070  1.00  0.00     0.029 A 
ATOM     51  C   UNL A   1      41.042  27.409  28.452  1.00  0.00     0.049 A 
ATOM     52  H   UNL A   1      42.390  28.992  28.570  1.00  0.00     0.167 HD
ATOM     53  C   UNL A   1      45.088  32.424  28.798  1.00  0.00     0.031 A 
ATOM     54  C   UNL A   1      41.623  26.458  27.694  1.00  0.00     0.031 A 
ATOM     55  C   UNL A   1      45.811  31.440  28.042  1.00  0.00     0.049 A 
ATOM     56  C   UNL A   1      42.989  26.705  27.111  1.00  0.00     0.074 A 
ATOM     57  C   UNL A   1      47.098  31.513  27.537  1.00  0.00     0.029 A 
ATOM     58  N   UNL A   1      45.304  30.206  27.670  1.00  0.00    -0.354 N 
ATOM     59  N   UNL A   1      43.774  27.746  27.253  1.00  0.00    -0.248 NA
ATOM     60  C   UNL A   1      43.548  25.642  26.262  1.00  0.00     0.031 C 
ATOM     61  C   UNL A   1      47.349  30.342  26.815  1.00  0.00     0.029 A 
ATOM     62  C   UNL A   1      46.238  29.519  26.915  1.00  0.00     0.049 A 
ATOM     63  H   UNL A   1      44.409  29.868  27.908  1.00  0.00     0.167 HD
ATOM     64  C   UNL A   1      44.926  27.453  26.532  1.00  0.00     0.074 A 
ATOM     65  C   UNL A   1      44.743  26.133  25.966  1.00  0.00     0.031 C 
ATOM     66  C   UNL A   1      46.037  28.209  26.356  1.00  0.00     0.031 A 
BRANCH  53  67
ATOM     67  C   UNL A   1      45.745  33.745  29.070  1.00  0.00    -0.014 A 
ATOM     68  C   UNL A   1      46.494  33.957  30.238  1.00  0.00     0.009 A 
ATOM     69  C   UNL A   1      45.626  34.787  28.139  1.00  0.00     0.009 A 
ATOM     70  C   UNL A   1      47.085  35.198  30.483  1.00  0.00     0.001 A 
ATOM     71  C   UNL A   1      46.237  36.020  28.375  1.00  0.00     0.001 A 
ATOM     72  C   UNL A   1      46.958  36.227  29.549  1.00  0.00     0.000 A 
ENDBRANCH  53  67
BRANCH  54  73
ATOM     73  C   UNL A   1      40.907  25.187  27.414  1.00  0.00    -0.014 A 
ATOM     74  C   UNL A   1      39.802  25.165  26.550  1.00  0.00     0.009 A 
ATOM     75  C   UNL A   1      41.309  23.993  28.035  1.00  0.00     0.009 A 
ATOM     76  C   UNL A   1      39.099  23.978  26.333  1.00  0.00     0.001 A 
ATOM     77  C   UNL A   1      40.617  22.803  27.796  1.00  0.00     0.001 A 
ATOM     78  C   UNL A   1      39.509  22.798  26.953  1.00  0.00     0.000 A 
ENDBRANCH  54  73
BRANCH  66  79
ATOM     79  C   UNL A   1      47.151  27.618  25.539  1.00  0.00    -0.014 A 
ATOM     80  C   UNL A   1      48.146  26.826  26.131  1.00  0.00     0.009 A 
ATOM     81  C   UNL A   1      47.176  27.818  24.149  1.00  0.00     0.009 A 
ATOM     82  C   UNL A   1      49.162  26.269  25.351  1.00  0.00     0.001 A 
ATOM     83  C   UNL A   1      48.178  27.239  23.369  1.00  0.00     0.001 A 
ATOM     84  C   UNL A   1      49.174  26.472  23.971  1.00  0.00     0.000 A 
ENDBRANCH  66  79
ENDBRANCH  40  41
ENDBRANCH  33  35
ENDBRANCH  32  33
ENDBRANCH  31  32
ENDBRANCH  30  31
ENDBRANCH  29  30
ENDBRANCH  28  29
ENDBRANCH  27  28
ENDBRANCH  26  27
ENDBRANCH   1  26
TORSDOF 24
ENDMDL
