MODEL 1
REMARK VINA RESULT:     -10.2      0.000      0.000
REMARK SMILES NS(=O)(=O)c1ccc(-n2nc(C(=O)OCCOCCOCCOCCOC(=O)c3ccc(-c4c5nc(c(-c6ccccc6)c6ccc([nH]6)c(-c6ccccc6)c6nc(c(-c7ccccc7)c7ccc4[nH]7)C=C6)C=C5)cc3)cc2-c2cc3ccccc3s2)cc1
REMARK SMILES IDX 19 1 18 2 17 3 16 4 15 5 14 6 12 7 13 8 11 9 9 10 10 11
REMARK SMILES IDX 78 12 77 13 8 14 5 15 6 16 89 17 7 18 88 19 2 20 3 21 4 22
REMARK SMILES IDX 1 23 79 26 80 27 87 28 81 29 86 30 82 31 85 32 83 33 84 34
REMARK SMILES IDX 20 35 21 36 22 37 23 38 24 39 25 40 26 41 27 42 28 43 29 44
REMARK SMILES IDX 30 45 76 46 31 47 75 48 32 49 33 50 34 51 69 52 35 53 74 54
REMARK SMILES IDX 68 55 70 56 36 57 73 58 67 59 66 60 37 62 59 63 44 64 58 65
REMARK SMILES IDX 45 66 48 67 57 68 71 69 46 70 47 71 56 73 72 74 49 75 38 76
REMARK SMILES IDX 39 77 43 78 40 79 42 80 41 81 60 82 61 83 65 84 62 85 64 86
REMARK SMILES IDX 63 87 50 88 51 89 55 90 52 91 54 92 53 93
REMARK H PARENT 1 24 1 25 70 61 48 72
REMARK Flexibility Score: inf
ROOT
ATOM      1  C   UNL A   1      37.279  21.700  24.493  1.00  0.00     0.188 C 
ENDROOT
BRANCH   1   2
ATOM      2  C   UNL A   1      36.038  22.450  25.025  1.00  0.00     0.188 C 
BRANCH   2   3
ATOM      3  O   UNL A   1      34.932  21.750  25.578  1.00  0.00    -0.376 OA
BRANCH   3   4
ATOM      4  C   UNL A   1      34.420  21.964  26.880  1.00  0.00     0.202 C 
BRANCH   4   5
ATOM      5  C   UNL A   1      32.926  21.996  27.235  1.00  0.00     0.261 C 
BRANCH   5   6
ATOM      6  O   UNL A   1      32.063  22.589  26.280  1.00  0.00    -0.458 OA
BRANCH   6   7
ATOM      7  C   UNL A   1      31.398  23.714  26.671  1.00  0.00     0.358 C 
ATOM      8  O   UNL A   1      30.333  23.723  27.274  1.00  0.00    -0.244 OA
BRANCH   7   9
ATOM      9  C   UNL A   1      32.187  24.899  26.313  1.00  0.00     0.171 A 
ATOM     10  N   UNL A   1      32.873  26.911  26.144  1.00  0.00    -0.231 N 
ATOM     11  N   UNL A   1      32.206  26.069  26.978  1.00  0.00    -0.160 NA
ATOM     12  C   UNL A   1      33.216  26.293  24.966  1.00  0.00     0.085 A 
ATOM     13  C   UNL A   1      33.092  24.947  25.235  1.00  0.00     0.068 A 
BRANCH  10  14
ATOM     14  C   UNL A   1      33.192  28.211  26.557  1.00  0.00     0.065 A 
ATOM     15  C   UNL A   1      33.836  30.763  27.405  1.00  0.00     0.082 A 
ATOM     16  C   UNL A   1      32.491  30.397  27.244  1.00  0.00     0.024 A 
ATOM     17  C   UNL A   1      34.866  29.853  27.144  1.00  0.00     0.024 A 
ATOM     18  C   UNL A   1      32.165  29.119  26.801  1.00  0.00     0.030 A 
ATOM     19  C   UNL A   1      34.540  28.558  26.738  1.00  0.00     0.030 A 
BRANCH  15  20
ATOM     20  S   UNL A   1      34.164  32.409  27.961  1.00  0.00     0.238 S 
ATOM     21  O   UNL A   1      32.992  33.221  27.678  1.00  0.00    -0.207 OA
ATOM     22  O   UNL A   1      35.485  32.773  27.538  1.00  0.00    -0.207 OA
BRANCH  20  23
ATOM     23  N   UNL A   1      34.233  32.307  29.637  1.00  0.00    -0.225 NA
ATOM     24  H   UNL A   1      35.192  32.115  29.928  1.00  0.00     0.137 HD
ATOM     25  H   UNL A   1      33.624  31.553  29.957  1.00  0.00     0.137 HD
ENDBRANCH  20  23
ENDBRANCH  15  20
ENDBRANCH  10  14
BRANCH  12  26
ATOM     26  C   UNL A   1      33.425  26.828  23.644  1.00  0.00     0.054 A 
ATOM     27  C   UNL A   1      32.612  26.637  22.530  1.00  0.00     0.031 A 
ATOM     28  S   UNL A   1      33.748  28.561  23.613  1.00  0.00    -0.134 S 
ATOM     29  C   UNL A   1      31.593  27.682  22.583  1.00  0.00    -0.007 A 
ATOM     30  C   UNL A   1      32.032  28.758  23.370  1.00  0.00     0.035 A 
ATOM     31  C   UNL A   1      30.254  27.691  22.137  1.00  0.00     0.009 A 
ATOM     32  C   UNL A   1      31.158  29.731  23.877  1.00  0.00     0.019 A 
ATOM     33  C   UNL A   1      29.366  28.641  22.659  1.00  0.00     0.001 A 
ATOM     34  C   UNL A   1      29.804  29.613  23.554  1.00  0.00     0.001 A 
ENDBRANCH  12  26
ENDBRANCH   7   9
ENDBRANCH   6   7
ENDBRANCH   5   6
ENDBRANCH   4   5
ENDBRANCH   3   4
ENDBRANCH   2   3
ENDBRANCH   1   2
BRANCH   1  35
ATOM     35  O   UNL A   1      37.244  20.301  24.707  1.00  0.00    -0.377 OA
BRANCH  35  36
ATOM     36  C   UNL A   1      38.331  19.761  25.459  1.00  0.00     0.188 C 
BRANCH  36  37
ATOM     37  C   UNL A   1      39.761  20.337  25.263  1.00  0.00     0.188 C 
BRANCH  37  38
ATOM     38  O   UNL A   1      40.809  19.378  25.295  1.00  0.00    -0.376 OA
BRANCH  38  39
ATOM     39  C   UNL A   1      41.755  19.280  26.343  1.00  0.00     0.202 C 
BRANCH  39  40
ATOM     40  C   UNL A   1      42.992  20.167  26.251  1.00  0.00     0.261 C 
BRANCH  40  41
ATOM     41  O   UNL A   1      43.269  20.591  24.933  1.00  0.00    -0.460 OA
BRANCH  41  42
ATOM     42  C   UNL A   1      44.575  20.590  24.615  1.00  0.00     0.338 C 
ATOM     43  O   UNL A   1      45.276  19.628  24.353  1.00  0.00    -0.246 OA
BRANCH  42  44
ATOM     44  C   UNL A   1      45.073  21.954  24.777  1.00  0.00     0.060 A 
ATOM     45  C   UNL A   1      45.958  22.142  25.835  1.00  0.00     0.016 A 
ATOM     46  C   UNL A   1      44.314  22.995  24.219  1.00  0.00     0.016 A 
ATOM     47  C   UNL A   1      45.826  23.297  26.558  1.00  0.00     0.010 A 
ATOM     48  C   UNL A   1      44.158  24.130  24.959  1.00  0.00     0.010 A 
ATOM     49  C   UNL A   1      44.833  24.204  26.173  1.00  0.00    -0.014 A 
BRANCH  49  50
ATOM     50  C   UNL A   1      44.548  25.297  27.061  1.00  0.00     0.031 A 
ATOM     51  C   UNL A   1      45.638  26.280  27.071  1.00  0.00     0.074 A 
ATOM     52  C   UNL A   1      43.383  25.413  27.717  1.00  0.00     0.049 A 
ATOM     53  N   UNL A   1      46.554  26.416  27.968  1.00  0.00    -0.248 NA
ATOM     54  C   UNL A   1      45.879  27.028  25.826  1.00  0.00     0.031 C 
ATOM     55  C   UNL A   1      42.143  24.655  27.523  1.00  0.00     0.029 A 
ATOM     56  N   UNL A   1      43.038  26.337  28.648  1.00  0.00    -0.354 N 
ATOM     57  C   UNL A   1      47.358  27.442  27.497  1.00  0.00     0.074 A 
ATOM     58  C   UNL A   1      47.059  27.582  26.095  1.00  0.00     0.031 C 
ATOM     59  C   UNL A   1      41.127  25.308  28.138  1.00  0.00     0.029 A 
ATOM     60  C   UNL A   1      41.675  26.434  28.877  1.00  0.00     0.049 A 
ATOM     61  H   UNL A   1      43.701  26.892  29.119  1.00  0.00     0.167 HD
ATOM     62  C   UNL A   1      47.926  28.327  28.357  1.00  0.00     0.031 A 
ATOM     63  C   UNL A   1      41.062  27.431  29.562  1.00  0.00     0.031 A 
ATOM     64  C   UNL A   1      47.908  27.831  29.713  1.00  0.00     0.049 A 
ATOM     65  C   UNL A   1      42.097  28.103  30.385  1.00  0.00     0.074 A 
ATOM     66  C   UNL A   1      48.447  26.745  30.371  1.00  0.00     0.029 A 
ATOM     67  N   UNL A   1      46.896  28.308  30.512  1.00  0.00    -0.354 N 
ATOM     68  N   UNL A   1      42.702  27.536  31.388  1.00  0.00    -0.248 NA
ATOM     69  C   UNL A   1      42.773  29.267  29.832  1.00  0.00     0.031 C 
ATOM     70  C   UNL A   1      47.478  26.379  31.351  1.00  0.00     0.029 A 
ATOM     71  C   UNL A   1      46.416  27.284  31.283  1.00  0.00     0.049 A 
ATOM     72  H   UNL A   1      46.570  29.236  30.528  1.00  0.00     0.167 HD
ATOM     73  C   UNL A   1      44.015  27.982  31.312  1.00  0.00     0.074 A 
ATOM     74  C   UNL A   1      43.966  29.138  30.421  1.00  0.00     0.031 C 
ATOM     75  C   UNL A   1      45.044  27.196  31.744  1.00  0.00     0.031 A 
BRANCH  62  76
ATOM     76  C   UNL A   1      48.010  29.803  28.048  1.00  0.00    -0.014 A 
ATOM     77  C   UNL A   1      46.967  30.387  27.312  1.00  0.00     0.009 A 
ATOM     78  C   UNL A   1      49.184  30.571  28.193  1.00  0.00     0.009 A 
ATOM     79  C   UNL A   1      47.122  31.635  26.698  1.00  0.00     0.001 A 
ATOM     80  C   UNL A   1      49.328  31.834  27.619  1.00  0.00     0.001 A 
ATOM     81  C   UNL A   1      48.304  32.354  26.845  1.00  0.00     0.000 A 
ENDBRANCH  62  76
BRANCH  63  82
ATOM     82  C   UNL A   1      39.749  28.056  29.298  1.00  0.00    -0.014 A 
ATOM     83  C   UNL A   1      38.716  27.970  30.244  1.00  0.00     0.009 A 
ATOM     84  C   UNL A   1      39.605  28.985  28.251  1.00  0.00     0.009 A 
ATOM     85  C   UNL A   1      37.600  28.817  30.171  1.00  0.00     0.001 A 
ATOM     86  C   UNL A   1      38.490  29.827  28.177  1.00  0.00     0.001 A 
ATOM     87  C   UNL A   1      37.496  29.755  29.147  1.00  0.00     0.000 A 
ENDBRANCH  63  82
BRANCH  75  88
ATOM     88  C   UNL A   1      44.697  25.998  32.596  1.00  0.00    -0.014 A 
ATOM     89  C   UNL A   1      44.538  24.698  32.083  1.00  0.00     0.009 A 
ATOM     90  C   UNL A   1      44.652  26.175  33.987  1.00  0.00     0.009 A 
ATOM     91  C   UNL A   1      44.313  23.615  32.939  1.00  0.00     0.001 A 
ATOM     92  C   UNL A   1      44.450  25.089  34.842  1.00  0.00     0.001 A 
ATOM     93  C   UNL A   1      44.275  23.811  34.319  1.00  0.00     0.000 A 
ENDBRANCH  75  88
ENDBRANCH  49  50
ENDBRANCH  42  44
ENDBRANCH  41  42
ENDBRANCH  40  41
ENDBRANCH  39  40
ENDBRANCH  38  39
ENDBRANCH  37  38
ENDBRANCH  36  37
ENDBRANCH  35  36
ENDBRANCH   1  35
TORSDOF 24
ENDMDL
MODEL 2
REMARK VINA RESULT:      -9.9      3.271      8.902
REMARK SMILES NS(=O)(=O)c1ccc(-n2nc(C(=O)OCCOCCOCCOCCOC(=O)c3ccc(-c4c5nc(c(-c6ccccc6)c6ccc([nH]6)c(-c6ccccc6)c6nc(c(-c7ccccc7)c7ccc4[nH]7)C=C6)C=C5)cc3)cc2-c2cc3ccccc3s2)cc1
REMARK SMILES IDX 19 1 18 2 17 3 16 4 15 5 14 6 12 7 13 8 11 9 9 10 10 11
REMARK SMILES IDX 78 12 77 13 8 14 5 15 6 16 89 17 7 18 88 19 2 20 3 21 4 22
REMARK SMILES IDX 1 23 79 26 80 27 87 28 81 29 86 30 82 31 85 32 83 33 84 34
REMARK SMILES IDX 20 35 21 36 22 37 23 38 24 39 25 40 26 41 27 42 28 43 29 44
REMARK SMILES IDX 30 45 76 46 31 47 75 48 32 49 33 50 34 51 69 52 35 53 74 54
REMARK SMILES IDX 68 55 70 56 36 57 73 58 67 59 66 60 37 62 59 63 44 64 58 65
REMARK SMILES IDX 45 66 48 67 57 68 71 69 46 70 47 71 56 73 72 74 49 75 38 76
REMARK SMILES IDX 39 77 43 78 40 79 42 80 41 81 60 82 61 83 65 84 62 85 64 86
REMARK SMILES IDX 63 87 50 88 51 89 55 90 52 91 54 92 53 93
REMARK H PARENT 1 24 1 25 70 61 48 72
REMARK Flexibility Score: inf
ROOT
ATOM      1  C   UNL A   1      37.384  32.409  31.174  1.00  0.00     0.188 C 
ENDROOT
BRANCH   1   2
ATOM      2  C   UNL A   1      36.946  31.281  30.214  1.00  0.00     0.188 C 
BRANCH   2   3
ATOM      3  O   UNL A   1      36.104  31.544  29.100  1.00  0.00    -0.376 OA
BRANCH   3   4
ATOM      4  C   UNL A   1      35.582  30.549  28.239  1.00  0.00     0.202 C 
BRANCH   4   5
ATOM      5  C   UNL A   1      34.426  30.769  27.251  1.00  0.00     0.261 C 
BRANCH   5   6
ATOM      6  O   UNL A   1      33.192  30.151  27.577  1.00  0.00    -0.458 OA
BRANCH   6   7
ATOM      7  C   UNL A   1      32.236  30.144  26.604  1.00  0.00     0.358 C 
ATOM      8  O   UNL A   1      31.745  31.145  26.099  1.00  0.00    -0.244 OA
BRANCH   7   9
ATOM      9  C   UNL A   1      31.938  28.759  26.219  1.00  0.00     0.171 A 
ATOM     10  N   UNL A   1      32.152  26.720  25.636  1.00  0.00    -0.231 N 
ATOM     11  N   UNL A   1      32.769  27.707  26.339  1.00  0.00    -0.160 NA
ATOM     12  C   UNL A   1      30.991  27.161  25.050  1.00  0.00     0.085 A 
ATOM     13  C   UNL A   1      30.695  28.332  25.714  1.00  0.00     0.068 A 
BRANCH  10  14
ATOM     14  C   UNL A   1      32.676  25.420  25.635  1.00  0.00     0.065 A 
ATOM     15  C   UNL A   1      33.710  22.856  25.667  1.00  0.00     0.082 A 
ATOM     16  C   UNL A   1      34.478  23.913  25.161  1.00  0.00     0.024 A 
ATOM     17  C   UNL A   1      32.420  23.075  26.162  1.00  0.00     0.024 A 
ATOM     18  C   UNL A   1      33.954  25.202  25.127  1.00  0.00     0.030 A 
ATOM     19  C   UNL A   1      31.907  24.374  26.167  1.00  0.00     0.030 A 
BRANCH  15  20
ATOM     20  S   UNL A   1      34.446  21.248  25.665  1.00  0.00     0.238 S 
ATOM     21  O   UNL A   1      35.818  21.382  26.128  1.00  0.00    -0.207 OA
ATOM     22  O   UNL A   1      34.099  20.594  24.437  1.00  0.00    -0.207 OA
BRANCH  20  23
ATOM     23  N   UNL A   1      33.656  20.394  26.878  1.00  0.00    -0.225 NA
ATOM     24  H   UNL A   1      32.878  20.950  27.234  1.00  0.00     0.137 HD
ATOM     25  H   UNL A   1      34.310  20.199  27.637  1.00  0.00     0.137 HD
ENDBRANCH  20  23
ENDBRANCH  15  20
ENDBRANCH  10  14
BRANCH  12  26
ATOM     26  C   UNL A   1      30.306  26.721  23.861  1.00  0.00     0.054 A 
ATOM     27  C   UNL A   1      28.935  26.776  23.622  1.00  0.00     0.031 A 
ATOM     28  S   UNL A   1      31.000  27.337  22.362  1.00  0.00    -0.134 S 
ATOM     29  C   UNL A   1      28.671  28.094  23.054  1.00  0.00    -0.007 A 
ATOM     30  C   UNL A   1      29.841  28.633  22.495  1.00  0.00     0.035 A 
ATOM     31  C   UNL A   1      27.534  28.926  23.138  1.00  0.00     0.009 A 
ATOM     32  C   UNL A   1      29.976  29.996  22.191  1.00  0.00     0.019 A 
ATOM     33  C   UNL A   1      27.665  30.294  22.865  1.00  0.00     0.001 A 
ATOM     34  C   UNL A   1      28.883  30.826  22.447  1.00  0.00     0.001 A 
ENDBRANCH  12  26
ENDBRANCH   7   9
ENDBRANCH   6   7
ENDBRANCH   5   6
ENDBRANCH   4   5
ENDBRANCH   3   4
ENDBRANCH   2   3
ENDBRANCH   1   2
BRANCH   1  35
ATOM     35  O   UNL A   1      36.309  33.063  31.825  1.00  0.00    -0.377 OA
BRANCH  35  36
ATOM     36  C   UNL A   1      36.143  32.756  33.209  1.00  0.00     0.188 C 
BRANCH  36  37
ATOM     37  C   UNL A   1      35.529  33.817  34.163  1.00  0.00     0.188 C 
BRANCH  37  38
ATOM     38  O   UNL A   1      35.971  33.746  35.512  1.00  0.00    -0.376 OA
BRANCH  38  39
ATOM     39  C   UNL A   1      37.329  33.834  35.901  1.00  0.00     0.202 C 
BRANCH  39  40
ATOM     40  C   UNL A   1      37.882  32.702  36.761  1.00  0.00     0.261 C 
BRANCH  40  41
ATOM     41  O   UNL A   1      38.355  31.612  35.999  1.00  0.00    -0.460 OA
BRANCH  41  42
ATOM     42  C   UNL A   1      39.690  31.585  35.842  1.00  0.00     0.338 C 
ATOM     43  O   UNL A   1      40.540  31.932  36.642  1.00  0.00    -0.246 OA
BRANCH  42  44
ATOM     44  C   UNL A   1      39.968  31.194  34.461  1.00  0.00     0.060 A 
ATOM     45  C   UNL A   1      39.132  30.208  33.942  1.00  0.00     0.016 A 
ATOM     46  C   UNL A   1      41.253  31.453  33.957  1.00  0.00     0.016 A 
ATOM     47  C   UNL A   1      39.714  29.255  33.150  1.00  0.00     0.010 A 
ATOM     48  C   UNL A   1      41.840  30.484  33.197  1.00  0.00     0.010 A 
ATOM     49  C   UNL A   1      41.089  29.350  32.908  1.00  0.00    -0.014 A 
BRANCH  49  50
ATOM     50  C   UNL A   1      41.732  28.235  32.271  1.00  0.00     0.031 A 
ATOM     51  C   UNL A   1      42.482  27.422  33.235  1.00  0.00     0.074 A 
ATOM     52  C   UNL A   1      41.573  27.955  30.967  1.00  0.00     0.049 A 
ATOM     53  N   UNL A   1      43.756  27.430  33.433  1.00  0.00    -0.248 NA
ATOM     54  C   UNL A   1      41.703  26.708  34.259  1.00  0.00     0.031 C 
ATOM     55  C   UNL A   1      40.608  28.522  30.019  1.00  0.00     0.029 A 
ATOM     56  N   UNL A   1      42.198  26.998  30.237  1.00  0.00    -0.354 N 
ATOM     57  C   UNL A   1      43.956  26.528  34.467  1.00  0.00     0.074 A 
ATOM     58  C   UNL A   1      42.673  26.335  35.092  1.00  0.00     0.031 C 
ATOM     59  C   UNL A   1      40.556  27.732  28.920  1.00  0.00     0.029 A 
ATOM     60  C   UNL A   1      41.578  26.704  29.033  1.00  0.00     0.049 A 
ATOM     61  H   UNL A   1      43.021  26.551  30.538  1.00  0.00     0.167 HD
ATOM     62  C   UNL A   1      45.065  25.744  34.496  1.00  0.00     0.031 A 
ATOM     63  C   UNL A   1      41.855  25.634  28.248  1.00  0.00     0.031 A 
ATOM     64  C   UNL A   1      46.088  26.243  33.610  1.00  0.00     0.049 A 
ATOM     65  C   UNL A   1      43.192  25.128  28.644  1.00  0.00     0.074 A 
ATOM     66  C   UNL A   1      46.831  27.401  33.518  1.00  0.00     0.029 A 
ATOM     67  N   UNL A   1      46.169  25.630  32.382  1.00  0.00    -0.354 N 
ATOM     68  N   UNL A   1      44.298  25.786  28.454  1.00  0.00    -0.248 NA
ATOM     69  C   UNL A   1      43.263  24.071  29.642  1.00  0.00     0.031 C 
ATOM     70  C   UNL A   1      47.002  27.630  32.120  1.00  0.00     0.029 A 
ATOM     71  C   UNL A   1      46.401  26.579  31.424  1.00  0.00     0.049 A 
ATOM     72  H   UNL A   1      46.075  24.664  32.219  1.00  0.00     0.167 HD
ATOM     73  C   UNL A   1      45.061  25.537  29.587  1.00  0.00     0.074 A 
ATOM     74  C   UNL A   1      44.431  24.378  30.215  1.00  0.00     0.031 C 
ATOM     75  C   UNL A   1      45.944  26.469  30.052  1.00  0.00     0.031 A 
BRANCH  62  76
ATOM     76  C   UNL A   1      45.008  24.294  34.914  1.00  0.00    -0.014 A 
ATOM     77  C   UNL A   1      45.858  23.866  35.946  1.00  0.00     0.009 A 
ATOM     78  C   UNL A   1      44.378  23.283  34.159  1.00  0.00     0.009 A 
ATOM     79  C   UNL A   1      46.116  22.507  36.158  1.00  0.00     0.001 A 
ATOM     80  C   UNL A   1      44.598  21.925  34.394  1.00  0.00     0.001 A 
ATOM     81  C   UNL A   1      45.492  21.538  35.378  1.00  0.00     0.000 A 
ENDBRANCH  62  76
BRANCH  63  82
ATOM     82  C   UNL A   1      40.922  24.821  27.439  1.00  0.00    -0.014 A 
ATOM     83  C   UNL A   1      41.231  23.490  27.118  1.00  0.00     0.009 A 
ATOM     84  C   UNL A   1      39.599  25.255  27.234  1.00  0.00     0.009 A 
ATOM     85  C   UNL A   1      40.241  22.613  26.652  1.00  0.00     0.001 A 
ATOM     86  C   UNL A   1      38.613  24.381  26.766  1.00  0.00     0.001 A 
ATOM     87  C   UNL A   1      38.931  23.055  26.492  1.00  0.00     0.000 A 
ENDBRANCH  63  82
BRANCH  75  88
ATOM     88  C   UNL A   1      46.303  27.610  29.130  1.00  0.00    -0.014 A 
ATOM     89  C   UNL A   1      45.576  28.812  29.060  1.00  0.00     0.009 A 
ATOM     90  C   UNL A   1      47.495  27.509  28.397  1.00  0.00     0.009 A 
ATOM     91  C   UNL A   1      46.019  29.868  28.257  1.00  0.00     0.001 A 
ATOM     92  C   UNL A   1      47.948  28.572  27.613  1.00  0.00     0.001 A 
ATOM     93  C   UNL A   1      47.207  29.749  27.538  1.00  0.00     0.000 A 
ENDBRANCH  75  88
ENDBRANCH  49  50
ENDBRANCH  42  44
ENDBRANCH  41  42
ENDBRANCH  40  41
ENDBRANCH  39  40
ENDBRANCH  38  39
ENDBRANCH  37  38
ENDBRANCH  36  37
ENDBRANCH  35  36
ENDBRANCH   1  35
TORSDOF 24
ENDMDL
MODEL 3
REMARK VINA RESULT:      -9.8      4.776      9.021
REMARK SMILES NS(=O)(=O)c1ccc(-n2nc(C(=O)OCCOCCOCCOCCOC(=O)c3ccc(-c4c5nc(c(-c6ccccc6)c6ccc([nH]6)c(-c6ccccc6)c6nc(c(-c7ccccc7)c7ccc4[nH]7)C=C6)C=C5)cc3)cc2-c2cc3ccccc3s2)cc1
REMARK SMILES IDX 19 1 18 2 17 3 16 4 15 5 14 6 12 7 13 8 11 9 9 10 10 11
REMARK SMILES IDX 78 12 77 13 8 14 5 15 6 16 89 17 7 18 88 19 2 20 3 21 4 22
REMARK SMILES IDX 1 23 79 26 80 27 87 28 81 29 86 30 82 31 85 32 83 33 84 34
REMARK SMILES IDX 20 35 21 36 22 37 23 38 24 39 25 40 26 41 27 42 28 43 29 44
REMARK SMILES IDX 30 45 76 46 31 47 75 48 32 49 33 50 34 51 69 52 35 53 74 54
REMARK SMILES IDX 68 55 70 56 36 57 73 58 67 59 66 60 37 62 59 63 44 64 58 65
REMARK SMILES IDX 45 66 48 67 57 68 71 69 46 70 47 71 56 73 72 74 49 75 38 76
REMARK SMILES IDX 39 77 43 78 40 79 42 80 41 81 60 82 61 83 65 84 62 85 64 86
REMARK SMILES IDX 63 87 50 88 51 89 55 90 52 91 54 92 53 93
REMARK H PARENT 1 24 1 25 70 61 48 72
REMARK Flexibility Score: inf
ROOT
ATOM      1  C   UNL A   1      41.195  28.072  26.579  1.00  0.00     0.188 C 
ENDROOT
BRANCH   1   2
ATOM      2  C   UNL A   1      41.185  26.612  26.076  1.00  0.00     0.188 C 
BRANCH   2   3
ATOM      3  O   UNL A   1      40.278  25.654  26.604  1.00  0.00    -0.376 OA
BRANCH   3   4
ATOM      4  C   UNL A   1      40.563  24.273  26.742  1.00  0.00     0.202 C 
BRANCH   4   5
ATOM      5  C   UNL A   1      39.507  23.158  26.708  1.00  0.00     0.261 C 
BRANCH   5   6
ATOM      6  O   UNL A   1      38.437  23.329  25.793  1.00  0.00    -0.458 OA
BRANCH   6   7
ATOM      7  C   UNL A   1      37.825  22.194  25.350  1.00  0.00     0.358 C 
ATOM      8  O   UNL A   1      38.316  21.074  25.387  1.00  0.00    -0.244 OA
BRANCH   7   9
ATOM      9  C   UNL A   1      36.471  22.517  24.883  1.00  0.00     0.171 A 
ATOM     10  N   UNL A   1      34.645  23.547  24.498  1.00  0.00    -0.231 N 
ATOM     11  N   UNL A   1      35.976  23.752  24.682  1.00  0.00    -0.160 NA
ATOM     12  C   UNL A   1      34.311  22.221  24.632  1.00  0.00     0.085 A 
ATOM     13  C   UNL A   1      35.511  21.552  24.521  1.00  0.00     0.068 A 
BRANCH  10  14
ATOM     14  C   UNL A   1      33.807  24.612  24.142  1.00  0.00     0.065 A 
ATOM     15  C   UNL A   1      32.169  26.715  23.406  1.00  0.00     0.082 A 
ATOM     16  C   UNL A   1      33.151  26.904  24.389  1.00  0.00     0.024 A 
ATOM     17  C   UNL A   1      32.003  25.473  22.783  1.00  0.00     0.024 A 
ATOM     18  C   UNL A   1      33.965  25.843  24.774  1.00  0.00     0.030 A 
ATOM     19  C   UNL A   1      32.845  24.418  23.139  1.00  0.00     0.030 A 
BRANCH  15  20
ATOM     20  S   UNL A   1      31.171  28.111  22.982  1.00  0.00     0.238 S 
ATOM     21  O   UNL A   1      30.587  28.634  24.207  1.00  0.00    -0.207 OA
ATOM     22  O   UNL A   1      30.389  27.774  21.829  1.00  0.00    -0.207 OA
BRANCH  20  23
ATOM     23  N   UNL A   1      32.251  29.294  22.473  1.00  0.00    -0.225 NA
ATOM     24  H   UNL A   1      32.155  29.432  21.467  1.00  0.00     0.137 HD
ATOM     25  H   UNL A   1      33.204  28.998  22.686  1.00  0.00     0.137 HD
ENDBRANCH  20  23
ENDBRANCH  15  20
ENDBRANCH  10  14
BRANCH  12  26
ATOM     26  C   UNL A   1      33.080  21.592  25.040  1.00  0.00     0.054 A 
ATOM     27  C   UNL A   1      32.090  21.079  24.207  1.00  0.00     0.031 A 
ATOM     28  S   UNL A   1      33.288  20.323  26.246  1.00  0.00    -0.134 S 
ATOM     29  C   UNL A   1      32.474  19.701  23.916  1.00  0.00    -0.007 A 
ATOM     30  C   UNL A   1      33.352  19.217  24.899  1.00  0.00     0.035 A 
ATOM     31  C   UNL A   1      32.249  18.899  22.776  1.00  0.00     0.009 A 
ATOM     32  C   UNL A   1      34.142  18.073  24.710  1.00  0.00     0.019 A 
ATOM     33  C   UNL A   1      33.054  17.772  22.564  1.00  0.00     0.001 A 
ATOM     34  C   UNL A   1      34.019  17.397  23.495  1.00  0.00     0.001 A 
ENDBRANCH  12  26
ENDBRANCH   7   9
ENDBRANCH   6   7
ENDBRANCH   5   6
ENDBRANCH   4   5
ENDBRANCH   3   4
ENDBRANCH   2   3
ENDBRANCH   1   2
BRANCH   1  35
ATOM     35  O   UNL A   1      42.457  28.707  26.484  1.00  0.00    -0.377 OA
BRANCH  35  36
ATOM     36  C   UNL A   1      43.562  27.850  26.190  1.00  0.00     0.188 C 
BRANCH  36  37
ATOM     37  C   UNL A   1      44.974  28.206  26.731  1.00  0.00     0.188 C 
BRANCH  37  38
ATOM     38  O   UNL A   1      45.620  27.173  27.462  1.00  0.00    -0.376 OA
BRANCH  38  39
ATOM     39  C   UNL A   1      46.957  27.249  27.918  1.00  0.00     0.202 C 
BRANCH  39  40
ATOM     40  C   UNL A   1      47.211  26.937  29.388  1.00  0.00     0.261 C 
BRANCH  40  41
ATOM     41  O   UNL A   1      46.136  27.309  30.224  1.00  0.00    -0.460 OA
BRANCH  41  42
ATOM     42  C   UNL A   1      46.122  26.688  31.417  1.00  0.00     0.338 C 
ATOM     43  O   UNL A   1      46.681  25.649  31.721  1.00  0.00    -0.246 OA
BRANCH  42  44
ATOM     44  C   UNL A   1      45.184  27.404  32.279  1.00  0.00     0.060 A 
ATOM     45  C   UNL A   1      43.841  27.089  32.087  1.00  0.00     0.016 A 
ATOM     46  C   UNL A   1      45.614  28.614  32.846  1.00  0.00     0.016 A 
ATOM     47  C   UNL A   1      42.947  28.124  32.143  1.00  0.00     0.010 A 
ATOM     48  C   UNL A   1      44.728  29.651  32.867  1.00  0.00     0.010 A 
ATOM     49  C   UNL A   1      43.440  29.407  32.404  1.00  0.00    -0.014 A 
BRANCH  49  50
ATOM     50  C   UNL A   1      42.539  30.514  32.238  1.00  0.00     0.031 A 
ATOM     51  C   UNL A   1      41.720  30.726  33.438  1.00  0.00     0.074 A 
ATOM     52  C   UNL A   1      42.536  31.287  31.141  1.00  0.00     0.049 A 
ATOM     53  N   UNL A   1      40.493  30.372  33.613  1.00  0.00    -0.248 NA
ATOM     54  C   UNL A   1      42.419  31.156  34.659  1.00  0.00     0.031 C 
ATOM     55  C   UNL A   1      43.517  31.336  30.052  1.00  0.00     0.029 A 
ATOM     56  N   UNL A   1      41.677  32.289  30.829  1.00  0.00    -0.354 N 
ATOM     57  C   UNL A   1      40.200  30.757  34.913  1.00  0.00     0.074 A 
ATOM     58  C   UNL A   1      41.463  30.974  35.568  1.00  0.00     0.031 C 
ATOM     59  C   UNL A   1      43.323  32.471  29.337  1.00  0.00     0.029 A 
ATOM     60  C   UNL A   1      42.128  33.137  29.830  1.00  0.00     0.049 A 
ATOM     61  H   UNL A   1      40.807  32.404  31.275  1.00  0.00     0.167 HD
ATOM     62  C   UNL A   1      38.962  31.216  35.235  1.00  0.00     0.031 A 
ATOM     63  C   UNL A   1      41.583  34.336  29.511  1.00  0.00     0.031 A 
ATOM     64  C   UNL A   1      37.993  30.877  34.221  1.00  0.00     0.049 A 
ATOM     65  C   UNL A   1      40.207  34.358  30.067  1.00  0.00     0.074 A 
ATOM     66  C   UNL A   1      37.491  29.706  33.692  1.00  0.00     0.029 A 
ATOM     67  N   UNL A   1      37.694  31.871  33.321  1.00  0.00    -0.354 N 
ATOM     68  N   UNL A   1      39.243  33.598  29.636  1.00  0.00    -0.248 NA
ATOM     69  C   UNL A   1      40.006  34.924  31.392  1.00  0.00     0.031 C 
ATOM     70  C   UNL A   1      37.260  29.985  32.312  1.00  0.00     0.029 A 
ATOM     71  C   UNL A   1      37.582  31.322  32.071  1.00  0.00     0.049 A 
ATOM     72  H   UNL A   1      37.580  32.824  33.538  1.00  0.00     0.167 HD
ATOM     73  C   UNL A   1      38.537  33.236  30.775  1.00  0.00     0.074 A 
ATOM     74  C   UNL A   1      38.971  34.182  31.800  1.00  0.00     0.031 C 
ATOM     75  C   UNL A   1      37.898  32.032  30.847  1.00  0.00     0.031 A 
BRANCH  62  76
ATOM     76  C   UNL A   1      38.761  32.381  36.175  1.00  0.00    -0.014 A 
ATOM     77  C   UNL A   1      39.276  33.633  35.800  1.00  0.00     0.009 A 
ATOM     78  C   UNL A   1      38.352  32.246  37.518  1.00  0.00     0.009 A 
ATOM     79  C   UNL A   1      39.437  34.661  36.736  1.00  0.00     0.001 A 
ATOM     80  C   UNL A   1      38.470  33.283  38.444  1.00  0.00     0.001 A 
ATOM     81  C   UNL A   1      39.041  34.483  38.058  1.00  0.00     0.000 A 
ENDBRANCH  62  76
BRANCH  63  82
ATOM     82  C   UNL A   1      42.268  35.572  29.077  1.00  0.00    -0.014 A 
ATOM     83  C   UNL A   1      41.765  36.328  28.007  1.00  0.00     0.009 A 
ATOM     84  C   UNL A   1      43.244  36.166  29.899  1.00  0.00     0.009 A 
ATOM     85  C   UNL A   1      42.188  37.647  27.795  1.00  0.00     0.001 A 
ATOM     86  C   UNL A   1      43.669  37.482  29.684  1.00  0.00     0.001 A 
ATOM     87  C   UNL A   1      43.128  38.228  28.643  1.00  0.00     0.000 A 
ENDBRANCH  63  82
BRANCH  75  88
ATOM     88  C   UNL A   1      37.702  31.269  29.558  1.00  0.00    -0.014 A 
ATOM     89  C   UNL A   1      38.638  30.352  29.048  1.00  0.00     0.009 A 
ATOM     90  C   UNL A   1      36.467  31.394  28.905  1.00  0.00     0.009 A 
ATOM     91  C   UNL A   1      38.352  29.605  27.899  1.00  0.00     0.001 A 
ATOM     92  C   UNL A   1      36.174  30.631  27.772  1.00  0.00     0.001 A 
ATOM     93  C   UNL A   1      37.118  29.742  27.266  1.00  0.00     0.000 A 
ENDBRANCH  75  88
ENDBRANCH  49  50
ENDBRANCH  42  44
ENDBRANCH  41  42
ENDBRANCH  40  41
ENDBRANCH  39  40
ENDBRANCH  38  39
ENDBRANCH  37  38
ENDBRANCH  36  37
ENDBRANCH  35  36
ENDBRANCH   1  35
TORSDOF 24
ENDMDL
