MODEL 1
REMARK VINA RESULT:     -11.5      0.000      0.000
REMARK SMILES Cc1cc(/C=C2/C(=O)NC(=S)N=C2OCCOCCOCCOCCOC(=O)c2ccc(-c3c4nc(c(-c5ccccc5)c5ccc([nH]5)c(-c5ccccc5)c5nc(c(-c6ccccc6)c6ccc3[nH]6)C=C5)C=C4)cc2)c(C)n1-c1cccc(C(=O)[O-])c1
REMARK SMILES IDX 20 1 19 2 18 3 17 4 16 5 15 6 14 7 13 8 5 9 6 10 7 11 8 12
REMARK SMILES IDX 9 13 12 14 10 15 11 17 4 18 1 19 2 20 3 21 79 22 77 23 78 24
REMARK SMILES IDX 80 25 81 26 88 27 82 28 84 29 83 30 85 31 86 32 87 33 21 34
REMARK SMILES IDX 22 35 23 36 24 37 25 38 26 39 27 40 28 41 29 42 30 43 76 44
REMARK SMILES IDX 31 45 75 46 32 47 33 48 34 49 69 50 35 51 74 52 68 53 70 54
REMARK SMILES IDX 36 55 73 56 67 57 66 58 37 60 59 61 44 62 58 63 45 64 48 65
REMARK SMILES IDX 57 66 71 67 46 68 47 69 56 71 72 72 49 73 38 74 39 75 43 76
REMARK SMILES IDX 40 77 42 78 41 79 60 80 61 81 65 82 62 83 64 84 63 85 50 86
REMARK SMILES IDX 51 87 55 88 52 89 54 90 53 91
REMARK H PARENT 9 16 70 59 48 70
REMARK Flexibility Score: inf
ROOT
ATOM      1  O   UNL A   1      40.093  21.633  27.462  1.00  0.00    -0.377 OA
ENDROOT
BRANCH   1   2
ATOM      2  C   UNL A   1      39.603  21.963  26.175  1.00  0.00     0.188 C 
BRANCH   2   3
ATOM      3  C   UNL A   1      38.128  22.191  25.752  1.00  0.00     0.188 C 
BRANCH   3   4
ATOM      4  O   UNL A   1      37.449  23.424  25.835  1.00  0.00    -0.376 OA
BRANCH   4   5
ATOM      5  C   UNL A   1      36.236  23.727  25.178  1.00  0.00     0.201 C 
BRANCH   5   6
ATOM      6  C   UNL A   1      35.090  24.481  25.847  1.00  0.00     0.260 C 
BRANCH   6   7
ATOM      7  O   UNL A   1      34.415  25.405  24.972  1.00  0.00    -0.475 OA
BRANCH   7   8
ATOM      8  C   UNL A   1      33.574  26.303  25.524  1.00  0.00     0.229 C 
ATOM      9  C   UNL A   1      31.425  24.963  24.864  1.00  0.00     0.029 C 
ATOM     10  C   UNL A   1      32.132  26.049  25.268  1.00  0.00     0.103 C 
ATOM     11  C   UNL A   1      31.323  27.311  25.376  1.00  0.00     0.262 C 
ATOM     12  O   UNL A   1      30.157  27.417  25.008  1.00  0.00    -0.269 OA
ATOM     13  N   UNL A   1      31.986  28.395  25.882  1.00  0.00    -0.297 N 
ATOM     14  N   UNL A   1      34.072  27.361  26.062  1.00  0.00    -0.184 NA
ATOM     15  C   UNL A   1      33.289  28.444  26.283  1.00  0.00     0.203 C 
ATOM     16  H   UNL A   1      31.468  29.228  25.964  1.00  0.00     0.172 HD
ATOM     17  S   UNL A   1      33.885  29.886  26.891  1.00  0.00    -0.038 S 
BRANCH   9  18
ATOM     18  C   UNL A   1      31.726  23.599  24.490  1.00  0.00    -0.003 A 
ATOM     19  C   UNL A   1      31.954  20.850  21.952  1.00  0.00     0.065 C 
ATOM     20  C   UNL A   1      32.017  21.806  23.096  1.00  0.00     0.020 A 
ATOM     21  C   UNL A   1      31.605  23.126  23.148  1.00  0.00     0.031 A 
ATOM     22  N   UNL A   1      32.477  21.473  24.359  1.00  0.00    -0.318 N 
ATOM     23  C   UNL A   1      32.079  22.491  25.246  1.00  0.00     0.027 A 
ATOM     24  C   UNL A   1      32.192  22.339  26.718  1.00  0.00     0.065 C 
BRANCH  22  25
ATOM     25  C   UNL A   1      33.338  20.377  24.696  1.00  0.00     0.046 A 
ATOM     26  C   UNL A   1      34.714  20.593  24.831  1.00  0.00     0.026 A 
ATOM     27  C   UNL A   1      32.842  19.064  24.694  1.00  0.00     0.036 A 
ATOM     28  C   UNL A   1      35.612  19.535  24.749  1.00  0.00     0.003 A 
ATOM     29  C   UNL A   1      33.752  17.990  24.683  1.00  0.00    -0.001 A 
ATOM     30  C   UNL A   1      35.132  18.238  24.647  1.00  0.00     0.010 A 
BRANCH  29  31
ATOM     31  C   UNL A   1      33.329  16.575  24.682  1.00  0.00     0.072 C 
ATOM     32  O   UNL A   1      32.329  16.132  25.253  1.00  0.00    -0.545 OA
ATOM     33  O   UNL A   1      34.108  15.772  23.949  1.00  0.00    -0.545 OA
ENDBRANCH  29  31
ENDBRANCH  22  25
ENDBRANCH   9  18
ENDBRANCH   7   8
ENDBRANCH   6   7
ENDBRANCH   5   6
ENDBRANCH   4   5
ENDBRANCH   3   4
ENDBRANCH   2   3
ENDBRANCH   1   2
BRANCH   1  34
ATOM     34  C   UNL A   1      41.370  21.064  27.593  1.00  0.00     0.188 C 
BRANCH  34  35
ATOM     35  C   UNL A   1      41.457  19.671  26.967  1.00  0.00     0.188 C 
BRANCH  35  36
ATOM     36  O   UNL A   1      42.567  18.861  27.308  1.00  0.00    -0.376 OA
BRANCH  36  37
ATOM     37  C   UNL A   1      43.386  18.316  26.276  1.00  0.00     0.202 C 
BRANCH  37  38
ATOM     38  C   UNL A   1      43.642  19.010  24.898  1.00  0.00     0.261 C 
BRANCH  38  39
ATOM     39  O   UNL A   1      44.879  18.932  24.092  1.00  0.00    -0.460 OA
BRANCH  39  40
ATOM     40  C   UNL A   1      45.902  19.782  24.470  1.00  0.00     0.338 C 
ATOM     41  O   UNL A   1      47.062  19.387  24.560  1.00  0.00    -0.246 OA
BRANCH  40  42
ATOM     42  C   UNL A   1      45.588  21.282  24.769  1.00  0.00     0.060 A 
ATOM     43  C   UNL A   1      45.659  21.736  26.078  1.00  0.00     0.016 A 
ATOM     44  C   UNL A   1      44.922  22.198  23.916  1.00  0.00     0.016 A 
ATOM     45  C   UNL A   1      45.150  23.044  26.478  1.00  0.00     0.010 A 
ATOM     46  C   UNL A   1      44.331  23.518  24.357  1.00  0.00     0.010 A 
ATOM     47  C   UNL A   1      44.411  24.011  25.677  1.00  0.00    -0.014 A 
BRANCH  47  48
ATOM     48  C   UNL A   1      43.511  25.226  26.502  1.00  0.00     0.031 A 
ATOM     49  C   UNL A   1      44.442  26.377  26.368  1.00  0.00     0.074 A 
ATOM     50  C   UNL A   1      42.424  25.574  27.357  1.00  0.00     0.049 A 
ATOM     51  N   UNL A   1      45.623  26.218  26.882  1.00  0.00    -0.248 NA
ATOM     52  C   UNL A   1      44.342  27.462  25.394  1.00  0.00     0.031 C 
ATOM     53  C   UNL A   1      41.417  24.692  27.989  1.00  0.00     0.029 A 
ATOM     54  N   UNL A   1      41.943  26.846  27.916  1.00  0.00    -0.354 N 
ATOM     55  C   UNL A   1      46.385  27.290  26.509  1.00  0.00     0.074 A 
ATOM     56  C   UNL A   1      45.598  27.930  25.455  1.00  0.00     0.031 C 
ATOM     57  C   UNL A   1      40.429  25.386  28.646  1.00  0.00     0.029 A 
ATOM     58  C   UNL A   1      40.652  26.837  28.619  1.00  0.00     0.049 A 
ATOM     59  H   UNL A   1      42.466  27.674  27.821  1.00  0.00     0.167 HD
ATOM     60  C   UNL A   1      47.091  27.849  27.533  1.00  0.00     0.031 A 
ATOM     61  C   UNL A   1      39.872  27.855  29.219  1.00  0.00     0.031 A 
ATOM     62  C   UNL A   1      46.354  28.946  28.104  1.00  0.00     0.049 A 
ATOM     63  C   UNL A   1      40.825  28.875  29.663  1.00  0.00     0.074 A 
ATOM     64  C   UNL A   1      45.635  29.977  27.531  1.00  0.00     0.029 A 
ATOM     65  N   UNL A   1      45.861  28.770  29.379  1.00  0.00    -0.354 N 
ATOM     66  N   UNL A   1      41.507  28.713  30.757  1.00  0.00    -0.248 NA
ATOM     67  C   UNL A   1      40.948  30.185  29.036  1.00  0.00     0.031 C 
ATOM     68  C   UNL A   1      44.425  29.994  28.248  1.00  0.00     0.029 A 
ATOM     69  C   UNL A   1      44.616  29.351  29.464  1.00  0.00     0.049 A 
ATOM     70  H   UNL A   1      46.324  28.305  30.113  1.00  0.00     0.167 HD
ATOM     71  C   UNL A   1      42.531  29.586  30.583  1.00  0.00     0.074 A 
ATOM     72  C   UNL A   1      42.001  30.632  29.722  1.00  0.00     0.031 C 
ATOM     73  C   UNL A   1      43.767  29.029  30.580  1.00  0.00     0.031 A 
BRANCH  60  74
ATOM     74  C   UNL A   1      47.857  26.834  28.360  1.00  0.00    -0.014 A 
ATOM     75  C   UNL A   1      47.512  26.642  29.699  1.00  0.00     0.009 A 
ATOM     76  C   UNL A   1      49.008  26.168  27.875  1.00  0.00     0.009 A 
ATOM     77  C   UNL A   1      48.338  25.883  30.540  1.00  0.00     0.001 A 
ATOM     78  C   UNL A   1      49.859  25.462  28.722  1.00  0.00     0.001 A 
ATOM     79  C   UNL A   1      49.526  25.326  30.061  1.00  0.00     0.000 A 
ENDBRANCH  60  74
BRANCH  61  80
ATOM     80  C   UNL A   1      38.483  28.302  29.873  1.00  0.00    -0.014 A 
ATOM     81  C   UNL A   1      38.299  28.252  31.307  1.00  0.00     0.009 A 
ATOM     82  C   UNL A   1      37.599  29.195  29.244  1.00  0.00     0.009 A 
ATOM     83  C   UNL A   1      37.417  29.086  32.044  1.00  0.00     0.001 A 
ATOM     84  C   UNL A   1      36.680  30.012  29.982  1.00  0.00     0.001 A 
ATOM     85  C   UNL A   1      36.613  29.987  31.377  1.00  0.00     0.000 A 
ENDBRANCH  61  80
BRANCH  73  86
ATOM     86  C   UNL A   1      44.044  27.939  31.599  1.00  0.00    -0.014 A 
ATOM     87  C   UNL A   1      44.345  28.150  32.964  1.00  0.00     0.009 A 
ATOM     88  C   UNL A   1      44.059  26.616  31.140  1.00  0.00     0.009 A 
ATOM     89  C   UNL A   1      44.693  27.092  33.814  1.00  0.00     0.001 A 
ATOM     90  C   UNL A   1      44.362  25.553  31.996  1.00  0.00     0.001 A 
ATOM     91  C   UNL A   1      44.694  25.791  33.328  1.00  0.00     0.000 A 
ENDBRANCH  73  86
ENDBRANCH  47  48
ENDBRANCH  40  42
ENDBRANCH  39  40
ENDBRANCH  38  39
ENDBRANCH  37  38
ENDBRANCH  36  37
ENDBRANCH  35  36
ENDBRANCH  34  35
ENDBRANCH   1  34
TORSDOF 22
ENDMDL
MODEL 2
REMARK VINA RESULT:     -10.7      1.812      2.902
REMARK SMILES Cc1cc(/C=C2/C(=O)NC(=S)N=C2OCCOCCOCCOCCOC(=O)c2ccc(-c3c4nc(c(-c5ccccc5)c5ccc([nH]5)c(-c5ccccc5)c5nc(c(-c6ccccc6)c6ccc3[nH]6)C=C5)C=C4)cc2)c(C)n1-c1cccc(C(=O)[O-])c1
REMARK SMILES IDX 20 1 19 2 18 3 17 4 16 5 15 6 14 7 13 8 5 9 6 10 7 11 8 12
REMARK SMILES IDX 9 13 12 14 10 15 11 17 4 18 1 19 2 20 3 21 79 22 77 23 78 24
REMARK SMILES IDX 80 25 81 26 88 27 82 28 84 29 83 30 85 31 86 32 87 33 21 34
REMARK SMILES IDX 22 35 23 36 24 37 25 38 26 39 27 40 28 41 29 42 30 43 76 44
REMARK SMILES IDX 31 45 75 46 32 47 33 48 34 49 69 50 35 51 74 52 68 53 70 54
REMARK SMILES IDX 36 55 73 56 67 57 66 58 37 60 59 61 44 62 58 63 45 64 48 65
REMARK SMILES IDX 57 66 71 67 46 68 47 69 56 71 72 72 49 73 38 74 39 75 43 76
REMARK SMILES IDX 40 77 42 78 41 79 60 80 61 81 65 82 62 83 64 84 63 85 50 86
REMARK SMILES IDX 51 87 55 88 52 89 54 90 53 91
REMARK H PARENT 9 16 70 59 48 70
REMARK Flexibility Score: inf
ROOT
ATOM      1  O   UNL A   1      40.301  21.097  25.821  1.00  0.00    -0.377 OA
ENDROOT
BRANCH   1   2
ATOM      2  C   UNL A   1      39.099  21.710  26.251  1.00  0.00     0.188 C 
BRANCH   2   3
ATOM      3  C   UNL A   1      38.061  22.472  25.387  1.00  0.00     0.188 C 
BRANCH   3   4
ATOM      4  O   UNL A   1      37.098  23.371  25.891  1.00  0.00    -0.376 OA
BRANCH   4   5
ATOM      5  C   UNL A   1      36.156  24.074  25.109  1.00  0.00     0.201 C 
BRANCH   5   6
ATOM      6  C   UNL A   1      34.856  24.636  25.673  1.00  0.00     0.260 C 
BRANCH   6   7
ATOM      7  O   UNL A   1      34.132  25.468  24.746  1.00  0.00    -0.475 OA
BRANCH   7   8
ATOM      8  C   UNL A   1      33.215  26.323  25.242  1.00  0.00     0.229 C 
ATOM      9  C   UNL A   1      31.183  24.816  24.568  1.00  0.00     0.029 C 
ATOM     10  C   UNL A   1      31.802  25.961  24.954  1.00  0.00     0.103 C 
ATOM     11  C   UNL A   1      30.905  27.167  24.995  1.00  0.00     0.262 C 
ATOM     12  O   UNL A   1      29.747  27.180  24.590  1.00  0.00    -0.269 OA
ATOM     13  N   UNL A   1      31.478  28.311  25.481  1.00  0.00    -0.297 N 
ATOM     14  N   UNL A   1      33.622  27.430  25.756  1.00  0.00    -0.184 NA
ATOM     15  C   UNL A   1      32.761  28.463  25.916  1.00  0.00     0.203 C 
ATOM     16  H   UNL A   1      30.901  29.108  25.519  1.00  0.00     0.172 HD
ATOM     17  S   UNL A   1      33.238  29.962  26.490  1.00  0.00    -0.038 S 
BRANCH   9  18
ATOM     18  C   UNL A   1      31.589  23.464  24.252  1.00  0.00    -0.003 A 
ATOM     19  C   UNL A   1      31.991  20.623  21.840  1.00  0.00     0.065 C 
ATOM     20  C   UNL A   1      31.999  21.636  22.937  1.00  0.00     0.020 A 
ATOM     21  C   UNL A   1      31.480  22.919  22.936  1.00  0.00     0.031 A 
ATOM     22  N   UNL A   1      32.510  21.403  24.202  1.00  0.00    -0.318 N 
ATOM     23  C   UNL A   1      32.048  22.427  25.050  1.00  0.00     0.027 A 
ATOM     24  C   UNL A   1      32.202  22.356  26.524  1.00  0.00     0.065 C 
BRANCH  22  25
ATOM     25  C   UNL A   1      33.465  20.399  24.569  1.00  0.00     0.046 A 
ATOM     26  C   UNL A   1      34.758  20.777  24.947  1.00  0.00     0.026 A 
ATOM     27  C   UNL A   1      33.176  19.040  24.360  1.00  0.00     0.036 A 
ATOM     28  C   UNL A   1      35.806  19.865  24.913  1.00  0.00     0.003 A 
ATOM     29  C   UNL A   1      34.228  18.105  24.396  1.00  0.00    -0.001 A 
ATOM     30  C   UNL A   1      35.546  18.536  24.610  1.00  0.00     0.010 A 
BRANCH  29  31
ATOM     31  C   UNL A   1      34.026  16.657  24.189  1.00  0.00     0.072 C 
ATOM     32  O   UNL A   1      33.901  16.107  23.092  1.00  0.00    -0.545 OA
ATOM     33  O   UNL A   1      34.035  15.938  25.317  1.00  0.00    -0.545 OA
ENDBRANCH  29  31
ENDBRANCH  22  25
ENDBRANCH   9  18
ENDBRANCH   7   8
ENDBRANCH   6   7
ENDBRANCH   5   6
ENDBRANCH   4   5
ENDBRANCH   3   4
ENDBRANCH   2   3
ENDBRANCH   1   2
BRANCH   1  34
ATOM     34  C   UNL A   1      41.070  20.359  26.734  1.00  0.00     0.188 C 
BRANCH  34  35
ATOM     35  C   UNL A   1      41.685  19.109  26.104  1.00  0.00     0.188 C 
BRANCH  35  36
ATOM     36  O   UNL A   1      43.046  18.830  26.381  1.00  0.00    -0.376 OA
BRANCH  36  37
ATOM     37  C   UNL A   1      44.037  19.104  25.393  1.00  0.00     0.202 C 
BRANCH  37  38
ATOM     38  C   UNL A   1      44.516  20.542  25.003  1.00  0.00     0.261 C 
BRANCH  38  39
ATOM     39  O   UNL A   1      44.299  21.780  25.779  1.00  0.00    -0.460 OA
BRANCH  39  40
ATOM     40  C   UNL A   1      43.486  22.731  25.189  1.00  0.00     0.338 C 
ATOM     41  O   UNL A   1      43.459  22.882  23.969  1.00  0.00    -0.246 OA
BRANCH  40  42
ATOM     42  C   UNL A   1      42.566  23.621  26.082  1.00  0.00     0.060 A 
ATOM     43  C   UNL A   1      41.924  24.710  25.511  1.00  0.00     0.016 A 
ATOM     44  C   UNL A   1      42.536  23.660  27.499  1.00  0.00     0.016 A 
ATOM     45  C   UNL A   1      41.250  25.727  26.312  1.00  0.00     0.010 A 
ATOM     46  C   UNL A   1      41.900  24.758  28.320  1.00  0.00     0.010 A 
ATOM     47  C   UNL A   1      41.221  25.862  27.762  1.00  0.00    -0.014 A 
BRANCH  47  48
ATOM     48  C   UNL A   1      40.788  27.393  28.423  1.00  0.00     0.031 A 
ATOM     49  C   UNL A   1      41.996  28.183  28.067  1.00  0.00     0.074 A 
ATOM     50  C   UNL A   1      39.929  28.165  29.260  1.00  0.00     0.049 A 
ATOM     51  N   UNL A   1      43.122  27.751  28.545  1.00  0.00    -0.248 NA
ATOM     52  C   UNL A   1      42.125  29.103  26.938  1.00  0.00     0.031 C 
ATOM     53  C   UNL A   1      38.771  27.721  30.069  1.00  0.00     0.029 A 
ATOM     54  N   UNL A   1      39.887  29.587  29.631  1.00  0.00    -0.354 N 
ATOM     55  C   UNL A   1      44.123  28.485  27.974  1.00  0.00     0.074 A 
ATOM     56  C   UNL A   1      43.463  29.177  26.867  1.00  0.00     0.031 C 
ATOM     57  C   UNL A   1      38.089  28.762  30.651  1.00  0.00     0.029 A 
ATOM     58  C   UNL A   1      38.717  30.061  30.384  1.00  0.00     0.049 A 
ATOM     59  H   UNL A   1      40.617  30.200  29.383  1.00  0.00     0.167 HD
ATOM     60  C   UNL A   1      45.049  28.943  28.862  1.00  0.00     0.031 A 
ATOM     61  C   UNL A   1      38.322  31.339  30.849  1.00  0.00     0.031 A 
ATOM     62  C   UNL A   1      44.715  30.278  29.284  1.00  0.00     0.049 A 
ATOM     63  C   UNL A   1      39.564  32.079  31.082  1.00  0.00     0.074 A 
ATOM     64  C   UNL A   1      44.275  31.386  28.587  1.00  0.00     0.029 A 
ATOM     65  N   UNL A   1      44.309  30.436  30.593  1.00  0.00    -0.354 N 
ATOM     66  N   UNL A   1      40.266  31.874  32.156  1.00  0.00    -0.248 NA
ATOM     67  C   UNL A   1      40.003  33.192  30.249  1.00  0.00     0.031 C 
ATOM     68  C   UNL A   1      43.191  31.864  29.347  1.00  0.00     0.029 A 
ATOM     69  C   UNL A   1      43.297  31.369  30.640  1.00  0.00     0.049 A 
ATOM     70  H   UNL A   1      44.682  29.960  31.369  1.00  0.00     0.167 HD
ATOM     71  C   UNL A   1      41.478  32.368  31.799  1.00  0.00     0.074 A 
ATOM     72  C   UNL A   1      41.197  33.395  30.808  1.00  0.00     0.031 C 
ATOM     73  C   UNL A   1      42.495  31.472  31.829  1.00  0.00     0.031 A 
BRANCH  60  74
ATOM     74  C   UNL A   1      45.561  27.870  29.805  1.00  0.00    -0.014 A 
ATOM     75  C   UNL A   1      45.352  28.009  31.179  1.00  0.00     0.009 A 
ATOM     76  C   UNL A   1      46.374  26.796  29.369  1.00  0.00     0.009 A 
ATOM     77  C   UNL A   1      46.001  27.157  32.083  1.00  0.00     0.001 A 
ATOM     78  C   UNL A   1      47.065  25.987  30.267  1.00  0.00     0.001 A 
ATOM     79  C   UNL A   1      46.883  26.173  31.629  1.00  0.00     0.000 A 
ENDBRANCH  60  74
BRANCH  61  80
ATOM     80  C   UNL A   1      37.185  32.267  31.485  1.00  0.00    -0.014 A 
ATOM     81  C   UNL A   1      36.026  32.643  30.705  1.00  0.00     0.009 A 
ATOM     82  C   UNL A   1      36.959  32.351  32.869  1.00  0.00     0.009 A 
ATOM     83  C   UNL A   1      34.749  32.951  31.244  1.00  0.00     0.001 A 
ATOM     84  C   UNL A   1      35.679  32.698  33.417  1.00  0.00     0.001 A 
ATOM     85  C   UNL A   1      34.569  32.961  32.612  1.00  0.00     0.000 A 
ENDBRANCH  61  80
BRANCH  73  86
ATOM     86  C   UNL A   1      42.537  30.502  32.995  1.00  0.00    -0.014 A 
ATOM     87  C   UNL A   1      43.266  30.688  34.192  1.00  0.00     0.009 A 
ATOM     88  C   UNL A   1      41.842  29.295  32.855  1.00  0.00     0.009 A 
ATOM     89  C   UNL A   1      43.335  29.693  35.175  1.00  0.00     0.001 A 
ATOM     90  C   UNL A   1      41.872  28.317  33.854  1.00  0.00     0.001 A 
ATOM     91  C   UNL A   1      42.629  28.509  35.007  1.00  0.00     0.000 A 
ENDBRANCH  73  86
ENDBRANCH  47  48
ENDBRANCH  40  42
ENDBRANCH  39  40
ENDBRANCH  38  39
ENDBRANCH  37  38
ENDBRANCH  36  37
ENDBRANCH  35  36
ENDBRANCH  34  35
ENDBRANCH   1  34
TORSDOF 22
ENDMDL
MODEL 3
REMARK VINA RESULT:     -10.5      2.720      5.622
REMARK SMILES Cc1cc(/C=C2/C(=O)NC(=S)N=C2OCCOCCOCCOCCOC(=O)c2ccc(-c3c4nc(c(-c5ccccc5)c5ccc([nH]5)c(-c5ccccc5)c5nc(c(-c6ccccc6)c6ccc3[nH]6)C=C5)C=C4)cc2)c(C)n1-c1cccc(C(=O)[O-])c1
REMARK SMILES IDX 20 1 19 2 18 3 17 4 16 5 15 6 14 7 13 8 5 9 6 10 7 11 8 12
REMARK SMILES IDX 9 13 12 14 10 15 11 17 4 18 1 19 2 20 3 21 79 22 77 23 78 24
REMARK SMILES IDX 80 25 81 26 88 27 82 28 84 29 83 30 85 31 86 32 87 33 21 34
REMARK SMILES IDX 22 35 23 36 24 37 25 38 26 39 27 40 28 41 29 42 30 43 76 44
REMARK SMILES IDX 31 45 75 46 32 47 33 48 34 49 69 50 35 51 74 52 68 53 70 54
REMARK SMILES IDX 36 55 73 56 67 57 66 58 37 60 59 61 44 62 58 63 45 64 48 65
REMARK SMILES IDX 57 66 71 67 46 68 47 69 56 71 72 72 49 73 38 74 39 75 43 76
REMARK SMILES IDX 40 77 42 78 41 79 60 80 61 81 65 82 62 83 64 84 63 85 50 86
REMARK SMILES IDX 51 87 55 88 52 89 54 90 53 91
REMARK H PARENT 9 16 70 59 48 70
REMARK Flexibility Score: inf
ROOT
ATOM      1  O   UNL A   1      37.924  21.070  25.009  1.00  0.00    -0.377 OA
ENDROOT
BRANCH   1   2
ATOM      2  C   UNL A   1      36.538  21.328  25.143  1.00  0.00     0.188 C 
BRANCH   2   3
ATOM      3  C   UNL A   1      35.835  22.195  26.220  1.00  0.00     0.188 C 
BRANCH   3   4
ATOM      4  O   UNL A   1      34.749  21.770  27.012  1.00  0.00    -0.376 OA
BRANCH   4   5
ATOM      5  C   UNL A   1      33.627  22.562  27.343  1.00  0.00     0.201 C 
BRANCH   5   6
ATOM      6  C   UNL A   1      32.188  22.098  27.137  1.00  0.00     0.260 C 
BRANCH   6   7
ATOM      7  O   UNL A   1      31.723  22.235  25.780  1.00  0.00    -0.475 OA
BRANCH   7   8
ATOM      8  C   UNL A   1      32.178  21.358  24.862  1.00  0.00     0.229 C 
ATOM      9  C   UNL A   1      32.180  23.116  22.923  1.00  0.00     0.029 C 
ATOM     10  C   UNL A   1      32.211  21.873  23.468  1.00  0.00     0.103 C 
ATOM     11  C   UNL A   1      32.150  20.754  22.466  1.00  0.00     0.262 C 
ATOM     12  O   UNL A   1      31.950  20.912  21.266  1.00  0.00    -0.269 OA
ATOM     13  N   UNL A   1      32.286  19.494  22.981  1.00  0.00    -0.297 N 
ATOM     14  N   UNL A   1      32.375  20.139  25.223  1.00  0.00    -0.184 NA
ATOM     15  C   UNL A   1      32.460  19.159  24.292  1.00  0.00     0.203 C 
ATOM     16  H   UNL A   1      32.254  18.750  22.337  1.00  0.00     0.172 HD
ATOM     17  S   UNL A   1      32.622  17.540  24.689  1.00  0.00    -0.038 S 
BRANCH   9  18
ATOM     18  C   UNL A   1      32.087  24.472  23.416  1.00  0.00    -0.003 A 
ATOM     19  C   UNL A   1      30.514  27.875  23.429  1.00  0.00     0.065 C 
ATOM     20  C   UNL A   1      31.227  26.581  23.646  1.00  0.00     0.020 A 
ATOM     21  C   UNL A   1      31.099  25.393  22.949  1.00  0.00     0.031 A 
ATOM     22  N   UNL A   1      32.214  26.392  24.599  1.00  0.00    -0.318 N 
ATOM     23  C   UNL A   1      32.884  25.191  24.294  1.00  0.00     0.027 A 
ATOM     24  C   UNL A   1      34.151  24.807  24.963  1.00  0.00     0.065 C 
BRANCH  22  25
ATOM     25  C   UNL A   1      32.429  27.178  25.777  1.00  0.00     0.046 A 
ATOM     26  C   UNL A   1      31.368  27.406  26.661  1.00  0.00     0.026 A 
ATOM     27  C   UNL A   1      33.632  27.882  25.947  1.00  0.00     0.036 A 
ATOM     28  C   UNL A   1      31.409  28.461  27.566  1.00  0.00     0.003 A 
ATOM     29  C   UNL A   1      33.696  28.904  26.913  1.00  0.00    -0.001 A 
ATOM     30  C   UNL A   1      32.561  29.226  27.672  1.00  0.00     0.010 A 
BRANCH  29  31
ATOM     31  C   UNL A   1      34.914  29.698  27.167  1.00  0.00     0.072 C 
ATOM     32  O   UNL A   1      34.995  30.926  27.069  1.00  0.00    -0.545 OA
ATOM     33  O   UNL A   1      35.963  28.976  27.574  1.00  0.00    -0.545 OA
ENDBRANCH  29  31
ENDBRANCH  22  25
ENDBRANCH   9  18
ENDBRANCH   7   8
ENDBRANCH   6   7
ENDBRANCH   5   6
ENDBRANCH   4   5
ENDBRANCH   3   4
ENDBRANCH   2   3
ENDBRANCH   1   2
BRANCH   1  34
ATOM     34  C   UNL A   1      38.849  21.869  25.701  1.00  0.00     0.188 C 
BRANCH  34  35
ATOM     35  C   UNL A   1      39.813  21.041  26.554  1.00  0.00     0.188 C 
BRANCH  35  36
ATOM     36  O   UNL A   1      40.520  19.991  25.921  1.00  0.00    -0.376 OA
BRANCH  36  37
ATOM     37  C   UNL A   1      41.819  19.633  26.389  1.00  0.00     0.202 C 
BRANCH  37  38
ATOM     38  C   UNL A   1      43.155  20.121  25.738  1.00  0.00     0.261 C 
BRANCH  38  39
ATOM     39  O   UNL A   1      43.831  21.411  25.984  1.00  0.00    -0.460 OA
BRANCH  39  40
ATOM     40  C   UNL A   1      43.248  22.522  25.402  1.00  0.00     0.338 C 
ATOM     41  O   UNL A   1      43.415  22.785  24.214  1.00  0.00    -0.246 OA
BRANCH  40  42
ATOM     42  C   UNL A   1      42.339  23.455  26.263  1.00  0.00     0.060 A 
ATOM     43  C   UNL A   1      41.742  24.553  25.661  1.00  0.00     0.016 A 
ATOM     44  C   UNL A   1      42.284  23.520  27.678  1.00  0.00     0.016 A 
ATOM     45  C   UNL A   1      41.085  25.604  26.432  1.00  0.00     0.010 A 
ATOM     46  C   UNL A   1      41.667  24.652  28.468  1.00  0.00     0.010 A 
ATOM     47  C   UNL A   1      41.033  25.766  27.879  1.00  0.00    -0.014 A 
BRANCH  47  48
ATOM     48  C   UNL A   1      40.635  27.321  28.505  1.00  0.00     0.031 A 
ATOM     49  C   UNL A   1      41.896  28.052  28.210  1.00  0.00     0.074 A 
ATOM     50  C   UNL A   1      39.768  28.138  29.289  1.00  0.00     0.049 A 
ATOM     51  N   UNL A   1      42.973  27.573  28.753  1.00  0.00    -0.248 NA
ATOM     52  C   UNL A   1      42.128  28.955  27.085  1.00  0.00     0.031 C 
ATOM     53  C   UNL A   1      38.549  27.754  30.037  1.00  0.00     0.029 A 
ATOM     54  N   UNL A   1      39.771  29.564  29.648  1.00  0.00    -0.354 N 
ATOM     55  C   UNL A   1      44.036  28.256  28.231  1.00  0.00     0.074 A 
ATOM     56  C   UNL A   1      43.470  28.968  27.086  1.00  0.00     0.031 C 
ATOM     57  C   UNL A   1      37.885  28.830  30.574  1.00  0.00     0.029 A 
ATOM     58  C   UNL A   1      38.586  30.097  30.333  1.00  0.00     0.049 A 
ATOM     59  H   UNL A   1      40.541  30.141  29.436  1.00  0.00     0.167 HD
ATOM     60  C   UNL A   1      44.933  28.680  29.166  1.00  0.00     0.031 A 
ATOM     61  C   UNL A   1      38.224  31.396  30.767  1.00  0.00     0.031 A 
ATOM     62  C   UNL A   1      44.638  30.032  29.561  1.00  0.00     0.049 A 
ATOM     63  C   UNL A   1      39.485  32.080  31.063  1.00  0.00     0.074 A 
ATOM     64  C   UNL A   1      44.288  31.153  28.834  1.00  0.00     0.029 A 
ATOM     65  N   UNL A   1      44.169  30.220  30.844  1.00  0.00    -0.354 N 
ATOM     66  N   UNL A   1      40.117  31.854  32.175  1.00  0.00    -0.248 NA
ATOM     67  C   UNL A   1      40.018  33.165  30.248  1.00  0.00     0.031 C 
ATOM     68  C   UNL A   1      43.187  31.686  29.530  1.00  0.00     0.029 A 
ATOM     69  C   UNL A   1      43.200  31.198  30.830  1.00  0.00     0.049 A 
ATOM     70  H   UNL A   1      44.477  29.735  31.643  1.00  0.00     0.167 HD
ATOM     71  C   UNL A   1      41.368  32.289  31.882  1.00  0.00     0.074 A 
ATOM     72  C   UNL A   1      41.189  33.319  30.870  1.00  0.00     0.031 C 
ATOM     73  C   UNL A   1      42.340  31.349  31.973  1.00  0.00     0.031 A 
BRANCH  60  74
ATOM     74  C   UNL A   1      45.343  27.593  30.143  1.00  0.00    -0.014 A 
ATOM     75  C   UNL A   1      46.526  26.885  29.921  1.00  0.00     0.009 A 
ATOM     76  C   UNL A   1      44.506  27.161  31.199  1.00  0.00     0.009 A 
ATOM     77  C   UNL A   1      46.815  25.737  30.672  1.00  0.00     0.001 A 
ATOM     78  C   UNL A   1      44.762  25.989  31.907  1.00  0.00     0.001 A 
ATOM     79  C   UNL A   1      45.918  25.271  31.636  1.00  0.00     0.000 A 
ENDBRANCH  60  74
BRANCH  61  80
ATOM     80  C   UNL A   1      37.099  32.380  31.334  1.00  0.00    -0.014 A 
ATOM     81  C   UNL A   1      36.360  33.242  30.437  1.00  0.00     0.009 A 
ATOM     82  C   UNL A   1      36.418  32.143  32.541  1.00  0.00     0.009 A 
ATOM     83  C   UNL A   1      35.041  33.715  30.666  1.00  0.00     0.001 A 
ATOM     84  C   UNL A   1      35.100  32.649  32.790  1.00  0.00     0.001 A 
ATOM     85  C   UNL A   1      34.398  33.401  31.845  1.00  0.00     0.000 A 
ENDBRANCH  61  80
BRANCH  73  86
ATOM     86  C   UNL A   1      42.274  30.388  33.146  1.00  0.00    -0.014 A 
ATOM     87  C   UNL A   1      41.728  29.084  33.108  1.00  0.00     0.009 A 
ATOM     88  C   UNL A   1      42.742  30.847  34.383  1.00  0.00     0.009 A 
ATOM     89  C   UNL A   1      41.611  28.301  34.264  1.00  0.00     0.001 A 
ATOM     90  C   UNL A   1      42.667  30.051  35.530  1.00  0.00     0.001 A 
ATOM     91  C   UNL A   1      42.088  28.785  35.475  1.00  0.00     0.000 A 
ENDBRANCH  73  86
ENDBRANCH  47  48
ENDBRANCH  40  42
ENDBRANCH  39  40
ENDBRANCH  38  39
ENDBRANCH  37  38
ENDBRANCH  36  37
ENDBRANCH  35  36
ENDBRANCH  34  35
ENDBRANCH   1  34
TORSDOF 22
ENDMDL
