MODEL 1
REMARK VINA RESULT:      -8.8      0.000      0.000
REMARK SMILES COc1cc(NS(=O)(=O)c2cc(C)c(C(=O)OCCOCCOCCOCCOC(=O)c3ccc(-c4c5nc(c(-c6ccccc6)c6ccc([nH]6)c(-c6ccccc6)c6nc(c(-c7ccccc7)c7ccc4[nH]7)C=C6)C=C5)cc3)s2)cc(OC)c1
REMARK SMILES IDX 22 1 21 2 20 3 19 4 18 5 17 6 15 7 16 8 14 9 10 10 11 11
REMARK SMILES IDX 80 12 12 13 13 14 7 15 8 16 9 17 6 18 5 20 3 21 4 22 85 23
REMARK SMILES IDX 82 24 81 25 2 26 1 27 83 28 84 29 23 30 24 31 25 32 26 33
REMARK SMILES IDX 27 34 28 35 29 36 30 37 31 38 32 39 33 40 79 41 34 42 78 43
REMARK SMILES IDX 35 44 36 45 37 46 72 47 38 48 77 49 71 50 73 51 39 52 76 53
REMARK SMILES IDX 70 54 69 55 40 57 62 58 47 59 61 60 48 61 51 62 60 63 74 64
REMARK SMILES IDX 49 65 50 66 59 68 75 69 52 70 41 71 42 72 46 73 43 74 45 75
REMARK SMILES IDX 44 76 63 77 64 78 68 79 65 80 67 81 66 82 53 83 54 84 58 85
REMARK SMILES IDX 55 86 57 87 56 88
REMARK H PARENT 6 19 73 56 51 67
REMARK Flexibility Score: inf
ROOT
ATOM      1  C   UNL A   1      42.845  20.955  26.653  1.00  0.00     0.188 C 
ENDROOT
BRANCH   1   2
ATOM      2  C   UNL A   1      41.341  21.105  26.954  1.00  0.00     0.188 C 
BRANCH   2   3
ATOM      3  O   UNL A   1      40.419  21.526  25.960  1.00  0.00    -0.376 OA
BRANCH   3   4
ATOM      4  C   UNL A   1      39.246  22.218  26.343  1.00  0.00     0.202 C 
BRANCH   4   5
ATOM      5  C   UNL A   1      38.001  22.081  25.449  1.00  0.00     0.261 C 
BRANCH   5   6
ATOM      6  O   UNL A   1      37.209  23.271  25.270  1.00  0.00    -0.459 OA
BRANCH   6   7
ATOM      7  C   UNL A   1      36.253  23.236  24.289  1.00  0.00     0.348 C 
ATOM      8  O   UNL A   1      36.503  23.325  23.102  1.00  0.00    -0.245 OA
BRANCH   7   9
ATOM      9  C   UNL A   1      34.921  22.998  24.867  1.00  0.00     0.116 A 
ATOM     10  C   UNL A   1      32.657  23.490  25.814  1.00  0.00     0.141 A 
ATOM     11  C   UNL A   1      32.956  22.142  25.793  1.00  0.00     0.038 A 
ATOM     12  S   UNL A   1      33.962  24.406  25.219  1.00  0.00    -0.115 S 
ATOM     13  C   UNL A   1      34.219  21.832  25.175  1.00  0.00    -0.024 A 
ATOM     14  C   UNL A   1      34.648  20.411  24.963  1.00  0.00     0.046 C 
BRANCH  10  15
ATOM     15  S   UNL A   1      31.168  24.356  26.322  1.00  0.00     0.271 S 
ATOM     16  O   UNL A   1      31.591  25.698  26.661  1.00  0.00    -0.200 OA
ATOM     17  O   UNL A   1      30.575  23.492  27.323  1.00  0.00    -0.200 OA
BRANCH  15  18
ATOM     18  N   UNL A   1      30.053  24.507  25.045  1.00  0.00    -0.279 N 
ATOM     19  H   UNL A   1      29.276  23.904  25.015  1.00  0.00     0.180 HD
BRANCH  18  20
ATOM     20  C   UNL A   1      30.215  25.493  24.008  1.00  0.00     0.056 A 
ATOM     21  C   UNL A   1      31.531  26.483  22.259  1.00  0.00     0.124 A 
ATOM     22  C   UNL A   1      31.244  25.410  23.086  1.00  0.00     0.073 A 
ATOM     23  C   UNL A   1      30.797  27.652  22.285  1.00  0.00     0.093 A 
ATOM     24  C   UNL A   1      29.810  27.795  23.247  1.00  0.00     0.124 A 
ATOM     25  C   UNL A   1      29.512  26.711  24.099  1.00  0.00     0.073 A 
BRANCH  21  26
ATOM     26  O   UNL A   1      32.677  26.443  21.518  1.00  0.00    -0.497 OA
ATOM     27  C   UNL A   1      32.407  25.557  20.434  1.00  0.00     0.278 C 
ENDBRANCH  21  26
BRANCH  24  28
ATOM     28  O   UNL A   1      29.133  28.968  23.458  1.00  0.00    -0.497 OA
ATOM     29  C   UNL A   1      28.388  29.451  22.333  1.00  0.00     0.278 C 
ENDBRANCH  24  28
ENDBRANCH  18  20
ENDBRANCH  15  18
ENDBRANCH  10  15
ENDBRANCH   7   9
ENDBRANCH   6   7
ENDBRANCH   5   6
ENDBRANCH   4   5
ENDBRANCH   3   4
ENDBRANCH   2   3
ENDBRANCH   1   2
BRANCH   1  30
ATOM     30  O   UNL A   1      43.234  20.883  25.293  1.00  0.00    -0.377 OA
BRANCH  30  31
ATOM     31  C   UNL A   1      43.788  22.094  24.776  1.00  0.00     0.188 C 
BRANCH  31  32
ATOM     32  C   UNL A   1      45.081  22.542  25.476  1.00  0.00     0.188 C 
BRANCH  32  33
ATOM     33  O   UNL A   1      45.419  23.881  25.091  1.00  0.00    -0.376 OA
BRANCH  33  34
ATOM     34  C   UNL A   1      46.568  24.446  25.709  1.00  0.00     0.202 C 
BRANCH  34  35
ATOM     35  C   UNL A   1      47.220  25.577  24.899  1.00  0.00     0.261 C 
BRANCH  35  36
ATOM     36  O   UNL A   1      46.275  26.479  24.311  1.00  0.00    -0.460 OA
BRANCH  36  37
ATOM     37  C   UNL A   1      46.457  27.764  24.672  1.00  0.00     0.338 C 
ATOM     38  O   UNL A   1      46.744  28.695  23.940  1.00  0.00    -0.246 OA
BRANCH  37  39
ATOM     39  C   UNL A   1      46.036  27.938  26.071  1.00  0.00     0.060 A 
ATOM     40  C   UNL A   1      44.670  27.805  26.332  1.00  0.00     0.016 A 
ATOM     41  C   UNL A   1      46.934  28.293  27.082  1.00  0.00     0.016 A 
ATOM     42  C   UNL A   1      44.177  28.105  27.592  1.00  0.00     0.010 A 
ATOM     43  C   UNL A   1      46.433  28.615  28.347  1.00  0.00     0.010 A 
ATOM     44  C   UNL A   1      45.047  28.576  28.581  1.00  0.00    -0.014 A 
BRANCH  44  45
ATOM     45  C   UNL A   1      44.446  29.253  29.749  1.00  0.00     0.031 A 
ATOM     46  C   UNL A   1      44.094  30.710  29.621  1.00  0.00     0.074 A 
ATOM     47  C   UNL A   1      44.100  28.554  30.843  1.00  0.00     0.049 A 
ATOM     48  N   UNL A   1      43.475  31.493  30.465  1.00  0.00    -0.248 NA
ATOM     49  C   UNL A   1      44.481  31.371  28.362  1.00  0.00     0.031 C 
ATOM     50  C   UNL A   1      44.327  27.123  31.038  1.00  0.00     0.029 A 
ATOM     51  N   UNL A   1      43.461  28.957  31.985  1.00  0.00    -0.354 N 
ATOM     52  C   UNL A   1      43.404  32.734  29.843  1.00  0.00     0.074 A 
ATOM     53  C   UNL A   1      44.069  32.612  28.566  1.00  0.00     0.031 C 
ATOM     54  C   UNL A   1      43.825  26.764  32.233  1.00  0.00     0.029 A 
ATOM     55  C   UNL A   1      43.272  27.944  32.891  1.00  0.00     0.049 A 
ATOM     56  H   UNL A   1      43.164  29.883  32.141  1.00  0.00     0.167 HD
ATOM     57  C   UNL A   1      42.824  33.872  30.292  1.00  0.00     0.031 A 
ATOM     58  C   UNL A   1      42.723  27.977  34.121  1.00  0.00     0.031 A 
ATOM     59  C   UNL A   1      42.181  33.989  31.572  1.00  0.00     0.049 A 
ATOM     60  C   UNL A   1      42.169  29.279  34.635  1.00  0.00     0.074 A 
ATOM     61  C   UNL A   1      41.568  35.095  32.132  1.00  0.00     0.029 A 
ATOM     62  N   UNL A   1      42.078  32.961  32.496  1.00  0.00    -0.354 N 
ATOM     63  N   UNL A   1      42.093  30.443  34.034  1.00  0.00    -0.248 NA
ATOM     64  C   UNL A   1      41.611  29.266  35.994  1.00  0.00     0.031 C 
ATOM     65  C   UNL A   1      41.152  34.752  33.423  1.00  0.00     0.029 A 
ATOM     66  C   UNL A   1      41.438  33.414  33.637  1.00  0.00     0.049 A 
ATOM     67  H   UNL A   1      42.410  32.043  32.361  1.00  0.00     0.167 HD
ATOM     68  C   UNL A   1      41.456  31.293  34.930  1.00  0.00     0.074 A 
ATOM     69  C   UNL A   1      41.145  30.501  36.104  1.00  0.00     0.031 C 
ATOM     70  C   UNL A   1      41.151  32.608  34.797  1.00  0.00     0.031 A 
BRANCH  57  71
ATOM     71  C   UNL A   1      42.914  35.088  29.411  1.00  0.00    -0.014 A 
ATOM     72  C   UNL A   1      41.881  35.432  28.523  1.00  0.00     0.009 A 
ATOM     73  C   UNL A   1      44.049  35.910  29.479  1.00  0.00     0.009 A 
ATOM     74  C   UNL A   1      42.001  36.554  27.699  1.00  0.00     0.001 A 
ATOM     75  C   UNL A   1      44.152  37.048  28.677  1.00  0.00     0.001 A 
ATOM     76  C   UNL A   1      43.133  37.364  27.780  1.00  0.00     0.000 A 
ENDBRANCH  57  71
BRANCH  58  77
ATOM     77  C   UNL A   1      42.690  26.748  34.957  1.00  0.00    -0.014 A 
ATOM     78  C   UNL A   1      43.812  26.347  35.698  1.00  0.00     0.009 A 
ATOM     79  C   UNL A   1      41.534  25.951  34.996  1.00  0.00     0.009 A 
ATOM     80  C   UNL A   1      43.785  25.162  36.438  1.00  0.00     0.001 A 
ATOM     81  C   UNL A   1      41.498  24.784  35.762  1.00  0.00     0.001 A 
ATOM     82  C   UNL A   1      42.628  24.385  36.474  1.00  0.00     0.000 A 
ENDBRANCH  58  77
BRANCH  70  83
ATOM     83  C   UNL A   1      40.416  33.257  35.937  1.00  0.00    -0.014 A 
ATOM     84  C   UNL A   1      41.100  33.901  36.981  1.00  0.00     0.009 A 
ATOM     85  C   UNL A   1      39.011  33.243  35.953  1.00  0.00     0.009 A 
ATOM     86  C   UNL A   1      40.394  34.472  38.041  1.00  0.00     0.001 A 
ATOM     87  C   UNL A   1      38.308  33.848  36.995  1.00  0.00     0.001 A 
ATOM     88  C   UNL A   1      39.000  34.448  38.045  1.00  0.00     0.000 A 
ENDBRANCH  70  83
ENDBRANCH  44  45
ENDBRANCH  37  39
ENDBRANCH  36  37
ENDBRANCH  35  36
ENDBRANCH  34  35
ENDBRANCH  33  34
ENDBRANCH  32  33
ENDBRANCH  31  32
ENDBRANCH  30  31
ENDBRANCH   1  30
TORSDOF 25
ENDMDL
MODEL 2
REMARK VINA RESULT:      -8.7      4.564     10.800
REMARK SMILES COc1cc(NS(=O)(=O)c2cc(C)c(C(=O)OCCOCCOCCOCCOC(=O)c3ccc(-c4c5nc(c(-c6ccccc6)c6ccc([nH]6)c(-c6ccccc6)c6nc(c(-c7ccccc7)c7ccc4[nH]7)C=C6)C=C5)cc3)s2)cc(OC)c1
REMARK SMILES IDX 22 1 21 2 20 3 19 4 18 5 17 6 15 7 16 8 14 9 10 10 11 11
REMARK SMILES IDX 80 12 12 13 13 14 7 15 8 16 9 17 6 18 5 20 3 21 4 22 85 23
REMARK SMILES IDX 82 24 81 25 2 26 1 27 83 28 84 29 23 30 24 31 25 32 26 33
REMARK SMILES IDX 27 34 28 35 29 36 30 37 31 38 32 39 33 40 79 41 34 42 78 43
REMARK SMILES IDX 35 44 36 45 37 46 72 47 38 48 77 49 71 50 73 51 39 52 76 53
REMARK SMILES IDX 70 54 69 55 40 57 62 58 47 59 61 60 48 61 51 62 60 63 74 64
REMARK SMILES IDX 49 65 50 66 59 68 75 69 52 70 41 71 42 72 46 73 43 74 45 75
REMARK SMILES IDX 44 76 63 77 64 78 68 79 65 80 67 81 66 82 53 83 54 84 58 85
REMARK SMILES IDX 55 86 57 87 56 88
REMARK H PARENT 6 19 73 56 51 67
REMARK Flexibility Score: inf
ROOT
ATOM      1  C   UNL A   1      34.024  34.449  28.314  1.00  0.00     0.188 C 
ENDROOT
BRANCH   1   2
ATOM      2  C   UNL A   1      34.574  33.012  28.235  1.00  0.00     0.188 C 
BRANCH   2   3
ATOM      3  O   UNL A   1      33.723  31.880  28.332  1.00  0.00    -0.376 OA
BRANCH   3   4
ATOM      4  C   UNL A   1      33.862  30.820  27.405  1.00  0.00     0.202 C 
BRANCH   4   5
ATOM      5  C   UNL A   1      32.580  30.175  26.850  1.00  0.00     0.261 C 
BRANCH   5   6
ATOM      6  O   UNL A   1      32.611  28.746  26.669  1.00  0.00    -0.459 OA
BRANCH   6   7
ATOM      7  C   UNL A   1      33.816  28.192  26.320  1.00  0.00     0.348 C 
ATOM      8  O   UNL A   1      34.808  28.242  27.021  1.00  0.00    -0.245 OA
BRANCH   7   9
ATOM      9  C   UNL A   1      33.709  27.478  25.038  1.00  0.00     0.116 A 
ATOM     10  C   UNL A   1      33.364  25.593  23.429  1.00  0.00     0.141 A 
ATOM     11  C   UNL A   1      33.689  26.783  22.809  1.00  0.00     0.038 A 
ATOM     12  S   UNL A   1      33.344  25.780  25.120  1.00  0.00    -0.115 S 
ATOM     13  C   UNL A   1      33.810  27.899  23.712  1.00  0.00    -0.024 A 
ATOM     14  C   UNL A   1      34.044  29.287  23.197  1.00  0.00     0.046 C 
BRANCH  10  15
ATOM     15  S   UNL A   1      32.957  23.983  22.743  1.00  0.00     0.271 S 
ATOM     16  O   UNL A   1      32.971  24.155  21.306  1.00  0.00    -0.200 OA
ATOM     17  O   UNL A   1      31.742  23.598  23.431  1.00  0.00    -0.200 OA
BRANCH  15  18
ATOM     18  N   UNL A   1      34.145  22.820  23.104  1.00  0.00    -0.279 N 
ATOM     19  H   UNL A   1      35.022  22.878  22.659  1.00  0.00     0.180 HD
BRANCH  18  20
ATOM     20  C   UNL A   1      33.906  21.754  24.041  1.00  0.00     0.056 A 
ATOM     21  C   UNL A   1      32.844  19.673  24.607  1.00  0.00     0.124 A 
ATOM     22  C   UNL A   1      33.286  20.578  23.655  1.00  0.00     0.073 A 
ATOM     23  C   UNL A   1      33.029  19.877  25.960  1.00  0.00     0.093 A 
ATOM     24  C   UNL A   1      33.577  21.077  26.382  1.00  0.00     0.124 A 
ATOM     25  C   UNL A   1      34.027  22.008  25.422  1.00  0.00     0.073 A 
BRANCH  21  26
ATOM     26  O   UNL A   1      32.055  18.637  24.199  1.00  0.00    -0.497 OA
ATOM     27  C   UNL A   1      32.943  17.667  23.647  1.00  0.00     0.278 C 
ENDBRANCH  21  26
BRANCH  24  28
ATOM     28  O   UNL A   1      33.660  21.442  27.701  1.00  0.00    -0.497 OA
ATOM     29  C   UNL A   1      33.184  22.761  27.998  1.00  0.00     0.278 C 
ENDBRANCH  24  28
ENDBRANCH  18  20
ENDBRANCH  15  18
ENDBRANCH  10  15
ENDBRANCH   7   9
ENDBRANCH   6   7
ENDBRANCH   5   6
ENDBRANCH   4   5
ENDBRANCH   3   4
ENDBRANCH   2   3
ENDBRANCH   1   2
BRANCH   1  30
ATOM     30  O   UNL A   1      32.969  34.694  29.228  1.00  0.00    -0.377 OA
BRANCH  30  31
ATOM     31  C   UNL A   1      32.933  36.026  29.741  1.00  0.00     0.188 C 
BRANCH  31  32
ATOM     32  C   UNL A   1      32.824  36.108  31.271  1.00  0.00     0.188 C 
BRANCH  32  33
ATOM     33  O   UNL A   1      34.125  36.057  31.869  1.00  0.00    -0.376 OA
BRANCH  33  34
ATOM     34  C   UNL A   1      34.337  35.036  32.836  1.00  0.00     0.202 C 
BRANCH  34  35
ATOM     35  C   UNL A   1      34.523  33.635  32.235  1.00  0.00     0.261 C 
BRANCH  35  36
ATOM     36  O   UNL A   1      35.800  33.053  32.520  1.00  0.00    -0.460 OA
BRANCH  36  37
ATOM     37  C   UNL A   1      36.005  31.871  31.907  1.00  0.00     0.338 C 
ATOM     38  O   UNL A   1      35.152  31.090  31.522  1.00  0.00    -0.246 OA
BRANCH  37  39
ATOM     39  C   UNL A   1      37.428  31.747  31.558  1.00  0.00     0.060 A 
ATOM     40  C   UNL A   1      37.801  32.198  30.289  1.00  0.00     0.016 A 
ATOM     41  C   UNL A   1      38.356  31.142  32.412  1.00  0.00     0.016 A 
ATOM     42  C   UNL A   1      39.090  31.976  29.830  1.00  0.00     0.010 A 
ATOM     43  C   UNL A   1      39.650  30.899  31.940  1.00  0.00     0.010 A 
ATOM     44  C   UNL A   1      39.995  31.265  30.626  1.00  0.00    -0.014 A 
BRANCH  44  45
ATOM     45  C   UNL A   1      41.192  30.707  29.963  1.00  0.00     0.031 A 
ATOM     46  C   UNL A   1      41.082  29.348  29.329  1.00  0.00     0.074 A 
ATOM     47  C   UNL A   1      42.301  31.450  29.814  1.00  0.00     0.049 A 
ATOM     48  N   UNL A   1      41.957  28.692  28.611  1.00  0.00    -0.248 NA
ATOM     49  C   UNL A   1      39.806  28.636  29.518  1.00  0.00     0.031 C 
ATOM     50  C   UNL A   1      42.484  32.808  30.325  1.00  0.00     0.029 A 
ATOM     51  N   UNL A   1      43.474  31.169  29.165  1.00  0.00    -0.354 N 
ATOM     52  C   UNL A   1      41.340  27.495  28.270  1.00  0.00     0.074 A 
ATOM     53  C   UNL A   1      40.032  27.496  28.883  1.00  0.00     0.031 C 
ATOM     54  C   UNL A   1      43.702  33.247  29.960  1.00  0.00     0.029 A 
ATOM     55  C   UNL A   1      44.388  32.191  29.221  1.00  0.00     0.049 A 
ATOM     56  H   UNL A   1      43.645  30.317  28.702  1.00  0.00     0.167 HD
ATOM     57  C   UNL A   1      41.817  26.487  27.503  1.00  0.00     0.031 A 
ATOM     58  C   UNL A   1      45.643  32.254  28.737  1.00  0.00     0.031 A 
ATOM     59  C   UNL A   1      43.128  26.485  26.912  1.00  0.00     0.049 A 
ATOM     60  C   UNL A   1      46.185  31.080  27.967  1.00  0.00     0.074 A 
ATOM     61  C   UNL A   1      43.719  25.514  26.124  1.00  0.00     0.029 A 
ATOM     62  N   UNL A   1      44.056  27.506  27.057  1.00  0.00    -0.354 N 
ATOM     63  N   UNL A   1      45.590  29.958  27.637  1.00  0.00    -0.248 NA
ATOM     64  C   UNL A   1      47.570  31.189  27.490  1.00  0.00     0.031 C 
ATOM     65  C   UNL A   1      45.029  25.920  25.846  1.00  0.00     0.029 A 
ATOM     66  C   UNL A   1      45.227  27.176  26.398  1.00  0.00     0.049 A 
ATOM     67  H   UNL A   1      43.903  28.343  27.554  1.00  0.00     0.167 HD
ATOM     68  C   UNL A   1      46.516  29.241  26.891  1.00  0.00     0.074 A 
ATOM     69  C   UNL A   1      47.704  30.067  26.798  1.00  0.00     0.031 C 
ATOM     70  C   UNL A   1      46.399  28.011  26.330  1.00  0.00     0.031 A 
BRANCH  57  71
ATOM     71  C   UNL A   1      40.934  25.285  27.311  1.00  0.00    -0.014 A 
ATOM     72  C   UNL A   1      41.199  24.066  27.957  1.00  0.00     0.009 A 
ATOM     73  C   UNL A   1      39.810  25.377  26.476  1.00  0.00     0.009 A 
ATOM     74  C   UNL A   1      40.376  22.957  27.742  1.00  0.00     0.001 A 
ATOM     75  C   UNL A   1      38.971  24.278  26.289  1.00  0.00     0.001 A 
ATOM     76  C   UNL A   1      39.260  23.065  26.913  1.00  0.00     0.000 A 
ENDBRANCH  57  71
BRANCH  58  77
ATOM     77  C   UNL A   1      46.479  33.459  28.986  1.00  0.00    -0.014 A 
ATOM     78  C   UNL A   1      46.494  34.529  28.079  1.00  0.00     0.009 A 
ATOM     79  C   UNL A   1      47.291  33.531  30.129  1.00  0.00     0.009 A 
ATOM     80  C   UNL A   1      47.323  35.632  28.298  1.00  0.00     0.001 A 
ATOM     81  C   UNL A   1      48.094  34.649  30.364  1.00  0.00     0.001 A 
ATOM     82  C   UNL A   1      48.118  35.694  29.442  1.00  0.00     0.000 A 
ENDBRANCH  58  77
BRANCH  70  83
ATOM     83  C   UNL A   1      47.576  27.507  25.539  1.00  0.00    -0.014 A 
ATOM     84  C   UNL A   1      48.650  26.850  26.159  1.00  0.00     0.009 A 
ATOM     85  C   UNL A   1      47.595  27.673  24.144  1.00  0.00     0.009 A 
ATOM     86  C   UNL A   1      49.742  26.415  25.405  1.00  0.00     0.001 A 
ATOM     87  C   UNL A   1      48.670  27.204  23.389  1.00  0.00     0.001 A 
ATOM     88  C   UNL A   1      49.749  26.589  24.022  1.00  0.00     0.000 A 
ENDBRANCH  70  83
ENDBRANCH  44  45
ENDBRANCH  37  39
ENDBRANCH  36  37
ENDBRANCH  35  36
ENDBRANCH  34  35
ENDBRANCH  33  34
ENDBRANCH  32  33
ENDBRANCH  31  32
ENDBRANCH  30  31
ENDBRANCH   1  30
TORSDOF 25
ENDMDL
MODEL 3
REMARK VINA RESULT:      -8.5      3.923      9.830
REMARK SMILES COc1cc(NS(=O)(=O)c2cc(C)c(C(=O)OCCOCCOCCOCCOC(=O)c3ccc(-c4c5nc(c(-c6ccccc6)c6ccc([nH]6)c(-c6ccccc6)c6nc(c(-c7ccccc7)c7ccc4[nH]7)C=C6)C=C5)cc3)s2)cc(OC)c1
REMARK SMILES IDX 22 1 21 2 20 3 19 4 18 5 17 6 15 7 16 8 14 9 10 10 11 11
REMARK SMILES IDX 80 12 12 13 13 14 7 15 8 16 9 17 6 18 5 20 3 21 4 22 85 23
REMARK SMILES IDX 82 24 81 25 2 26 1 27 83 28 84 29 23 30 24 31 25 32 26 33
REMARK SMILES IDX 27 34 28 35 29 36 30 37 31 38 32 39 33 40 79 41 34 42 78 43
REMARK SMILES IDX 35 44 36 45 37 46 72 47 38 48 77 49 71 50 73 51 39 52 76 53
REMARK SMILES IDX 70 54 69 55 40 57 62 58 47 59 61 60 48 61 51 62 60 63 74 64
REMARK SMILES IDX 49 65 50 66 59 68 75 69 52 70 41 71 42 72 46 73 43 74 45 75
REMARK SMILES IDX 44 76 63 77 64 78 68 79 65 80 67 81 66 82 53 83 54 84 58 85
REMARK SMILES IDX 55 86 57 87 56 88
REMARK H PARENT 6 19 73 56 51 67
REMARK Flexibility Score: inf
ROOT
ATOM      1  C   UNL A   1      34.363  33.378  28.699  1.00  0.00     0.188 C 
ENDROOT
BRANCH   1   2
ATOM      2  C   UNL A   1      34.334  31.956  28.106  1.00  0.00     0.188 C 
BRANCH   2   3
ATOM      3  O   UNL A   1      33.130  31.363  27.644  1.00  0.00    -0.376 OA
BRANCH   3   4
ATOM      4  C   UNL A   1      33.170  30.455  26.560  1.00  0.00     0.202 C 
BRANCH   4   5
ATOM      5  C   UNL A   1      31.833  30.019  25.934  1.00  0.00     0.261 C 
BRANCH   5   6
ATOM      6  O   UNL A   1      31.880  29.603  24.555  1.00  0.00    -0.459 OA
BRANCH   6   7
ATOM      7  C   UNL A   1      30.681  29.310  23.957  1.00  0.00     0.348 C 
ATOM      8  O   UNL A   1      29.940  30.152  23.488  1.00  0.00    -0.245 OA
BRANCH   7   9
ATOM      9  C   UNL A   1      30.471  27.855  23.897  1.00  0.00     0.116 A 
ATOM     10  C   UNL A   1      30.996  25.409  23.946  1.00  0.00     0.141 A 
ATOM     11  C   UNL A   1      29.668  25.674  23.675  1.00  0.00     0.038 A 
ATOM     12  S   UNL A   1      31.876  26.855  24.121  1.00  0.00    -0.115 S 
ATOM     13  C   UNL A   1      29.329  27.073  23.724  1.00  0.00    -0.024 A 
ATOM     14  C   UNL A   1      27.909  27.529  23.569  1.00  0.00     0.046 C 
BRANCH  10  15
ATOM     15  S   UNL A   1      31.864  23.851  24.155  1.00  0.00     0.271 S 
ATOM     16  O   UNL A   1      31.263  22.936  23.208  1.00  0.00    -0.200 OA
ATOM     17  O   UNL A   1      31.796  23.591  25.579  1.00  0.00    -0.200 OA
BRANCH  15  18
ATOM     18  N   UNL A   1      33.508  23.976  23.732  1.00  0.00    -0.279 N 
ATOM     19  H   UNL A   1      33.828  24.800  23.299  1.00  0.00     0.180 HD
BRANCH  18  20
ATOM     20  C   UNL A   1      34.443  22.912  23.990  1.00  0.00     0.056 A 
ATOM     21  C   UNL A   1      34.895  20.654  24.677  1.00  0.00     0.124 A 
ATOM     22  C   UNL A   1      34.018  21.610  24.191  1.00  0.00     0.073 A 
ATOM     23  C   UNL A   1      36.219  20.937  24.945  1.00  0.00     0.093 A 
ATOM     24  C   UNL A   1      36.656  22.246  24.827  1.00  0.00     0.124 A 
ATOM     25  C   UNL A   1      35.771  23.229  24.337  1.00  0.00     0.073 A 
BRANCH  21  26
ATOM     26  O   UNL A   1      34.389  19.446  25.061  1.00  0.00    -0.497 OA
ATOM     27  C   UNL A   1      33.115  19.724  25.638  1.00  0.00     0.278 C 
ENDBRANCH  21  26
BRANCH  24  28
ATOM     28  O   UNL A   1      37.904  22.658  25.216  1.00  0.00    -0.497 OA
ATOM     29  C   UNL A   1      37.922  23.646  26.254  1.00  0.00     0.278 C 
ENDBRANCH  24  28
ENDBRANCH  18  20
ENDBRANCH  15  18
ENDBRANCH  10  15
ENDBRANCH   7   9
ENDBRANCH   6   7
ENDBRANCH   5   6
ENDBRANCH   4   5
ENDBRANCH   3   4
ENDBRANCH   2   3
ENDBRANCH   1   2
BRANCH   1  30
ATOM     30  O   UNL A   1      33.904  33.539  30.030  1.00  0.00    -0.377 OA
BRANCH  30  31
ATOM     31  C   UNL A   1      34.008  34.872  30.530  1.00  0.00     0.188 C 
BRANCH  31  32
ATOM     32  C   UNL A   1      33.947  34.976  32.062  1.00  0.00     0.188 C 
BRANCH  32  33
ATOM     33  O   UNL A   1      35.191  34.562  32.641  1.00  0.00    -0.376 OA
BRANCH  33  34
ATOM     34  C   UNL A   1      35.181  33.324  33.341  1.00  0.00     0.202 C 
BRANCH  34  35
ATOM     35  C   UNL A   1      35.708  32.138  32.519  1.00  0.00     0.261 C 
BRANCH  35  36
ATOM     36  O   UNL A   1      36.941  31.602  33.012  1.00  0.00    -0.460 OA
BRANCH  36  37
ATOM     37  C   UNL A   1      37.251  30.395  32.499  1.00  0.00     0.338 C 
ATOM     38  O   UNL A   1      36.497  29.448  32.354  1.00  0.00    -0.246 OA
BRANCH  37  39
ATOM     39  C   UNL A   1      38.601  30.448  31.919  1.00  0.00     0.060 A 
ATOM     40  C   UNL A   1      38.683  30.749  30.556  1.00  0.00     0.016 A 
ATOM     41  C   UNL A   1      39.745  30.142  32.662  1.00  0.00     0.016 A 
ATOM     42  C   UNL A   1      39.904  30.666  29.905  1.00  0.00     0.010 A 
ATOM     43  C   UNL A   1      40.972  30.039  32.000  1.00  0.00     0.010 A 
ATOM     44  C   UNL A   1      41.037  30.244  30.610  1.00  0.00    -0.014 A 
BRANCH  44  45
ATOM     45  C   UNL A   1      42.199  29.789  29.819  1.00  0.00     0.031 A 
ATOM     46  C   UNL A   1      43.368  30.724  29.673  1.00  0.00     0.074 A 
ATOM     47  C   UNL A   1      42.264  28.528  29.362  1.00  0.00     0.049 A 
ATOM     48  N   UNL A   1      44.532  30.519  29.113  1.00  0.00    -0.248 NA
ATOM     49  C   UNL A   1      43.207  32.071  30.249  1.00  0.00     0.031 C 
ATOM     50  C   UNL A   1      41.218  27.518  29.515  1.00  0.00     0.029 A 
ATOM     51  N   UNL A   1      43.269  27.879  28.694  1.00  0.00    -0.354 N 
ATOM     52  C   UNL A   1      45.236  31.708  29.266  1.00  0.00     0.074 A 
ATOM     53  C   UNL A   1      44.362  32.640  29.940  1.00  0.00     0.031 C 
ATOM     54  C   UNL A   1      41.642  26.367  28.962  1.00  0.00     0.029 A 
ATOM     55  C   UNL A   1      42.970  26.574  28.392  1.00  0.00     0.049 A 
ATOM     56  H   UNL A   1      44.123  28.306  28.455  1.00  0.00     0.167 HD
ATOM     57  C   UNL A   1      46.504  31.993  28.887  1.00  0.00     0.031 A 
ATOM     58  C   UNL A   1      43.691  25.657  27.718  1.00  0.00     0.031 A 
ATOM     59  C   UNL A   1      47.360  31.065  28.200  1.00  0.00     0.049 A 
ATOM     60  C   UNL A   1      45.064  26.031  27.226  1.00  0.00     0.074 A 
ATOM     61  C   UNL A   1      48.659  31.250  27.763  1.00  0.00     0.029 A 
ATOM     62  N   UNL A   1      46.994  29.777  27.842  1.00  0.00    -0.354 N 
ATOM     63  N   UNL A   1      45.727  27.152  27.387  1.00  0.00    -0.248 NA
ATOM     64  C   UNL A   1      45.793  25.004  26.469  1.00  0.00     0.031 C 
ATOM     65  C   UNL A   1      49.055  30.094  27.081  1.00  0.00     0.029 A 
ATOM     66  C   UNL A   1      48.031  29.164  27.161  1.00  0.00     0.049 A 
ATOM     67  H   UNL A   1      46.124  29.359  28.043  1.00  0.00     0.167 HD
ATOM     68  C   UNL A   1      46.959  26.956  26.777  1.00  0.00     0.074 A 
ATOM     69  C   UNL A   1      46.959  25.600  26.265  1.00  0.00     0.031 C 
ATOM     70  C   UNL A   1      48.001  27.816  26.652  1.00  0.00     0.031 A 
BRANCH  57  71
ATOM     71  C   UNL A   1      47.012  33.382  29.162  1.00  0.00    -0.014 A 
ATOM     72  C   UNL A   1      47.716  33.689  30.339  1.00  0.00     0.009 A 
ATOM     73  C   UNL A   1      46.791  34.399  28.221  1.00  0.00     0.009 A 
ATOM     74  C   UNL A   1      48.155  34.993  30.580  1.00  0.00     0.001 A 
ATOM     75  C   UNL A   1      47.260  35.694  28.450  1.00  0.00     0.001 A 
ATOM     76  C   UNL A   1      47.932  35.993  29.634  1.00  0.00     0.000 A 
ENDBRANCH  57  71
BRANCH  58  77
ATOM     77  C   UNL A   1      43.122  24.309  27.452  1.00  0.00    -0.014 A 
ATOM     78  C   UNL A   1      43.245  23.273  28.389  1.00  0.00     0.009 A 
ATOM     79  C   UNL A   1      42.469  24.047  26.236  1.00  0.00     0.009 A 
ATOM     80  C   UNL A   1      42.751  21.998  28.103  1.00  0.00     0.001 A 
ATOM     81  C   UNL A   1      41.947  22.780  25.966  1.00  0.00     0.001 A 
ATOM     82  C   UNL A   1      42.099  21.754  26.896  1.00  0.00     0.000 A 
ENDBRANCH  58  77
BRANCH  70  83
ATOM     83  C   UNL A   1      49.234  27.298  25.963  1.00  0.00    -0.014 A 
ATOM     84  C   UNL A   1      50.255  26.648  26.676  1.00  0.00     0.009 A 
ATOM     85  C   UNL A   1      49.364  27.443  24.572  1.00  0.00     0.009 A 
ATOM     86  C   UNL A   1      51.401  26.201  26.016  1.00  0.00     0.001 A 
ATOM     87  C   UNL A   1      50.493  26.961  23.911  1.00  0.00     0.001 A 
ATOM     88  C   UNL A   1      51.517  26.354  24.635  1.00  0.00     0.000 A 
ENDBRANCH  70  83
ENDBRANCH  44  45
ENDBRANCH  37  39
ENDBRANCH  36  37
ENDBRANCH  35  36
ENDBRANCH  34  35
ENDBRANCH  33  34
ENDBRANCH  32  33
ENDBRANCH  31  32
ENDBRANCH  30  31
ENDBRANCH   1  30
TORSDOF 25
ENDMDL
