MODEL 1
REMARK VINA RESULT:      -9.5      0.000      0.000
REMARK SMILES C[C@@H]1CN(C(=O)Nc2ccc(O)c(C(=O)OCCOCCOCCOCCOC(=O)c3ccc(-c4c5nc(c(-c6ccccc6)c6ccc([nH]6)c(-c6ccccc6)c6nc(c(-c7ccccc7)c7ccc4[nH]7)C=C6)C=C5)cc3)c2)C[C@@H]1C
REMARK SMILES IDX 22 1 21 2 20 3 19 4 18 5 17 6 16 7 14 8 15 9 13 10 8 11 9 12
REMARK SMILES IDX 79 13 10 14 11 15 7 16 5 17 6 18 4 20 1 21 2 22 3 23 81 24
REMARK SMILES IDX 80 25 82 26 12 27 23 29 24 30 25 31 26 32 27 33 28 34 29 35
REMARK SMILES IDX 30 36 31 37 32 38 78 39 33 40 77 41 34 42 35 43 36 44 71 45
REMARK SMILES IDX 37 46 76 47 70 48 72 49 38 50 75 51 69 52 68 53 39 55 61 56
REMARK SMILES IDX 46 57 60 58 47 59 50 60 59 61 73 62 48 63 49 64 58 66 74 67
REMARK SMILES IDX 51 68 40 69 41 70 45 71 42 72 44 73 43 74 62 75 63 76 67 77
REMARK SMILES IDX 64 78 66 79 65 80 52 81 53 82 57 83 54 84 56 85 55 86
REMARK H PARENT 7 19 12 28 72 54 50 65
REMARK Flexibility Score: inf
ROOT
ATOM      1  O   UNL A   1      34.543  31.813  28.502  1.00  0.00    -0.377 OA
ENDROOT
BRANCH   1   2
ATOM      2  C   UNL A   1      33.958  31.045  27.458  1.00  0.00     0.188 C 
BRANCH   2   3
ATOM      3  C   UNL A   1      32.580  31.438  26.872  1.00  0.00     0.188 C 
BRANCH   3   4
ATOM      4  O   UNL A   1      31.648  30.373  26.829  1.00  0.00    -0.376 OA
BRANCH   4   5
ATOM      5  C   UNL A   1      31.906  29.194  27.567  1.00  0.00     0.202 C 
BRANCH   5   6
ATOM      6  C   UNL A   1      31.649  27.832  26.909  1.00  0.00     0.261 C 
BRANCH   6   7
ATOM      7  O   UNL A   1      32.118  27.714  25.567  1.00  0.00    -0.460 OA
BRANCH   7   8
ATOM      8  C   UNL A   1      31.198  27.639  24.580  1.00  0.00     0.342 C 
ATOM      9  O   UNL A   1      30.556  28.563  24.111  1.00  0.00    -0.246 OA
BRANCH   8  10
ATOM     10  C   UNL A   1      31.307  26.295  23.967  1.00  0.00     0.103 A 
ATOM     11  C   UNL A   1      32.754  24.543  23.163  1.00  0.00     0.044 A 
ATOM     12  C   UNL A   1      31.659  23.685  23.039  1.00  0.00     0.030 A 
ATOM     13  C   UNL A   1      32.600  25.818  23.701  1.00  0.00     0.045 A 
ATOM     14  C   UNL A   1      30.373  24.155  23.312  1.00  0.00     0.049 A 
ATOM     15  C   UNL A   1      30.196  25.472  23.736  1.00  0.00     0.130 A 
BRANCH  11  16
ATOM     16  N   UNL A   1      33.999  24.178  22.650  1.00  0.00    -0.308 N 
ATOM     17  C   UNL A   1      34.878  23.231  23.097  1.00  0.00     0.321 C 
ATOM     18  O   UNL A   1      35.949  23.133  22.489  1.00  0.00    -0.248 OA
ATOM     19  H   UNL A   1      34.286  24.675  21.850  1.00  0.00     0.171 HD
BRANCH  17  20
ATOM     20  N   UNL A   1      34.536  22.350  24.093  1.00  0.00    -0.324 N 
ATOM     21  C   UNL A   1      33.236  19.088  25.232  1.00  0.00     0.010 C 
ATOM     22  C   UNL A   1      33.703  20.528  25.393  1.00  0.00     0.010 C 
ATOM     23  C   UNL A   1      33.526  21.305  24.096  1.00  0.00     0.125 C 
ATOM     24  C   UNL A   1      35.175  20.774  25.747  1.00  0.00     0.010 C 
ATOM     25  C   UNL A   1      35.365  22.230  25.287  1.00  0.00     0.125 C 
ATOM     26  C   UNL A   1      36.170  19.846  25.048  1.00  0.00     0.010 C 
ENDBRANCH  17  20
ENDBRANCH  11  16
BRANCH  15  27
ATOM     27  O   UNL A   1      28.930  25.954  23.901  1.00  0.00    -0.507 OA
ATOM     28  H   UNL A   1      28.685  26.361  24.708  1.00  0.00     0.293 HD
ENDBRANCH  15  27
ENDBRANCH   8  10
ENDBRANCH   7   8
ENDBRANCH   6   7
ENDBRANCH   5   6
ENDBRANCH   4   5
ENDBRANCH   3   4
ENDBRANCH   2   3
ENDBRANCH   1   2
BRANCH   1  29
ATOM     29  C   UNL A   1      34.713  33.218  28.328  1.00  0.00     0.188 C 
BRANCH  29  30
ATOM     30  C   UNL A   1      33.527  34.185  28.558  1.00  0.00     0.188 C 
BRANCH  30  31
ATOM     31  O   UNL A   1      33.306  34.539  29.913  1.00  0.00    -0.376 OA
BRANCH  31  32
ATOM     32  C   UNL A   1      34.393  34.409  30.811  1.00  0.00     0.202 C 
BRANCH  32  33
ATOM     33  C   UNL A   1      34.211  33.474  32.017  1.00  0.00     0.261 C 
BRANCH  33  34
ATOM     34  O   UNL A   1      35.077  32.330  32.073  1.00  0.00    -0.460 OA
BRANCH  34  35
ATOM     35  C   UNL A   1      36.097  32.363  32.956  1.00  0.00     0.338 C 
ATOM     36  O   UNL A   1      36.030  32.542  34.161  1.00  0.00    -0.246 OA
BRANCH  35  37
ATOM     37  C   UNL A   1      37.318  31.956  32.231  1.00  0.00     0.060 A 
ATOM     38  C   UNL A   1      37.410  32.194  30.853  1.00  0.00     0.016 A 
ATOM     39  C   UNL A   1      38.378  31.367  32.922  1.00  0.00     0.016 A 
ATOM     40  C   UNL A   1      38.562  31.825  30.157  1.00  0.00     0.010 A 
ATOM     41  C   UNL A   1      39.520  30.976  32.221  1.00  0.00     0.010 A 
ATOM     42  C   UNL A   1      39.607  31.179  30.832  1.00  0.00    -0.014 A 
BRANCH  42  43
ATOM     43  C   UNL A   1      40.719  30.567  30.069  1.00  0.00     0.031 A 
ATOM     44  C   UNL A   1      41.952  31.387  29.816  1.00  0.00     0.074 A 
ATOM     45  C   UNL A   1      40.637  29.308  29.604  1.00  0.00     0.049 A 
ATOM     46  N   UNL A   1      43.018  31.091  29.117  1.00  0.00    -0.248 NA
ATOM     47  C   UNL A   1      41.982  32.722  30.432  1.00  0.00     0.031 C 
ATOM     48  C   UNL A   1      39.517  28.396  29.820  1.00  0.00     0.029 A 
ATOM     49  N   UNL A   1      41.519  28.589  28.836  1.00  0.00    -0.354 N 
ATOM     50  C   UNL A   1      43.840  32.208  29.201  1.00  0.00     0.074 A 
ATOM     51  C   UNL A   1      43.137  33.196  29.989  1.00  0.00     0.031 C 
ATOM     52  C   UNL A   1      39.773  27.239  29.186  1.00  0.00     0.029 A 
ATOM     53  C   UNL A   1      41.054  27.345  28.488  1.00  0.00     0.049 A 
ATOM     54  H   UNL A   1      42.400  28.932  28.562  1.00  0.00     0.167 HD
ATOM     55  C   UNL A   1      45.072  32.394  28.669  1.00  0.00     0.031 A 
ATOM     56  C   UNL A   1      41.586  26.412  27.676  1.00  0.00     0.031 A 
ATOM     57  C   UNL A   1      45.758  31.422  27.860  1.00  0.00     0.049 A 
ATOM     58  C   UNL A   1      42.914  26.677  27.014  1.00  0.00     0.074 A 
ATOM     59  C   UNL A   1      47.014  31.508  27.287  1.00  0.00     0.029 A 
ATOM     60  N   UNL A   1      45.233  30.192  27.493  1.00  0.00    -0.354 N 
ATOM     61  N   UNL A   1      43.698  27.723  27.123  1.00  0.00    -0.248 NA
ATOM     62  C   UNL A   1      43.430  25.630  26.122  1.00  0.00     0.031 C 
ATOM     63  C   UNL A   1      47.220  30.359  26.515  1.00  0.00     0.029 A 
ATOM     64  C   UNL A   1      46.123  29.526  26.666  1.00  0.00     0.049 A 
ATOM     65  H   UNL A   1      44.358  29.842  27.779  1.00  0.00     0.167 HD
ATOM     66  C   UNL A   1      44.808  27.451  26.331  1.00  0.00     0.074 A 
ATOM     67  C   UNL A   1      44.604  26.133  25.765  1.00  0.00     0.031 C 
ATOM     68  C   UNL A   1      45.899  28.221  26.095  1.00  0.00     0.031 A 
BRANCH  55  69
ATOM     69  C   UNL A   1      45.726  33.728  28.907  1.00  0.00    -0.014 A 
ATOM     70  C   UNL A   1      45.420  34.849  28.118  1.00  0.00     0.009 A 
ATOM     71  C   UNL A   1      46.666  33.865  29.940  1.00  0.00     0.009 A 
ATOM     72  C   UNL A   1      46.076  36.064  28.329  1.00  0.00     0.001 A 
ATOM     73  C   UNL A   1      47.296  35.089  30.172  1.00  0.00     0.001 A 
ATOM     74  C   UNL A   1      47.010  36.184  29.358  1.00  0.00     0.000 A 
ENDBRANCH  55  69
BRANCH  56  75
ATOM     75  C   UNL A   1      40.846  25.150  27.416  1.00  0.00    -0.014 A 
ATOM     76  C   UNL A   1      41.283  23.934  27.965  1.00  0.00     0.009 A 
ATOM     77  C   UNL A   1      39.691  25.155  26.615  1.00  0.00     0.009 A 
ATOM     78  C   UNL A   1      40.587  22.751  27.705  1.00  0.00     0.001 A 
ATOM     79  C   UNL A   1      38.981  23.976  26.383  1.00  0.00     0.001 A 
ATOM     80  C   UNL A   1      39.434  22.773  26.923  1.00  0.00     0.000 A 
ENDBRANCH  56  75
BRANCH  68  81
ATOM     81  C   UNL A   1      46.968  27.651  25.200  1.00  0.00    -0.014 A 
ATOM     82  C   UNL A   1      47.009  27.950  23.829  1.00  0.00     0.009 A 
ATOM     83  C   UNL A   1      47.974  26.839  25.747  1.00  0.00     0.009 A 
ATOM     84  C   UNL A   1      48.015  27.417  23.019  1.00  0.00     0.001 A 
ATOM     85  C   UNL A   1      48.996  26.335  24.942  1.00  0.00     0.001 A 
ATOM     86  C   UNL A   1      49.010  26.615  23.577  1.00  0.00     0.000 A 
ENDBRANCH  68  81
ENDBRANCH  42  43
ENDBRANCH  35  37
ENDBRANCH  34  35
ENDBRANCH  33  34
ENDBRANCH  32  33
ENDBRANCH  31  32
ENDBRANCH  30  31
ENDBRANCH  29  30
ENDBRANCH   1  29
TORSDOF 23
ENDMDL
MODEL 2
REMARK VINA RESULT:      -8.9      1.260      5.859
REMARK SMILES C[C@@H]1CN(C(=O)Nc2ccc(O)c(C(=O)OCCOCCOCCOCCOC(=O)c3ccc(-c4c5nc(c(-c6ccccc6)c6ccc([nH]6)c(-c6ccccc6)c6nc(c(-c7ccccc7)c7ccc4[nH]7)C=C6)C=C5)cc3)c2)C[C@@H]1C
REMARK SMILES IDX 22 1 21 2 20 3 19 4 18 5 17 6 16 7 14 8 15 9 13 10 8 11 9 12
REMARK SMILES IDX 79 13 10 14 11 15 7 16 5 17 6 18 4 20 1 21 2 22 3 23 81 24
REMARK SMILES IDX 80 25 82 26 12 27 23 29 24 30 25 31 26 32 27 33 28 34 29 35
REMARK SMILES IDX 30 36 31 37 32 38 78 39 33 40 77 41 34 42 35 43 36 44 71 45
REMARK SMILES IDX 37 46 76 47 70 48 72 49 38 50 75 51 69 52 68 53 39 55 61 56
REMARK SMILES IDX 46 57 60 58 47 59 50 60 59 61 73 62 48 63 49 64 58 66 74 67
REMARK SMILES IDX 51 68 40 69 41 70 45 71 42 72 44 73 43 74 62 75 63 76 67 77
REMARK SMILES IDX 64 78 66 79 65 80 52 81 53 82 57 83 54 84 56 85 55 86
REMARK H PARENT 7 19 12 28 72 54 50 65
REMARK Flexibility Score: inf
ROOT
ATOM      1  O   UNL A   1      34.273  31.519  28.447  1.00  0.00    -0.377 OA
ENDROOT
BRANCH   1   2
ATOM      2  C   UNL A   1      33.714  30.963  27.263  1.00  0.00     0.188 C 
BRANCH   2   3
ATOM      3  C   UNL A   1      32.251  31.274  26.864  1.00  0.00     0.188 C 
BRANCH   3   4
ATOM      4  O   UNL A   1      31.620  30.236  26.134  1.00  0.00    -0.376 OA
BRANCH   4   5
ATOM      5  C   UNL A   1      31.759  28.897  26.569  1.00  0.00     0.202 C 
BRANCH   5   6
ATOM      6  C   UNL A   1      32.071  27.807  25.536  1.00  0.00     0.261 C 
BRANCH   6   7
ATOM      7  O   UNL A   1      33.416  27.797  25.060  1.00  0.00    -0.460 OA
BRANCH   7   8
ATOM      8  C   UNL A   1      33.613  27.739  23.725  1.00  0.00     0.342 C 
ATOM      9  O   UNL A   1      33.919  28.665  22.992  1.00  0.00    -0.246 OA
BRANCH   8  10
ATOM     10  C   UNL A   1      33.679  26.310  23.343  1.00  0.00     0.103 A 
ATOM     11  C   UNL A   1      34.405  24.085  23.922  1.00  0.00     0.044 A 
ATOM     12  C   UNL A   1      33.665  23.559  22.861  1.00  0.00     0.030 A 
ATOM     13  C   UNL A   1      34.352  25.445  24.218  1.00  0.00     0.045 A 
ATOM     14  C   UNL A   1      32.986  24.417  21.993  1.00  0.00     0.049 A 
ATOM     15  C   UNL A   1      33.029  25.794  22.212  1.00  0.00     0.130 A 
BRANCH  11  16
ATOM     16  N   UNL A   1      35.293  23.278  24.633  1.00  0.00    -0.308 N 
ATOM     17  C   UNL A   1      35.111  22.015  25.128  1.00  0.00     0.321 C 
ATOM     18  O   UNL A   1      36.047  21.530  25.772  1.00  0.00    -0.248 OA
ATOM     19  H   UNL A   1      36.177  23.674  24.803  1.00  0.00     0.171 HD
BRANCH  17  20
ATOM     20  N   UNL A   1      33.995  21.279  24.819  1.00  0.00    -0.324 N 
ATOM     21  C   UNL A   1      32.158  18.935  22.637  1.00  0.00     0.010 C 
ATOM     22  C   UNL A   1      32.323  19.926  23.781  1.00  0.00     0.010 C 
ATOM     23  C   UNL A   1      33.489  20.869  23.520  1.00  0.00     0.125 C 
ATOM     24  C   UNL A   1      32.632  19.371  25.177  1.00  0.00     0.010 C 
ATOM     25  C   UNL A   1      33.245  20.600  25.870  1.00  0.00     0.125 C 
ATOM     26  C   UNL A   1      33.601  18.189  25.201  1.00  0.00     0.010 C 
ENDBRANCH  17  20
ENDBRANCH  11  16
BRANCH  15  27
ATOM     27  O   UNL A   1      32.450  26.631  21.303  1.00  0.00    -0.507 OA
ATOM     28  H   UNL A   1      32.949  26.953  20.578  1.00  0.00     0.293 HD
ENDBRANCH  15  27
ENDBRANCH   8  10
ENDBRANCH   7   8
ENDBRANCH   6   7
ENDBRANCH   5   6
ENDBRANCH   4   5
ENDBRANCH   3   4
ENDBRANCH   2   3
ENDBRANCH   1   2
BRANCH   1  29
ATOM     29  C   UNL A   1      34.648  32.894  28.465  1.00  0.00     0.188 C 
BRANCH  29  30
ATOM     30  C   UNL A   1      33.607  33.987  28.804  1.00  0.00     0.188 C 
BRANCH  30  31
ATOM     31  O   UNL A   1      33.760  34.573  30.085  1.00  0.00    -0.376 OA
BRANCH  31  32
ATOM     32  C   UNL A   1      34.822  34.104  30.898  1.00  0.00     0.202 C 
BRANCH  32  33
ATOM     33  C   UNL A   1      34.478  33.093  32.003  1.00  0.00     0.261 C 
BRANCH  33  34
ATOM     34  O   UNL A   1      35.267  31.894  32.037  1.00  0.00    -0.460 OA
BRANCH  34  35
ATOM     35  C   UNL A   1      36.382  31.904  32.796  1.00  0.00     0.338 C 
ATOM     36  O   UNL A   1      36.472  32.185  33.980  1.00  0.00    -0.246 OA
BRANCH  35  37
ATOM     37  C   UNL A   1      37.472  31.330  31.982  1.00  0.00     0.060 A 
ATOM     38  C   UNL A   1      38.564  30.728  32.622  1.00  0.00     0.016 A 
ATOM     39  C   UNL A   1      37.397  31.364  30.588  1.00  0.00     0.016 A 
ATOM     40  C   UNL A   1      39.596  30.172  31.865  1.00  0.00     0.010 A 
ATOM     41  C   UNL A   1      38.441  30.829  29.832  1.00  0.00     0.010 A 
ATOM     42  C   UNL A   1      39.557  30.254  30.466  1.00  0.00    -0.014 A 
BRANCH  42  43
ATOM     43  C   UNL A   1      40.749  29.892  29.666  1.00  0.00     0.031 A 
ATOM     44  C   UNL A   1      40.841  28.501  29.103  1.00  0.00     0.074 A 
ATOM     45  C   UNL A   1      41.738  30.776  29.445  1.00  0.00     0.049 A 
ATOM     46  N   UNL A   1      41.814  27.937  28.436  1.00  0.00    -0.248 NA
ATOM     47  C   UNL A   1      39.676  27.631  29.330  1.00  0.00     0.031 C 
ATOM     48  C   UNL A   1      41.748  32.165  29.897  1.00  0.00     0.029 A 
ATOM     49  N   UNL A   1      42.935  30.621  28.791  1.00  0.00    -0.354 N 
ATOM     50  C   UNL A   1      41.383  26.642  28.172  1.00  0.00     0.074 A 
ATOM     51  C   UNL A   1      40.079  26.496  28.779  1.00  0.00     0.031 C 
ATOM     52  C   UNL A   1      42.905  32.734  29.517  1.00  0.00     0.029 A 
ATOM     53  C   UNL A   1      43.730  31.739  28.833  1.00  0.00     0.049 A 
ATOM     54  H   UNL A   1      43.197  29.788  28.335  1.00  0.00     0.167 HD
ATOM     55  C   UNL A   1      42.018  25.662  27.486  1.00  0.00     0.031 A 
ATOM     56  C   UNL A   1      44.990  31.928  28.397  1.00  0.00     0.031 A 
ATOM     57  C   UNL A   1      43.329  25.799  26.910  1.00  0.00     0.049 A 
ATOM     58  C   UNL A   1      45.718  30.794  27.722  1.00  0.00     0.074 A 
ATOM     59  C   UNL A   1      44.054  24.871  26.183  1.00  0.00     0.029 A 
ATOM     60  N   UNL A   1      44.121  26.933  27.014  1.00  0.00    -0.354 N 
ATOM     61  N   UNL A   1      45.292  29.584  27.450  1.00  0.00    -0.248 NA
ATOM     62  C   UNL A   1      47.098  31.057  27.289  1.00  0.00     0.031 C 
ATOM     63  C   UNL A   1      45.312  25.418  25.908  1.00  0.00     0.029 A 
ATOM     64  C   UNL A   1      45.344  26.714  26.400  1.00  0.00     0.049 A 
ATOM     65  H   UNL A   1      43.854  27.771  27.458  1.00  0.00     0.167 HD
ATOM     66  C   UNL A   1      46.343  28.948  26.798  1.00  0.00     0.074 A 
ATOM     67  C   UNL A   1      47.418  29.915  26.697  1.00  0.00     0.031 C 
ATOM     68  C   UNL A   1      46.412  27.679  26.323  1.00  0.00     0.031 A 
BRANCH  55  69
ATOM     69  C   UNL A   1      41.314  24.337  27.375  1.00  0.00    -0.014 A 
ATOM     70  C   UNL A   1      40.182  24.171  26.560  1.00  0.00     0.009 A 
ATOM     71  C   UNL A   1      41.793  23.234  28.100  1.00  0.00     0.009 A 
ATOM     72  C   UNL A   1      39.519  22.943  26.511  1.00  0.00     0.001 A 
ATOM     73  C   UNL A   1      41.148  21.999  28.023  1.00  0.00     0.001 A 
ATOM     74  C   UNL A   1      40.004  21.857  27.240  1.00  0.00     0.000 A 
ENDBRANCH  55  69
BRANCH  56  75
ATOM     75  C   UNL A   1      45.659  33.237  28.615  1.00  0.00    -0.014 A 
ATOM     76  C   UNL A   1      46.343  33.506  29.810  1.00  0.00     0.009 A 
ATOM     77  C   UNL A   1      45.617  34.230  27.621  1.00  0.00     0.009 A 
ATOM     78  C   UNL A   1      46.958  34.744  30.010  1.00  0.00     0.001 A 
ATOM     79  C   UNL A   1      46.258  35.455  27.812  1.00  0.00     0.001 A 
ATOM     80  C   UNL A   1      46.923  35.714  29.010  1.00  0.00     0.000 A 
ENDBRANCH  56  75
BRANCH  68  81
ATOM     81  C   UNL A   1      47.685  27.267  25.632  1.00  0.00    -0.014 A 
ATOM     82  C   UNL A   1      48.731  26.648  26.336  1.00  0.00     0.009 A 
ATOM     83  C   UNL A   1      47.822  27.462  24.249  1.00  0.00     0.009 A 
ATOM     84  C   UNL A   1      49.900  26.266  25.673  1.00  0.00     0.001 A 
ATOM     85  C   UNL A   1      48.976  27.049  23.584  1.00  0.00     0.001 A 
ATOM     86  C   UNL A   1      50.019  26.461  24.298  1.00  0.00     0.000 A 
ENDBRANCH  68  81
ENDBRANCH  42  43
ENDBRANCH  35  37
ENDBRANCH  34  35
ENDBRANCH  33  34
ENDBRANCH  32  33
ENDBRANCH  31  32
ENDBRANCH  30  31
ENDBRANCH  29  30
ENDBRANCH   1  29
TORSDOF 23
ENDMDL
MODEL 3
REMARK VINA RESULT:      -8.8      4.984     12.359
REMARK SMILES C[C@@H]1CN(C(=O)Nc2ccc(O)c(C(=O)OCCOCCOCCOCCOC(=O)c3ccc(-c4c5nc(c(-c6ccccc6)c6ccc([nH]6)c(-c6ccccc6)c6nc(c(-c7ccccc7)c7ccc4[nH]7)C=C6)C=C5)cc3)c2)C[C@@H]1C
REMARK SMILES IDX 22 1 21 2 20 3 19 4 18 5 17 6 16 7 14 8 15 9 13 10 8 11 9 12
REMARK SMILES IDX 79 13 10 14 11 15 7 16 5 17 6 18 4 20 1 21 2 22 3 23 81 24
REMARK SMILES IDX 80 25 82 26 12 27 23 29 24 30 25 31 26 32 27 33 28 34 29 35
REMARK SMILES IDX 30 36 31 37 32 38 78 39 33 40 77 41 34 42 35 43 36 44 71 45
REMARK SMILES IDX 37 46 76 47 70 48 72 49 38 50 75 51 69 52 68 53 39 55 61 56
REMARK SMILES IDX 46 57 60 58 47 59 50 60 59 61 73 62 48 63 49 64 58 66 74 67
REMARK SMILES IDX 51 68 40 69 41 70 45 71 42 72 44 73 43 74 62 75 63 76 67 77
REMARK SMILES IDX 64 78 66 79 65 80 52 81 53 82 57 83 54 84 56 85 55 86
REMARK H PARENT 7 19 12 28 72 54 50 65
REMARK Flexibility Score: inf
ROOT
ATOM      1  O   UNL A   1      44.633  23.870  24.938  1.00  0.00    -0.377 OA
ENDROOT
BRANCH   1   2
ATOM      2  C   UNL A   1      43.846  25.040  25.126  1.00  0.00     0.188 C 
BRANCH   2   3
ATOM      3  C   UNL A   1      44.356  26.194  26.022  1.00  0.00     0.188 C 
BRANCH   3   4
ATOM      4  O   UNL A   1      45.768  26.271  26.114  1.00  0.00    -0.376 OA
BRANCH   4   5
ATOM      5  C   UNL A   1      46.500  26.878  25.067  1.00  0.00     0.202 C 
BRANCH   5   6
ATOM      6  C   UNL A   1      46.594  28.408  25.015  1.00  0.00     0.261 C 
BRANCH   6   7
ATOM      7  O   UNL A   1      47.705  28.966  25.716  1.00  0.00    -0.460 OA
BRANCH   7   8
ATOM      8  C   UNL A   1      47.481  29.485  26.943  1.00  0.00     0.342 C 
ATOM      9  O   UNL A   1      47.536  28.892  28.006  1.00  0.00    -0.246 OA
BRANCH   8  10
ATOM     10  C   UNL A   1      47.442  30.959  26.805  1.00  0.00     0.103 A 
ATOM     11  C   UNL A   1      46.147  32.911  26.236  1.00  0.00     0.044 A 
ATOM     12  C   UNL A   1      47.158  33.737  26.732  1.00  0.00     0.030 A 
ATOM     13  C   UNL A   1      46.245  31.526  26.342  1.00  0.00     0.045 A 
ATOM     14  C   UNL A   1      48.347  33.175  27.202  1.00  0.00     0.049 A 
ATOM     15  C   UNL A   1      48.503  31.789  27.199  1.00  0.00     0.130 A 
BRANCH  11  16
ATOM     16  N   UNL A   1      45.075  33.454  25.527  1.00  0.00    -0.308 N 
ATOM     17  C   UNL A   1      44.033  34.216  25.981  1.00  0.00     0.321 C 
ATOM     18  O   UNL A   1      43.175  34.536  25.152  1.00  0.00    -0.248 OA
ATOM     19  H   UNL A   1      45.068  33.262  24.562  1.00  0.00     0.171 HD
BRANCH  17  20
ATOM     20  N   UNL A   1      44.007  34.702  27.264  1.00  0.00    -0.324 N 
ATOM     21  C   UNL A   1      43.620  37.472  29.675  1.00  0.00     0.010 C 
ATOM     22  C   UNL A   1      43.965  36.057  29.230  1.00  0.00     0.010 C 
ATOM     23  C   UNL A   1      44.345  36.027  27.757  1.00  0.00     0.125 C 
ATOM     24  C   UNL A   1      42.873  34.983  29.329  1.00  0.00     0.010 C 
ATOM     25  C   UNL A   1      43.386  33.928  28.333  1.00  0.00     0.125 C 
ATOM     26  C   UNL A   1      41.469  35.455  28.950  1.00  0.00     0.010 C 
ENDBRANCH  17  20
ENDBRANCH  11  16
BRANCH  15  27
ATOM     27  O   UNL A   1      49.704  31.252  27.562  1.00  0.00    -0.507 OA
ATOM     28  H   UNL A   1      49.740  30.397  27.942  1.00  0.00     0.293 HD
ENDBRANCH  15  27
ENDBRANCH   8  10
ENDBRANCH   7   8
ENDBRANCH   6   7
ENDBRANCH   5   6
ENDBRANCH   4   5
ENDBRANCH   3   4
ENDBRANCH   2   3
ENDBRANCH   1   2
BRANCH   1  29
ATOM     29  C   UNL A   1      44.003  22.662  24.522  1.00  0.00     0.188 C 
BRANCH  29  30
ATOM     30  C   UNL A   1      43.647  21.567  25.556  1.00  0.00     0.188 C 
BRANCH  30  31
ATOM     31  O   UNL A   1      42.821  22.005  26.622  1.00  0.00    -0.376 OA
BRANCH  31  32
ATOM     32  C   UNL A   1      41.874  21.087  27.139  1.00  0.00     0.202 C 
BRANCH  32  33
ATOM     33  C   UNL A   1      40.387  21.406  26.928  1.00  0.00     0.261 C 
BRANCH  33  34
ATOM     34  O   UNL A   1      40.083  22.404  25.941  1.00  0.00    -0.460 OA
BRANCH  34  35
ATOM     35  C   UNL A   1      39.002  23.183  26.156  1.00  0.00     0.338 C 
ATOM     36  O   UNL A   1      37.835  22.914  25.925  1.00  0.00    -0.246 OA
BRANCH  35  37
ATOM     37  C   UNL A   1      39.461  24.373  26.900  1.00  0.00     0.060 A 
ATOM     38  C   UNL A   1      39.078  24.536  28.239  1.00  0.00     0.016 A 
ATOM     39  C   UNL A   1      40.290  25.310  26.282  1.00  0.00     0.016 A 
ATOM     40  C   UNL A   1      39.512  25.650  28.959  1.00  0.00     0.010 A 
ATOM     41  C   UNL A   1      40.705  26.436  26.995  1.00  0.00     0.010 A 
ATOM     42  C   UNL A   1      40.297  26.624  28.327  1.00  0.00    -0.014 A 
BRANCH  42  43
ATOM     43  C   UNL A   1      40.558  27.919  28.998  1.00  0.00     0.031 A 
ATOM     44  C   UNL A   1      41.857  28.098  29.730  1.00  0.00     0.074 A 
ATOM     45  C   UNL A   1      39.658  28.916  28.965  1.00  0.00     0.049 A 
ATOM     46  N   UNL A   1      42.275  29.110  30.447  1.00  0.00    -0.248 NA
ATOM     47  C   UNL A   1      42.811  26.981  29.644  1.00  0.00     0.031 C 
ATOM     48  C   UNL A   1      38.383  28.884  28.253  1.00  0.00     0.029 A 
ATOM     49  N   UNL A   1      39.682  30.151  29.564  1.00  0.00    -0.354 N 
ATOM     50  C   UNL A   1      43.535  28.747  30.906  1.00  0.00     0.074 A 
ATOM     51  C   UNL A   1      43.799  27.413  30.415  1.00  0.00     0.031 C 
ATOM     52  C   UNL A   1      37.738  30.044  28.467  1.00  0.00     0.029 A 
ATOM     53  C   UNL A   1      38.536  30.880  29.363  1.00  0.00     0.049 A 
ATOM     54  H   UNL A   1      40.448  30.483  30.086  1.00  0.00     0.167 HD
ATOM     55  C   UNL A   1      44.397  29.462  31.669  1.00  0.00     0.031 A 
ATOM     56  C   UNL A   1      38.162  32.072  29.867  1.00  0.00     0.031 A 
ATOM     57  C   UNL A   1      44.120  30.777  32.183  1.00  0.00     0.049 A 
ATOM     58  C   UNL A   1      39.095  32.809  30.793  1.00  0.00     0.074 A 
ATOM     59  C   UNL A   1      44.933  31.591  32.952  1.00  0.00     0.029 A 
ATOM     60  N   UNL A   1      42.929  31.462  31.994  1.00  0.00    -0.354 N 
ATOM     61  N   UNL A   1      40.296  32.473  31.197  1.00  0.00    -0.248 NA
ATOM     62  C   UNL A   1      38.618  34.092  31.328  1.00  0.00     0.031 C 
ATOM     63  C   UNL A   1      44.206  32.739  33.288  1.00  0.00     0.029 A 
ATOM     64  C   UNL A   1      42.968  32.672  32.667  1.00  0.00     0.049 A 
ATOM     65  H   UNL A   1      42.168  31.137  31.460  1.00  0.00     0.167 HD
ATOM     66  C   UNL A   1      40.727  33.510  32.016  1.00  0.00     0.074 A 
ATOM     67  C   UNL A   1      39.666  34.497  32.033  1.00  0.00     0.031 C 
ATOM     68  C   UNL A   1      41.897  33.637  32.691  1.00  0.00     0.031 A 
BRANCH  55  69
ATOM     69  C   UNL A   1      45.698  28.801  32.035  1.00  0.00    -0.014 A 
ATOM     70  C   UNL A   1      46.859  28.987  31.267  1.00  0.00     0.009 A 
ATOM     71  C   UNL A   1      45.763  27.977  33.169  1.00  0.00     0.009 A 
ATOM     72  C   UNL A   1      48.043  28.324  31.601  1.00  0.00     0.001 A 
ATOM     73  C   UNL A   1      46.955  27.343  33.521  1.00  0.00     0.001 A 
ATOM     74  C   UNL A   1      48.091  27.506  32.729  1.00  0.00     0.000 A 
ENDBRANCH  55  69
BRANCH  56  75
ATOM     75  C   UNL A   1      36.826  32.629  29.532  1.00  0.00    -0.014 A 
ATOM     76  C   UNL A   1      36.624  33.351  28.346  1.00  0.00     0.009 A 
ATOM     77  C   UNL A   1      35.738  32.438  30.402  1.00  0.00     0.009 A 
ATOM     78  C   UNL A   1      35.367  33.881  28.046  1.00  0.00     0.001 A 
ATOM     79  C   UNL A   1      34.476  32.942  30.083  1.00  0.00     0.001 A 
ATOM     80  C   UNL A   1      34.293  33.670  28.909  1.00  0.00     0.000 A 
ENDBRANCH  56  75
BRANCH  68  81
ATOM     81  C   UNL A   1      42.101  34.896  33.491  1.00  0.00    -0.014 A 
ATOM     82  C   UNL A   1      41.589  35.028  34.791  1.00  0.00     0.009 A 
ATOM     83  C   UNL A   1      42.855  35.950  32.951  1.00  0.00     0.009 A 
ATOM     84  C   UNL A   1      41.797  36.202  35.518  1.00  0.00     0.001 A 
ATOM     85  C   UNL A   1      43.091  37.108  33.692  1.00  0.00     0.001 A 
ATOM     86  C   UNL A   1      42.553  37.238  34.971  1.00  0.00     0.000 A 
ENDBRANCH  68  81
ENDBRANCH  42  43
ENDBRANCH  35  37
ENDBRANCH  34  35
ENDBRANCH  33  34
ENDBRANCH  32  33
ENDBRANCH  31  32
ENDBRANCH  30  31
ENDBRANCH  29  30
ENDBRANCH   1  29
TORSDOF 23
ENDMDL
