MODEL 1
REMARK VINA RESULT:     -10.3      0.000      0.000
REMARK SMILES C[C@@H]1CN(C(=O)Nc2ccc(O)c(C(=O)OCCOCCOCCOCCOC(=O)c3ccc(-c4c5nc(c(-c6ccccc6)c6ccc([nH]6)c(-c6ccccc6)c6nc(c(-c7ccccc7)c7ccc4[nH]7)C=C6)C=C5)cc3)c2)C[C@H]1C
REMARK SMILES IDX 23 1 22 2 21 3 20 4 19 5 18 6 17 7 16 8 14 9 15 10 13 11
REMARK SMILES IDX 8 12 9 13 79 14 10 15 11 16 7 17 1 18 2 19 3 20 81 21 4 22
REMARK SMILES IDX 80 23 82 24 5 25 6 26 12 28 24 30 25 31 26 32 27 33 28 34
REMARK SMILES IDX 29 35 30 36 31 37 32 38 78 39 33 40 77 41 34 42 35 43 36 44
REMARK SMILES IDX 71 45 37 46 76 47 70 48 72 49 38 50 75 51 69 52 68 53 39 55
REMARK SMILES IDX 61 56 46 57 60 58 47 59 50 60 59 61 73 62 48 63 49 64 58 66
REMARK SMILES IDX 74 67 51 68 40 69 41 70 45 71 42 72 44 73 43 74 62 75 63 76
REMARK SMILES IDX 67 77 64 78 66 79 65 80 52 81 53 82 57 83 54 84 56 85 55 86
REMARK H PARENT 7 27 12 29 72 54 50 65
REMARK Flexibility Score: inf
ROOT
ATOM      1  C   UNL A   1      41.272  20.612  26.524  1.00  0.00     0.188 C 
ENDROOT
BRANCH   1   2
ATOM      2  O   UNL A   1      39.927  20.810  26.100  1.00  0.00    -0.377 OA
BRANCH   2   3
ATOM      3  C   UNL A   1      39.270  22.033  26.410  1.00  0.00     0.188 C 
BRANCH   3   4
ATOM      4  C   UNL A   1      37.946  22.414  25.706  1.00  0.00     0.188 C 
BRANCH   4   5
ATOM      5  O   UNL A   1      37.066  21.323  25.504  1.00  0.00    -0.376 OA
BRANCH   5   6
ATOM      6  C   UNL A   1      35.670  21.514  25.634  1.00  0.00     0.202 C 
BRANCH   6   7
ATOM      7  C   UNL A   1      35.115  22.203  26.888  1.00  0.00     0.261 C 
BRANCH   7   8
ATOM      8  O   UNL A   1      34.297  23.343  26.637  1.00  0.00    -0.460 OA
BRANCH   8   9
ATOM      9  C   UNL A   1      32.958  23.186  26.702  1.00  0.00     0.342 C 
ATOM     10  O   UNL A   1      32.301  22.927  27.696  1.00  0.00    -0.246 OA
BRANCH   9  11
ATOM     11  C   UNL A   1      32.388  23.666  25.422  1.00  0.00     0.103 A 
ATOM     12  C   UNL A   1      32.749  24.869  23.365  1.00  0.00     0.044 A 
ATOM     13  C   UNL A   1      31.515  24.425  22.881  1.00  0.00     0.030 A 
ATOM     14  C   UNL A   1      33.227  24.427  24.596  1.00  0.00     0.045 A 
ATOM     15  C   UNL A   1      30.681  23.659  23.698  1.00  0.00     0.049 A 
ATOM     16  C   UNL A   1      31.103  23.318  24.984  1.00  0.00     0.130 A 
BRANCH  12  17
ATOM     17  N   UNL A   1      33.463  25.852  22.684  1.00  0.00    -0.308 N 
ATOM     18  C   UNL A   1      31.326  27.815  27.238  1.00  0.00     0.010 C 
ATOM     19  C   UNL A   1      31.433  28.306  25.800  1.00  0.00     0.010 C 
ATOM     20  C   UNL A   1      31.892  27.188  24.877  1.00  0.00     0.125 C 
ATOM     21  C   UNL A   1      32.485  29.389  25.562  1.00  0.00     0.010 C 
ATOM     22  N   UNL A   1      32.676  27.802  23.820  1.00  0.00    -0.324 N 
ATOM     23  C   UNL A   1      32.798  29.231  24.069  1.00  0.00     0.125 C 
ATOM     24  C   UNL A   1      31.980  30.775  25.923  1.00  0.00     0.010 C 
ATOM     25  C   UNL A   1      33.393  27.213  22.807  1.00  0.00     0.321 C 
ATOM     26  O   UNL A   1      34.087  27.881  22.034  1.00  0.00    -0.248 OA
ATOM     27  H   UNL A   1      34.109  25.520  22.019  1.00  0.00     0.171 HD
ENDBRANCH  12  17
BRANCH  16  28
ATOM     28  O   UNL A   1      30.240  22.663  25.815  1.00  0.00    -0.507 OA
ATOM     29  H   UNL A   1      30.528  21.907  26.288  1.00  0.00     0.293 HD
ENDBRANCH  16  28
ENDBRANCH   9  11
ENDBRANCH   8   9
ENDBRANCH   7   8
ENDBRANCH   6   7
ENDBRANCH   5   6
ENDBRANCH   4   5
ENDBRANCH   3   4
ENDBRANCH   2   3
ENDBRANCH   1   2
BRANCH   1  30
ATOM     30  C   UNL A   1      42.037  19.320  26.148  1.00  0.00     0.188 C 
BRANCH  30  31
ATOM     31  O   UNL A   1      42.873  19.437  25.010  1.00  0.00    -0.376 OA
BRANCH  31  32
ATOM     32  C   UNL A   1      44.270  19.538  25.220  1.00  0.00     0.202 C 
BRANCH  32  33
ATOM     33  C   UNL A   1      44.915  20.927  25.113  1.00  0.00     0.261 C 
BRANCH  33  34
ATOM     34  O   UNL A   1      44.144  22.029  25.615  1.00  0.00    -0.460 OA
BRANCH  34  35
ATOM     35  C   UNL A   1      44.407  23.252  25.113  1.00  0.00     0.338 C 
ATOM     36  O   UNL A   1      44.977  23.518  24.066  1.00  0.00    -0.246 OA
BRANCH  35  37
ATOM     37  C   UNL A   1      43.722  24.238  25.971  1.00  0.00     0.060 A 
ATOM     38  C   UNL A   1      44.116  25.584  25.927  1.00  0.00     0.016 A 
ATOM     39  C   UNL A   1      42.684  23.829  26.810  1.00  0.00     0.016 A 
ATOM     40  C   UNL A   1      43.491  26.520  26.749  1.00  0.00     0.010 A 
ATOM     41  C   UNL A   1      42.076  24.763  27.651  1.00  0.00     0.010 A 
ATOM     42  C   UNL A   1      42.501  26.104  27.650  1.00  0.00    -0.014 A 
BRANCH  42  43
ATOM     43  C   UNL A   1      42.067  27.004  28.743  1.00  0.00     0.031 A 
ATOM     44  C   UNL A   1      42.848  26.978  30.029  1.00  0.00     0.074 A 
ATOM     45  C   UNL A   1      41.010  27.822  28.608  1.00  0.00     0.049 A 
ATOM     46  N   UNL A   1      42.612  27.594  31.157  1.00  0.00    -0.248 NA
ATOM     47  C   UNL A   1      44.054  26.133  30.042  1.00  0.00     0.031 C 
ATOM     48  C   UNL A   1      40.210  27.985  27.397  1.00  0.00     0.029 A 
ATOM     49  N   UNL A   1      40.424  28.667  29.519  1.00  0.00    -0.354 N 
ATOM     50  C   UNL A   1      43.631  27.201  32.018  1.00  0.00     0.074 A 
ATOM     51  C   UNL A   1      44.468  26.271  31.291  1.00  0.00     0.031 C 
ATOM     52  C   UNL A   1      39.223  28.866  27.644  1.00  0.00     0.029 A 
ATOM     53  C   UNL A   1      39.301  29.295  29.040  1.00  0.00     0.049 A 
ATOM     54  H   UNL A   1      40.774  28.807  30.428  1.00  0.00     0.167 HD
ATOM     55  C   UNL A   1      43.851  27.578  33.298  1.00  0.00     0.031 A 
ATOM     56  C   UNL A   1      38.421  30.100  29.668  1.00  0.00     0.031 A 
ATOM     57  C   UNL A   1      43.006  28.487  34.024  1.00  0.00     0.049 A 
ATOM     58  C   UNL A   1      38.632  30.432  31.124  1.00  0.00     0.074 A 
ATOM     59  C   UNL A   1      43.146  28.940  35.324  1.00  0.00     0.029 A 
ATOM     60  N   UNL A   1      41.858  29.073  33.515  1.00  0.00    -0.354 N 
ATOM     61  N   UNL A   1      39.606  30.067  31.925  1.00  0.00    -0.248 NA
ATOM     62  C   UNL A   1      37.626  31.294  31.760  1.00  0.00     0.031 C 
ATOM     63  C   UNL A   1      42.046  29.749  35.623  1.00  0.00     0.029 A 
ATOM     64  C   UNL A   1      41.262  29.861  34.485  1.00  0.00     0.049 A 
ATOM     65  H   UNL A   1      41.517  28.947  32.601  1.00  0.00     0.167 HD
ATOM     66  C   UNL A   1      39.348  30.686  33.143  1.00  0.00     0.074 A 
ATOM     67  C   UNL A   1      38.135  31.456  32.973  1.00  0.00     0.031 C 
ATOM     68  C   UNL A   1      40.057  30.628  34.298  1.00  0.00     0.031 A 
BRANCH  55  69
ATOM     69  C   UNL A   1      45.028  26.968  34.007  1.00  0.00    -0.014 A 
ATOM     70  C   UNL A   1      46.293  27.579  33.990  1.00  0.00     0.009 A 
ATOM     71  C   UNL A   1      44.862  25.773  34.724  1.00  0.00     0.009 A 
ATOM     72  C   UNL A   1      47.374  26.984  34.646  1.00  0.00     0.001 A 
ATOM     73  C   UNL A   1      45.935  25.199  35.405  1.00  0.00     0.001 A 
ATOM     74  C   UNL A   1      47.192  25.799  35.358  1.00  0.00     0.000 A 
ENDBRANCH  55  69
BRANCH  56  75
ATOM     75  C   UNL A   1      37.237  30.631  28.939  1.00  0.00    -0.014 A 
ATOM     76  C   UNL A   1      37.169  31.982  28.568  1.00  0.00     0.009 A 
ATOM     77  C   UNL A   1      36.152  29.792  28.638  1.00  0.00     0.009 A 
ATOM     78  C   UNL A   1      36.030  32.489  27.938  1.00  0.00     0.001 A 
ATOM     79  C   UNL A   1      35.027  30.295  27.979  1.00  0.00     0.001 A 
ATOM     80  C   UNL A   1      34.963  31.644  27.640  1.00  0.00     0.000 A 
ENDBRANCH  56  75
BRANCH  68  81
ATOM     81  C   UNL A   1      39.577  31.462  35.454  1.00  0.00    -0.014 A 
ATOM     82  C   UNL A   1      40.040  32.770  35.664  1.00  0.00     0.009 A 
ATOM     83  C   UNL A   1      38.597  30.943  36.318  1.00  0.00     0.009 A 
ATOM     84  C   UNL A   1      39.557  33.527  36.735  1.00  0.00     0.001 A 
ATOM     85  C   UNL A   1      38.092  31.714  37.366  1.00  0.00     0.001 A 
ATOM     86  C   UNL A   1      38.580  33.001  37.579  1.00  0.00     0.000 A 
ENDBRANCH  68  81
ENDBRANCH  42  43
ENDBRANCH  35  37
ENDBRANCH  34  35
ENDBRANCH  33  34
ENDBRANCH  32  33
ENDBRANCH  31  32
ENDBRANCH  30  31
ENDBRANCH   1  30
TORSDOF 22
ENDMDL
MODEL 2
REMARK VINA RESULT:      -9.9      3.266      4.847
REMARK SMILES C[C@@H]1CN(C(=O)Nc2ccc(O)c(C(=O)OCCOCCOCCOCCOC(=O)c3ccc(-c4c5nc(c(-c6ccccc6)c6ccc([nH]6)c(-c6ccccc6)c6nc(c(-c7ccccc7)c7ccc4[nH]7)C=C6)C=C5)cc3)c2)C[C@H]1C
REMARK SMILES IDX 23 1 22 2 21 3 20 4 19 5 18 6 17 7 16 8 14 9 15 10 13 11
REMARK SMILES IDX 8 12 9 13 79 14 10 15 11 16 7 17 1 18 2 19 3 20 81 21 4 22
REMARK SMILES IDX 80 23 82 24 5 25 6 26 12 28 24 30 25 31 26 32 27 33 28 34
REMARK SMILES IDX 29 35 30 36 31 37 32 38 78 39 33 40 77 41 34 42 35 43 36 44
REMARK SMILES IDX 71 45 37 46 76 47 70 48 72 49 38 50 75 51 69 52 68 53 39 55
REMARK SMILES IDX 61 56 46 57 60 58 47 59 50 60 59 61 73 62 48 63 49 64 58 66
REMARK SMILES IDX 74 67 51 68 40 69 41 70 45 71 42 72 44 73 43 74 62 75 63 76
REMARK SMILES IDX 67 77 64 78 66 79 65 80 52 81 53 82 57 83 54 84 56 85 55 86
REMARK H PARENT 7 27 12 29 72 54 50 65
REMARK Flexibility Score: inf
ROOT
ATOM      1  C   UNL A   1      36.458  23.626  24.873  1.00  0.00     0.188 C 
ENDROOT
BRANCH   1   2
ATOM      2  O   UNL A   1      35.521  23.512  25.941  1.00  0.00    -0.377 OA
BRANCH   2   3
ATOM      3  C   UNL A   1      34.847  22.278  26.150  1.00  0.00     0.188 C 
BRANCH   3   4
ATOM      4  C   UNL A   1      34.261  21.929  27.539  1.00  0.00     0.188 C 
BRANCH   4   5
ATOM      5  O   UNL A   1      32.905  22.303  27.702  1.00  0.00    -0.376 OA
BRANCH   5   6
ATOM      6  C   UNL A   1      32.052  22.360  26.574  1.00  0.00     0.202 C 
BRANCH   6   7
ATOM      7  C   UNL A   1      30.817  23.271  26.606  1.00  0.00     0.261 C 
BRANCH   7   8
ATOM      8  O   UNL A   1      31.071  24.619  26.996  1.00  0.00    -0.460 OA
BRANCH   8   9
ATOM      9  C   UNL A   1      30.668  25.603  26.164  1.00  0.00     0.342 C 
ATOM     10  O   UNL A   1      29.546  25.765  25.716  1.00  0.00    -0.246 OA
BRANCH   9  11
ATOM     11  C   UNL A   1      31.745  26.619  26.119  1.00  0.00     0.103 A 
ATOM     12  C   UNL A   1      32.477  28.828  26.744  1.00  0.00     0.044 A 
ATOM     13  C   UNL A   1      33.773  28.528  26.313  1.00  0.00     0.030 A 
ATOM     14  C   UNL A   1      31.482  27.854  26.727  1.00  0.00     0.045 A 
ATOM     15  C   UNL A   1      34.039  27.295  25.714  1.00  0.00     0.049 A 
ATOM     16  C   UNL A   1      33.013  26.360  25.580  1.00  0.00     0.130 A 
BRANCH  12  17
ATOM     17  N   UNL A   1      32.130  30.134  27.081  1.00  0.00    -0.308 N 
ATOM     18  C   UNL A   1      29.218  28.376  22.887  1.00  0.00     0.010 C 
ATOM     19  C   UNL A   1      29.958  29.665  23.219  1.00  0.00     0.010 C 
ATOM     20  C   UNL A   1      30.853  29.481  24.434  1.00  0.00     0.125 C 
ATOM     21  C   UNL A   1      29.066  30.835  23.635  1.00  0.00     0.010 C 
ATOM     22  N   UNL A   1      30.896  30.755  25.130  1.00  0.00    -0.324 N 
ATOM     23  C   UNL A   1      30.019  31.706  24.463  1.00  0.00     0.125 C 
ATOM     24  C   UNL A   1      28.474  31.564  22.442  1.00  0.00     0.010 C 
ATOM     25  C   UNL A   1      31.478  31.076  26.333  1.00  0.00     0.321 C 
ATOM     26  O   UNL A   1      31.345  32.196  26.834  1.00  0.00    -0.248 OA
ATOM     27  H   UNL A   1      32.390  30.420  27.987  1.00  0.00     0.171 HD
ENDBRANCH  12  17
BRANCH  16  28
ATOM     28  O   UNL A   1      33.253  25.201  24.898  1.00  0.00    -0.507 OA
ATOM     29  H   UNL A   1      33.248  25.199  23.961  1.00  0.00     0.293 HD
ENDBRANCH  16  28
ENDBRANCH   9  11
ENDBRANCH   8   9
ENDBRANCH   7   8
ENDBRANCH   6   7
ENDBRANCH   5   6
ENDBRANCH   4   5
ENDBRANCH   3   4
ENDBRANCH   2   3
ENDBRANCH   1   2
BRANCH   1  30
ATOM     30  C   UNL A   1      36.753  22.420  23.949  1.00  0.00     0.188 C 
BRANCH  30  31
ATOM     31  O   UNL A   1      37.117  21.230  24.628  1.00  0.00    -0.376 OA
BRANCH  31  32
ATOM     32  C   UNL A   1      38.352  21.212  25.320  1.00  0.00     0.202 C 
BRANCH  32  33
ATOM     33  C   UNL A   1      39.153  19.902  25.326  1.00  0.00     0.261 C 
BRANCH  33  34
ATOM     34  O   UNL A   1      40.124  19.753  26.373  1.00  0.00    -0.460 OA
BRANCH  34  35
ATOM     35  C   UNL A   1      41.425  19.832  26.030  1.00  0.00     0.338 C 
ATOM     36  O   UNL A   1      42.050  19.071  25.307  1.00  0.00    -0.246 OA
BRANCH  35  37
ATOM     37  C   UNL A   1      41.939  21.118  26.541  1.00  0.00     0.060 A 
ATOM     38  C   UNL A   1      41.907  21.375  27.919  1.00  0.00     0.016 A 
ATOM     39  C   UNL A   1      42.460  22.061  25.654  1.00  0.00     0.016 A 
ATOM     40  C   UNL A   1      42.368  22.595  28.412  1.00  0.00     0.010 A 
ATOM     41  C   UNL A   1      42.899  23.293  26.145  1.00  0.00     0.010 A 
ATOM     42  C   UNL A   1      42.821  23.578  27.521  1.00  0.00    -0.014 A 
BRANCH  42  43
ATOM     43  C   UNL A   1      43.001  24.973  27.984  1.00  0.00     0.031 A 
ATOM     44  C   UNL A   1      44.389  25.418  28.359  1.00  0.00     0.074 A 
ATOM     45  C   UNL A   1      41.968  25.828  28.074  1.00  0.00     0.049 A 
ATOM     46  N   UNL A   1      44.788  26.548  28.878  1.00  0.00    -0.248 NA
ATOM     47  C   UNL A   1      45.471  24.447  28.120  1.00  0.00     0.031 C 
ATOM     48  C   UNL A   1      40.590  25.539  27.686  1.00  0.00     0.029 A 
ATOM     49  N   UNL A   1      41.927  27.119  28.538  1.00  0.00    -0.354 N 
ATOM     50  C   UNL A   1      46.163  26.420  29.042  1.00  0.00     0.074 A 
ATOM     51  C   UNL A   1      46.523  25.092  28.595  1.00  0.00     0.031 C 
ATOM     52  C   UNL A   1      39.832  26.621  27.942  1.00  0.00     0.029 A 
ATOM     53  C   UNL A   1      40.664  27.658  28.550  1.00  0.00     0.049 A 
ATOM     54  H   UNL A   1      42.727  27.612  28.835  1.00  0.00     0.167 HD
ATOM     55  C   UNL A   1      47.046  27.324  29.523  1.00  0.00     0.031 A 
ATOM     56  C   UNL A   1      40.229  28.841  29.026  1.00  0.00     0.031 A 
ATOM     57  C   UNL A   1      46.682  28.637  29.985  1.00  0.00     0.049 A 
ATOM     58  C   UNL A   1      41.217  29.797  29.645  1.00  0.00     0.074 A 
ATOM     59  C   UNL A   1      47.503  29.632  30.483  1.00  0.00     0.029 A 
ATOM     60  N   UNL A   1      45.387  29.130  30.015  1.00  0.00    -0.354 N 
ATOM     61  N   UNL A   1      42.517  29.673  29.783  1.00  0.00    -0.248 NA
ATOM     62  C   UNL A   1      40.678  31.062  30.167  1.00  0.00     0.031 C 
ATOM     63  C   UNL A   1      46.697  30.704  30.877  1.00  0.00     0.029 A 
ATOM     64  C   UNL A   1      45.383  30.406  30.551  1.00  0.00     0.049 A 
ATOM     65  H   UNL A   1      44.590  28.645  29.701  1.00  0.00     0.167 HD
ATOM     66  C   UNL A   1      42.952  30.857  30.370  1.00  0.00     0.074 A 
ATOM     67  C   UNL A   1      41.781  31.688  30.553  1.00  0.00     0.031 C 
ATOM     68  C   UNL A   1      44.209  31.225  30.721  1.00  0.00     0.031 A 
BRANCH  55  69
ATOM     69  C   UNL A   1      48.487  26.904  29.615  1.00  0.00    -0.014 A 
ATOM     70  C   UNL A   1      48.989  26.253  30.754  1.00  0.00     0.009 A 
ATOM     71  C   UNL A   1      49.349  27.143  28.534  1.00  0.00     0.009 A 
ATOM     72  C   UNL A   1      50.336  25.885  30.821  1.00  0.00     0.001 A 
ATOM     73  C   UNL A   1      50.685  26.745  28.590  1.00  0.00     0.001 A 
ATOM     74  C   UNL A   1      51.180  26.125  29.736  1.00  0.00     0.000 A 
ENDBRANCH  55  69
BRANCH  56  75
ATOM     75  C   UNL A   1      38.783  29.188  28.966  1.00  0.00    -0.014 A 
ATOM     76  C   UNL A   1      38.223  29.735  27.802  1.00  0.00     0.009 A 
ATOM     77  C   UNL A   1      37.960  29.001  30.089  1.00  0.00     0.009 A 
ATOM     78  C   UNL A   1      36.879  30.115  27.772  1.00  0.00     0.001 A 
ATOM     79  C   UNL A   1      36.608  29.352  30.045  1.00  0.00     0.001 A 
ATOM     80  C   UNL A   1      36.072  29.918  28.891  1.00  0.00     0.000 A 
ENDBRANCH  56  75
BRANCH  68  81
ATOM     81  C   UNL A   1      44.400  32.606  31.284  1.00  0.00    -0.014 A 
ATOM     82  C   UNL A   1      44.224  32.879  32.649  1.00  0.00     0.009 A 
ATOM     83  C   UNL A   1      44.818  33.645  30.434  1.00  0.00     0.009 A 
ATOM     84  C   UNL A   1      44.431  34.169  33.144  1.00  0.00     0.001 A 
ATOM     85  C   UNL A   1      45.057  34.924  30.937  1.00  0.00     0.001 A 
ATOM     86  C   UNL A   1      44.854  35.187  32.290  1.00  0.00     0.000 A 
ENDBRANCH  68  81
ENDBRANCH  42  43
ENDBRANCH  35  37
ENDBRANCH  34  35
ENDBRANCH  33  34
ENDBRANCH  32  33
ENDBRANCH  31  32
ENDBRANCH  30  31
ENDBRANCH   1  30
TORSDOF 22
ENDMDL
MODEL 3
REMARK VINA RESULT:      -9.9      3.349      5.342
REMARK SMILES C[C@@H]1CN(C(=O)Nc2ccc(O)c(C(=O)OCCOCCOCCOCCOC(=O)c3ccc(-c4c5nc(c(-c6ccccc6)c6ccc([nH]6)c(-c6ccccc6)c6nc(c(-c7ccccc7)c7ccc4[nH]7)C=C6)C=C5)cc3)c2)C[C@H]1C
REMARK SMILES IDX 23 1 22 2 21 3 20 4 19 5 18 6 17 7 16 8 14 9 15 10 13 11
REMARK SMILES IDX 8 12 9 13 79 14 10 15 11 16 7 17 1 18 2 19 3 20 81 21 4 22
REMARK SMILES IDX 80 23 82 24 5 25 6 26 12 28 24 30 25 31 26 32 27 33 28 34
REMARK SMILES IDX 29 35 30 36 31 37 32 38 78 39 33 40 77 41 34 42 35 43 36 44
REMARK SMILES IDX 71 45 37 46 76 47 70 48 72 49 38 50 75 51 69 52 68 53 39 55
REMARK SMILES IDX 61 56 46 57 60 58 47 59 50 60 59 61 73 62 48 63 49 64 58 66
REMARK SMILES IDX 74 67 51 68 40 69 41 70 45 71 42 72 44 73 43 74 62 75 63 76
REMARK SMILES IDX 67 77 64 78 66 79 65 80 52 81 53 82 57 83 54 84 56 85 55 86
REMARK H PARENT 7 27 12 29 72 54 50 65
REMARK Flexibility Score: inf
ROOT
ATOM      1  C   UNL A   1      36.100  21.843  24.646  1.00  0.00     0.188 C 
ENDROOT
BRANCH   1   2
ATOM      2  O   UNL A   1      35.724  22.760  25.669  1.00  0.00    -0.377 OA
BRANCH   2   3
ATOM      3  C   UNL A   1      35.570  24.138  25.349  1.00  0.00     0.188 C 
BRANCH   3   4
ATOM      4  C   UNL A   1      34.238  24.868  25.644  1.00  0.00     0.188 C 
BRANCH   4   5
ATOM      5  O   UNL A   1      34.208  26.213  25.203  1.00  0.00    -0.376 OA
BRANCH   5   6
ATOM      6  C   UNL A   1      33.997  26.497  23.833  1.00  0.00     0.202 C 
BRANCH   6   7
ATOM      7  C   UNL A   1      33.983  27.957  23.357  1.00  0.00     0.261 C 
BRANCH   7   8
ATOM      8  O   UNL A   1      32.687  28.533  23.215  1.00  0.00    -0.460 OA
BRANCH   8   9
ATOM      9  C   UNL A   1      31.964  28.745  24.335  1.00  0.00     0.342 C 
ATOM     10  O   UNL A   1      32.004  29.730  25.053  1.00  0.00    -0.246 OA
BRANCH   9  11
ATOM     11  C   UNL A   1      30.904  27.713  24.386  1.00  0.00     0.103 A 
ATOM     12  C   UNL A   1      29.822  25.976  25.660  1.00  0.00     0.044 A 
ATOM     13  C   UNL A   1      28.804  25.901  24.706  1.00  0.00     0.030 A 
ATOM     14  C   UNL A   1      30.827  26.935  25.550  1.00  0.00     0.045 A 
ATOM     15  C   UNL A   1      28.874  26.681  23.550  1.00  0.00     0.049 A 
ATOM     16  C   UNL A   1      29.947  27.554  23.373  1.00  0.00     0.130 A 
BRANCH  12  17
ATOM     17  N   UNL A   1      29.918  25.021  26.669  1.00  0.00    -0.308 N 
ATOM     18  C   UNL A   1      32.734  23.528  22.310  1.00  0.00     0.010 C 
ATOM     19  C   UNL A   1      31.774  22.828  23.263  1.00  0.00     0.010 C 
ATOM     20  C   UNL A   1      31.053  23.835  24.145  1.00  0.00     0.125 C 
ATOM     21  C   UNL A   1      32.435  21.901  24.284  1.00  0.00     0.010 C 
ATOM     22  N   UNL A   1      30.808  23.187  25.422  1.00  0.00    -0.324 N 
ATOM     23  C   UNL A   1      31.401  21.856  25.416  1.00  0.00     0.125 C 
ATOM     24  C   UNL A   1      32.748  20.532  23.706  1.00  0.00     0.010 C 
ATOM     25  C   UNL A   1      30.285  23.705  26.581  1.00  0.00     0.321 C 
ATOM     26  O   UNL A   1      30.225  23.037  27.617  1.00  0.00    -0.248 OA
ATOM     27  H   UNL A   1      29.687  25.336  27.573  1.00  0.00     0.171 HD
ENDBRANCH  12  17
BRANCH  16  28
ATOM     28  O   UNL A   1      30.067  28.233  22.195  1.00  0.00    -0.507 OA
ATOM     29  H   UNL A   1      30.561  27.864  21.489  1.00  0.00     0.293 HD
ENDBRANCH  16  28
ENDBRANCH   9  11
ENDBRANCH   8   9
ENDBRANCH   7   8
ENDBRANCH   6   7
ENDBRANCH   5   6
ENDBRANCH   4   5
ENDBRANCH   3   4
ENDBRANCH   2   3
ENDBRANCH   1   2
BRANCH   1  30
ATOM     30  C   UNL A   1      36.478  20.383  24.993  1.00  0.00     0.188 C 
BRANCH  30  31
ATOM     31  O   UNL A   1      37.717  19.949  24.458  1.00  0.00    -0.376 OA
BRANCH  31  32
ATOM     32  C   UNL A   1      38.676  19.414  25.352  1.00  0.00     0.202 C 
BRANCH  32  33
ATOM     33  C   UNL A   1      39.587  20.397  26.101  1.00  0.00     0.261 C 
BRANCH  33  34
ATOM     34  O   UNL A   1      40.757  19.839  26.718  1.00  0.00    -0.460 OA
BRANCH  34  35
ATOM     35  C   UNL A   1      41.944  20.071  26.123  1.00  0.00     0.338 C 
ATOM     36  O   UNL A   1      42.489  19.395  25.265  1.00  0.00    -0.246 OA
BRANCH  35  37
ATOM     37  C   UNL A   1      42.405  21.403  26.563  1.00  0.00     0.060 A 
ATOM     38  C   UNL A   1      42.513  21.678  27.934  1.00  0.00     0.016 A 
ATOM     39  C   UNL A   1      42.739  22.372  25.616  1.00  0.00     0.016 A 
ATOM     40  C   UNL A   1      42.925  22.939  28.361  1.00  0.00     0.010 A 
ATOM     41  C   UNL A   1      43.128  23.642  26.045  1.00  0.00     0.010 A 
ATOM     42  C   UNL A   1      43.188  23.941  27.418  1.00  0.00    -0.014 A 
BRANCH  42  43
ATOM     43  C   UNL A   1      43.304  25.353  27.848  1.00  0.00     0.031 A 
ATOM     44  C   UNL A   1      44.679  25.890  28.144  1.00  0.00     0.074 A 
ATOM     45  C   UNL A   1      42.225  26.145  27.979  1.00  0.00     0.049 A 
ATOM     46  N   UNL A   1      45.032  27.053  28.624  1.00  0.00    -0.248 NA
ATOM     47  C   UNL A   1      45.805  24.982  27.865  1.00  0.00     0.031 C 
ATOM     48  C   UNL A   1      40.850  25.765  27.667  1.00  0.00     0.029 A 
ATOM     49  N   UNL A   1      42.128  27.440  28.423  1.00  0.00    -0.354 N 
ATOM     50  C   UNL A   1      46.419  27.012  28.718  1.00  0.00     0.074 A 
ATOM     51  C   UNL A   1      46.838  25.700  28.275  1.00  0.00     0.031 C 
ATOM     52  C   UNL A   1      40.040  26.803  27.945  1.00  0.00     0.029 A 
ATOM     53  C   UNL A   1      40.836  27.900  28.492  1.00  0.00     0.049 A 
ATOM     54  H   UNL A   1      42.909  27.987  28.670  1.00  0.00     0.167 HD
ATOM     55  C   UNL A   1      47.268  27.978  29.137  1.00  0.00     0.031 A 
ATOM     56  C   UNL A   1      40.352  29.064  28.970  1.00  0.00     0.031 A 
ATOM     57  C   UNL A   1      46.846  29.274  29.597  1.00  0.00     0.049 A 
ATOM     58  C   UNL A   1      41.310  30.090  29.522  1.00  0.00     0.074 A 
ATOM     59  C   UNL A   1      47.628  30.328  30.036  1.00  0.00     0.029 A 
ATOM     60  N   UNL A   1      45.526  29.687  29.686  1.00  0.00    -0.354 N 
ATOM     61  N   UNL A   1      42.619  30.049  29.594  1.00  0.00    -0.248 NA
ATOM     62  C   UNL A   1      40.720  31.329  30.051  1.00  0.00     0.031 C 
ATOM     63  C   UNL A   1      46.777  31.356  30.454  1.00  0.00     0.029 A 
ATOM     64  C   UNL A   1      45.469  30.971  30.201  1.00  0.00     0.049 A 
ATOM     65  H   UNL A   1      44.746  29.149  29.422  1.00  0.00     0.167 HD
ATOM     66  C   UNL A   1      43.009  31.268  30.139  1.00  0.00     0.074 A 
ATOM     67  C   UNL A   1      41.800  32.029  30.369  1.00  0.00     0.031 C 
ATOM     68  C   UNL A   1      44.257  31.719  30.418  1.00  0.00     0.031 A 
BRANCH  55  69
ATOM     69  C   UNL A   1      48.734  27.649  29.162  1.00  0.00    -0.014 A 
ATOM     70  C   UNL A   1      49.582  27.997  28.098  1.00  0.00     0.009 A 
ATOM     71  C   UNL A   1      49.280  26.999  30.280  1.00  0.00     0.009 A 
ATOM     72  C   UNL A   1      50.940  27.666  28.139  1.00  0.00     0.001 A 
ATOM     73  C   UNL A   1      50.642  26.700  30.333  1.00  0.00     0.001 A 
ATOM     74  C   UNL A   1      51.468  27.025  29.259  1.00  0.00     0.000 A 
ENDBRANCH  55  69
BRANCH  56  75
ATOM     75  C   UNL A   1      38.887  29.320  28.980  1.00  0.00    -0.014 A 
ATOM     76  C   UNL A   1      38.131  29.125  30.146  1.00  0.00     0.009 A 
ATOM     77  C   UNL A   1      38.229  29.732  27.810  1.00  0.00     0.009 A 
ATOM     78  C   UNL A   1      36.746  29.308  30.134  1.00  0.00     0.001 A 
ATOM     79  C   UNL A   1      36.848  29.947  27.809  1.00  0.00     0.001 A 
ATOM     80  C   UNL A   1      36.107  29.724  28.968  1.00  0.00     0.000 A 
ENDBRANCH  56  75
BRANCH  68  81
ATOM     81  C   UNL A   1      44.390  33.121  30.948  1.00  0.00    -0.014 A 
ATOM     82  C   UNL A   1      44.449  34.232  30.092  1.00  0.00     0.009 A 
ATOM     83  C   UNL A   1      44.401  33.334  32.337  1.00  0.00     0.009 A 
ATOM     84  C   UNL A   1      44.549  35.523  30.617  1.00  0.00     0.001 A 
ATOM     85  C   UNL A   1      44.467  34.626  32.858  1.00  0.00     0.001 A 
ATOM     86  C   UNL A   1      44.551  35.719  31.998  1.00  0.00     0.000 A 
ENDBRANCH  68  81
ENDBRANCH  42  43
ENDBRANCH  35  37
ENDBRANCH  34  35
ENDBRANCH  33  34
ENDBRANCH  32  33
ENDBRANCH  31  32
ENDBRANCH  30  31
ENDBRANCH   1  30
TORSDOF 22
ENDMDL
