MODEL 1
REMARK VINA RESULT:      -9.4      0.000      0.000
REMARK SMILES O=C(C[N@@H+]1CCC[C@@H]1c1ccccc1Cl)OCCOCCOCCOCCOC(=O)c1ccc(-c2c3nc(c(-c4ccccc4)c4ccc([nH]4)c(-c4ccccc4)c4nc(c(-c5ccccc5)c5ccc2[nH]5)C=C4)C=C3)cc1
REMARK SMILES IDX 22 1 21 2 20 3 19 4 18 5 17 6 16 7 2 8 1 9 3 10 4 11 5 12
REMARK SMILES IDX 8 13 6 15 7 16 9 17 10 18 14 19 11 20 13 21 15 22 12 23
REMARK SMILES IDX 23 24 24 25 25 26 26 27 27 28 28 29 29 30 30 31 31 32 32 33
REMARK SMILES IDX 78 34 33 35 77 36 34 37 35 38 36 39 71 40 37 41 76 42 70 43
REMARK SMILES IDX 72 44 38 45 75 46 69 47 68 48 39 50 61 51 46 52 60 53 47 54
REMARK SMILES IDX 50 55 59 56 73 57 48 58 49 59 58 61 74 62 51 63 40 64 41 65
REMARK SMILES IDX 45 66 42 67 44 68 43 69 62 70 63 71 67 72 64 73 66 74 65 75
REMARK SMILES IDX 52 76 53 77 57 78 54 79 56 80 55 81
REMARK H PARENT 4 14 72 49 50 60
REMARK Flexibility Score: inf
ROOT
ATOM      1  O   UNL A   1      39.332  22.250  25.798  1.00  0.00    -0.377 OA
ENDROOT
BRANCH   1   2
ATOM      2  C   UNL A   1      38.603  23.301  26.414  1.00  0.00     0.188 C 
BRANCH   2   3
ATOM      3  C   UNL A   1      37.220  23.482  25.800  1.00  0.00     0.188 C 
BRANCH   3   4
ATOM      4  O   UNL A   1      36.728  22.432  24.982  1.00  0.00    -0.376 OA
BRANCH   4   5
ATOM      5  C   UNL A   1      36.490  22.657  23.601  1.00  0.00     0.202 C 
BRANCH   5   6
ATOM      6  C   UNL A   1      35.084  23.002  23.116  1.00  0.00     0.261 C 
BRANCH   6   7
ATOM      7  O   UNL A   1      34.722  24.367  22.833  1.00  0.00    -0.459 OA
BRANCH   7   8
ATOM      8  C   UNL A   1      33.516  24.872  22.508  1.00  0.00     0.361 C 
ATOM      9  O   UNL A   1      33.436  25.689  21.588  1.00  0.00    -0.245 OA
BRANCH   8  10
ATOM     10  C   UNL A   1      32.291  24.535  23.344  1.00  0.00     0.387 C 
BRANCH  10  11
ATOM     11  N   UNL A   1      32.438  24.925  24.749  1.00  0.00    -0.319 N 
ATOM     12  C   UNL A   1      32.500  23.719  25.599  1.00  0.00     0.263 C 
ATOM     13  C   UNL A   1      31.364  25.766  25.364  1.00  0.00     0.217 C 
ATOM     14  H   UNL A   1      33.285  25.493  24.719  1.00  0.00     0.349 HD
ATOM     15  C   UNL A   1      31.055  23.449  25.971  1.00  0.00     0.068 C 
ATOM     16  C   UNL A   1      30.493  24.835  26.216  1.00  0.00     0.076 C 
BRANCH  13  17
ATOM     17  C   UNL A   1      30.533  26.757  24.553  1.00  0.00     0.028 A 
ATOM     18  C   UNL A   1      29.193  26.483  24.208  1.00  0.00     0.011 A 
ATOM     19  C   UNL A   1      31.021  28.037  24.209  1.00  0.00     0.050 A 
ATOM     20  C   UNL A   1      28.418  27.387  23.471  1.00  0.00     0.001 A 
ATOM     21  C   UNL A   1      30.230  28.958  23.504  1.00  0.00     0.021 A 
ATOM     22  Cl  UNL A   1      32.593  28.599  24.674  1.00  0.00    -0.084 Cl
ATOM     23  C   UNL A   1      28.936  28.626  23.119  1.00  0.00     0.002 A 
ENDBRANCH  13  17
ENDBRANCH  10  11
ENDBRANCH   8  10
ENDBRANCH   7   8
ENDBRANCH   6   7
ENDBRANCH   5   6
ENDBRANCH   4   5
ENDBRANCH   3   4
ENDBRANCH   2   3
ENDBRANCH   1   2
BRANCH   1  24
ATOM     24  C   UNL A   1      40.002  21.416  26.743  1.00  0.00     0.188 C 
BRANCH  24  25
ATOM     25  C   UNL A   1      40.784  20.203  26.196  1.00  0.00     0.188 C 
BRANCH  25  26
ATOM     26  O   UNL A   1      42.026  20.038  26.889  1.00  0.00    -0.376 OA
BRANCH  26  27
ATOM     27  C   UNL A   1      43.121  19.640  26.072  1.00  0.00     0.202 C 
BRANCH  27  28
ATOM     28  C   UNL A   1      43.726  20.837  25.331  1.00  0.00     0.261 C 
BRANCH  28  29
ATOM     29  O   UNL A   1      43.728  22.052  26.096  1.00  0.00    -0.460 OA
BRANCH  29  30
ATOM     30  C   UNL A   1      43.828  23.218  25.420  1.00  0.00     0.338 C 
ATOM     31  O   UNL A   1      44.107  23.363  24.243  1.00  0.00    -0.246 OA
BRANCH  30  32
ATOM     32  C   UNL A   1      43.304  24.282  26.313  1.00  0.00     0.060 A 
ATOM     33  C   UNL A   1      43.692  25.611  26.084  1.00  0.00     0.016 A 
ATOM     34  C   UNL A   1      42.332  23.988  27.276  1.00  0.00     0.016 A 
ATOM     35  C   UNL A   1      43.105  26.647  26.818  1.00  0.00     0.010 A 
ATOM     36  C   UNL A   1      41.761  25.017  28.019  1.00  0.00     0.010 A 
ATOM     37  C   UNL A   1      42.162  26.348  27.810  1.00  0.00    -0.014 A 
BRANCH  37  38
ATOM     38  C   UNL A   1      41.799  27.347  28.840  1.00  0.00     0.031 A 
ATOM     39  C   UNL A   1      42.563  27.290  30.131  1.00  0.00     0.074 A 
ATOM     40  C   UNL A   1      40.768  28.195  28.686  1.00  0.00     0.049 A 
ATOM     41  N   UNL A   1      42.349  27.917  31.256  1.00  0.00    -0.248 NA
ATOM     42  C   UNL A   1      43.717  26.373  30.159  1.00  0.00     0.031 C 
ATOM     43  C   UNL A   1      39.961  28.347  27.477  1.00  0.00     0.029 A 
ATOM     44  N   UNL A   1      40.205  29.068  29.584  1.00  0.00    -0.354 N 
ATOM     45  C   UNL A   1      43.324  27.453  32.129  1.00  0.00     0.074 A 
ATOM     46  C   UNL A   1      44.119  26.483  31.414  1.00  0.00     0.031 C 
ATOM     47  C   UNL A   1      38.981  29.238  27.721  1.00  0.00     0.029 A 
ATOM     48  C   UNL A   1      39.074  29.687  29.110  1.00  0.00     0.049 A 
ATOM     49  H   UNL A   1      40.575  29.234  30.480  1.00  0.00     0.167 HD
ATOM     50  C   UNL A   1      43.535  27.794  33.420  1.00  0.00     0.031 A 
ATOM     51  C   UNL A   1      38.197  30.493  29.741  1.00  0.00     0.031 A 
ATOM     52  C   UNL A   1      42.720  28.729  34.140  1.00  0.00     0.049 A 
ATOM     53  C   UNL A   1      38.420  30.829  31.195  1.00  0.00     0.074 A 
ATOM     54  C   UNL A   1      42.856  29.168  35.444  1.00  0.00     0.029 A 
ATOM     55  N   UNL A   1      41.600  29.355  33.614  1.00  0.00    -0.354 N 
ATOM     56  N   UNL A   1      39.377  30.429  31.998  1.00  0.00    -0.248 NA
ATOM     57  C   UNL A   1      37.444  31.730  31.828  1.00  0.00     0.031 C 
ATOM     58  C   UNL A   1      41.786  30.024  35.723  1.00  0.00     0.029 A 
ATOM     59  C   UNL A   1      41.017  30.157  34.576  1.00  0.00     0.049 A 
ATOM     60  H   UNL A   1      41.270  29.244  32.693  1.00  0.00     0.167 HD
ATOM     61  C   UNL A   1      39.133  31.045  33.221  1.00  0.00     0.074 A 
ATOM     62  C   UNL A   1      37.942  31.851  33.052  1.00  0.00     0.031 C 
ATOM     63  C   UNL A   1      39.834  30.955  34.378  1.00  0.00     0.031 A 
BRANCH  50  64
ATOM     64  C   UNL A   1      44.660  27.097  34.128  1.00  0.00    -0.014 A 
ATOM     65  C   UNL A   1      45.877  27.749  34.384  1.00  0.00     0.009 A 
ATOM     66  C   UNL A   1      44.513  25.755  34.508  1.00  0.00     0.009 A 
ATOM     67  C   UNL A   1      46.941  27.055  34.963  1.00  0.00     0.001 A 
ATOM     68  C   UNL A   1      45.568  25.072  35.113  1.00  0.00     0.001 A 
ATOM     69  C   UNL A   1      46.785  25.718  35.327  1.00  0.00     0.000 A 
ENDBRANCH  50  64
BRANCH  51  70
ATOM     70  C   UNL A   1      37.008  31.015  29.015  1.00  0.00    -0.014 A 
ATOM     71  C   UNL A   1      36.940  32.359  28.622  1.00  0.00     0.009 A 
ATOM     72  C   UNL A   1      35.934  30.164  28.706  1.00  0.00     0.009 A 
ATOM     73  C   UNL A   1      35.816  32.845  27.948  1.00  0.00     0.001 A 
ATOM     74  C   UNL A   1      34.822  30.646  28.011  1.00  0.00     0.001 A 
ATOM     75  C   UNL A   1      34.761  31.988  27.637  1.00  0.00     0.000 A 
ENDBRANCH  51  70
BRANCH  63  76
ATOM     76  C   UNL A   1      39.361  31.775  35.543  1.00  0.00    -0.014 A 
ATOM     77  C   UNL A   1      39.789  33.097  35.725  1.00  0.00     0.009 A 
ATOM     78  C   UNL A   1      38.398  31.240  36.414  1.00  0.00     0.009 A 
ATOM     79  C   UNL A   1      39.272  33.866  36.770  1.00  0.00     0.001 A 
ATOM     80  C   UNL A   1      37.865  32.019  37.442  1.00  0.00     0.001 A 
ATOM     81  C   UNL A   1      38.305  33.329  37.622  1.00  0.00     0.000 A 
ENDBRANCH  63  76
ENDBRANCH  37  38
ENDBRANCH  30  32
ENDBRANCH  29  30
ENDBRANCH  28  29
ENDBRANCH  27  28
ENDBRANCH  26  27
ENDBRANCH  25  26
ENDBRANCH  24  25
ENDBRANCH   1  24
TORSDOF 22
ENDMDL
MODEL 2
REMARK VINA RESULT:      -8.7      4.636      9.708
REMARK SMILES O=C(C[N@@H+]1CCC[C@@H]1c1ccccc1Cl)OCCOCCOCCOCCOC(=O)c1ccc(-c2c3nc(c(-c4ccccc4)c4ccc([nH]4)c(-c4ccccc4)c4nc(c(-c5ccccc5)c5ccc2[nH]5)C=C4)C=C3)cc1
REMARK SMILES IDX 22 1 21 2 20 3 19 4 18 5 17 6 16 7 2 8 1 9 3 10 4 11 5 12
REMARK SMILES IDX 8 13 6 15 7 16 9 17 10 18 14 19 11 20 13 21 15 22 12 23
REMARK SMILES IDX 23 24 24 25 25 26 26 27 27 28 28 29 29 30 30 31 31 32 32 33
REMARK SMILES IDX 78 34 33 35 77 36 34 37 35 38 36 39 71 40 37 41 76 42 70 43
REMARK SMILES IDX 72 44 38 45 75 46 69 47 68 48 39 50 61 51 46 52 60 53 47 54
REMARK SMILES IDX 50 55 59 56 73 57 48 58 49 59 58 61 74 62 51 63 40 64 41 65
REMARK SMILES IDX 45 66 42 67 44 68 43 69 62 70 63 71 67 72 64 73 66 74 65 75
REMARK SMILES IDX 52 76 53 77 57 78 54 79 56 80 55 81
REMARK H PARENT 4 14 72 49 50 60
REMARK Flexibility Score: inf
ROOT
ATOM      1  O   UNL A   1      33.473  29.854  26.507  1.00  0.00    -0.377 OA
ENDROOT
BRANCH   1   2
ATOM      2  C   UNL A   1      32.904  28.709  27.125  1.00  0.00     0.188 C 
BRANCH   2   3
ATOM      3  C   UNL A   1      31.820  28.068  26.266  1.00  0.00     0.188 C 
BRANCH   3   4
ATOM      4  O   UNL A   1      31.212  28.880  25.273  1.00  0.00    -0.376 OA
BRANCH   4   5
ATOM      5  C   UNL A   1      30.942  28.347  23.985  1.00  0.00     0.202 C 
BRANCH   5   6
ATOM      6  C   UNL A   1      29.741  27.428  23.777  1.00  0.00     0.261 C 
BRANCH   6   7
ATOM      7  O   UNL A   1      29.915  26.000  23.712  1.00  0.00    -0.459 OA
BRANCH   7   8
ATOM      8  C   UNL A   1      30.250  25.142  24.696  1.00  0.00     0.361 C 
ATOM      9  O   UNL A   1      29.900  25.390  25.851  1.00  0.00    -0.245 OA
BRANCH   8  10
ATOM     10  C   UNL A   1      31.152  23.953  24.404  1.00  0.00     0.387 C 
BRANCH  10  11
ATOM     11  N   UNL A   1      32.552  24.202  24.763  1.00  0.00    -0.319 N 
ATOM     12  C   UNL A   1      33.064  25.360  24.005  1.00  0.00     0.263 C 
ATOM     13  C   UNL A   1      33.548  23.115  24.511  1.00  0.00     0.217 C 
ATOM     14  H   UNL A   1      32.489  24.323  25.774  1.00  0.00     0.349 HD
ATOM     15  C   UNL A   1      33.642  24.754  22.740  1.00  0.00     0.068 C 
ATOM     16  C   UNL A   1      34.313  23.489  23.236  1.00  0.00     0.076 C 
BRANCH  13  17
ATOM     17  C   UNL A   1      33.176  21.635  24.550  1.00  0.00     0.028 A 
ATOM     18  C   UNL A   1      32.740  20.956  23.393  1.00  0.00     0.011 A 
ATOM     19  C   UNL A   1      33.358  20.849  25.709  1.00  0.00     0.050 A 
ATOM     20  C   UNL A   1      32.403  19.597  23.415  1.00  0.00     0.001 A 
ATOM     21  C   UNL A   1      33.057  19.478  25.720  1.00  0.00     0.021 A 
ATOM     22  Cl  UNL A   1      34.019  21.483  27.181  1.00  0.00    -0.084 Cl
ATOM     23  C   UNL A   1      32.563  18.856  24.579  1.00  0.00     0.002 A 
ENDBRANCH  13  17
ENDBRANCH  10  11
ENDBRANCH   8  10
ENDBRANCH   7   8
ENDBRANCH   6   7
ENDBRANCH   5   6
ENDBRANCH   4   5
ENDBRANCH   3   4
ENDBRANCH   2   3
ENDBRANCH   1   2
BRANCH   1  24
ATOM     24  C   UNL A   1      33.225  31.055  27.239  1.00  0.00     0.188 C 
BRANCH  24  25
ATOM     25  C   UNL A   1      34.412  31.686  27.996  1.00  0.00     0.188 C 
BRANCH  25  26
ATOM     26  O   UNL A   1      33.959  32.675  28.927  1.00  0.00    -0.376 OA
BRANCH  26  27
ATOM     27  C   UNL A   1      34.398  32.483  30.268  1.00  0.00     0.202 C 
BRANCH  27  28
ATOM     28  C   UNL A   1      34.573  33.821  30.993  1.00  0.00     0.261 C 
BRANCH  28  29
ATOM     29  O   UNL A   1      35.903  34.043  31.486  1.00  0.00    -0.460 OA
BRANCH  29  30
ATOM     30  C   UNL A   1      36.371  33.198  32.431  1.00  0.00     0.338 C 
ATOM     31  O   UNL A   1      35.881  32.975  33.524  1.00  0.00    -0.246 OA
BRANCH  30  32
ATOM     32  C   UNL A   1      37.461  32.408  31.806  1.00  0.00     0.060 A 
ATOM     33  C   UNL A   1      38.278  31.613  32.624  1.00  0.00     0.016 A 
ATOM     34  C   UNL A   1      37.587  32.347  30.413  1.00  0.00     0.016 A 
ATOM     35  C   UNL A   1      39.219  30.753  32.048  1.00  0.00     0.010 A 
ATOM     36  C   UNL A   1      38.536  31.505  29.840  1.00  0.00     0.010 A 
ATOM     37  C   UNL A   1      39.371  30.722  30.656  1.00  0.00    -0.014 A 
BRANCH  37  38
ATOM     38  C   UNL A   1      40.575  30.124  30.036  1.00  0.00     0.031 A 
ATOM     39  C   UNL A   1      41.721  31.053  29.757  1.00  0.00     0.074 A 
ATOM     40  C   UNL A   1      40.614  28.842  29.636  1.00  0.00     0.049 A 
ATOM     41  N   UNL A   1      42.816  30.847  29.076  1.00  0.00    -0.248 NA
ATOM     42  C   UNL A   1      41.596  32.416  30.305  1.00  0.00     0.031 C 
ATOM     43  C   UNL A   1      39.569  27.845  29.859  1.00  0.00     0.029 A 
ATOM     44  N   UNL A   1      41.575  28.173  28.918  1.00  0.00    -0.354 N 
ATOM     45  C   UNL A   1      43.495  32.057  29.096  1.00  0.00     0.074 A 
ATOM     46  C   UNL A   1      42.687  32.996  29.837  1.00  0.00     0.031 C 
ATOM     47  C   UNL A   1      39.931  26.696  29.257  1.00  0.00     0.029 A 
ATOM     48  C   UNL A   1      41.213  26.891  28.581  1.00  0.00     0.049 A 
ATOM     49  H   UNL A   1      42.439  28.573  28.669  1.00  0.00     0.167 HD
ATOM     50  C   UNL A   1      44.686  32.369  28.535  1.00  0.00     0.031 A 
ATOM     51  C   UNL A   1      41.833  25.996  27.785  1.00  0.00     0.031 A 
ATOM     52  C   UNL A   1      45.468  31.445  27.765  1.00  0.00     0.049 A 
ATOM     53  C   UNL A   1      43.137  26.373  27.129  1.00  0.00     0.074 A 
ATOM     54  C   UNL A   1      46.700  31.645  27.170  1.00  0.00     0.029 A 
ATOM     55  N   UNL A   1      45.078  30.148  27.470  1.00  0.00    -0.354 N 
ATOM     56  N   UNL A   1      43.801  27.503  27.197  1.00  0.00    -0.248 NA
ATOM     57  C   UNL A   1      43.779  25.350  26.288  1.00  0.00     0.031 C 
ATOM     58  C   UNL A   1      47.033  30.480  26.471  1.00  0.00     0.029 A 
ATOM     59  C   UNL A   1      46.033  29.541  26.677  1.00  0.00     0.049 A 
ATOM     60  H   UNL A   1      44.246  29.723  27.779  1.00  0.00     0.167 HD
ATOM     61  C   UNL A   1      44.946  27.320  26.430  1.00  0.00     0.074 A 
ATOM     62  C   UNL A   1      44.891  25.969  25.911  1.00  0.00     0.031 C 
ATOM     63  C   UNL A   1      45.955  28.191  26.181  1.00  0.00     0.031 A 
BRANCH  50  64
ATOM     64  C   UNL A   1      45.161  33.783  28.697  1.00  0.00    -0.014 A 
ATOM     65  C   UNL A   1      44.819  34.778  27.767  1.00  0.00     0.009 A 
ATOM     66  C   UNL A   1      45.996  34.114  29.774  1.00  0.00     0.009 A 
ATOM     67  C   UNL A   1      45.346  36.066  27.887  1.00  0.00     0.001 A 
ATOM     68  C   UNL A   1      46.496  35.409  29.908  1.00  0.00     0.001 A 
ATOM     69  C   UNL A   1      46.183  36.380  28.958  1.00  0.00     0.000 A 
ENDBRANCH  50  64
BRANCH  51  70
ATOM     70  C   UNL A   1      41.213  24.667  27.537  1.00  0.00    -0.014 A 
ATOM     71  C   UNL A   1      41.650  23.530  28.233  1.00  0.00     0.009 A 
ATOM     72  C   UNL A   1      40.175  24.530  26.600  1.00  0.00     0.009 A 
ATOM     73  C   UNL A   1      41.069  22.282  27.988  1.00  0.00     0.001 A 
ATOM     74  C   UNL A   1      39.580  23.285  26.375  1.00  0.00     0.001 A 
ATOM     75  C   UNL A   1      40.032  22.161  27.064  1.00  0.00     0.000 A 
ENDBRANCH  51  70
BRANCH  63  76
ATOM     76  C   UNL A   1      47.103  27.705  25.344  1.00  0.00    -0.014 A 
ATOM     77  C   UNL A   1      48.184  27.020  25.917  1.00  0.00     0.009 A 
ATOM     78  C   UNL A   1      47.049  27.853  23.949  1.00  0.00     0.009 A 
ATOM     79  C   UNL A   1      49.200  26.507  25.108  1.00  0.00     0.001 A 
ATOM     80  C   UNL A   1      48.052  27.316  23.141  1.00  0.00     0.001 A 
ATOM     81  C   UNL A   1      49.129  26.648  23.721  1.00  0.00     0.000 A 
ENDBRANCH  63  76
ENDBRANCH  37  38
ENDBRANCH  30  32
ENDBRANCH  29  30
ENDBRANCH  28  29
ENDBRANCH  27  28
ENDBRANCH  26  27
ENDBRANCH  25  26
ENDBRANCH  24  25
ENDBRANCH   1  24
TORSDOF 22
ENDMDL
MODEL 3
REMARK VINA RESULT:      -8.4      4.298      9.183
REMARK SMILES O=C(C[N@@H+]1CCC[C@@H]1c1ccccc1Cl)OCCOCCOCCOCCOC(=O)c1ccc(-c2c3nc(c(-c4ccccc4)c4ccc([nH]4)c(-c4ccccc4)c4nc(c(-c5ccccc5)c5ccc2[nH]5)C=C4)C=C3)cc1
REMARK SMILES IDX 22 1 21 2 20 3 19 4 18 5 17 6 16 7 2 8 1 9 3 10 4 11 5 12
REMARK SMILES IDX 8 13 6 15 7 16 9 17 10 18 14 19 11 20 13 21 15 22 12 23
REMARK SMILES IDX 23 24 24 25 25 26 26 27 27 28 28 29 29 30 30 31 31 32 32 33
REMARK SMILES IDX 78 34 33 35 77 36 34 37 35 38 36 39 71 40 37 41 76 42 70 43
REMARK SMILES IDX 72 44 38 45 75 46 69 47 68 48 39 50 61 51 46 52 60 53 47 54
REMARK SMILES IDX 50 55 59 56 73 57 48 58 49 59 58 61 74 62 51 63 40 64 41 65
REMARK SMILES IDX 45 66 42 67 44 68 43 69 62 70 63 71 67 72 64 73 66 74 65 75
REMARK SMILES IDX 52 76 53 77 57 78 54 79 56 80 55 81
REMARK H PARENT 4 14 72 49 50 60
REMARK Flexibility Score: inf
ROOT
ATOM      1  O   UNL A   1      33.060  27.643  25.534  1.00  0.00    -0.377 OA
ENDROOT
BRANCH   1   2
ATOM      2  C   UNL A   1      33.175  26.354  26.118  1.00  0.00     0.188 C 
BRANCH   2   3
ATOM      3  C   UNL A   1      34.270  25.520  25.465  1.00  0.00     0.188 C 
BRANCH   3   4
ATOM      4  O   UNL A   1      33.902  24.250  24.950  1.00  0.00    -0.376 OA
BRANCH   4   5
ATOM      5  C   UNL A   1      32.976  24.157  23.878  1.00  0.00     0.202 C 
BRANCH   5   6
ATOM      6  C   UNL A   1      33.306  24.791  22.529  1.00  0.00     0.261 C 
BRANCH   6   7
ATOM      7  O   UNL A   1      32.471  25.830  21.984  1.00  0.00    -0.459 OA
BRANCH   7   8
ATOM      8  C   UNL A   1      32.463  27.147  22.271  1.00  0.00     0.361 C 
ATOM      9  O   UNL A   1      33.506  27.684  22.650  1.00  0.00    -0.245 OA
BRANCH   8  10
ATOM     10  C   UNL A   1      31.159  27.929  22.250  1.00  0.00     0.387 C 
BRANCH  10  11
ATOM     11  N   UNL A   1      30.498  27.966  23.558  1.00  0.00    -0.319 N 
ATOM     12  C   UNL A   1      30.155  26.594  23.983  1.00  0.00     0.263 C 
ATOM     13  C   UNL A   1      29.218  28.731  23.680  1.00  0.00     0.217 C 
ATOM     14  H   UNL A   1      31.192  28.449  24.128  1.00  0.00     0.349 HD
ATOM     15  C   UNL A   1      28.757  26.372  23.438  1.00  0.00     0.068 C 
ATOM     16  C   UNL A   1      28.076  27.707  23.670  1.00  0.00     0.076 C 
BRANCH  13  17
ATOM     17  C   UNL A   1      28.907  29.953  22.818  1.00  0.00     0.028 A 
ATOM     18  C   UNL A   1      28.185  29.837  21.612  1.00  0.00     0.011 A 
ATOM     19  C   UNL A   1      29.221  31.263  23.240  1.00  0.00     0.050 A 
ATOM     20  C   UNL A   1      27.887  30.952  20.818  1.00  0.00     0.001 A 
ATOM     21  C   UNL A   1      28.888  32.383  22.462  1.00  0.00     0.021 A 
ATOM     22  Cl  UNL A   1      29.980  31.605  24.761  1.00  0.00    -0.084 Cl
ATOM     23  C   UNL A   1      28.238  32.226  21.243  1.00  0.00     0.002 A 
ENDBRANCH  13  17
ENDBRANCH  10  11
ENDBRANCH   8  10
ENDBRANCH   7   8
ENDBRANCH   6   7
ENDBRANCH   5   6
ENDBRANCH   4   5
ENDBRANCH   3   4
ENDBRANCH   2   3
ENDBRANCH   1   2
BRANCH   1  24
ATOM     24  C   UNL A   1      32.492  28.604  26.424  1.00  0.00     0.188 C 
BRANCH  24  25
ATOM     25  C   UNL A   1      33.061  30.037  26.385  1.00  0.00     0.188 C 
BRANCH  25  26
ATOM     26  O   UNL A   1      33.153  30.589  27.702  1.00  0.00    -0.376 OA
BRANCH  26  27
ATOM     27  C   UNL A   1      33.887  31.806  27.794  1.00  0.00     0.202 C 
BRANCH  27  28
ATOM     28  C   UNL A   1      34.665  31.889  29.111  1.00  0.00     0.261 C 
BRANCH  28  29
ATOM     29  O   UNL A   1      35.528  30.767  29.346  1.00  0.00    -0.460 OA
BRANCH  29  30
ATOM     30  C   UNL A   1      36.385  30.843  30.389  1.00  0.00     0.338 C 
ATOM     31  O   UNL A   1      36.109  31.095  31.549  1.00  0.00    -0.246 OA
BRANCH  30  32
ATOM     32  C   UNL A   1      37.694  30.330  29.913  1.00  0.00     0.060 A 
ATOM     33  C   UNL A   1      38.609  29.832  30.852  1.00  0.00     0.016 A 
ATOM     34  C   UNL A   1      37.957  30.215  28.543  1.00  0.00     0.016 A 
ATOM     35  C   UNL A   1      39.788  29.214  30.420  1.00  0.00     0.010 A 
ATOM     36  C   UNL A   1      39.139  29.618  28.113  1.00  0.00     0.010 A 
ATOM     37  C   UNL A   1      40.070  29.137  29.050  1.00  0.00    -0.014 A 
BRANCH  37  38
ATOM     38  C   UNL A   1      41.437  28.838  28.571  1.00  0.00     0.031 A 
ATOM     39  C   UNL A   1      41.717  27.416  28.175  1.00  0.00     0.074 A 
ATOM     40  C   UNL A   1      42.421  29.753  28.589  1.00  0.00     0.049 A 
ATOM     41  N   UNL A   1      42.851  26.837  27.887  1.00  0.00    -0.248 NA
ATOM     42  C   UNL A   1      40.548  26.519  28.125  1.00  0.00     0.031 C 
ATOM     43  C   UNL A   1      42.269  31.163  28.944  1.00  0.00     0.029 A 
ATOM     44  N   UNL A   1      43.762  29.610  28.331  1.00  0.00    -0.354 N 
ATOM     45  C   UNL A   1      42.535  25.507  27.646  1.00  0.00     0.074 A 
ATOM     46  C   UNL A   1      41.111  25.359  27.836  1.00  0.00     0.031 C 
ATOM     47  C   UNL A   1      43.481  31.750  28.914  1.00  0.00     0.029 A 
ATOM     48  C   UNL A   1      44.491  30.749  28.573  1.00  0.00     0.049 A 
ATOM     49  H   UNL A   1      44.163  28.773  28.003  1.00  0.00     0.167 HD
ATOM     50  C   UNL A   1      43.358  24.490  27.306  1.00  0.00     0.031 A 
ATOM     51  C   UNL A   1      45.825  30.944  28.557  1.00  0.00     0.031 A 
ATOM     52  C   UNL A   1      44.778  24.631  27.156  1.00  0.00     0.049 A 
ATOM     53  C   UNL A   1      46.735  29.789  28.221  1.00  0.00     0.074 A 
ATOM     54  C   UNL A   1      45.707  23.675  26.791  1.00  0.00     0.029 A 
ATOM     55  N   UNL A   1      45.473  25.809  27.384  1.00  0.00    -0.354 N 
ATOM     56  N   UNL A   1      46.423  28.547  27.939  1.00  0.00    -0.248 NA
ATOM     57  C   UNL A   1      48.180  30.065  28.198  1.00  0.00     0.031 C 
ATOM     58  C   UNL A   1      46.974  24.264  26.848  1.00  0.00     0.029 A 
ATOM     59  C   UNL A   1      46.826  25.599  27.195  1.00  0.00     0.049 A 
ATOM     60  H   UNL A   1      45.064  26.667  27.642  1.00  0.00     0.167 HD
ATOM     61  C   UNL A   1      47.627  27.899  27.683  1.00  0.00     0.074 A 
ATOM     62  C   UNL A   1      48.674  28.888  27.837  1.00  0.00     0.031 C 
ATOM     63  C   UNL A   1      47.846  26.604  27.347  1.00  0.00     0.031 A 
BRANCH  50  64
ATOM     64  C   UNL A   1      42.729  23.138  27.137  1.00  0.00    -0.014 A 
ATOM     65  C   UNL A   1      42.569  22.267  28.227  1.00  0.00     0.009 A 
ATOM     66  C   UNL A   1      42.329  22.714  25.862  1.00  0.00     0.009 A 
ATOM     67  C   UNL A   1      42.065  20.979  28.033  1.00  0.00     0.001 A 
ATOM     68  C   UNL A   1      41.799  21.437  25.676  1.00  0.00     0.001 A 
ATOM     69  C   UNL A   1      41.679  20.566  26.758  1.00  0.00     0.000 A 
ENDBRANCH  50  64
BRANCH  51  70
ATOM     70  C   UNL A   1      46.386  32.279  28.900  1.00  0.00    -0.014 A 
ATOM     71  C   UNL A   1      46.701  32.605  30.227  1.00  0.00     0.009 A 
ATOM     72  C   UNL A   1      46.612  33.234  27.896  1.00  0.00     0.009 A 
ATOM     73  C   UNL A   1      47.220  33.864  30.544  1.00  0.00     0.001 A 
ATOM     74  C   UNL A   1      47.153  34.484  28.212  1.00  0.00     0.001 A 
ATOM     75  C   UNL A   1      47.450  34.800  29.537  1.00  0.00     0.000 A 
ENDBRANCH  51  70
BRANCH  63  76
ATOM     76  C   UNL A   1      49.262  26.183  27.083  1.00  0.00    -0.014 A 
ATOM     77  C   UNL A   1      49.787  26.167  25.783  1.00  0.00     0.009 A 
ATOM     78  C   UNL A   1      50.108  25.893  28.166  1.00  0.00     0.009 A 
ATOM     79  C   UNL A   1      51.130  25.851  25.570  1.00  0.00     0.001 A 
ATOM     80  C   UNL A   1      51.456  25.603  27.952  1.00  0.00     0.001 A 
ATOM     81  C   UNL A   1      51.965  25.578  26.655  1.00  0.00     0.000 A 
ENDBRANCH  63  76
ENDBRANCH  37  38
ENDBRANCH  30  32
ENDBRANCH  29  30
ENDBRANCH  28  29
ENDBRANCH  27  28
ENDBRANCH  26  27
ENDBRANCH  25  26
ENDBRANCH  24  25
ENDBRANCH   1  24
TORSDOF 22
ENDMDL
