MODEL 1
REMARK VINA RESULT:      -9.9      0.000      0.000
REMARK SMILES CC[C@@H](C)[C@@H](NC(=O)Cn1nc(-c2ccc3ccccc3c2)ccc1=O)C(=O)OCCOCCOCCOCCOC(=O)c1ccc(-c2c3nc(c(-c4ccccc4)c4ccc([nH]4)c(-c4ccccc4)c4nc(c(-c5ccccc5)c5ccc2[nH]5)C=C4)C=C3)cc1
REMARK SMILES IDX 34 1 33 2 32 3 31 4 30 5 29 6 27 7 28 8 5 9 3 10 4 11 2 12
REMARK SMILES IDX 1 13 6 14 7 15 8 17 9 18 10 19 11 20 25 21 12 22 24 23 26 24
REMARK SMILES IDX 23 25 13 26 14 27 22 28 15 29 21 30 16 31 20 32 17 33 19 34
REMARK SMILES IDX 18 35 35 36 36 37 37 38 38 39 39 40 40 41 41 42 42 43 43 44
REMARK SMILES IDX 44 45 45 46 91 47 46 48 90 49 47 50 48 51 49 52 84 53 50 54
REMARK SMILES IDX 89 55 83 56 85 57 51 58 88 59 82 60 81 61 52 63 74 64 59 65
REMARK SMILES IDX 73 66 60 67 63 68 72 69 86 70 61 71 62 72 71 74 87 75 64 76
REMARK SMILES IDX 53 77 54 78 58 79 55 80 57 81 56 82 75 83 76 84 80 85 77 86
REMARK SMILES IDX 79 87 78 88 65 89 66 90 70 91 67 92 69 93 68 94
REMARK H PARENT 6 16 85 62 63 73
REMARK Flexibility Score: inf
ROOT
ATOM      1  C   UNL A   1      39.229  19.797  25.765  1.00  0.00     0.188 C 
ENDROOT
BRANCH   1   2
ATOM      2  C   UNL A   1      38.225  20.542  24.884  1.00  0.00     0.188 C 
BRANCH   2   3
ATOM      3  O   UNL A   1      36.845  20.332  25.142  1.00  0.00    -0.376 OA
BRANCH   3   4
ATOM      4  C   UNL A   1      36.321  19.026  24.882  1.00  0.00     0.202 C 
BRANCH   4   5
ATOM      5  C   UNL A   1      34.816  18.894  24.671  1.00  0.00     0.261 C 
BRANCH   5   6
ATOM      6  O   UNL A   1      34.136  20.071  25.173  1.00  0.00    -0.462 OA
BRANCH   6   7
ATOM      7  C   UNL A   1      32.787  20.016  25.201  1.00  0.00     0.328 C 
ATOM      8  O   UNL A   1      32.148  19.007  25.489  1.00  0.00    -0.250 OA
BRANCH   7   9
ATOM      9  C   UNL A   1      32.115  21.270  24.617  1.00  0.00     0.195 C 
BRANCH   9  10
ATOM     10  C   UNL A   1      31.876  21.488  23.101  1.00  0.00     0.019 C 
ATOM     11  C   UNL A   1      32.107  20.232  22.271  1.00  0.00     0.010 C 
BRANCH  10  12
ATOM     12  C   UNL A   1      32.779  22.653  22.603  1.00  0.00     0.002 C 
ATOM     13  C   UNL A   1      32.089  24.007  22.490  1.00  0.00     0.004 C 
ENDBRANCH  10  12
ENDBRANCH   9  10
BRANCH   9  14
ATOM     14  N   UNL A   1      31.018  21.762  25.466  1.00  0.00    -0.341 N 
ATOM     15  C   UNL A   1      30.875  22.654  26.475  1.00  0.00     0.242 C 
ATOM     16  H   UNL A   1      30.163  21.328  25.241  1.00  0.00     0.164 HD
ATOM     17  O   UNL A   1      29.722  22.702  26.937  1.00  0.00    -0.273 OA
BRANCH  15  18
ATOM     18  C   UNL A   1      31.865  23.751  26.895  1.00  0.00     0.248 C 
BRANCH  18  19
ATOM     19  N   UNL A   1      32.451  24.699  25.960  1.00  0.00    -0.220 N 
ATOM     20  N   UNL A   1      31.643  25.791  25.627  1.00  0.00    -0.169 NA
ATOM     21  C   UNL A   1      33.834  24.775  25.863  1.00  0.00     0.267 A 
ATOM     22  C   UNL A   1      32.175  26.719  24.894  1.00  0.00     0.091 A 
ATOM     23  C   UNL A   1      34.339  25.724  24.847  1.00  0.00     0.075 A 
ATOM     24  O   UNL A   1      34.628  24.066  26.471  1.00  0.00    -0.268 OA
ATOM     25  C   UNL A   1      33.532  26.648  24.324  1.00  0.00     0.036 A 
BRANCH  22  26
ATOM     26  C   UNL A   1      31.426  27.970  24.621  1.00  0.00     0.003 A 
ATOM     27  C   UNL A   1      31.757  29.125  25.331  1.00  0.00     0.011 A 
ATOM     28  C   UNL A   1      30.398  28.001  23.676  1.00  0.00     0.019 A 
ATOM     29  C   UNL A   1      31.061  30.312  25.089  1.00  0.00     0.009 A 
ATOM     30  C   UNL A   1      29.649  29.171  23.469  1.00  0.00    -0.018 A 
ATOM     31  C   UNL A   1      29.993  30.347  24.177  1.00  0.00    -0.018 A 
ATOM     32  C   UNL A   1      28.550  29.191  22.595  1.00  0.00     0.009 A 
ATOM     33  C   UNL A   1      29.241  31.515  23.969  1.00  0.00     0.009 A 
ATOM     34  C   UNL A   1      27.799  30.355  22.421  1.00  0.00     0.001 A 
ATOM     35  C   UNL A   1      28.147  31.517  23.101  1.00  0.00     0.001 A 
ENDBRANCH  22  26
ENDBRANCH  18  19
ENDBRANCH  15  18
ENDBRANCH   9  14
ENDBRANCH   7   9
ENDBRANCH   6   7
ENDBRANCH   5   6
ENDBRANCH   4   5
ENDBRANCH   3   4
ENDBRANCH   2   3
ENDBRANCH   1   2
BRANCH   1  36
ATOM     36  O   UNL A   1      40.203  20.596  26.416  1.00  0.00    -0.377 OA
BRANCH  36  37
ATOM     37  C   UNL A   1      41.311  19.908  26.984  1.00  0.00     0.188 C 
BRANCH  37  38
ATOM     38  C   UNL A   1      42.708  20.399  26.592  1.00  0.00     0.188 C 
BRANCH  38  39
ATOM     39  O   UNL A   1      42.836  21.076  25.348  1.00  0.00    -0.376 OA
BRANCH  39  40
ATOM     40  C   UNL A   1      42.766  22.498  25.342  1.00  0.00     0.202 C 
BRANCH  40  41
ATOM     41  C   UNL A   1      43.934  23.188  24.645  1.00  0.00     0.261 C 
BRANCH  41  42
ATOM     42  O   UNL A   1      43.803  24.620  24.729  1.00  0.00    -0.460 OA
BRANCH  42  43
ATOM     43  C   UNL A   1      44.859  25.295  25.230  1.00  0.00     0.338 C 
ATOM     44  O   UNL A   1      45.953  25.459  24.711  1.00  0.00    -0.246 OA
BRANCH  43  45
ATOM     45  C   UNL A   1      44.482  25.905  26.517  1.00  0.00     0.060 A 
ATOM     46  C   UNL A   1      44.695  27.268  26.750  1.00  0.00     0.016 A 
ATOM     47  C   UNL A   1      43.823  25.116  27.468  1.00  0.00     0.016 A 
ATOM     48  C   UNL A   1      44.208  27.850  27.921  1.00  0.00     0.010 A 
ATOM     49  C   UNL A   1      43.342  25.699  28.642  1.00  0.00     0.010 A 
ATOM     50  C   UNL A   1      43.506  27.075  28.861  1.00  0.00    -0.014 A 
BRANCH  50  51
ATOM     51  C   UNL A   1      42.801  27.747  29.976  1.00  0.00     0.031 A 
ATOM     52  C   UNL A   1      43.394  27.847  31.344  1.00  0.00     0.074 A 
ATOM     53  C   UNL A   1      41.600  28.295  29.725  1.00  0.00     0.049 A 
ATOM     54  N   UNL A   1      42.981  28.534  32.377  1.00  0.00    -0.248 NA
ATOM     55  C   UNL A   1      44.616  27.076  31.584  1.00  0.00     0.031 C 
ATOM     56  C   UNL A   1      40.910  28.248  28.435  1.00  0.00     0.029 A 
ATOM     57  N   UNL A   1      40.757  29.011  30.533  1.00  0.00    -0.354 N 
ATOM     58  C   UNL A   1      43.916  28.309  33.378  1.00  0.00     0.074 A 
ATOM     59  C   UNL A   1      44.893  27.384  32.843  1.00  0.00     0.031 C 
ATOM     60  C   UNL A   1      39.760  28.931  28.531  1.00  0.00     0.029 A 
ATOM     61  C   UNL A   1      39.629  29.452  29.890  1.00  0.00     0.049 A 
ATOM     62  H   UNL A   1      40.943  29.193  31.484  1.00  0.00     0.167 HD
ATOM     63  C   UNL A   1      43.959  28.835  34.624  1.00  0.00     0.031 A 
ATOM     64  C   UNL A   1      38.609  30.208  30.335  1.00  0.00     0.031 A 
ATOM     65  C   UNL A   1      42.948  29.703  35.168  1.00  0.00     0.049 A 
ATOM     66  C   UNL A   1      38.643  30.738  31.738  1.00  0.00     0.074 A 
ATOM     67  C   UNL A   1      42.907  30.301  36.416  1.00  0.00     0.029 A 
ATOM     68  N   UNL A   1      41.790  30.080  34.504  1.00  0.00    -0.354 N 
ATOM     69  N   UNL A   1      39.571  30.583  32.652  1.00  0.00    -0.248 NA
ATOM     70  C   UNL A   1      37.505  31.562  32.165  1.00  0.00     0.031 C 
ATOM     71  C   UNL A   1      41.694  30.988  36.529  1.00  0.00     0.029 A 
ATOM     72  C   UNL A   1      41.011  30.874  35.328  1.00  0.00     0.049 A 
ATOM     73  H   UNL A   1      41.557  29.820  33.583  1.00  0.00     0.167 HD
ATOM     74  C   UNL A   1      39.137  31.300  33.759  1.00  0.00     0.074 A 
ATOM     75  C   UNL A   1      37.870  31.903  33.396  1.00  0.00     0.031 C 
ATOM     76  C   UNL A   1      39.740  31.449  34.964  1.00  0.00     0.031 A 
BRANCH  63  77
ATOM     77  C   UNL A   1      45.134  28.478  35.492  1.00  0.00    -0.014 A 
ATOM     78  C   UNL A   1      44.962  27.636  36.601  1.00  0.00     0.009 A 
ATOM     79  C   UNL A   1      46.401  29.030  35.249  1.00  0.00     0.009 A 
ATOM     80  C   UNL A   1      46.034  27.359  37.453  1.00  0.00     0.001 A 
ATOM     81  C   UNL A   1      47.477  28.730  36.086  1.00  0.00     0.001 A 
ATOM     82  C   UNL A   1      47.291  27.901  37.192  1.00  0.00     0.000 A 
ENDBRANCH  63  77
BRANCH  64  83
ATOM     83  C   UNL A   1      37.508  30.542  29.397  1.00  0.00    -0.014 A 
ATOM     84  C   UNL A   1      37.383  31.844  28.885  1.00  0.00     0.009 A 
ATOM     85  C   UNL A   1      36.522  29.592  29.096  1.00  0.00     0.009 A 
ATOM     86  C   UNL A   1      36.275  32.194  28.110  1.00  0.00     0.001 A 
ATOM     87  C   UNL A   1      35.428  29.940  28.301  1.00  0.00     0.001 A 
ATOM     88  C   UNL A   1      35.299  31.243  27.819  1.00  0.00     0.000 A 
ENDBRANCH  64  83
BRANCH  76  89
ATOM     89  C   UNL A   1      39.042  32.287  35.997  1.00  0.00    -0.014 A 
ATOM     90  C   UNL A   1      39.316  33.661  36.083  1.00  0.00     0.009 A 
ATOM     91  C   UNL A   1      38.193  31.700  36.948  1.00  0.00     0.009 A 
ATOM     92  C   UNL A   1      38.768  34.430  37.110  1.00  0.00     0.001 A 
ATOM     93  C   UNL A   1      37.625  32.479  37.959  1.00  0.00     0.001 A 
ATOM     94  C   UNL A   1      37.920  33.838  38.045  1.00  0.00     0.000 A 
ENDBRANCH  76  89
ENDBRANCH  50  51
ENDBRANCH  43  45
ENDBRANCH  42  43
ENDBRANCH  41  42
ENDBRANCH  40  41
ENDBRANCH  39  40
ENDBRANCH  38  39
ENDBRANCH  37  38
ENDBRANCH  36  37
ENDBRANCH   1  36
TORSDOF 26
ENDMDL
MODEL 2
REMARK VINA RESULT:      -9.3      2.457      6.769
REMARK SMILES CC[C@@H](C)[C@@H](NC(=O)Cn1nc(-c2ccc3ccccc3c2)ccc1=O)C(=O)OCCOCCOCCOCCOC(=O)c1ccc(-c2c3nc(c(-c4ccccc4)c4ccc([nH]4)c(-c4ccccc4)c4nc(c(-c5ccccc5)c5ccc2[nH]5)C=C4)C=C3)cc1
REMARK SMILES IDX 34 1 33 2 32 3 31 4 30 5 29 6 27 7 28 8 5 9 3 10 4 11 2 12
REMARK SMILES IDX 1 13 6 14 7 15 8 17 9 18 10 19 11 20 25 21 12 22 24 23 26 24
REMARK SMILES IDX 23 25 13 26 14 27 22 28 15 29 21 30 16 31 20 32 17 33 19 34
REMARK SMILES IDX 18 35 35 36 36 37 37 38 38 39 39 40 40 41 41 42 42 43 43 44
REMARK SMILES IDX 44 45 45 46 91 47 46 48 90 49 47 50 48 51 49 52 84 53 50 54
REMARK SMILES IDX 89 55 83 56 85 57 51 58 88 59 82 60 81 61 52 63 74 64 59 65
REMARK SMILES IDX 73 66 60 67 63 68 72 69 86 70 61 71 62 72 71 74 87 75 64 76
REMARK SMILES IDX 53 77 54 78 58 79 55 80 57 81 56 82 75 83 76 84 80 85 77 86
REMARK SMILES IDX 79 87 78 88 65 89 66 90 70 91 67 92 69 93 68 94
REMARK H PARENT 6 16 85 62 63 73
REMARK Flexibility Score: inf
ROOT
ATOM      1  C   UNL A   1      37.613  22.460  24.671  1.00  0.00     0.188 C 
ENDROOT
BRANCH   1   2
ATOM      2  C   UNL A   1      36.309  21.806  24.210  1.00  0.00     0.188 C 
BRANCH   2   3
ATOM      3  O   UNL A   1      35.310  21.577  25.191  1.00  0.00    -0.376 OA
BRANCH   3   4
ATOM      4  C   UNL A   1      34.304  20.605  24.887  1.00  0.00     0.202 C 
BRANCH   4   5
ATOM      5  C   UNL A   1      33.095  21.065  24.077  1.00  0.00     0.261 C 
BRANCH   5   6
ATOM      6  O   UNL A   1      33.190  22.484  23.801  1.00  0.00    -0.462 OA
BRANCH   6   7
ATOM      7  C   UNL A   1      32.074  23.212  24.024  1.00  0.00     0.328 C 
ATOM      8  O   UNL A   1      30.933  22.785  23.862  1.00  0.00    -0.250 OA
BRANCH   7   9
ATOM      9  C   UNL A   1      32.361  24.701  24.281  1.00  0.00     0.195 C 
BRANCH   9  10
ATOM     10  C   UNL A   1      32.780  25.268  25.662  1.00  0.00     0.019 C 
ATOM     11  C   UNL A   1      33.775  24.379  26.397  1.00  0.00     0.010 C 
BRANCH  10  12
ATOM     12  C   UNL A   1      31.507  25.504  26.525  1.00  0.00     0.002 C 
ATOM     13  C   UNL A   1      30.245  25.841  25.742  1.00  0.00     0.004 C 
ENDBRANCH  10  12
ENDBRANCH   9  10
BRANCH   9  14
ATOM     14  N   UNL A   1      33.043  25.343  23.146  1.00  0.00    -0.341 N 
ATOM     15  C   UNL A   1      32.706  26.183  22.139  1.00  0.00     0.242 C 
ATOM     16  H   UNL A   1      33.995  25.096  23.109  1.00  0.00     0.164 HD
ATOM     17  O   UNL A   1      33.642  26.424  21.358  1.00  0.00    -0.273 OA
BRANCH  15  18
ATOM     18  C   UNL A   1      31.437  27.043  22.029  1.00  0.00     0.248 C 
BRANCH  18  19
ATOM     19  N   UNL A   1      31.102  28.097  22.973  1.00  0.00    -0.220 N 
ATOM     20  N   UNL A   1      32.030  28.302  23.999  1.00  0.00    -0.169 NA
ATOM     21  C   UNL A   1      30.249  29.114  22.565  1.00  0.00     0.267 A 
ATOM     22  C   UNL A   1      31.828  29.312  24.788  1.00  0.00     0.091 A 
ATOM     23  C   UNL A   1      29.919  30.111  23.607  1.00  0.00     0.075 A 
ATOM     24  O   UNL A   1      29.699  29.183  21.472  1.00  0.00    -0.268 OA
ATOM     25  C   UNL A   1      30.646  30.189  24.722  1.00  0.00     0.036 A 
BRANCH  22  26
ATOM     26  C   UNL A   1      32.844  29.672  25.806  1.00  0.00     0.003 A 
ATOM     27  C   UNL A   1      33.855  28.757  26.105  1.00  0.00     0.011 A 
ATOM     28  C   UNL A   1      32.797  30.901  26.467  1.00  0.00     0.019 A 
ATOM     29  C   UNL A   1      34.820  29.078  27.063  1.00  0.00     0.009 A 
ATOM     30  C   UNL A   1      33.723  31.210  27.475  1.00  0.00    -0.018 A 
ATOM     31  C   UNL A   1      34.757  30.290  27.771  1.00  0.00    -0.018 A 
ATOM     32  C   UNL A   1      33.629  32.399  28.216  1.00  0.00     0.009 A 
ATOM     33  C   UNL A   1      35.682  30.601  28.782  1.00  0.00     0.009 A 
ATOM     34  C   UNL A   1      34.542  32.679  29.235  1.00  0.00     0.001 A 
ATOM     35  C   UNL A   1      35.570  31.786  29.513  1.00  0.00     0.001 A 
ENDBRANCH  22  26
ENDBRANCH  18  19
ENDBRANCH  15  18
ENDBRANCH   9  14
ENDBRANCH   7   9
ENDBRANCH   6   7
ENDBRANCH   5   6
ENDBRANCH   4   5
ENDBRANCH   3   4
ENDBRANCH   2   3
ENDBRANCH   1   2
BRANCH   1  36
ATOM     36  O   UNL A   1      37.827  22.509  26.072  1.00  0.00    -0.377 OA
BRANCH  36  37
ATOM     37  C   UNL A   1      38.329  23.733  26.595  1.00  0.00     0.188 C 
BRANCH  37  38
ATOM     38  C   UNL A   1      39.536  23.645  27.533  1.00  0.00     0.188 C 
BRANCH  38  39
ATOM     39  O   UNL A   1      40.597  22.778  27.151  1.00  0.00    -0.376 OA
BRANCH  39  40
ATOM     40  C   UNL A   1      41.491  23.212  26.131  1.00  0.00     0.202 C 
BRANCH  40  41
ATOM     41  C   UNL A   1      42.276  24.475  26.472  1.00  0.00     0.261 C 
BRANCH  41  42
ATOM     42  O   UNL A   1      41.400  25.491  26.999  1.00  0.00    -0.460 OA
BRANCH  42  43
ATOM     43  C   UNL A   1      41.684  26.766  26.664  1.00  0.00     0.338 C 
ATOM     44  O   UNL A   1      42.079  27.184  25.585  1.00  0.00    -0.246 OA
BRANCH  43  45
ATOM     45  C   UNL A   1      41.373  27.650  27.801  1.00  0.00     0.060 A 
ATOM     46  C   UNL A   1      40.569  27.199  28.854  1.00  0.00     0.016 A 
ATOM     47  C   UNL A   1      41.969  28.915  27.854  1.00  0.00     0.016 A 
ATOM     48  C   UNL A   1      40.399  28.003  29.982  1.00  0.00     0.010 A 
ATOM     49  C   UNL A   1      41.792  29.721  28.980  1.00  0.00     0.010 A 
ATOM     50  C   UNL A   1      41.031  29.257  30.063  1.00  0.00    -0.014 A 
BRANCH  50  51
ATOM     51  C   UNL A   1      41.030  29.991  31.349  1.00  0.00     0.031 A 
ATOM     52  C   UNL A   1      39.912  30.900  31.743  1.00  0.00     0.074 A 
ATOM     53  C   UNL A   1      42.067  29.803  32.184  1.00  0.00     0.049 A 
ATOM     54  N   UNL A   1      39.686  31.484  32.890  1.00  0.00    -0.248 NA
ATOM     55  C   UNL A   1      38.912  31.189  30.713  1.00  0.00     0.031 C 
ATOM     56  C   UNL A   1      43.225  28.954  31.903  1.00  0.00     0.029 A 
ATOM     57  N   UNL A   1      42.306  30.299  33.438  1.00  0.00    -0.354 N 
ATOM     58  C   UNL A   1      38.494  32.179  32.731  1.00  0.00     0.074 A 
ATOM     59  C   UNL A   1      38.070  31.982  31.362  1.00  0.00     0.031 C 
ATOM     60  C   UNL A   1      44.040  28.965  32.969  1.00  0.00     0.029 A 
ATOM     61  C   UNL A   1      43.468  29.830  33.997  1.00  0.00     0.049 A 
ATOM     62  H   UNL A   1      41.702  30.929  33.895  1.00  0.00     0.167 HD
ATOM     63  C   UNL A   1      37.814  32.906  33.648  1.00  0.00     0.031 A 
ATOM     64  C   UNL A   1      44.006  30.055  35.209  1.00  0.00     0.031 A 
ATOM     65  C   UNL A   1      38.278  33.149  34.989  1.00  0.00     0.049 A 
ATOM     66  C   UNL A   1      43.266  30.909  36.196  1.00  0.00     0.074 A 
ATOM     67  C   UNL A   1      37.655  33.861  36.000  1.00  0.00     0.029 A 
ATOM     68  N   UNL A   1      39.488  32.705  35.498  1.00  0.00    -0.354 N 
ATOM     69  N   UNL A   1      42.103  31.498  36.062  1.00  0.00    -0.248 NA
ATOM     70  C   UNL A   1      43.901  31.113  37.505  1.00  0.00     0.031 C 
ATOM     71  C   UNL A   1      38.517  33.900  37.099  1.00  0.00     0.029 A 
ATOM     72  C   UNL A   1      39.647  33.156  36.798  1.00  0.00     0.049 A 
ATOM     73  H   UNL A   1      40.139  32.151  35.008  1.00  0.00     0.167 HD
ATOM     74  C   UNL A   1      41.856  32.132  37.273  1.00  0.00     0.074 A 
ATOM     75  C   UNL A   1      42.986  31.842  38.134  1.00  0.00     0.031 C 
ATOM     76  C   UNL A   1      40.787  32.881  37.637  1.00  0.00     0.031 A 
BRANCH  63  77
ATOM     77  C   UNL A   1      36.498  33.501  33.230  1.00  0.00    -0.014 A 
ATOM     78  C   UNL A   1      36.428  34.841  32.819  1.00  0.00     0.009 A 
ATOM     79  C   UNL A   1      35.314  32.752  33.307  1.00  0.00     0.009 A 
ATOM     80  C   UNL A   1      35.198  35.420  32.499  1.00  0.00     0.001 A 
ATOM     81  C   UNL A   1      34.089  33.325  32.960  1.00  0.00     0.001 A 
ATOM     82  C   UNL A   1      34.031  34.661  32.564  1.00  0.00     0.000 A 
ENDBRANCH  63  77
BRANCH  64  83
ATOM     83  C   UNL A   1      45.291  29.396  35.551  1.00  0.00    -0.014 A 
ATOM     84  C   UNL A   1      45.300  28.146  36.191  1.00  0.00     0.009 A 
ATOM     85  C   UNL A   1      46.507  30.060  35.333  1.00  0.00     0.009 A 
ATOM     86  C   UNL A   1      46.501  27.587  36.632  1.00  0.00     0.001 A 
ATOM     87  C   UNL A   1      47.707  29.487  35.755  1.00  0.00     0.001 A 
ATOM     88  C   UNL A   1      47.703  28.257  36.414  1.00  0.00     0.000 A 
ENDBRANCH  64  83
BRANCH  76  89
ATOM     89  C   UNL A   1      40.777  33.459  39.024  1.00  0.00    -0.014 A 
ATOM     90  C   UNL A   1      40.266  32.703  40.091  1.00  0.00     0.009 A 
ATOM     91  C   UNL A   1      41.176  34.784  39.256  1.00  0.00     0.009 A 
ATOM     92  C   UNL A   1      40.139  33.267  41.361  1.00  0.00     0.001 A 
ATOM     93  C   UNL A   1      41.073  35.336  40.536  1.00  0.00     0.001 A 
ATOM     94  C   UNL A   1      40.547  34.581  41.582  1.00  0.00     0.000 A 
ENDBRANCH  76  89
ENDBRANCH  50  51
ENDBRANCH  43  45
ENDBRANCH  42  43
ENDBRANCH  41  42
ENDBRANCH  40  41
ENDBRANCH  39  40
ENDBRANCH  38  39
ENDBRANCH  37  38
ENDBRANCH  36  37
ENDBRANCH   1  36
TORSDOF 26
ENDMDL
MODEL 3
REMARK VINA RESULT:      -9.3      6.479     12.611
REMARK SMILES CC[C@@H](C)[C@@H](NC(=O)Cn1nc(-c2ccc3ccccc3c2)ccc1=O)C(=O)OCCOCCOCCOCCOC(=O)c1ccc(-c2c3nc(c(-c4ccccc4)c4ccc([nH]4)c(-c4ccccc4)c4nc(c(-c5ccccc5)c5ccc2[nH]5)C=C4)C=C3)cc1
REMARK SMILES IDX 34 1 33 2 32 3 31 4 30 5 29 6 27 7 28 8 5 9 3 10 4 11 2 12
REMARK SMILES IDX 1 13 6 14 7 15 8 17 9 18 10 19 11 20 25 21 12 22 24 23 26 24
REMARK SMILES IDX 23 25 13 26 14 27 22 28 15 29 21 30 16 31 20 32 17 33 19 34
REMARK SMILES IDX 18 35 35 36 36 37 37 38 38 39 39 40 40 41 41 42 42 43 43 44
REMARK SMILES IDX 44 45 45 46 91 47 46 48 90 49 47 50 48 51 49 52 84 53 50 54
REMARK SMILES IDX 89 55 83 56 85 57 51 58 88 59 82 60 81 61 52 63 74 64 59 65
REMARK SMILES IDX 73 66 60 67 63 68 72 69 86 70 61 71 62 72 71 74 87 75 64 76
REMARK SMILES IDX 53 77 54 78 58 79 55 80 57 81 56 82 75 83 76 84 80 85 77 86
REMARK SMILES IDX 79 87 78 88 65 89 66 90 70 91 67 92 69 93 68 94
REMARK H PARENT 6 16 85 62 63 73
REMARK Flexibility Score: inf
ROOT
ATOM      1  C   UNL A   1      36.496  30.344  28.749  1.00  0.00     0.188 C 
ENDROOT
BRANCH   1   2
ATOM      2  C   UNL A   1      35.713  29.591  27.673  1.00  0.00     0.188 C 
BRANCH   2   3
ATOM      3  O   UNL A   1      34.326  29.871  27.557  1.00  0.00    -0.376 OA
BRANCH   3   4
ATOM      4  C   UNL A   1      33.479  28.810  27.103  1.00  0.00     0.202 C 
BRANCH   4   5
ATOM      5  C   UNL A   1      32.042  29.160  26.727  1.00  0.00     0.261 C 
BRANCH   5   6
ATOM      6  O   UNL A   1      32.003  29.764  25.411  1.00  0.00    -0.462 OA
BRANCH   6   7
ATOM      7  C   UNL A   1      32.558  29.049  24.409  1.00  0.00     0.328 C 
ATOM      8  O   UNL A   1      33.449  29.472  23.676  1.00  0.00    -0.250 OA
BRANCH   7   9
ATOM      9  C   UNL A   1      31.817  27.733  24.117  1.00  0.00     0.195 C 
BRANCH   9  10
ATOM     10  C   UNL A   1      30.281  27.637  23.932  1.00  0.00     0.019 C 
ATOM     11  C   UNL A   1      29.730  26.244  24.209  1.00  0.00     0.010 C 
BRANCH  10  12
ATOM     12  C   UNL A   1      29.908  28.103  22.496  1.00  0.00     0.002 C 
ATOM     13  C   UNL A   1      29.627  29.594  22.350  1.00  0.00     0.004 C 
ENDBRANCH  10  12
ENDBRANCH   9  10
BRANCH   9  14
ATOM     14  N   UNL A   1      32.578  26.851  23.217  1.00  0.00    -0.341 N 
ATOM     15  C   UNL A   1      33.449  25.823  23.347  1.00  0.00     0.242 C 
ATOM     16  H   UNL A   1      32.410  27.066  22.271  1.00  0.00     0.164 HD
ATOM     17  O   UNL A   1      33.889  25.403  22.264  1.00  0.00    -0.273 OA
BRANCH  15  18
ATOM     18  C   UNL A   1      33.718  24.985  24.607  1.00  0.00     0.248 C 
BRANCH  18  19
ATOM     19  N   UNL A   1      34.538  23.784  24.608  1.00  0.00    -0.220 N 
ATOM     20  N   UNL A   1      35.822  23.933  25.142  1.00  0.00    -0.169 NA
ATOM     21  C   UNL A   1      33.910  22.546  24.587  1.00  0.00     0.267 A 
ATOM     22  C   UNL A   1      36.538  22.859  25.271  1.00  0.00     0.091 A 
ATOM     23  C   UNL A   1      34.821  21.382  24.532  1.00  0.00     0.075 A 
ATOM     24  O   UNL A   1      32.700  22.365  24.519  1.00  0.00    -0.268 OA
ATOM     25  C   UNL A   1      36.118  21.524  24.812  1.00  0.00     0.036 A 
BRANCH  22  26
ATOM     26  C   UNL A   1      37.850  22.922  25.959  1.00  0.00     0.003 A 
ATOM     27  C   UNL A   1      38.239  24.118  26.565  1.00  0.00     0.011 A 
ATOM     28  C   UNL A   1      38.695  21.811  26.001  1.00  0.00     0.019 A 
ATOM     29  C   UNL A   1      39.472  24.196  27.217  1.00  0.00     0.009 A 
ATOM     30  C   UNL A   1      39.963  21.895  26.597  1.00  0.00    -0.018 A 
ATOM     31  C   UNL A   1      40.354  23.102  27.225  1.00  0.00    -0.018 A 
ATOM     32  C   UNL A   1      40.862  20.817  26.561  1.00  0.00     0.009 A 
ATOM     33  C   UNL A   1      41.624  23.184  27.819  1.00  0.00     0.009 A 
ATOM     34  C   UNL A   1      42.131  20.926  27.134  1.00  0.00     0.001 A 
ATOM     35  C   UNL A   1      42.509  22.105  27.768  1.00  0.00     0.001 A 
ENDBRANCH  22  26
ENDBRANCH  18  19
ENDBRANCH  15  18
ENDBRANCH   9  14
ENDBRANCH   7   9
ENDBRANCH   6   7
ENDBRANCH   5   6
ENDBRANCH   4   5
ENDBRANCH   3   4
ENDBRANCH   2   3
ENDBRANCH   1   2
BRANCH   1  36
ATOM     36  O   UNL A   1      37.858  30.611  28.459  1.00  0.00    -0.377 OA
BRANCH  36  37
ATOM     37  C   UNL A   1      38.666  29.491  28.119  1.00  0.00     0.188 C 
BRANCH  37  38
ATOM     38  C   UNL A   1      39.601  28.953  29.207  1.00  0.00     0.188 C 
BRANCH  38  39
ATOM     39  O   UNL A   1      40.902  28.544  28.804  1.00  0.00    -0.376 OA
BRANCH  39  40
ATOM     40  C   UNL A   1      41.353  27.248  29.186  1.00  0.00     0.202 C 
BRANCH  40  41
ATOM     41  C   UNL A   1      42.198  26.535  28.135  1.00  0.00     0.261 C 
BRANCH  41  42
ATOM     42  O   UNL A   1      42.034  27.156  26.845  1.00  0.00    -0.460 OA
BRANCH  42  43
ATOM     43  C   UNL A   1      42.365  26.411  25.770  1.00  0.00     0.338 C 
ATOM     44  O   UNL A   1      41.611  25.823  25.009  1.00  0.00    -0.246 OA
BRANCH  43  45
ATOM     45  C   UNL A   1      43.825  26.457  25.576  1.00  0.00     0.060 A 
ATOM     46  C   UNL A   1      44.509  27.678  25.604  1.00  0.00     0.016 A 
ATOM     47  C   UNL A   1      44.526  25.252  25.455  1.00  0.00     0.016 A 
ATOM     48  C   UNL A   1      45.904  27.685  25.554  1.00  0.00     0.010 A 
ATOM     49  C   UNL A   1      45.921  25.262  25.399  1.00  0.00     0.010 A 
ATOM     50  C   UNL A   1      46.618  26.477  25.477  1.00  0.00    -0.014 A 
BRANCH  50  51
ATOM     51  C   UNL A   1      48.088  26.488  25.658  1.00  0.00     0.031 A 
ATOM     52  C   UNL A   1      49.025  26.736  24.520  1.00  0.00     0.074 A 
ATOM     53  C   UNL A   1      48.574  26.288  26.895  1.00  0.00     0.049 A 
ATOM     54  N   UNL A   1      50.317  26.935  24.541  1.00  0.00    -0.248 NA
ATOM     55  C   UNL A   1      48.432  26.767  23.181  1.00  0.00     0.031 C 
ATOM     56  C   UNL A   1      47.761  26.020  28.081  1.00  0.00     0.029 A 
ATOM     57  N   UNL A   1      49.862  26.297  27.361  1.00  0.00    -0.354 N 
ATOM     58  C   UNL A   1      50.685  27.155  23.220  1.00  0.00     0.074 A 
ATOM     59  C   UNL A   1      49.487  27.019  22.419  1.00  0.00     0.031 C 
ATOM     60  C   UNL A   1      48.568  25.917  29.147  1.00  0.00     0.029 A 
ATOM     61  C   UNL A   1      49.953  26.099  28.716  1.00  0.00     0.049 A 
ATOM     62  H   UNL A   1      50.647  26.432  26.781  1.00  0.00     0.167 HD
ATOM     63  C   UNL A   1      51.909  27.454  22.726  1.00  0.00     0.031 A 
ATOM     64  C   UNL A   1      51.026  26.084  29.527  1.00  0.00     0.031 A 
ATOM     65  C   UNL A   1      53.105  27.525  23.523  1.00  0.00     0.049 A 
ATOM     66  C   UNL A   1      52.384  26.363  28.954  1.00  0.00     0.074 A 
ATOM     67  C   UNL A   1      54.392  27.834  23.119  1.00  0.00     0.029 A 
ATOM     68  N   UNL A   1      53.164  27.260  24.883  1.00  0.00    -0.354 N 
ATOM     69  N   UNL A   1      52.711  26.647  27.717  1.00  0.00    -0.248 NA
ATOM     70  C   UNL A   1      53.517  26.339  29.889  1.00  0.00     0.031 C 
ATOM     71  C   UNL A   1      55.240  27.696  24.223  1.00  0.00     0.029 A 
ATOM     72  C   UNL A   1      54.471  27.366  25.328  1.00  0.00     0.049 A 
ATOM     73  H   UNL A   1      52.391  27.031  25.448  1.00  0.00     0.167 HD
ATOM     74  C   UNL A   1      54.085  26.850  27.724  1.00  0.00     0.074 A 
ATOM     75  C   UNL A   1      54.526  26.671  29.092  1.00  0.00     0.031 C 
ATOM     76  C   UNL A   1      54.902  27.162  26.689  1.00  0.00     0.031 A 
BRANCH  63  77
ATOM     77  C   UNL A   1      52.020  27.719  21.250  1.00  0.00    -0.014 A 
ATOM     78  C   UNL A   1      51.914  29.029  20.758  1.00  0.00     0.009 A 
ATOM     79  C   UNL A   1      52.161  26.661  20.339  1.00  0.00     0.009 A 
ATOM     80  C   UNL A   1      51.943  29.274  19.383  1.00  0.00     0.001 A 
ATOM     81  C   UNL A   1      52.217  26.911  18.966  1.00  0.00     0.001 A 
ATOM     82  C   UNL A   1      52.100  28.216  18.489  1.00  0.00     0.000 A 
ENDBRANCH  63  77
BRANCH  64  83
ATOM     83  C   UNL A   1      50.819  25.852  30.977  1.00  0.00    -0.014 A 
ATOM     84  C   UNL A   1      50.909  24.555  31.509  1.00  0.00     0.009 A 
ATOM     85  C   UNL A   1      50.428  26.906  31.815  1.00  0.00     0.009 A 
ATOM     86  C   UNL A   1      50.585  24.315  32.846  1.00  0.00     0.001 A 
ATOM     87  C   UNL A   1      50.128  26.666  33.156  1.00  0.00     0.001 A 
ATOM     88  C   UNL A   1      50.195  25.370  33.668  1.00  0.00     0.000 A 
ENDBRANCH  64  83
BRANCH  76  89
ATOM     89  C   UNL A   1      56.368  27.324  26.979  1.00  0.00    -0.014 A 
ATOM     90  C   UNL A   1      57.185  26.188  27.095  1.00  0.00     0.009 A 
ATOM     91  C   UNL A   1      56.917  28.589  27.238  1.00  0.00     0.009 A 
ATOM     92  C   UNL A   1      58.520  26.314  27.480  1.00  0.00     0.001 A 
ATOM     93  C   UNL A   1      58.261  28.712  27.598  1.00  0.00     0.001 A 
ATOM     94  C   UNL A   1      59.057  27.576  27.728  1.00  0.00     0.000 A 
ENDBRANCH  76  89
ENDBRANCH  50  51
ENDBRANCH  43  45
ENDBRANCH  42  43
ENDBRANCH  41  42
ENDBRANCH  40  41
ENDBRANCH  39  40
ENDBRANCH  38  39
ENDBRANCH  37  38
ENDBRANCH  36  37
ENDBRANCH   1  36
TORSDOF 26
ENDMDL
