MODEL 1
REMARK VINA RESULT:      -6.3      0.000      0.000
REMARK SMILES CC/C=C/C/C=C/C/C=C/C/C=C/CCSCCCC(=O)OCCOCCOCCOCCOC(=O)c1ccc(-c2c3nc(c(-c4ccccc4)c4ccc([nH]4)c(-c4ccccc4)c4nc(c(-c5ccccc5)c5ccc2[nH]5)C=C4)C=C3)cc1
REMARK SMILES IDX 23 1 22 2 20 3 21 4 19 5 18 6 17 7 16 8 15 9 14 10 13 11
REMARK SMILES IDX 12 12 11 13 10 14 9 15 8 16 7 17 6 18 5 19 4 20 3 21 2 22
REMARK SMILES IDX 1 23 24 24 25 25 26 26 27 27 28 28 29 29 30 30 31 31 32 32
REMARK SMILES IDX 33 33 34 34 35 35 36 36 37 37 38 38 84 39 39 40 83 41 40 42
REMARK SMILES IDX 41 43 42 44 77 45 43 46 82 47 76 48 78 49 44 50 81 51 75 52
REMARK SMILES IDX 74 53 45 55 67 56 52 57 66 58 53 59 56 60 65 61 79 62 54 63
REMARK SMILES IDX 55 64 64 66 80 67 57 68 46 69 47 70 51 71 48 72 50 73 49 74
REMARK SMILES IDX 68 75 69 76 73 77 70 78 72 79 71 80 58 81 59 82 63 83 60 84
REMARK SMILES IDX 62 85 61 86
REMARK H PARENT 78 54 56 65
REMARK Flexibility Score: inf
ROOT
ATOM      1  C   UNL A   1      42.557  22.066  25.649  1.00  0.00     0.261 C 
ENDROOT
BRANCH   1   2
ATOM      2  O   UNL A   1      41.128  22.122  25.752  1.00  0.00    -0.463 OA
BRANCH   2   3
ATOM      3  C   UNL A   1      40.379  22.691  26.709  1.00  0.00     0.305 C 
ATOM      4  O   UNL A   1      40.776  23.417  27.599  1.00  0.00    -0.252 OA
BRANCH   3   5
ATOM      5  C   UNL A   1      38.898  22.482  26.494  1.00  0.00     0.123 C 
BRANCH   5   6
ATOM      6  C   UNL A   1      38.021  23.680  26.144  1.00  0.00     0.023 C 
BRANCH   6   7
ATOM      7  C   UNL A   1      36.946  23.602  25.057  1.00  0.00     0.070 C 
BRANCH   7   8
ATOM      8  S   UNL A   1      35.605  22.347  24.911  1.00  0.00    -0.162 SA
BRANCH   8   9
ATOM      9  C   UNL A   1      35.195  21.753  26.592  1.00  0.00     0.073 C 
BRANCH   9  10
ATOM     10  C   UNL A   1      33.858  22.310  27.141  1.00  0.00     0.038 C 
BRANCH  10  11
ATOM     11  C   UNL A   1      33.174  23.391  26.332  1.00  0.00    -0.030 C 
ATOM     12  C   UNL A   1      32.009  24.019  26.603  1.00  0.00    -0.027 C 
BRANCH  12  13
ATOM     13  C   UNL A   1      31.345  25.088  25.734  1.00  0.00     0.054 C 
BRANCH  13  14
ATOM     14  C   UNL A   1      31.831  26.500  26.025  1.00  0.00    -0.027 C 
ATOM     15  C   UNL A   1      31.235  27.423  26.811  1.00  0.00    -0.027 C 
BRANCH  15  16
ATOM     16  C   UNL A   1      31.815  28.775  27.163  1.00  0.00     0.054 C 
BRANCH  16  17
ATOM     17  C   UNL A   1      33.306  28.692  27.121  1.00  0.00    -0.027 C 
ATOM     18  C   UNL A   1      34.142  29.607  27.632  1.00  0.00    -0.027 C 
BRANCH  18  19
ATOM     19  C   UNL A   1      35.599  29.631  27.276  1.00  0.00     0.054 C 
BRANCH  19  20
ATOM     20  C   UNL A   1      36.415  29.756  28.531  1.00  0.00    -0.027 C 
ATOM     21  C   UNL A   1      37.721  29.463  28.608  1.00  0.00    -0.031 C 
BRANCH  21  22
ATOM     22  C   UNL A   1      38.509  29.509  29.884  1.00  0.00     0.023 C 
ATOM     23  C   UNL A   1      38.026  30.651  30.763  1.00  0.00     0.008 C 
ENDBRANCH  21  22
ENDBRANCH  19  20
ENDBRANCH  18  19
ENDBRANCH  16  17
ENDBRANCH  15  16
ENDBRANCH  13  14
ENDBRANCH  12  13
ENDBRANCH  10  11
ENDBRANCH   9  10
ENDBRANCH   8   9
ENDBRANCH   7   8
ENDBRANCH   6   7
ENDBRANCH   5   6
ENDBRANCH   3   5
ENDBRANCH   2   3
ENDBRANCH   1   2
BRANCH   1  24
ATOM     24  C   UNL A   1      43.425  23.319  25.667  1.00  0.00     0.202 C 
BRANCH  24  25
ATOM     25  O   UNL A   1      44.412  23.576  26.633  1.00  0.00    -0.376 OA
BRANCH  25  26
ATOM     26  C   UNL A   1      44.143  24.167  27.884  1.00  0.00     0.188 C 
BRANCH  26  27
ATOM     27  C   UNL A   1      43.852  25.673  27.849  1.00  0.00     0.188 C 
BRANCH  27  28
ATOM     28  O   UNL A   1      42.522  26.121  27.660  1.00  0.00    -0.377 OA
BRANCH  28  29
ATOM     29  C   UNL A   1      41.861  26.700  28.768  1.00  0.00     0.188 C 
BRANCH  29  30
ATOM     30  C   UNL A   1      41.605  28.221  28.664  1.00  0.00     0.188 C 
BRANCH  30  31
ATOM     31  O   UNL A   1      42.028  28.965  27.531  1.00  0.00    -0.376 OA
BRANCH  31  32
ATOM     32  C   UNL A   1      43.011  29.971  27.674  1.00  0.00     0.202 C 
BRANCH  32  33
ATOM     33  C   UNL A   1      44.495  29.579  27.846  1.00  0.00     0.261 C 
BRANCH  33  34
ATOM     34  O   UNL A   1      45.103  28.758  26.832  1.00  0.00    -0.460 OA
BRANCH  34  35
ATOM     35  C   UNL A   1      46.449  28.867  26.686  1.00  0.00     0.338 C 
ATOM     36  O   UNL A   1      47.042  29.543  25.875  1.00  0.00    -0.246 OA
BRANCH  35  37
ATOM     37  C   UNL A   1      47.131  28.171  27.818  1.00  0.00     0.060 A 
ATOM     38  C   UNL A   1      47.125  26.766  27.845  1.00  0.00     0.016 A 
ATOM     39  C   UNL A   1      47.755  28.880  28.846  1.00  0.00     0.016 A 
ATOM     40  C   UNL A   1      47.695  26.068  28.910  1.00  0.00     0.010 A 
ATOM     41  C   UNL A   1      48.279  28.183  29.944  1.00  0.00     0.010 A 
ATOM     42  C   UNL A   1      48.203  26.777  30.002  1.00  0.00    -0.014 A 
BRANCH  42  43
ATOM     43  C   UNL A   1      48.338  26.078  31.304  1.00  0.00     0.031 A 
ATOM     44  C   UNL A   1      49.715  25.605  31.693  1.00  0.00     0.074 A 
ATOM     45  C   UNL A   1      47.303  25.905  32.145  1.00  0.00     0.049 A 
ATOM     46  N   UNL A   1      50.098  24.911  32.734  1.00  0.00    -0.248 NA
ATOM     47  C   UNL A   1      50.811  25.966  30.776  1.00  0.00     0.031 C 
ATOM     48  C   UNL A   1      45.942  26.387  31.930  1.00  0.00     0.029 A 
ATOM     49  N   UNL A   1      47.248  25.261  33.358  1.00  0.00    -0.354 N 
ATOM     50  C   UNL A   1      51.469  24.742  32.586  1.00  0.00     0.074 A 
ATOM     51  C   UNL A   1      51.849  25.378  31.346  1.00  0.00     0.031 C 
ATOM     52  C   UNL A   1      45.177  26.004  32.969  1.00  0.00     0.029 A 
ATOM     53  C   UNL A   1      45.987  25.217  33.900  1.00  0.00     0.049 A 
ATOM     54  H   UNL A   1      48.037  24.870  33.796  1.00  0.00     0.167 HD
ATOM     55  C   UNL A   1      52.341  24.113  33.409  1.00  0.00     0.031 A 
ATOM     56  C   UNL A   1      45.537  24.586  35.002  1.00  0.00     0.031 A 
ATOM     57  C   UNL A   1      51.962  23.463  34.633  1.00  0.00     0.049 A 
ATOM     58  C   UNL A   1      46.506  23.801  35.851  1.00  0.00     0.074 A 
ATOM     59  C   UNL A   1      52.764  22.789  35.536  1.00  0.00     0.029 A 
ATOM     60  N   UNL A   1      50.665  23.399  35.119  1.00  0.00    -0.354 N 
ATOM     61  N   UNL A   1      47.800  23.644  35.703  1.00  0.00    -0.248 NA
ATOM     62  C   UNL A   1      45.950  23.108  37.024  1.00  0.00     0.031 C 
ATOM     63  C   UNL A   1      51.942  22.263  36.538  1.00  0.00     0.029 A 
ATOM     64  C   UNL A   1      50.640  22.672  36.297  1.00  0.00     0.049 A 
ATOM     65  H   UNL A   1      49.879  23.809  34.691  1.00  0.00     0.167 HD
ATOM     66  C   UNL A   1      48.216  22.866  36.779  1.00  0.00     0.074 A 
ATOM     67  C   UNL A   1      47.040  22.596  37.579  1.00  0.00     0.031 C 
ATOM     68  C   UNL A   1      49.460  22.416  37.081  1.00  0.00     0.031 A 
BRANCH  55  69
ATOM     69  C   UNL A   1      53.781  24.058  32.980  1.00  0.00    -0.014 A 
ATOM     70  C   UNL A   1      54.681  25.088  33.293  1.00  0.00     0.009 A 
ATOM     71  C   UNL A   1      54.247  22.946  32.261  1.00  0.00     0.009 A 
ATOM     72  C   UNL A   1      56.009  25.022  32.865  1.00  0.00     0.001 A 
ATOM     73  C   UNL A   1      55.583  22.866  31.864  1.00  0.00     0.001 A 
ATOM     74  C   UNL A   1      56.460  23.908  32.157  1.00  0.00     0.000 A 
ENDBRANCH  55  69
BRANCH  56  75
ATOM     75  C   UNL A   1      44.091  24.628  35.354  1.00  0.00    -0.014 A 
ATOM     76  C   UNL A   1      43.195  23.676  34.841  1.00  0.00     0.009 A 
ATOM     77  C   UNL A   1      43.591  25.647  36.182  1.00  0.00     0.009 A 
ATOM     78  C   UNL A   1      41.829  23.762  35.128  1.00  0.00     0.001 A 
ATOM     79  C   UNL A   1      42.231  25.710  36.493  1.00  0.00     0.001 A 
ATOM     80  C   UNL A   1      41.350  24.773  35.957  1.00  0.00     0.000 A 
ENDBRANCH  56  75
BRANCH  68  81
ATOM     81  C   UNL A   1      49.625  21.629  38.352  1.00  0.00    -0.014 A 
ATOM     82  C   UNL A   1      49.683  20.227  38.347  1.00  0.00     0.009 A 
ATOM     83  C   UNL A   1      49.777  22.310  39.571  1.00  0.00     0.009 A 
ATOM     84  C   UNL A   1      49.851  19.522  39.542  1.00  0.00     0.001 A 
ATOM     85  C   UNL A   1      49.979  21.605  40.759  1.00  0.00     0.001 A 
ATOM     86  C   UNL A   1      50.006  20.211  40.744  1.00  0.00     0.000 A 
ENDBRANCH  68  81
ENDBRANCH  42  43
ENDBRANCH  35  37
ENDBRANCH  34  35
ENDBRANCH  33  34
ENDBRANCH  32  33
ENDBRANCH  31  32
ENDBRANCH  30  31
ENDBRANCH  29  30
ENDBRANCH  28  29
ENDBRANCH  27  28
ENDBRANCH  26  27
ENDBRANCH  25  26
ENDBRANCH  24  25
ENDBRANCH   1  24
TORSDOF 33
ENDMDL
MODEL 2
REMARK VINA RESULT:      -6.2      5.043      9.231
REMARK SMILES CC/C=C/C/C=C/C/C=C/C/C=C/CCSCCCC(=O)OCCOCCOCCOCCOC(=O)c1ccc(-c2c3nc(c(-c4ccccc4)c4ccc([nH]4)c(-c4ccccc4)c4nc(c(-c5ccccc5)c5ccc2[nH]5)C=C4)C=C3)cc1
REMARK SMILES IDX 23 1 22 2 20 3 21 4 19 5 18 6 17 7 16 8 15 9 14 10 13 11
REMARK SMILES IDX 12 12 11 13 10 14 9 15 8 16 7 17 6 18 5 19 4 20 3 21 2 22
REMARK SMILES IDX 1 23 24 24 25 25 26 26 27 27 28 28 29 29 30 30 31 31 32 32
REMARK SMILES IDX 33 33 34 34 35 35 36 36 37 37 38 38 84 39 39 40 83 41 40 42
REMARK SMILES IDX 41 43 42 44 77 45 43 46 82 47 76 48 78 49 44 50 81 51 75 52
REMARK SMILES IDX 74 53 45 55 67 56 52 57 66 58 53 59 56 60 65 61 79 62 54 63
REMARK SMILES IDX 55 64 64 66 80 67 57 68 46 69 47 70 51 71 48 72 50 73 49 74
REMARK SMILES IDX 68 75 69 76 73 77 70 78 72 79 71 80 58 81 59 82 63 83 60 84
REMARK SMILES IDX 62 85 61 86
REMARK H PARENT 78 54 56 65
REMARK Flexibility Score: inf
ROOT
ATOM      1  C   UNL A   1      36.491  33.382  28.966  1.00  0.00     0.261 C 
ENDROOT
BRANCH   1   2
ATOM      2  O   UNL A   1      35.407  33.603  29.877  1.00  0.00    -0.463 OA
BRANCH   2   3
ATOM      3  C   UNL A   1      35.038  32.862  30.935  1.00  0.00     0.305 C 
ATOM      4  O   UNL A   1      34.068  33.050  31.642  1.00  0.00    -0.252 OA
BRANCH   3   5
ATOM      5  C   UNL A   1      35.873  31.613  31.094  1.00  0.00     0.123 C 
BRANCH   5   6
ATOM      6  C   UNL A   1      36.305  31.181  32.492  1.00  0.00     0.023 C 
BRANCH   6   7
ATOM      7  C   UNL A   1      37.341  31.972  33.295  1.00  0.00     0.070 C 
BRANCH   7   8
ATOM      8  S   UNL A   1      37.107  33.619  34.088  1.00  0.00    -0.162 SA
BRANCH   8   9
ATOM      9  C   UNL A   1      38.734  34.196  34.694  1.00  0.00     0.073 C 
BRANCH   9  10
ATOM     10  C   UNL A   1      39.342  33.296  35.798  1.00  0.00     0.038 C 
BRANCH  10  11
ATOM     11  C   UNL A   1      40.373  32.274  35.370  1.00  0.00    -0.030 C 
ATOM     12  C   UNL A   1      41.541  31.969  35.976  1.00  0.00    -0.027 C 
BRANCH  12  13
ATOM     13  C   UNL A   1      42.564  30.944  35.484  1.00  0.00     0.054 C 
BRANCH  13  14
ATOM     14  C   UNL A   1      41.968  29.571  35.206  1.00  0.00    -0.027 C 
ATOM     15  C   UNL A   1      41.738  29.009  34.000  1.00  0.00    -0.027 C 
BRANCH  15  16
ATOM     16  C   UNL A   1      41.251  27.595  33.774  1.00  0.00     0.054 C 
BRANCH  16  17
ATOM     17  C   UNL A   1      41.561  26.774  34.983  1.00  0.00    -0.027 C 
ATOM     18  C   UNL A   1      42.530  25.851  35.057  1.00  0.00    -0.027 C 
BRANCH  18  19
ATOM     19  C   UNL A   1      42.579  24.845  36.170  1.00  0.00     0.054 C 
BRANCH  19  20
ATOM     20  C   UNL A   1      43.671  25.221  37.131  1.00  0.00    -0.027 C 
ATOM     21  C   UNL A   1      43.546  26.163  38.077  1.00  0.00    -0.031 C 
BRANCH  21  22
ATOM     22  C   UNL A   1      44.667  26.592  38.976  1.00  0.00     0.023 C 
ATOM     23  C   UNL A   1      44.915  25.545  40.050  1.00  0.00     0.008 C 
ENDBRANCH  21  22
ENDBRANCH  19  20
ENDBRANCH  18  19
ENDBRANCH  16  17
ENDBRANCH  15  16
ENDBRANCH  13  14
ENDBRANCH  12  13
ENDBRANCH  10  11
ENDBRANCH   9  10
ENDBRANCH   8   9
ENDBRANCH   7   8
ENDBRANCH   6   7
ENDBRANCH   5   6
ENDBRANCH   3   5
ENDBRANCH   2   3
ENDBRANCH   1   2
BRANCH   1  24
ATOM     24  C   UNL A   1      37.921  33.804  29.283  1.00  0.00     0.202 C 
BRANCH  24  25
ATOM     25  O   UNL A   1      38.417  33.984  30.585  1.00  0.00    -0.376 OA
BRANCH  25  26
ATOM     26  C   UNL A   1      39.769  34.255  30.873  1.00  0.00     0.188 C 
BRANCH  26  27
ATOM     27  C   UNL A   1      40.758  33.151  30.479  1.00  0.00     0.188 C 
BRANCH  27  28
ATOM     28  O   UNL A   1      40.957  32.052  31.349  1.00  0.00    -0.377 OA
BRANCH  28  29
ATOM     29  C   UNL A   1      40.111  30.930  31.195  1.00  0.00     0.188 C 
BRANCH  29  30
ATOM     30  C   UNL A   1      39.694  30.611  29.740  1.00  0.00     0.188 C 
BRANCH  30  31
ATOM     31  O   UNL A   1      38.547  29.825  29.457  1.00  0.00    -0.376 OA
BRANCH  31  32
ATOM     32  C   UNL A   1      38.218  29.513  28.118  1.00  0.00     0.202 C 
BRANCH  32  33
ATOM     33  C   UNL A   1      39.341  29.286  27.082  1.00  0.00     0.261 C 
BRANCH  33  34
ATOM     34  O   UNL A   1      40.127  28.084  27.183  1.00  0.00    -0.460 OA
BRANCH  34  35
ATOM     35  C   UNL A   1      41.447  28.192  26.880  1.00  0.00     0.338 C 
ATOM     36  O   UNL A   1      41.925  28.639  25.861  1.00  0.00    -0.246 OA
BRANCH  35  37
ATOM     37  C   UNL A   1      42.264  27.854  28.083  1.00  0.00     0.060 A 
ATOM     38  C   UNL A   1      41.618  27.749  29.327  1.00  0.00     0.016 A 
ATOM     39  C   UNL A   1      43.643  27.656  28.001  1.00  0.00     0.016 A 
ATOM     40  C   UNL A   1      42.344  27.496  30.491  1.00  0.00     0.010 A 
ATOM     41  C   UNL A   1      44.382  27.456  29.176  1.00  0.00     0.010 A 
ATOM     42  C   UNL A   1      43.738  27.427  30.429  1.00  0.00    -0.014 A 
BRANCH  42  43
ATOM     43  C   UNL A   1      44.518  27.659  31.671  1.00  0.00     0.031 A 
ATOM     44  C   UNL A   1      44.984  26.443  32.429  1.00  0.00     0.074 A 
ATOM     45  C   UNL A   1      44.853  28.889  32.097  1.00  0.00     0.049 A 
ATOM     46  N   UNL A   1      45.616  26.361  33.572  1.00  0.00    -0.248 NA
ATOM     47  C   UNL A   1      44.693  25.137  31.810  1.00  0.00     0.031 C 
ATOM     48  C   UNL A   1      44.541  30.141  31.415  1.00  0.00     0.029 A 
ATOM     49  N   UNL A   1      45.534  29.278  33.226  1.00  0.00    -0.354 N 
ATOM     50  C   UNL A   1      45.782  25.003  33.812  1.00  0.00     0.074 A 
ATOM     51  C   UNL A   1      45.163  24.295  32.714  1.00  0.00     0.031 C 
ATOM     52  C   UNL A   1      45.012  31.166  32.151  1.00  0.00     0.029 A 
ATOM     53  C   UNL A   1      45.622  30.641  33.373  1.00  0.00     0.049 A 
ATOM     54  H   UNL A   1      45.922  28.641  33.867  1.00  0.00     0.167 HD
ATOM     55  C   UNL A   1      46.396  24.392  34.852  1.00  0.00     0.031 A 
ATOM     56  C   UNL A   1      46.110  31.376  34.392  1.00  0.00     0.031 A 
ATOM     57  C   UNL A   1      46.995  25.094  35.953  1.00  0.00     0.049 A 
ATOM     58  C   UNL A   1      46.697  30.675  35.592  1.00  0.00     0.074 A 
ATOM     59  C   UNL A   1      47.636  24.572  37.062  1.00  0.00     0.029 A 
ATOM     60  N   UNL A   1      47.018  26.474  36.086  1.00  0.00    -0.354 N 
ATOM     61  N   UNL A   1      46.848  29.390  35.812  1.00  0.00    -0.248 NA
ATOM     62  C   UNL A   1      47.185  31.530  36.686  1.00  0.00     0.031 C 
ATOM     63  C   UNL A   1      47.991  25.636  37.898  1.00  0.00     0.029 A 
ATOM     64  C   UNL A   1      47.638  26.821  37.274  1.00  0.00     0.049 A 
ATOM     65  H   UNL A   1      46.649  27.112  35.433  1.00  0.00     0.167 HD
ATOM     66  C   UNL A   1      47.477  29.285  37.048  1.00  0.00     0.074 A 
ATOM     67  C   UNL A   1      47.692  30.636  37.523  1.00  0.00     0.031 C 
ATOM     68  C   UNL A   1      47.846  28.171  37.729  1.00  0.00     0.031 A 
BRANCH  55  69
ATOM     69  C   UNL A   1      46.402  22.889  34.866  1.00  0.00    -0.014 A 
ATOM     70  C   UNL A   1      45.250  22.152  35.182  1.00  0.00     0.009 A 
ATOM     71  C   UNL A   1      47.580  22.198  34.542  1.00  0.00     0.009 A 
ATOM     72  C   UNL A   1      45.287  20.756  35.207  1.00  0.00     0.001 A 
ATOM     73  C   UNL A   1      47.606  20.803  34.535  1.00  0.00     0.001 A 
ATOM     74  C   UNL A   1      46.463  20.083  34.877  1.00  0.00     0.000 A 
ENDBRANCH  55  69
BRANCH  56  75
ATOM     75  C   UNL A   1      46.032  32.862  34.351  1.00  0.00    -0.014 A 
ATOM     76  C   UNL A   1      44.911  33.539  34.854  1.00  0.00     0.009 A 
ATOM     77  C   UNL A   1      47.070  33.611  33.773  1.00  0.00     0.009 A 
ATOM     78  C   UNL A   1      44.820  34.931  34.755  1.00  0.00     0.001 A 
ATOM     79  C   UNL A   1      46.991  35.004  33.705  1.00  0.00     0.001 A 
ATOM     80  C   UNL A   1      45.861  35.662  34.187  1.00  0.00     0.000 A 
ENDBRANCH  56  75
BRANCH  68  81
ATOM     81  C   UNL A   1      48.565  28.363  39.036  1.00  0.00    -0.014 A 
ATOM     82  C   UNL A   1      49.945  28.611  39.087  1.00  0.00     0.009 A 
ATOM     83  C   UNL A   1      47.834  28.347  40.236  1.00  0.00     0.009 A 
ATOM     84  C   UNL A   1      50.585  28.801  40.315  1.00  0.00     0.001 A 
ATOM     85  C   UNL A   1      48.469  28.571  41.458  1.00  0.00     0.001 A 
ATOM     86  C   UNL A   1      49.845  28.787  41.497  1.00  0.00     0.000 A 
ENDBRANCH  68  81
ENDBRANCH  42  43
ENDBRANCH  35  37
ENDBRANCH  34  35
ENDBRANCH  33  34
ENDBRANCH  32  33
ENDBRANCH  31  32
ENDBRANCH  30  31
ENDBRANCH  29  30
ENDBRANCH  28  29
ENDBRANCH  27  28
ENDBRANCH  26  27
ENDBRANCH  25  26
ENDBRANCH  24  25
ENDBRANCH   1  24
TORSDOF 33
ENDMDL
MODEL 3
REMARK VINA RESULT:      -5.9      5.170      8.883
REMARK SMILES CC/C=C/C/C=C/C/C=C/C/C=C/CCSCCCC(=O)OCCOCCOCCOCCOC(=O)c1ccc(-c2c3nc(c(-c4ccccc4)c4ccc([nH]4)c(-c4ccccc4)c4nc(c(-c5ccccc5)c5ccc2[nH]5)C=C4)C=C3)cc1
REMARK SMILES IDX 23 1 22 2 20 3 21 4 19 5 18 6 17 7 16 8 15 9 14 10 13 11
REMARK SMILES IDX 12 12 11 13 10 14 9 15 8 16 7 17 6 18 5 19 4 20 3 21 2 22
REMARK SMILES IDX 1 23 24 24 25 25 26 26 27 27 28 28 29 29 30 30 31 31 32 32
REMARK SMILES IDX 33 33 34 34 35 35 36 36 37 37 38 38 84 39 39 40 83 41 40 42
REMARK SMILES IDX 41 43 42 44 77 45 43 46 82 47 76 48 78 49 44 50 81 51 75 52
REMARK SMILES IDX 74 53 45 55 67 56 52 57 66 58 53 59 56 60 65 61 79 62 54 63
REMARK SMILES IDX 55 64 64 66 80 67 57 68 46 69 47 70 51 71 48 72 50 73 49 74
REMARK SMILES IDX 68 75 69 76 73 77 70 78 72 79 71 80 58 81 59 82 63 83 60 84
REMARK SMILES IDX 62 85 61 86
REMARK H PARENT 78 54 56 65
REMARK Flexibility Score: inf
ROOT
ATOM      1  C   UNL A   1      42.105  21.260  26.000  1.00  0.00     0.261 C 
ENDROOT
BRANCH   1   2
ATOM      2  O   UNL A   1      40.729  21.634  25.853  1.00  0.00    -0.463 OA
BRANCH   2   3
ATOM      3  C   UNL A   1      40.068  22.644  26.441  1.00  0.00     0.305 C 
ATOM      4  O   UNL A   1      40.558  23.663  26.886  1.00  0.00    -0.252 OA
BRANCH   3   5
ATOM      5  C   UNL A   1      38.568  22.484  26.363  1.00  0.00     0.123 C 
BRANCH   5   6
ATOM      6  C   UNL A   1      37.751  23.508  25.582  1.00  0.00     0.023 C 
BRANCH   6   7
ATOM      7  C   UNL A   1      36.826  23.095  24.434  1.00  0.00     0.070 C 
BRANCH   7   8
ATOM      8  S   UNL A   1      35.347  22.002  24.540  1.00  0.00    -0.162 SA
BRANCH   8   9
ATOM      9  C   UNL A   1      34.849  21.885  26.297  1.00  0.00     0.073 C 
BRANCH   9  10
ATOM     10  C   UNL A   1      33.847  22.982  26.734  1.00  0.00     0.038 C 
BRANCH  10  11
ATOM     11  C   UNL A   1      33.833  24.266  25.933  1.00  0.00    -0.030 C 
ATOM     12  C   UNL A   1      33.037  25.344  26.107  1.00  0.00    -0.027 C 
BRANCH  12  13
ATOM     13  C   UNL A   1      33.044  26.610  25.248  1.00  0.00     0.054 C 
BRANCH  13  14
ATOM     14  C   UNL A   1      33.819  27.763  25.866  1.00  0.00    -0.027 C 
ATOM     15  C   UNL A   1      33.312  28.831  26.519  1.00  0.00    -0.027 C 
BRANCH  15  16
ATOM     16  C   UNL A   1      34.129  29.896  27.217  1.00  0.00     0.054 C 
BRANCH  16  17
ATOM     17  C   UNL A   1      35.405  29.290  27.704  1.00  0.00    -0.027 C 
ATOM     18  C   UNL A   1      36.210  29.832  28.630  1.00  0.00    -0.027 C 
BRANCH  18  19
ATOM     19  C   UNL A   1      37.616  29.349  28.834  1.00  0.00     0.054 C 
BRANCH  19  20
ATOM     20  C   UNL A   1      37.835  29.063  30.292  1.00  0.00    -0.027 C 
ATOM     21  C   UNL A   1      38.637  28.092  30.754  1.00  0.00    -0.031 C 
BRANCH  21  22
ATOM     22  C   UNL A   1      38.785  27.757  32.209  1.00  0.00     0.023 C 
ATOM     23  C   UNL A   1      40.096  28.306  32.747  1.00  0.00     0.008 C 
ENDBRANCH  21  22
ENDBRANCH  19  20
ENDBRANCH  18  19
ENDBRANCH  16  17
ENDBRANCH  15  16
ENDBRANCH  13  14
ENDBRANCH  12  13
ENDBRANCH  10  11
ENDBRANCH   9  10
ENDBRANCH   8   9
ENDBRANCH   7   8
ENDBRANCH   6   7
ENDBRANCH   5   6
ENDBRANCH   3   5
ENDBRANCH   2   3
ENDBRANCH   1   2
BRANCH   1  24
ATOM     24  C   UNL A   1      43.232  22.285  26.008  1.00  0.00     0.202 C 
BRANCH  24  25
ATOM     25  O   UNL A   1      43.997  22.604  27.143  1.00  0.00    -0.376 OA
BRANCH  25  26
ATOM     26  C   UNL A   1      43.670  23.643  28.036  1.00  0.00     0.188 C 
BRANCH  26  27
ATOM     27  C   UNL A   1      44.037  25.055  27.562  1.00  0.00     0.188 C 
BRANCH  27  28
ATOM     28  O   UNL A   1      43.112  25.790  26.782  1.00  0.00    -0.377 OA
BRANCH  28  29
ATOM     29  C   UNL A   1      42.656  27.026  27.296  1.00  0.00     0.188 C 
BRANCH  29  30
ATOM     30  C   UNL A   1      43.297  28.282  26.661  1.00  0.00     0.188 C 
BRANCH  30  31
ATOM     31  O   UNL A   1      44.418  28.181  25.796  1.00  0.00    -0.376 OA
BRANCH  31  32
ATOM     32  C   UNL A   1      45.648  28.773  26.162  1.00  0.00     0.202 C 
BRANCH  32  33
ATOM     33  C   UNL A   1      46.292  28.432  27.524  1.00  0.00     0.261 C 
BRANCH  33  34
ATOM     34  O   UNL A   1      46.342  27.050  27.925  1.00  0.00    -0.460 OA
BRANCH  34  35
ATOM     35  C   UNL A   1      47.139  26.752  28.983  1.00  0.00     0.338 C 
ATOM     36  O   UNL A   1      48.164  26.107  28.963  1.00  0.00    -0.246 OA
BRANCH  35  37
ATOM     37  C   UNL A   1      46.677  27.508  30.185  1.00  0.00     0.060 A 
ATOM     38  C   UNL A   1      45.509  27.082  30.840  1.00  0.00     0.016 A 
ATOM     39  C   UNL A   1      47.367  28.625  30.659  1.00  0.00     0.016 A 
ATOM     40  C   UNL A   1      45.001  27.789  31.930  1.00  0.00     0.010 A 
ATOM     41  C   UNL A   1      46.830  29.369  31.719  1.00  0.00     0.010 A 
ATOM     42  C   UNL A   1      45.617  28.980  32.323  1.00  0.00    -0.014 A 
BRANCH  42  43
ATOM     43  C   UNL A   1      44.830  29.962  33.110  1.00  0.00     0.031 A 
ATOM     44  C   UNL A   1      45.222  30.161  34.552  1.00  0.00     0.074 A 
ATOM     45  C   UNL A   1      43.839  30.694  32.574  1.00  0.00     0.049 A 
ATOM     46  N   UNL A   1      44.662  30.898  35.477  1.00  0.00    -0.248 NA
ATOM     47  C   UNL A   1      46.411  29.421  35.013  1.00  0.00     0.031 C 
ATOM     48  C   UNL A   1      43.417  30.662  31.177  1.00  0.00     0.029 A 
ATOM     49  N   UNL A   1      43.001  31.612  33.160  1.00  0.00    -0.354 N 
ATOM     50  C   UNL A   1      45.420  30.698  36.624  1.00  0.00     0.074 A 
ATOM     51  C   UNL A   1      46.460  29.752  36.292  1.00  0.00     0.031 C 
ATOM     52  C   UNL A   1      42.382  31.508  31.016  1.00  0.00     0.029 A 
ATOM     53  C   UNL A   1      42.046  32.108  32.308  1.00  0.00     0.049 A 
ATOM     54  H   UNL A   1      43.078  31.887  34.102  1.00  0.00     0.167 HD
ATOM     55  C   UNL A   1      45.268  31.252  37.850  1.00  0.00     0.031 A 
ATOM     56  C   UNL A   1      41.004  32.928  32.552  1.00  0.00     0.031 A 
ATOM     57  C   UNL A   1      44.222  32.178  38.187  1.00  0.00     0.049 A 
ATOM     58  C   UNL A   1      40.789  33.452  33.950  1.00  0.00     0.074 A 
ATOM     59  C   UNL A   1      43.973  32.792  39.401  1.00  0.00     0.029 A 
ATOM     60  N   UNL A   1      43.246  32.616  37.305  1.00  0.00    -0.354 N 
ATOM     61  N   UNL A   1      41.508  33.256  35.030  1.00  0.00    -0.248 NA
ATOM     62  C   UNL A   1      39.617  34.316  34.161  1.00  0.00     0.031 C 
ATOM     63  C   UNL A   1      42.807  33.554  39.270  1.00  0.00     0.029 A 
ATOM     64  C   UNL A   1      42.375  33.472  37.956  1.00  0.00     0.049 A 
ATOM     65  H   UNL A   1      43.183  32.357  36.357  1.00  0.00     0.167 HD
ATOM     66  C   UNL A   1      40.898  33.998  36.036  1.00  0.00     0.074 A 
ATOM     67  C   UNL A   1      39.758  34.658  35.434  1.00  0.00     0.031 C 
ATOM     68  C   UNL A   1      41.248  34.123  37.340  1.00  0.00     0.031 A 
BRANCH  55  69
ATOM     69  C   UNL A   1      46.229  30.826  38.926  1.00  0.00    -0.014 A 
ATOM     70  C   UNL A   1      47.407  31.544  39.184  1.00  0.00     0.009 A 
ATOM     71  C   UNL A   1      45.939  29.694  39.703  1.00  0.00     0.009 A 
ATOM     72  C   UNL A   1      48.292  31.116  40.177  1.00  0.00     0.001 A 
ATOM     73  C   UNL A   1      46.809  29.288  40.717  1.00  0.00     0.001 A 
ATOM     74  C   UNL A   1      47.989  29.993  40.946  1.00  0.00     0.000 A 
ENDBRANCH  55  69
BRANCH  56  75
ATOM     75  C   UNL A   1      40.051  33.275  31.462  1.00  0.00    -0.014 A 
ATOM     76  C   UNL A   1      38.929  32.473  31.201  1.00  0.00     0.009 A 
ATOM     77  C   UNL A   1      40.280  34.400  30.651  1.00  0.00     0.009 A 
ATOM     78  C   UNL A   1      38.075  32.775  30.136  1.00  0.00     0.001 A 
ATOM     79  C   UNL A   1      39.406  34.717  29.609  1.00  0.00     0.001 A 
ATOM     80  C   UNL A   1      38.310  33.898  29.345  1.00  0.00     0.000 A 
ENDBRANCH  56  75
BRANCH  68  81
ATOM     81  C   UNL A   1      40.423  35.045  38.195  1.00  0.00    -0.014 A 
ATOM     82  C   UNL A   1      39.407  34.559  39.033  1.00  0.00     0.009 A 
ATOM     83  C   UNL A   1      40.706  36.421  38.200  1.00  0.00     0.009 A 
ATOM     84  C   UNL A   1      38.666  35.438  39.827  1.00  0.00     0.001 A 
ATOM     85  C   UNL A   1      39.987  37.292  39.020  1.00  0.00     0.001 A 
ATOM     86  C   UNL A   1      38.961  36.800  39.825  1.00  0.00     0.000 A 
ENDBRANCH  68  81
ENDBRANCH  42  43
ENDBRANCH  35  37
ENDBRANCH  34  35
ENDBRANCH  33  34
ENDBRANCH  32  33
ENDBRANCH  31  32
ENDBRANCH  30  31
ENDBRANCH  29  30
ENDBRANCH  28  29
ENDBRANCH  27  28
ENDBRANCH  26  27
ENDBRANCH  25  26
ENDBRANCH  24  25
ENDBRANCH   1  24
TORSDOF 33
ENDMDL
