MODEL 1
REMARK VINA RESULT:     -10.1      0.000      0.000
REMARK SMILES O=C(OCCOCCOCCOCCOC(=O)c1cc(N2CCN(c3ccc(F)cc3)CC2)ccc1NC(=O)C1CCCC1)c1ccc(-c2c3nc(c(-c4ccccc4)c4ccc([nH]4)c(-c4ccccc4)c4nc(c(-c5ccccc5)c5ccc2[nH]5)C=C4)C=C3)cc1
REMARK SMILES IDX 9 1 8 2 7 3 6 4 5 5 4 6 3 7 2 8 1 9 45 10 46 11 92 12 47 13
REMARK SMILES IDX 91 14 48 15 49 16 50 17 85 18 51 19 90 20 84 21 86 22 52 23
REMARK SMILES IDX 89 24 83 25 82 26 53 28 75 29 60 30 74 31 61 32 64 33 73 34
REMARK SMILES IDX 87 35 62 36 63 37 72 39 88 40 65 41 54 42 55 43 59 44 56 45
REMARK SMILES IDX 58 46 57 47 76 48 77 49 81 50 78 51 80 52 79 53 66 54 67 55
REMARK SMILES IDX 71 56 68 57 70 58 69 59 10 60 11 61 12 62 13 63 14 64 15 65
REMARK SMILES IDX 16 66 17 67 18 68 19 69 36 70 20 71 35 72 34 73 37 74 38 75
REMARK SMILES IDX 39 77 40 78 41 79 44 80 42 81 43 82 21 83 22 84 33 85 23 86
REMARK SMILES IDX 32 87 24 88 25 89 26 90 31 91 27 92 30 93 28 94 29 95
REMARK H PARENT 86 27 64 38 37 76
REMARK Flexibility Score: inf
ROOT
ATOM      1  O   UNL A   1      34.560  32.370  29.152  1.00  0.00    -0.377 OA
ENDROOT
BRANCH   1   2
ATOM      2  C   UNL A   1      35.511  33.415  28.929  1.00  0.00     0.188 C 
BRANCH   2   3
ATOM      3  C   UNL A   1      34.976  34.610  28.134  1.00  0.00     0.188 C 
BRANCH   3   4
ATOM      4  O   UNL A   1      33.749  35.057  28.711  1.00  0.00    -0.376 OA
BRANCH   4   5
ATOM      5  C   UNL A   1      33.654  36.453  28.978  1.00  0.00     0.202 C 
BRANCH   5   6
ATOM      6  C   UNL A   1      32.535  36.821  29.947  1.00  0.00     0.261 C 
BRANCH   6   7
ATOM      7  O   UNL A   1      32.938  36.708  31.318  1.00  0.00    -0.460 OA
BRANCH   7   8
ATOM      8  C   UNL A   1      32.866  35.606  32.105  1.00  0.00     0.338 C 
ATOM      9  O   UNL A   1      31.760  35.240  32.501  1.00  0.00    -0.246 OA
BRANCH   8  10
ATOM     10  C   UNL A   1      34.047  34.777  32.499  1.00  0.00     0.060 A 
ATOM     11  C   UNL A   1      33.993  33.470  32.985  1.00  0.00     0.016 A 
ATOM     12  C   UNL A   1      35.314  35.327  32.245  1.00  0.00     0.016 A 
ATOM     13  C   UNL A   1      35.141  32.734  33.242  1.00  0.00     0.010 A 
ATOM     14  C   UNL A   1      36.478  34.587  32.473  1.00  0.00     0.010 A 
ATOM     15  C   UNL A   1      36.389  33.286  32.981  1.00  0.00    -0.014 A 
BRANCH  15  16
ATOM     16  C   UNL A   1      37.583  32.510  33.348  1.00  0.00     0.031 A 
ATOM     17  C   UNL A   1      38.194  32.760  34.689  1.00  0.00     0.074 A 
ATOM     18  C   UNL A   1      38.032  31.541  32.530  1.00  0.00     0.049 A 
ATOM     19  N   UNL A   1      39.303  32.293  35.191  1.00  0.00    -0.248 NA
ATOM     20  C   UNL A   1      37.446  33.651  35.597  1.00  0.00     0.031 C 
ATOM     21  C   UNL A   1      37.405  31.139  31.267  1.00  0.00     0.029 A 
ATOM     22  N   UNL A   1      39.111  30.705  32.646  1.00  0.00    -0.354 N 
ATOM     23  C   UNL A   1      39.412  32.870  36.448  1.00  0.00     0.074 A 
ATOM     24  C   UNL A   1      38.251  33.706  36.647  1.00  0.00     0.031 C 
ATOM     25  C   UNL A   1      38.112  30.130  30.728  1.00  0.00     0.029 A 
ATOM     26  C   UNL A   1      39.279  29.877  31.563  1.00  0.00     0.049 A 
ATOM     27  H   UNL A   1      39.707  30.700  33.429  1.00  0.00     0.167 HD
ATOM     28  C   UNL A   1      40.416  32.726  37.342  1.00  0.00     0.031 A 
ATOM     29  C   UNL A   1      40.302  29.054  31.261  1.00  0.00     0.031 A 
ATOM     30  C   UNL A   1      41.556  31.886  37.107  1.00  0.00     0.049 A 
ATOM     31  C   UNL A   1      41.458  28.999  32.224  1.00  0.00     0.074 A 
ATOM     32  C   UNL A   1      42.659  31.679  37.912  1.00  0.00     0.029 A 
ATOM     33  N   UNL A   1      41.731  31.114  35.967  1.00  0.00    -0.354 N 
ATOM     34  N   UNL A   1      41.585  29.581  33.395  1.00  0.00    -0.248 NA
ATOM     35  C   UNL A   1      42.622  28.203  31.816  1.00  0.00     0.031 C 
ATOM     36  C   UNL A   1      43.531  30.826  37.229  1.00  0.00     0.029 A 
ATOM     37  C   UNL A   1      42.946  30.458  36.026  1.00  0.00     0.049 A 
ATOM     38  H   UNL A   1      41.086  31.043  35.227  1.00  0.00     0.167 HD
ATOM     39  C   UNL A   1      42.841  29.221  33.863  1.00  0.00     0.074 A 
ATOM     40  C   UNL A   1      43.419  28.342  32.866  1.00  0.00     0.031 C 
ATOM     41  C   UNL A   1      43.472  29.591  35.005  1.00  0.00     0.031 A 
BRANCH  28  42
ATOM     42  C   UNL A   1      40.361  33.565  38.583  1.00  0.00    -0.014 A 
ATOM     43  C   UNL A   1      39.730  33.120  39.754  1.00  0.00     0.009 A 
ATOM     44  C   UNL A   1      40.953  34.839  38.570  1.00  0.00     0.009 A 
ATOM     45  C   UNL A   1      39.673  33.946  40.880  1.00  0.00     0.001 A 
ATOM     46  C   UNL A   1      40.912  35.653  39.702  1.00  0.00     0.001 A 
ATOM     47  C   UNL A   1      40.266  35.209  40.854  1.00  0.00     0.000 A 
ENDBRANCH  28  42
BRANCH  29  48
ATOM     48  C   UNL A   1      40.340  28.324  29.963  1.00  0.00    -0.014 A 
ATOM     49  C   UNL A   1      40.974  28.871  28.838  1.00  0.00     0.009 A 
ATOM     50  C   UNL A   1      39.692  27.084  29.831  1.00  0.00     0.009 A 
ATOM     51  C   UNL A   1      40.931  28.208  27.606  1.00  0.00     0.001 A 
ATOM     52  C   UNL A   1      39.680  26.407  28.609  1.00  0.00     0.001 A 
ATOM     53  C   UNL A   1      40.289  26.977  27.494  1.00  0.00     0.000 A 
ENDBRANCH  29  48
BRANCH  41  54
ATOM     54  C   UNL A   1      44.845  29.033  35.227  1.00  0.00    -0.014 A 
ATOM     55  C   UNL A   1      45.981  29.718  34.770  1.00  0.00     0.009 A 
ATOM     56  C   UNL A   1      45.003  27.850  35.963  1.00  0.00     0.009 A 
ATOM     57  C   UNL A   1      47.254  29.213  35.029  1.00  0.00     0.001 A 
ATOM     58  C   UNL A   1      46.278  27.364  36.245  1.00  0.00     0.001 A 
ATOM     59  C   UNL A   1      47.401  28.042  35.773  1.00  0.00     0.000 A 
ENDBRANCH  41  54
ENDBRANCH  15  16
ENDBRANCH   8  10
ENDBRANCH   7   8
ENDBRANCH   6   7
ENDBRANCH   5   6
ENDBRANCH   4   5
ENDBRANCH   3   4
ENDBRANCH   2   3
ENDBRANCH   1   2
BRANCH   1  60
ATOM     60  C   UNL A   1      34.943  31.069  28.719  1.00  0.00     0.188 C 
BRANCH  60  61
ATOM     61  C   UNL A   1      34.572  30.629  27.287  1.00  0.00     0.188 C 
BRANCH  61  62
ATOM     62  O   UNL A   1      33.208  30.268  27.119  1.00  0.00    -0.376 OA
BRANCH  62  63
ATOM     63  C   UNL A   1      32.949  28.868  27.065  1.00  0.00     0.202 C 
BRANCH  63  64
ATOM     64  C   UNL A   1      33.519  28.132  25.844  1.00  0.00     0.261 C 
BRANCH  64  65
ATOM     65  O   UNL A   1      33.919  26.772  26.086  1.00  0.00    -0.460 OA
BRANCH  65  66
ATOM     66  C   UNL A   1      33.655  25.817  25.164  1.00  0.00     0.340 C 
ATOM     67  O   UNL A   1      33.184  25.994  24.054  1.00  0.00    -0.246 OA
BRANCH  66  68
ATOM     68  C   UNL A   1      34.280  24.552  25.650  1.00  0.00     0.085 A 
ATOM     69  C   UNL A   1      35.621  24.324  25.285  1.00  0.00     0.043 A 
ATOM     70  C   UNL A   1      33.646  23.691  26.567  1.00  0.00     0.055 A 
ATOM     71  C   UNL A   1      36.387  23.323  25.904  1.00  0.00     0.038 A 
ATOM     72  C   UNL A   1      34.411  22.697  27.178  1.00  0.00     0.029 A 
ATOM     73  C   UNL A   1      35.764  22.523  26.861  1.00  0.00     0.028 A 
BRANCH  70  74
ATOM     74  N   UNL A   1      32.314  23.923  26.948  1.00  0.00    -0.325 N 
ATOM     75  C   UNL A   1      31.119  23.430  26.532  1.00  0.00     0.227 C 
ATOM     76  H   UNL A   1      32.229  24.586  27.671  1.00  0.00     0.169 HD
ATOM     77  O   UNL A   1      30.125  23.727  27.208  1.00  0.00    -0.274 OA
BRANCH  75  78
ATOM     78  C   UNL A   1      30.922  22.598  25.269  1.00  0.00     0.079 C 
ATOM     79  C   UNL A   1      31.043  23.305  23.923  1.00  0.00     0.013 C 
ATOM     80  C   UNL A   1      31.785  21.345  25.232  1.00  0.00     0.013 C 
ATOM     81  C   UNL A   1      31.778  22.357  22.991  1.00  0.00     0.001 C 
ATOM     82  C   UNL A   1      32.364  21.233  23.830  1.00  0.00     0.001 C 
ENDBRANCH  75  78
ENDBRANCH  70  74
BRANCH  71  83
ATOM     83  N   UNL A   1      37.717  23.172  25.563  1.00  0.00    -0.368 N 
ATOM     84  C   UNL A   1      38.806  23.861  26.289  1.00  0.00     0.138 C 
ATOM     85  C   UNL A   1      38.093  21.906  24.910  1.00  0.00     0.138 C 
ATOM     86  C   UNL A   1      39.625  22.923  27.217  1.00  0.00     0.138 C 
ATOM     87  C   UNL A   1      38.821  20.974  25.902  1.00  0.00     0.138 C 
ATOM     88  N   UNL A   1      39.959  21.658  26.538  1.00  0.00    -0.368 N 
BRANCH  88  89
ATOM     89  C   UNL A   1      41.263  21.372  26.185  1.00  0.00     0.037 A 
ATOM     90  C   UNL A   1      41.723  20.046  26.181  1.00  0.00     0.029 A 
ATOM     91  C   UNL A   1      42.163  22.370  25.781  1.00  0.00     0.029 A 
ATOM     92  C   UNL A   1      43.020  19.725  25.765  1.00  0.00     0.041 A 
ATOM     93  C   UNL A   1      43.467  22.061  25.381  1.00  0.00     0.041 A 
ATOM     94  C   UNL A   1      43.880  20.738  25.368  1.00  0.00     0.123 A 
ATOM     95  F   UNL A   1      45.121  20.436  24.964  1.00  0.00    -0.207 F 
ENDBRANCH  88  89
ENDBRANCH  71  83
ENDBRANCH  66  68
ENDBRANCH  65  66
ENDBRANCH  64  65
ENDBRANCH  63  64
ENDBRANCH  62  63
ENDBRANCH  61  62
ENDBRANCH  60  61
ENDBRANCH   1  60
TORSDOF 24
ENDMDL
MODEL 2
REMARK VINA RESULT:      -9.9      0.749      5.463
REMARK SMILES O=C(OCCOCCOCCOCCOC(=O)c1cc(N2CCN(c3ccc(F)cc3)CC2)ccc1NC(=O)C1CCCC1)c1ccc(-c2c3nc(c(-c4ccccc4)c4ccc([nH]4)c(-c4ccccc4)c4nc(c(-c5ccccc5)c5ccc2[nH]5)C=C4)C=C3)cc1
REMARK SMILES IDX 9 1 8 2 7 3 6 4 5 5 4 6 3 7 2 8 1 9 45 10 46 11 92 12 47 13
REMARK SMILES IDX 91 14 48 15 49 16 50 17 85 18 51 19 90 20 84 21 86 22 52 23
REMARK SMILES IDX 89 24 83 25 82 26 53 28 75 29 60 30 74 31 61 32 64 33 73 34
REMARK SMILES IDX 87 35 62 36 63 37 72 39 88 40 65 41 54 42 55 43 59 44 56 45
REMARK SMILES IDX 58 46 57 47 76 48 77 49 81 50 78 51 80 52 79 53 66 54 67 55
REMARK SMILES IDX 71 56 68 57 70 58 69 59 10 60 11 61 12 62 13 63 14 64 15 65
REMARK SMILES IDX 16 66 17 67 18 68 19 69 36 70 20 71 35 72 34 73 37 74 38 75
REMARK SMILES IDX 39 77 40 78 41 79 44 80 42 81 43 82 21 83 22 84 33 85 23 86
REMARK SMILES IDX 32 87 24 88 25 89 26 90 31 91 27 92 30 93 28 94 29 95
REMARK H PARENT 86 27 64 38 37 76
REMARK Flexibility Score: inf
ROOT
ATOM      1  O   UNL A   1      34.686  32.670  29.199  1.00  0.00    -0.377 OA
ENDROOT
BRANCH   1   2
ATOM      2  C   UNL A   1      35.483  33.823  28.912  1.00  0.00     0.188 C 
BRANCH   2   3
ATOM      3  C   UNL A   1      34.748  34.939  28.164  1.00  0.00     0.188 C 
BRANCH   3   4
ATOM      4  O   UNL A   1      33.506  35.212  28.815  1.00  0.00    -0.376 OA
BRANCH   4   5
ATOM      5  C   UNL A   1      33.295  36.561  29.221  1.00  0.00     0.202 C 
BRANCH   5   6
ATOM      6  C   UNL A   1      32.507  36.698  30.520  1.00  0.00     0.261 C 
BRANCH   6   7
ATOM      7  O   UNL A   1      33.305  36.414  31.677  1.00  0.00    -0.460 OA
BRANCH   7   8
ATOM      8  C   UNL A   1      33.361  35.248  32.367  1.00  0.00     0.338 C 
ATOM      9  O   UNL A   1      32.305  34.715  32.705  1.00  0.00    -0.246 OA
BRANCH   8  10
ATOM     10  C   UNL A   1      34.633  34.542  32.717  1.00  0.00     0.060 A 
ATOM     11  C   UNL A   1      34.723  33.267  33.278  1.00  0.00     0.016 A 
ATOM     12  C   UNL A   1      35.828  35.174  32.337  1.00  0.00     0.016 A 
ATOM     13  C   UNL A   1      35.943  32.642  33.490  1.00  0.00     0.010 A 
ATOM     14  C   UNL A   1      37.063  34.544  32.519  1.00  0.00     0.010 A 
ATOM     15  C   UNL A   1      37.119  33.274  33.104  1.00  0.00    -0.014 A 
BRANCH  15  16
ATOM     16  C   UNL A   1      38.397  32.619  33.423  1.00  0.00     0.031 A 
ATOM     17  C   UNL A   1      38.971  31.675  32.416  1.00  0.00     0.074 A 
ATOM     18  C   UNL A   1      39.060  32.953  34.545  1.00  0.00     0.049 A 
ATOM     19  N   UNL A   1      40.012  30.897  32.514  1.00  0.00    -0.248 NA
ATOM     20  C   UNL A   1      38.282  31.606  31.114  1.00  0.00     0.031 C 
ATOM     21  C   UNL A   1      38.636  33.973  35.509  1.00  0.00     0.029 A 
ATOM     22  N   UNL A   1      40.241  32.485  35.056  1.00  0.00    -0.354 N 
ATOM     23  C   UNL A   1      40.074  30.211  31.309  1.00  0.00     0.074 A 
ATOM     24  C   UNL A   1      38.982  30.673  30.486  1.00  0.00     0.031 C 
ATOM     25  C   UNL A   1      39.548  34.052  36.494  1.00  0.00     0.029 A 
ATOM     26  C   UNL A   1      40.569  33.037  36.271  1.00  0.00     0.049 A 
ATOM     27  H   UNL A   1      40.801  31.817  34.596  1.00  0.00     0.167 HD
ATOM     28  C   UNL A   1      40.960  29.257  30.944  1.00  0.00     0.031 A 
ATOM     29  C   UNL A   1      41.553  32.704  37.128  1.00  0.00     0.031 A 
ATOM     30  C   UNL A   1      42.033  28.822  31.792  1.00  0.00     0.049 A 
ATOM     31  C   UNL A   1      42.456  31.563  36.742  1.00  0.00     0.074 A 
ATOM     32  C   UNL A   1      42.977  27.841  31.560  1.00  0.00     0.029 A 
ATOM     33  N   UNL A   1      42.295  29.352  33.049  1.00  0.00    -0.354 N 
ATOM     34  N   UNL A   1      42.489  30.879  35.621  1.00  0.00    -0.248 NA
ATOM     35  C   UNL A   1      43.436  31.126  37.745  1.00  0.00     0.031 C 
ATOM     36  C   UNL A   1      43.775  27.737  32.704  1.00  0.00     0.029 A 
ATOM     37  C   UNL A   1      43.363  28.690  33.624  1.00  0.00     0.049 A 
ATOM     38  H   UNL A   1      41.796  30.089  33.467  1.00  0.00     0.167 HD
ATOM     39  C   UNL A   1      43.491  29.933  35.782  1.00  0.00     0.074 A 
ATOM     40  C   UNL A   1      44.064  30.156  37.095  1.00  0.00     0.031 C 
ATOM     41  C   UNL A   1      43.896  28.955  34.935  1.00  0.00     0.031 A 
BRANCH  28  42
ATOM     42  C   UNL A   1      40.734  28.570  29.631  1.00  0.00    -0.014 A 
ATOM     43  C   UNL A   1      41.371  28.987  28.454  1.00  0.00     0.009 A 
ATOM     44  C   UNL A   1      39.848  27.481  29.577  1.00  0.00     0.009 A 
ATOM     45  C   UNL A   1      41.108  28.340  27.243  1.00  0.00     0.001 A 
ATOM     46  C   UNL A   1      39.603  26.824  28.371  1.00  0.00     0.001 A 
ATOM     47  C   UNL A   1      40.227  27.259  27.204  1.00  0.00     0.000 A 
ENDBRANCH  28  42
BRANCH  29  48
ATOM     48  C   UNL A   1      41.661  33.360  38.461  1.00  0.00    -0.014 A 
ATOM     49  C   UNL A   1      40.947  32.882  39.569  1.00  0.00     0.009 A 
ATOM     50  C   UNL A   1      42.452  34.512  38.619  1.00  0.00     0.009 A 
ATOM     51  C   UNL A   1      40.997  33.558  40.793  1.00  0.00     0.001 A 
ATOM     52  C   UNL A   1      42.529  35.165  39.852  1.00  0.00     0.001 A 
ATOM     53  C   UNL A   1      41.791  34.695  40.934  1.00  0.00     0.000 A 
ENDBRANCH  29  48
BRANCH  41  54
ATOM     54  C   UNL A   1      45.013  28.074  35.406  1.00  0.00    -0.014 A 
ATOM     55  C   UNL A   1      46.337  28.537  35.414  1.00  0.00     0.009 A 
ATOM     56  C   UNL A   1      44.725  26.798  35.910  1.00  0.00     0.009 A 
ATOM     57  C   UNL A   1      47.359  27.724  35.902  1.00  0.00     0.001 A 
ATOM     58  C   UNL A   1      45.744  26.000  36.425  1.00  0.00     0.001 A 
ATOM     59  C   UNL A   1      47.060  26.461  36.415  1.00  0.00     0.000 A 
ENDBRANCH  41  54
ENDBRANCH  15  16
ENDBRANCH   8  10
ENDBRANCH   7   8
ENDBRANCH   6   7
ENDBRANCH   5   6
ENDBRANCH   4   5
ENDBRANCH   3   4
ENDBRANCH   2   3
ENDBRANCH   1   2
BRANCH   1  60
ATOM     60  C   UNL A   1      35.326  31.408  29.041  1.00  0.00     0.188 C 
BRANCH  60  61
ATOM     61  C   UNL A   1      35.366  30.772  27.636  1.00  0.00     0.188 C 
BRANCH  61  62
ATOM     62  O   UNL A   1      34.095  30.381  27.132  1.00  0.00    -0.376 OA
BRANCH  62  63
ATOM     63  C   UNL A   1      33.716  29.036  27.409  1.00  0.00     0.202 C 
BRANCH  63  64
ATOM     64  C   UNL A   1      33.434  28.158  26.181  1.00  0.00     0.261 C 
BRANCH  64  65
ATOM     65  O   UNL A   1      33.864  26.791  26.300  1.00  0.00    -0.460 OA
BRANCH  65  66
ATOM     66  C   UNL A   1      33.543  25.897  25.336  1.00  0.00     0.340 C 
ATOM     67  O   UNL A   1      33.022  26.146  24.262  1.00  0.00    -0.246 OA
BRANCH  66  68
ATOM     68  C   UNL A   1      34.171  24.597  25.716  1.00  0.00     0.085 A 
ATOM     69  C   UNL A   1      35.507  24.396  25.318  1.00  0.00     0.043 A 
ATOM     70  C   UNL A   1      33.546  23.670  26.572  1.00  0.00     0.055 A 
ATOM     71  C   UNL A   1      36.279  23.350  25.848  1.00  0.00     0.038 A 
ATOM     72  C   UNL A   1      34.317  22.630  27.095  1.00  0.00     0.029 A 
ATOM     73  C   UNL A   1      35.665  22.479  26.748  1.00  0.00     0.028 A 
BRANCH  70  74
ATOM     74  N   UNL A   1      32.220  23.873  26.985  1.00  0.00    -0.325 N 
ATOM     75  C   UNL A   1      31.018  23.414  26.548  1.00  0.00     0.227 C 
ATOM     76  H   UNL A   1      32.144  24.480  27.758  1.00  0.00     0.169 HD
ATOM     77  O   UNL A   1      30.034  23.659  27.258  1.00  0.00    -0.274 OA
BRANCH  75  78
ATOM     78  C   UNL A   1      30.805  22.679  25.229  1.00  0.00     0.079 C 
ATOM     79  C   UNL A   1      30.968  23.472  23.937  1.00  0.00     0.013 C 
ATOM     80  C   UNL A   1      31.619  21.399  25.113  1.00  0.00     0.013 C 
ATOM     81  C   UNL A   1      31.677  22.563  22.947  1.00  0.00     0.001 C 
ATOM     82  C   UNL A   1      32.210  21.361  23.712  1.00  0.00     0.001 C 
ENDBRANCH  75  78
ENDBRANCH  70  74
BRANCH  71  83
ATOM     83  N   UNL A   1      37.603  23.224  25.480  1.00  0.00    -0.368 N 
ATOM     84  C   UNL A   1      38.672  24.067  26.061  1.00  0.00     0.138 C 
ATOM     85  C   UNL A   1      38.034  21.900  24.996  1.00  0.00     0.138 C 
ATOM     86  C   UNL A   1      39.573  23.315  27.077  1.00  0.00     0.138 C 
ATOM     87  C   UNL A   1      38.845  21.159  26.080  1.00  0.00     0.138 C 
ATOM     88  N   UNL A   1      39.960  21.986  26.569  1.00  0.00    -0.368 N 
BRANCH  88  89
ATOM     89  C   UNL A   1      41.266  21.724  26.209  1.00  0.00     0.037 A 
ATOM     90  C   UNL A   1      42.156  22.778  25.947  1.00  0.00     0.029 A 
ATOM     91  C   UNL A   1      41.771  20.417  26.127  1.00  0.00     0.029 A 
ATOM     92  C   UNL A   1      43.501  22.540  25.643  1.00  0.00     0.041 A 
ATOM     93  C   UNL A   1      43.109  20.168  25.806  1.00  0.00     0.041 A 
ATOM     94  C   UNL A   1      43.964  21.234  25.576  1.00  0.00     0.123 A 
ATOM     95  F   UNL A   1      45.252  20.999  25.291  1.00  0.00    -0.207 F 
ENDBRANCH  88  89
ENDBRANCH  71  83
ENDBRANCH  66  68
ENDBRANCH  65  66
ENDBRANCH  64  65
ENDBRANCH  63  64
ENDBRANCH  62  63
ENDBRANCH  61  62
ENDBRANCH  60  61
ENDBRANCH   1  60
TORSDOF 24
ENDMDL
MODEL 3
REMARK VINA RESULT:      -9.2      1.411      2.283
REMARK SMILES O=C(OCCOCCOCCOCCOC(=O)c1cc(N2CCN(c3ccc(F)cc3)CC2)ccc1NC(=O)C1CCCC1)c1ccc(-c2c3nc(c(-c4ccccc4)c4ccc([nH]4)c(-c4ccccc4)c4nc(c(-c5ccccc5)c5ccc2[nH]5)C=C4)C=C3)cc1
REMARK SMILES IDX 9 1 8 2 7 3 6 4 5 5 4 6 3 7 2 8 1 9 45 10 46 11 92 12 47 13
REMARK SMILES IDX 91 14 48 15 49 16 50 17 85 18 51 19 90 20 84 21 86 22 52 23
REMARK SMILES IDX 89 24 83 25 82 26 53 28 75 29 60 30 74 31 61 32 64 33 73 34
REMARK SMILES IDX 87 35 62 36 63 37 72 39 88 40 65 41 54 42 55 43 59 44 56 45
REMARK SMILES IDX 58 46 57 47 76 48 77 49 81 50 78 51 80 52 79 53 66 54 67 55
REMARK SMILES IDX 71 56 68 57 70 58 69 59 10 60 11 61 12 62 13 63 14 64 15 65
REMARK SMILES IDX 16 66 17 67 18 68 19 69 36 70 20 71 35 72 34 73 37 74 38 75
REMARK SMILES IDX 39 77 40 78 41 79 44 80 42 81 43 82 21 83 22 84 33 85 23 86
REMARK SMILES IDX 32 87 24 88 25 89 26 90 31 91 27 92 30 93 28 94 29 95
REMARK H PARENT 86 27 64 38 37 76
REMARK Flexibility Score: inf
ROOT
ATOM      1  O   UNL A   1      34.584  32.203  29.021  1.00  0.00    -0.377 OA
ENDROOT
BRANCH   1   2
ATOM      2  C   UNL A   1      35.491  33.295  29.195  1.00  0.00     0.188 C 
BRANCH   2   3
ATOM      3  C   UNL A   1      35.107  34.572  28.442  1.00  0.00     0.188 C 
BRANCH   3   4
ATOM      4  O   UNL A   1      33.760  34.926  28.758  1.00  0.00    -0.376 OA
BRANCH   4   5
ATOM      5  C   UNL A   1      33.459  36.319  28.744  1.00  0.00     0.202 C 
BRANCH   5   6
ATOM      6  C   UNL A   1      32.530  36.760  29.871  1.00  0.00     0.261 C 
BRANCH   6   7
ATOM      7  O   UNL A   1      33.153  36.672  31.159  1.00  0.00    -0.460 OA
BRANCH   7   8
ATOM      8  C   UNL A   1      33.069  35.646  32.042  1.00  0.00     0.338 C 
ATOM      9  O   UNL A   1      31.972  35.383  32.533  1.00  0.00    -0.246 OA
BRANCH   8  10
ATOM     10  C   UNL A   1      34.225  34.780  32.434  1.00  0.00     0.060 A 
ATOM     11  C   UNL A   1      34.137  33.449  32.843  1.00  0.00     0.016 A 
ATOM     12  C   UNL A   1      35.507  35.327  32.260  1.00  0.00     0.016 A 
ATOM     13  C   UNL A   1      35.265  32.685  33.104  1.00  0.00     0.010 A 
ATOM     14  C   UNL A   1      36.653  34.559  32.491  1.00  0.00     0.010 A 
ATOM     15  C   UNL A   1      36.528  33.233  32.921  1.00  0.00    -0.014 A 
BRANCH  15  16
ATOM     16  C   UNL A   1      37.699  32.422  33.291  1.00  0.00     0.031 A 
ATOM     17  C   UNL A   1      38.354  32.698  34.606  1.00  0.00     0.074 A 
ATOM     18  C   UNL A   1      38.085  31.403  32.502  1.00  0.00     0.049 A 
ATOM     19  N   UNL A   1      39.456  32.204  35.098  1.00  0.00    -0.248 NA
ATOM     20  C   UNL A   1      37.668  33.655  35.494  1.00  0.00     0.031 C 
ATOM     21  C   UNL A   1      37.409  30.978  31.273  1.00  0.00     0.029 A 
ATOM     22  N   UNL A   1      39.131  30.527  32.625  1.00  0.00    -0.354 N 
ATOM     23  C   UNL A   1      39.621  32.826  36.328  1.00  0.00     0.074 A 
ATOM     24  C   UNL A   1      38.502  33.718  36.521  1.00  0.00     0.031 C 
ATOM     25  C   UNL A   1      38.059  29.920  30.758  1.00  0.00     0.029 A 
ATOM     26  C   UNL A   1      39.236  29.650  31.573  1.00  0.00     0.049 A 
ATOM     27  H   UNL A   1      39.747  30.527  33.394  1.00  0.00     0.167 HD
ATOM     28  C   UNL A   1      40.641  32.675  37.203  1.00  0.00     0.031 A 
ATOM     29  C   UNL A   1      40.215  28.773  31.280  1.00  0.00     0.031 A 
ATOM     30  C   UNL A   1      41.738  31.778  36.974  1.00  0.00     0.049 A 
ATOM     31  C   UNL A   1      41.393  28.707  32.216  1.00  0.00     0.074 A 
ATOM     32  C   UNL A   1      42.853  31.556  37.760  1.00  0.00     0.029 A 
ATOM     33  N   UNL A   1      41.852  30.954  35.862  1.00  0.00    -0.354 N 
ATOM     34  N   UNL A   1      41.575  29.328  33.359  1.00  0.00    -0.248 NA
ATOM     35  C   UNL A   1      42.512  27.846  31.813  1.00  0.00     0.031 C 
ATOM     36  C   UNL A   1      43.671  30.640  37.091  1.00  0.00     0.029 A 
ATOM     37  C   UNL A   1      43.039  30.250  35.919  1.00  0.00     0.049 A 
ATOM     38  H   UNL A   1      41.185  30.882  35.142  1.00  0.00     0.167 HD
ATOM     39  C   UNL A   1      42.826  28.933  33.811  1.00  0.00     0.074 A 
ATOM     40  C   UNL A   1      43.341  27.992  32.837  1.00  0.00     0.031 C 
ATOM     41  C   UNL A   1      43.502  29.321  34.920  1.00  0.00     0.031 A 
BRANCH  28  42
ATOM     42  C   UNL A   1      40.654  33.563  38.409  1.00  0.00    -0.014 A 
ATOM     43  C   UNL A   1      41.179  34.863  38.370  1.00  0.00     0.009 A 
ATOM     44  C   UNL A   1      40.133  33.076  39.619  1.00  0.00     0.009 A 
ATOM     45  C   UNL A   1      41.201  35.649  39.526  1.00  0.00     0.001 A 
ATOM     46  C   UNL A   1      40.138  33.869  40.766  1.00  0.00     0.001 A 
ATOM     47  C   UNL A   1      40.679  35.152  40.721  1.00  0.00     0.000 A 
ENDBRANCH  28  42
BRANCH  29  48
ATOM     48  C   UNL A   1      40.189  27.991  30.013  1.00  0.00    -0.014 A 
ATOM     49  C   UNL A   1      39.510  26.767  29.926  1.00  0.00     0.009 A 
ATOM     50  C   UNL A   1      40.892  28.449  28.885  1.00  0.00     0.009 A 
ATOM     51  C   UNL A   1      39.563  26.007  28.752  1.00  0.00     0.001 A 
ATOM     52  C   UNL A   1      40.914  27.706  27.702  1.00  0.00     0.001 A 
ATOM     53  C   UNL A   1      40.260  26.479  27.641  1.00  0.00     0.000 A 
ENDBRANCH  29  48
BRANCH  41  54
ATOM     54  C   UNL A   1      44.856  28.715  35.132  1.00  0.00    -0.014 A 
ATOM     55  C   UNL A   1      46.012  29.362  34.670  1.00  0.00     0.009 A 
ATOM     56  C   UNL A   1      44.976  27.523  35.861  1.00  0.00     0.009 A 
ATOM     57  C   UNL A   1      47.268  28.810  34.920  1.00  0.00     0.001 A 
ATOM     58  C   UNL A   1      46.235  26.991  36.133  1.00  0.00     0.001 A 
ATOM     59  C   UNL A   1      47.378  27.631  35.658  1.00  0.00     0.000 A 
ENDBRANCH  41  54
ENDBRANCH  15  16
ENDBRANCH   8  10
ENDBRANCH   7   8
ENDBRANCH   6   7
ENDBRANCH   5   6
ENDBRANCH   4   5
ENDBRANCH   3   4
ENDBRANCH   2   3
ENDBRANCH   1   2
BRANCH   1  60
ATOM     60  C   UNL A   1      35.174  30.924  28.811  1.00  0.00     0.188 C 
BRANCH  60  61
ATOM     61  C   UNL A   1      35.281  30.389  27.368  1.00  0.00     0.188 C 
BRANCH  61  62
ATOM     62  O   UNL A   1      34.049  29.947  26.813  1.00  0.00    -0.376 OA
BRANCH  62  63
ATOM     63  C   UNL A   1      34.051  28.616  26.304  1.00  0.00     0.202 C 
BRANCH  63  64
ATOM     64  C   UNL A   1      33.975  28.488  24.776  1.00  0.00     0.261 C 
BRANCH  64  65
ATOM     65  O   UNL A   1      33.866  27.141  24.284  1.00  0.00    -0.460 OA
BRANCH  65  66
ATOM     66  C   UNL A   1      33.290  26.907  23.082  1.00  0.00     0.340 C 
ATOM     67  O   UNL A   1      33.159  27.710  22.173  1.00  0.00    -0.246 OA
BRANCH  66  68
ATOM     68  C   UNL A   1      33.077  25.433  22.977  1.00  0.00     0.085 A 
ATOM     69  C   UNL A   1      34.215  24.615  23.117  1.00  0.00     0.043 A 
ATOM     70  C   UNL A   1      31.797  24.850  22.910  1.00  0.00     0.055 A 
ATOM     71  C   UNL A   1      34.100  23.230  23.311  1.00  0.00     0.038 A 
ATOM     72  C   UNL A   1      31.688  23.472  23.102  1.00  0.00     0.029 A 
ATOM     73  C   UNL A   1      32.820  22.676  23.312  1.00  0.00     0.028 A 
BRANCH  70  74
ATOM     74  N   UNL A   1      30.657  25.662  22.787  1.00  0.00    -0.325 N 
ATOM     75  C   UNL A   1      29.867  26.314  23.679  1.00  0.00     0.227 C 
ATOM     76  H   UNL A   1      30.369  25.784  21.853  1.00  0.00     0.169 HD
ATOM     77  O   UNL A   1      29.026  27.096  23.215  1.00  0.00    -0.274 OA
BRANCH  75  78
ATOM     78  C   UNL A   1      29.911  26.097  25.188  1.00  0.00     0.079 C 
ATOM     79  C   UNL A   1      29.921  24.662  25.703  1.00  0.00     0.013 C 
ATOM     80  C   UNL A   1      31.035  26.861  25.874  1.00  0.00     0.013 C 
ATOM     81  C   UNL A   1      30.885  24.620  26.876  1.00  0.00     0.001 C 
ATOM     82  C   UNL A   1      31.678  25.919  26.880  1.00  0.00     0.001 C 
ENDBRANCH  75  78
ENDBRANCH  70  74
BRANCH  71  83
ATOM     83  N   UNL A   1      35.236  22.471  23.508  1.00  0.00    -0.368 N 
ATOM     84  C   UNL A   1      36.587  22.955  23.147  1.00  0.00     0.138 C 
ATOM     85  C   UNL A   1      35.189  21.477  24.595  1.00  0.00     0.138 C 
ATOM     86  C   UNL A   1      37.450  23.360  24.374  1.00  0.00     0.138 C 
ATOM     87  C   UNL A   1      35.984  21.971  25.822  1.00  0.00     0.138 C 
ATOM     88  N   UNL A   1      37.355  22.356  25.449  1.00  0.00    -0.368 N 
BRANCH  88  89
ATOM     89  C   UNL A   1      38.440  21.564  25.769  1.00  0.00     0.037 A 
ATOM     90  C   UNL A   1      38.476  20.216  25.377  1.00  0.00     0.029 A 
ATOM     91  C   UNL A   1      39.557  22.069  26.454  1.00  0.00     0.029 A 
ATOM     92  C   UNL A   1      39.592  19.411  25.633  1.00  0.00     0.041 A 
ATOM     93  C   UNL A   1      40.669  21.267  26.730  1.00  0.00     0.041 A 
ATOM     94  C   UNL A   1      40.679  19.947  26.309  1.00  0.00     0.123 A 
ATOM     95  F   UNL A   1      41.752  19.183  26.552  1.00  0.00    -0.207 F 
ENDBRANCH  88  89
ENDBRANCH  71  83
ENDBRANCH  66  68
ENDBRANCH  65  66
ENDBRANCH  64  65
ENDBRANCH  63  64
ENDBRANCH  62  63
ENDBRANCH  61  62
ENDBRANCH  60  61
ENDBRANCH   1  60
TORSDOF 24
ENDMDL
