MODEL 1
REMARK VINA RESULT:      -7.7      0.000      0.000
REMARK SMILES O=C(Cn1ccc(C(=O)NCCC[NH+]2CCOCC2)n1)OCCOCCOCCOCCOC(=O)c1ccc(-c2c3nc(c(-c4ccccc4)c4ccc([nH]4)c(-c4ccccc4)c4nc(c(-c5ccccc5)c5ccc2[nH]5)C=C4)C=C3)cc1
REMARK SMILES IDX 25 1 24 2 23 3 22 4 21 5 2 6 1 7 3 8 4 9 5 10 20 11 6 12
REMARK SMILES IDX 7 13 8 14 9 15 10 16 11 18 12 19 13 20 14 21 15 22 19 23
REMARK SMILES IDX 16 25 18 26 17 27 26 28 27 29 28 30 29 31 30 32 31 33 32 34
REMARK SMILES IDX 33 35 34 36 35 37 36 38 37 39 83 40 38 41 82 42 39 43 40 44
REMARK SMILES IDX 41 45 76 46 42 47 81 48 75 49 77 50 43 51 80 52 74 53 73 54
REMARK SMILES IDX 44 56 66 57 51 58 65 59 52 60 55 61 64 62 78 63 53 64 54 65
REMARK SMILES IDX 63 67 79 68 56 69 45 70 46 71 50 72 47 73 49 74 48 75 67 76
REMARK SMILES IDX 68 77 72 78 69 79 71 80 70 81 57 82 58 83 62 84 59 85 61 86
REMARK SMILES IDX 60 87
REMARK H PARENT 10 17 14 24 77 55 55 66
REMARK Flexibility Score: inf
ROOT
ATOM      1  C   UNL A   1      38.522  28.414  29.694  1.00  0.00     0.188 C 
ENDROOT
BRANCH   1   2
ATOM      2  O   UNL A   1      37.868  29.666  29.580  1.00  0.00    -0.376 OA
BRANCH   2   3
ATOM      3  C   UNL A   1      37.537  30.235  28.324  1.00  0.00     0.202 C 
BRANCH   3   4
ATOM      4  C   UNL A   1      36.081  30.533  27.974  1.00  0.00     0.261 C 
BRANCH   4   5
ATOM      5  O   UNL A   1      35.175  29.435  27.736  1.00  0.00    -0.462 OA
BRANCH   5   6
ATOM      6  C   UNL A   1      33.955  29.437  27.158  1.00  0.00     0.327 C 
ATOM      7  O   UNL A   1      33.650  30.378  26.422  1.00  0.00    -0.250 OA
BRANCH   6   8
ATOM      8  C   UNL A   1      32.930  28.415  27.531  1.00  0.00     0.266 C 
BRANCH   8   9
ATOM      9  N   UNL A   1      32.794  27.333  26.581  1.00  0.00    -0.261 N 
ATOM     10  C   UNL A   1      31.726  26.491  26.506  1.00  0.00     0.110 A 
ATOM     11  N   UNL A   1      33.820  26.966  25.783  1.00  0.00    -0.167 NA
ATOM     12  C   UNL A   1      32.053  25.554  25.561  1.00  0.00     0.056 A 
ATOM     13  C   UNL A   1      33.378  25.864  25.141  1.00  0.00     0.150 A 
BRANCH  13  14
ATOM     14  C   UNL A   1      34.134  25.108  24.124  1.00  0.00     0.271 C 
ATOM     15  O   UNL A   1      34.922  24.219  24.452  1.00  0.00    -0.267 OA
ATOM     16  N   UNL A   1      34.017  25.381  22.778  1.00  0.00    -0.350 N 
ATOM     17  H   UNL A   1      34.537  24.794  22.182  1.00  0.00     0.163 HD
BRANCH  16  18
ATOM     18  C   UNL A   1      33.241  26.407  22.113  1.00  0.00     0.122 C 
BRANCH  18  19
ATOM     19  C   UNL A   1      31.756  26.059  21.950  1.00  0.00     0.083 C 
BRANCH  19  20
ATOM     20  C   UNL A   1      30.739  27.149  22.331  1.00  0.00     0.264 C 
BRANCH  20  21
ATOM     21  N   UNL A   1      31.092  28.567  22.331  1.00  0.00    -0.331 N 
ATOM     22  C   UNL A   1      31.790  29.056  23.531  1.00  0.00     0.291 C 
ATOM     23  C   UNL A   1      30.090  29.539  21.892  1.00  0.00     0.291 C 
ATOM     24  H   UNL A   1      31.764  28.530  21.566  1.00  0.00     0.348 HD
ATOM     25  C   UNL A   1      30.857  29.586  24.628  1.00  0.00     0.221 C 
ATOM     26  C   UNL A   1      29.196  30.076  23.025  1.00  0.00     0.221 C 
ATOM     27  O   UNL A   1      29.964  30.586  24.120  1.00  0.00    -0.370 OA
ENDBRANCH  20  21
ENDBRANCH  19  20
ENDBRANCH  18  19
ENDBRANCH  16  18
ENDBRANCH  13  14
ENDBRANCH   8   9
ENDBRANCH   6   8
ENDBRANCH   5   6
ENDBRANCH   4   5
ENDBRANCH   3   4
ENDBRANCH   2   3
ENDBRANCH   1   2
BRANCH   1  28
ATOM     28  C   UNL A   1      38.931  27.766  28.367  1.00  0.00     0.188 C 
BRANCH  28  29
ATOM     29  O   UNL A   1      39.768  26.621  28.497  1.00  0.00    -0.377 OA
BRANCH  29  30
ATOM     30  C   UNL A   1      39.739  25.727  27.397  1.00  0.00     0.188 C 
BRANCH  30  31
ATOM     31  C   UNL A   1      39.500  24.240  27.738  1.00  0.00     0.188 C 
BRANCH  31  32
ATOM     32  O   UNL A   1      39.661  23.154  26.830  1.00  0.00    -0.376 OA
BRANCH  32  33
ATOM     33  C   UNL A   1      40.136  21.869  27.200  1.00  0.00     0.202 C 
BRANCH  33  34
ATOM     34  C   UNL A   1      41.068  21.065  26.299  1.00  0.00     0.261 C 
BRANCH  34  35
ATOM     35  O   UNL A   1      41.762  21.877  25.378  1.00  0.00    -0.460 OA
BRANCH  35  36
ATOM     36  C   UNL A   1      42.992  22.221  25.803  1.00  0.00     0.338 C 
ATOM     37  O   UNL A   1      43.994  21.534  25.809  1.00  0.00    -0.246 OA
BRANCH  36  38
ATOM     38  C   UNL A   1      42.915  23.567  26.382  1.00  0.00     0.060 A 
ATOM     39  C   UNL A   1      42.751  24.581  25.446  1.00  0.00     0.016 A 
ATOM     40  C   UNL A   1      43.357  23.808  27.694  1.00  0.00     0.016 A 
ATOM     41  C   UNL A   1      43.385  25.765  25.699  1.00  0.00     0.010 A 
ATOM     42  C   UNL A   1      43.982  25.000  27.953  1.00  0.00     0.010 A 
ATOM     43  C   UNL A   1      44.102  25.893  26.897  1.00  0.00    -0.014 A 
BRANCH  43  44
ATOM     44  C   UNL A   1      45.032  26.991  26.952  1.00  0.00     0.031 A 
ATOM     45  C   UNL A   1      46.401  26.615  26.586  1.00  0.00     0.074 A 
ATOM     46  C   UNL A   1      44.669  28.223  27.343  1.00  0.00     0.049 A 
ATOM     47  N   UNL A   1      47.436  26.562  27.353  1.00  0.00    -0.248 NA
ATOM     48  C   UNL A   1      46.598  26.083  25.231  1.00  0.00     0.031 C 
ATOM     49  C   UNL A   1      43.319  28.778  27.481  1.00  0.00     0.029 A 
ATOM     50  N   UNL A   1      45.475  29.284  27.602  1.00  0.00    -0.354 N 
ATOM     51  C   UNL A   1      48.474  26.157  26.529  1.00  0.00     0.074 A 
ATOM     52  C   UNL A   1      47.878  25.724  25.291  1.00  0.00     0.031 C 
ATOM     53  C   UNL A   1      43.409  30.125  27.560  1.00  0.00     0.029 A 
ATOM     54  C   UNL A   1      44.815  30.499  27.613  1.00  0.00     0.049 A 
ATOM     55  H   UNL A   1      46.442  29.198  27.765  1.00  0.00     0.167 HD
ATOM     56  C   UNL A   1      49.763  26.459  26.825  1.00  0.00     0.031 A 
ATOM     57  C   UNL A   1      45.400  31.718  27.568  1.00  0.00     0.031 A 
ATOM     58  C   UNL A   1      49.949  26.757  28.222  1.00  0.00     0.049 A 
ATOM     59  C   UNL A   1      46.817  31.563  27.974  1.00  0.00     0.074 A 
ATOM     60  C   UNL A   1      49.741  26.062  29.397  1.00  0.00     0.029 A 
ATOM     61  N   UNL A   1      50.083  28.076  28.583  1.00  0.00    -0.354 N 
ATOM     62  N   UNL A   1      47.197  31.287  29.189  1.00  0.00    -0.248 NA
ATOM     63  C   UNL A   1      47.814  31.314  26.943  1.00  0.00     0.031 C 
ATOM     64  C   UNL A   1      49.323  27.041  30.345  1.00  0.00     0.029 A 
ATOM     65  C   UNL A   1      49.320  28.281  29.704  1.00  0.00     0.049 A 
ATOM     66  H   UNL A   1      50.628  28.752  28.119  1.00  0.00     0.167 HD
ATOM     67  C   UNL A   1      48.294  30.448  29.040  1.00  0.00     0.074 A 
ATOM     68  C   UNL A   1      48.701  30.605  27.647  1.00  0.00     0.031 C 
ATOM     69  C   UNL A   1      48.590  29.500  29.978  1.00  0.00     0.031 A 
BRANCH  56  70
ATOM     70  C   UNL A   1      50.725  26.908  25.756  1.00  0.00    -0.014 A 
ATOM     71  C   UNL A   1      52.004  26.335  25.714  1.00  0.00     0.009 A 
ATOM     72  C   UNL A   1      50.521  28.063  24.972  1.00  0.00     0.009 A 
ATOM     73  C   UNL A   1      53.040  26.930  24.986  1.00  0.00     0.001 A 
ATOM     74  C   UNL A   1      51.539  28.634  24.207  1.00  0.00     0.001 A 
ATOM     75  C   UNL A   1      52.808  28.083  24.240  1.00  0.00     0.000 A 
ENDBRANCH  56  70
BRANCH  57  76
ATOM     76  C   UNL A   1      44.885  32.941  26.923  1.00  0.00    -0.014 A 
ATOM     77  C   UNL A   1      44.362  32.898  25.622  1.00  0.00     0.009 A 
ATOM     78  C   UNL A   1      44.675  34.112  27.676  1.00  0.00     0.009 A 
ATOM     79  C   UNL A   1      43.630  33.976  25.109  1.00  0.00     0.001 A 
ATOM     80  C   UNL A   1      43.953  35.191  27.162  1.00  0.00     0.001 A 
ATOM     81  C   UNL A   1      43.417  35.116  25.882  1.00  0.00     0.000 A 
ENDBRANCH  57  76
BRANCH  69  82
ATOM     82  C   UNL A   1      47.864  29.570  31.299  1.00  0.00    -0.014 A 
ATOM     83  C   UNL A   1      48.391  30.240  32.419  1.00  0.00     0.009 A 
ATOM     84  C   UNL A   1      46.555  29.072  31.378  1.00  0.00     0.009 A 
ATOM     85  C   UNL A   1      47.645  30.367  33.595  1.00  0.00     0.001 A 
ATOM     86  C   UNL A   1      45.801  29.221  32.545  1.00  0.00     0.001 A 
ATOM     87  C   UNL A   1      46.349  29.862  33.655  1.00  0.00     0.000 A 
ENDBRANCH  69  82
ENDBRANCH  43  44
ENDBRANCH  36  38
ENDBRANCH  35  36
ENDBRANCH  34  35
ENDBRANCH  33  34
ENDBRANCH  32  33
ENDBRANCH  31  32
ENDBRANCH  30  31
ENDBRANCH  29  30
ENDBRANCH  28  29
ENDBRANCH   1  28
TORSDOF 26
ENDMDL
MODEL 2
REMARK VINA RESULT:      -7.6      5.205     12.359
REMARK SMILES O=C(Cn1ccc(C(=O)NCCC[NH+]2CCOCC2)n1)OCCOCCOCCOCCOC(=O)c1ccc(-c2c3nc(c(-c4ccccc4)c4ccc([nH]4)c(-c4ccccc4)c4nc(c(-c5ccccc5)c5ccc2[nH]5)C=C4)C=C3)cc1
REMARK SMILES IDX 25 1 24 2 23 3 22 4 21 5 2 6 1 7 3 8 4 9 5 10 20 11 6 12
REMARK SMILES IDX 7 13 8 14 9 15 10 16 11 18 12 19 13 20 14 21 15 22 19 23
REMARK SMILES IDX 16 25 18 26 17 27 26 28 27 29 28 30 29 31 30 32 31 33 32 34
REMARK SMILES IDX 33 35 34 36 35 37 36 38 37 39 83 40 38 41 82 42 39 43 40 44
REMARK SMILES IDX 41 45 76 46 42 47 81 48 75 49 77 50 43 51 80 52 74 53 73 54
REMARK SMILES IDX 44 56 66 57 51 58 65 59 52 60 55 61 64 62 78 63 53 64 54 65
REMARK SMILES IDX 63 67 79 68 56 69 45 70 46 71 50 72 47 73 49 74 48 75 67 76
REMARK SMILES IDX 68 77 72 78 69 79 71 80 70 81 57 82 58 83 62 84 59 85 61 86
REMARK SMILES IDX 60 87
REMARK H PARENT 10 17 14 24 77 55 55 66
REMARK Flexibility Score: inf
ROOT
ATOM      1  C   UNL A   1      44.225  31.854  27.242  1.00  0.00     0.188 C 
ENDROOT
BRANCH   1   2
ATOM      2  O   UNL A   1      44.931  30.808  27.888  1.00  0.00    -0.376 OA
BRANCH   2   3
ATOM      3  C   UNL A   1      44.484  29.463  27.860  1.00  0.00     0.202 C 
BRANCH   3   4
ATOM      4  C   UNL A   1      43.053  29.137  27.438  1.00  0.00     0.261 C 
BRANCH   4   5
ATOM      5  O   UNL A   1      42.659  27.756  27.293  1.00  0.00    -0.462 OA
BRANCH   5   6
ATOM      6  C   UNL A   1      42.217  26.886  28.225  1.00  0.00     0.327 C 
ATOM      7  O   UNL A   1      41.076  27.025  28.672  1.00  0.00    -0.250 OA
BRANCH   6   8
ATOM      8  C   UNL A   1      43.140  25.879  28.831  1.00  0.00     0.266 C 
BRANCH   8   9
ATOM      9  N   UNL A   1      42.823  24.506  28.504  1.00  0.00    -0.261 N 
ATOM     10  C   UNL A   1      43.086  23.435  29.302  1.00  0.00     0.110 A 
ATOM     11  N   UNL A   1      42.378  24.161  27.276  1.00  0.00    -0.167 NA
ATOM     12  C   UNL A   1      42.736  22.329  28.572  1.00  0.00     0.056 A 
ATOM     13  C   UNL A   1      42.317  22.813  27.300  1.00  0.00     0.150 A 
BRANCH  13  14
ATOM     14  C   UNL A   1      41.848  21.961  26.191  1.00  0.00     0.271 C 
ATOM     15  O   UNL A   1      40.644  21.815  25.969  1.00  0.00    -0.267 OA
ATOM     16  N   UNL A   1      42.726  21.271  25.381  1.00  0.00    -0.350 N 
ATOM     17  H   UNL A   1      42.310  20.761  24.649  1.00  0.00     0.163 HD
BRANCH  16  18
ATOM     18  C   UNL A   1      44.169  21.187  25.453  1.00  0.00     0.122 C 
BRANCH  18  19
ATOM     19  C   UNL A   1      44.890  21.790  24.241  1.00  0.00     0.083 C 
BRANCH  19  20
ATOM     20  C   UNL A   1      45.155  23.305  24.271  1.00  0.00     0.264 C 
BRANCH  20  21
ATOM     21  N   UNL A   1      45.018  24.089  25.497  1.00  0.00    -0.331 N 
ATOM     22  C   UNL A   1      44.768  25.529  25.315  1.00  0.00     0.291 C 
ATOM     23  C   UNL A   1      45.977  23.870  26.580  1.00  0.00     0.291 C 
ATOM     24  H   UNL A   1      44.156  23.657  25.827  1.00  0.00     0.348 HD
ATOM     25  C   UNL A   1      46.040  26.384  25.256  1.00  0.00     0.221 C 
ATOM     26  C   UNL A   1      47.223  24.771  26.508  1.00  0.00     0.221 C 
ATOM     27  O   UNL A   1      46.881  26.156  26.396  1.00  0.00    -0.370 OA
ENDBRANCH  20  21
ENDBRANCH  19  20
ENDBRANCH  18  19
ENDBRANCH  16  18
ENDBRANCH  13  14
ENDBRANCH   8   9
ENDBRANCH   6   8
ENDBRANCH   5   6
ENDBRANCH   4   5
ENDBRANCH   3   4
ENDBRANCH   2   3
ENDBRANCH   1   2
BRANCH   1  28
ATOM     28  C   UNL A   1      44.110  33.156  28.042  1.00  0.00     0.188 C 
BRANCH  28  29
ATOM     29  O   UNL A   1      44.477  34.330  27.323  1.00  0.00    -0.377 OA
BRANCH  29  30
ATOM     30  C   UNL A   1      43.714  34.584  26.156  1.00  0.00     0.188 C 
BRANCH  30  31
ATOM     31  C   UNL A   1      42.670  35.718  26.263  1.00  0.00     0.188 C 
BRANCH  31  32
ATOM     32  O   UNL A   1      42.551  36.623  27.358  1.00  0.00    -0.376 OA
BRANCH  32  33
ATOM     33  C   UNL A   1      43.188  37.888  27.420  1.00  0.00     0.202 C 
BRANCH  33  34
ATOM     34  C   UNL A   1      43.180  38.733  28.690  1.00  0.00     0.261 C 
BRANCH  34  35
ATOM     35  O   UNL A   1      44.248  38.418  29.555  1.00  0.00    -0.460 OA
BRANCH  35  36
ATOM     36  C   UNL A   1      43.987  38.713  30.842  1.00  0.00     0.338 C 
ATOM     37  O   UNL A   1      43.774  39.808  31.324  1.00  0.00    -0.246 OA
BRANCH  36  38
ATOM     38  C   UNL A   1      44.112  37.480  31.627  1.00  0.00     0.060 A 
ATOM     39  C   UNL A   1      44.508  36.371  30.887  1.00  0.00     0.016 A 
ATOM     40  C   UNL A   1      43.513  37.373  32.893  1.00  0.00     0.016 A 
ATOM     41  C   UNL A   1      43.962  35.168  31.238  1.00  0.00     0.010 A 
ATOM     42  C   UNL A   1      42.977  36.164  33.252  1.00  0.00     0.010 A 
ATOM     43  C   UNL A   1      43.098  35.125  32.340  1.00  0.00    -0.014 A 
BRANCH  43  44
ATOM     44  C   UNL A   1      42.282  33.942  32.446  1.00  0.00     0.031 A 
ATOM     45  C   UNL A   1      41.066  33.998  31.627  1.00  0.00     0.074 A 
ATOM     46  C   UNL A   1      42.600  32.917  33.252  1.00  0.00     0.049 A 
ATOM     47  N   UNL A   1      39.845  34.076  32.035  1.00  0.00    -0.248 NA
ATOM     48  C   UNL A   1      41.253  34.141  30.178  1.00  0.00     0.031 C 
ATOM     49  C   UNL A   1      43.881  32.631  33.905  1.00  0.00     0.029 A 
ATOM     50  N   UNL A   1      41.837  31.840  33.568  1.00  0.00    -0.354 N 
ATOM     51  C   UNL A   1      39.081  34.098  30.878  1.00  0.00     0.074 A 
ATOM     52  C   UNL A   1      39.994  34.300  29.781  1.00  0.00     0.031 C 
ATOM     53  C   UNL A   1      43.874  31.348  34.333  1.00  0.00     0.029 A 
ATOM     54  C   UNL A   1      42.552  30.784  34.102  1.00  0.00     0.049 A 
ATOM     55  H   UNL A   1      40.862  31.812  33.429  1.00  0.00     0.167 HD
ATOM     56  C   UNL A   1      37.791  33.680  30.882  1.00  0.00     0.031 A 
ATOM     57  C   UNL A   1      42.103  29.516  34.245  1.00  0.00     0.031 A 
ATOM     58  C   UNL A   1      37.210  33.711  32.200  1.00  0.00     0.049 A 
ATOM     59  C   UNL A   1      40.622  29.543  34.186  1.00  0.00     0.074 A 
ATOM     60  C   UNL A   1      36.994  34.699  33.141  1.00  0.00     0.029 A 
ATOM     61  N   UNL A   1      37.072  32.518  32.867  1.00  0.00    -0.354 N 
ATOM     62  N   UNL A   1      39.869  30.047  35.120  1.00  0.00    -0.248 NA
ATOM     63  C   UNL A   1      39.973  29.371  32.894  1.00  0.00     0.031 C 
ATOM     64  C   UNL A   1      37.175  34.062  34.404  1.00  0.00     0.029 A 
ATOM     65  C   UNL A   1      37.468  32.718  34.164  1.00  0.00     0.049 A 
ATOM     66  H   UNL A   1      36.748  31.672  32.482  1.00  0.00     0.167 HD
ATOM     67  C   UNL A   1      38.810  30.641  34.446  1.00  0.00     0.074 A 
ATOM     68  C   UNL A   1      38.862  30.085  33.098  1.00  0.00     0.031 C 
ATOM     69  C   UNL A   1      38.170  31.734  34.960  1.00  0.00     0.031 A 
BRANCH  56  70
ATOM     70  C   UNL A   1      37.239  32.837  29.762  1.00  0.00    -0.014 A 
ATOM     71  C   UNL A   1      36.411  33.442  28.806  1.00  0.00     0.009 A 
ATOM     72  C   UNL A   1      37.274  31.427  29.771  1.00  0.00     0.009 A 
ATOM     73  C   UNL A   1      35.606  32.674  27.957  1.00  0.00     0.001 A 
ATOM     74  C   UNL A   1      36.509  30.657  28.895  1.00  0.00     0.001 A 
ATOM     75  C   UNL A   1      35.650  31.284  28.007  1.00  0.00     0.000 A 
ENDBRANCH  56  70
BRANCH  57  76
ATOM     76  C   UNL A   1      42.883  28.268  34.137  1.00  0.00    -0.014 A 
ATOM     77  C   UNL A   1      42.897  27.340  35.188  1.00  0.00     0.009 A 
ATOM     78  C   UNL A   1      43.419  27.865  32.899  1.00  0.00     0.009 A 
ATOM     79  C   UNL A   1      43.401  26.047  34.996  1.00  0.00     0.001 A 
ATOM     80  C   UNL A   1      43.930  26.580  32.709  1.00  0.00     0.001 A 
ATOM     81  C   UNL A   1      43.906  25.665  33.755  1.00  0.00     0.000 A 
ENDBRANCH  57  76
BRANCH  69  82
ATOM     82  C   UNL A   1      38.459  32.106  36.393  1.00  0.00    -0.014 A 
ATOM     83  C   UNL A   1      39.596  32.844  36.772  1.00  0.00     0.009 A 
ATOM     84  C   UNL A   1      37.493  31.828  37.371  1.00  0.00     0.009 A 
ATOM     85  C   UNL A   1      39.778  33.254  38.096  1.00  0.00     0.001 A 
ATOM     86  C   UNL A   1      37.663  32.257  38.691  1.00  0.00     0.001 A 
ATOM     87  C   UNL A   1      38.809  32.964  39.054  1.00  0.00     0.000 A 
ENDBRANCH  69  82
ENDBRANCH  43  44
ENDBRANCH  36  38
ENDBRANCH  35  36
ENDBRANCH  34  35
ENDBRANCH  33  34
ENDBRANCH  32  33
ENDBRANCH  31  32
ENDBRANCH  30  31
ENDBRANCH  29  30
ENDBRANCH  28  29
ENDBRANCH   1  28
TORSDOF 26
ENDMDL
MODEL 3
REMARK VINA RESULT:      -7.6      3.309      8.458
REMARK SMILES O=C(Cn1ccc(C(=O)NCCC[NH+]2CCOCC2)n1)OCCOCCOCCOCCOC(=O)c1ccc(-c2c3nc(c(-c4ccccc4)c4ccc([nH]4)c(-c4ccccc4)c4nc(c(-c5ccccc5)c5ccc2[nH]5)C=C4)C=C3)cc1
REMARK SMILES IDX 25 1 24 2 23 3 22 4 21 5 2 6 1 7 3 8 4 9 5 10 20 11 6 12
REMARK SMILES IDX 7 13 8 14 9 15 10 16 11 18 12 19 13 20 14 21 15 22 19 23
REMARK SMILES IDX 16 25 18 26 17 27 26 28 27 29 28 30 29 31 30 32 31 33 32 34
REMARK SMILES IDX 33 35 34 36 35 37 36 38 37 39 83 40 38 41 82 42 39 43 40 44
REMARK SMILES IDX 41 45 76 46 42 47 81 48 75 49 77 50 43 51 80 52 74 53 73 54
REMARK SMILES IDX 44 56 66 57 51 58 65 59 52 60 55 61 64 62 78 63 53 64 54 65
REMARK SMILES IDX 63 67 79 68 56 69 45 70 46 71 50 72 47 73 49 74 48 75 67 76
REMARK SMILES IDX 68 77 72 78 69 79 71 80 70 81 57 82 58 83 62 84 59 85 61 86
REMARK SMILES IDX 60 87
REMARK H PARENT 10 17 14 24 77 55 55 66
REMARK Flexibility Score: inf
ROOT
ATOM      1  C   UNL A   1      32.506  28.717  26.287  1.00  0.00     0.188 C 
ENDROOT
BRANCH   1   2
ATOM      2  O   UNL A   1      33.847  28.452  26.661  1.00  0.00    -0.376 OA
BRANCH   2   3
ATOM      3  C   UNL A   1      34.431  27.166  26.527  1.00  0.00     0.202 C 
BRANCH   3   4
ATOM      4  C   UNL A   1      34.016  26.250  25.379  1.00  0.00     0.261 C 
BRANCH   4   5
ATOM      5  O   UNL A   1      34.913  25.201  24.956  1.00  0.00    -0.462 OA
BRANCH   5   6
ATOM      6  C   UNL A   1      35.284  24.075  25.601  1.00  0.00     0.327 C 
ATOM      7  O   UNL A   1      36.154  24.150  26.472  1.00  0.00    -0.250 OA
BRANCH   6   8
ATOM      8  C   UNL A   1      34.781  22.739  25.159  1.00  0.00     0.266 C 
BRANCH   8   9
ATOM      9  N   UNL A   1      33.402  22.476  25.505  1.00  0.00    -0.261 N 
ATOM     10  C   UNL A   1      32.695  21.380  25.111  1.00  0.00     0.110 A 
ATOM     11  N   UNL A   1      32.644  23.406  26.126  1.00  0.00    -0.167 NA
ATOM     12  C   UNL A   1      31.413  21.583  25.554  1.00  0.00     0.056 A 
ATOM     13  C   UNL A   1      31.407  22.868  26.166  1.00  0.00     0.150 A 
BRANCH  13  14
ATOM     14  C   UNL A   1      30.224  23.496  26.787  1.00  0.00     0.271 C 
ATOM     15  O   UNL A   1      29.541  22.883  27.611  1.00  0.00    -0.267 OA
ATOM     16  N   UNL A   1      29.815  24.770  26.452  1.00  0.00    -0.350 N 
ATOM     17  H   UNL A   1      29.036  25.106  26.951  1.00  0.00     0.163 HD
BRANCH  16  18
ATOM     18  C   UNL A   1      30.365  25.683  25.473  1.00  0.00     0.122 C 
BRANCH  18  19
ATOM     19  C   UNL A   1      29.914  25.402  24.034  1.00  0.00     0.083 C 
BRANCH  19  20
ATOM     20  C   UNL A   1      30.757  26.022  22.906  1.00  0.00     0.264 C 
BRANCH  20  21
ATOM     21  N   UNL A   1      32.167  25.682  22.720  1.00  0.00    -0.331 N 
ATOM     22  C   UNL A   1      32.847  26.352  21.600  1.00  0.00     0.291 C 
ATOM     23  C   UNL A   1      32.565  24.276  22.792  1.00  0.00     0.291 C 
ATOM     24  H   UNL A   1      32.510  26.089  23.590  1.00  0.00     0.348 HD
ATOM     25  C   UNL A   1      32.787  25.580  20.276  1.00  0.00     0.221 C 
ATOM     26  C   UNL A   1      32.527  23.543  21.438  1.00  0.00     0.221 C 
ATOM     27  O   UNL A   1      33.266  24.237  20.429  1.00  0.00    -0.370 OA
ENDBRANCH  20  21
ENDBRANCH  19  20
ENDBRANCH  18  19
ENDBRANCH  16  18
ENDBRANCH  13  14
ENDBRANCH   8   9
ENDBRANCH   6   8
ENDBRANCH   5   6
ENDBRANCH   4   5
ENDBRANCH   3   4
ENDBRANCH   2   3
ENDBRANCH   1   2
BRANCH   1  28
ATOM     28  C   UNL A   1      32.320  29.857  25.281  1.00  0.00     0.188 C 
BRANCH  28  29
ATOM     29  O   UNL A   1      31.339  30.821  25.648  1.00  0.00    -0.377 OA
BRANCH  29  30
ATOM     30  C   UNL A   1      31.550  31.447  26.902  1.00  0.00     0.188 C 
BRANCH  30  31
ATOM     31  C   UNL A   1      32.363  32.760  26.876  1.00  0.00     0.188 C 
BRANCH  31  32
ATOM     32  O   UNL A   1      32.537  33.639  27.984  1.00  0.00    -0.376 OA
BRANCH  32  33
ATOM     33  C   UNL A   1      33.792  34.132  28.422  1.00  0.00     0.202 C 
BRANCH  33  34
ATOM     34  C   UNL A   1      34.766  33.265  29.214  1.00  0.00     0.261 C 
BRANCH  34  35
ATOM     35  O   UNL A   1      35.923  32.941  28.476  1.00  0.00    -0.460 OA
BRANCH  35  36
ATOM     36  C   UNL A   1      36.069  31.618  28.280  1.00  0.00     0.338 C 
ATOM     37  O   UNL A   1      35.598  30.944  27.385  1.00  0.00    -0.246 OA
BRANCH  36  38
ATOM     38  C   UNL A   1      36.820  31.068  29.414  1.00  0.00     0.060 A 
ATOM     39  C   UNL A   1      38.061  31.660  29.616  1.00  0.00     0.016 A 
ATOM     40  C   UNL A   1      36.473  29.823  29.966  1.00  0.00     0.016 A 
ATOM     41  C   UNL A   1      39.072  30.845  30.042  1.00  0.00     0.010 A 
ATOM     42  C   UNL A   1      37.485  29.010  30.406  1.00  0.00     0.010 A 
ATOM     43  C   UNL A   1      38.779  29.499  30.298  1.00  0.00    -0.014 A 
BRANCH  43  44
ATOM     44  C   UNL A   1      39.917  28.620  30.388  1.00  0.00     0.031 A 
ATOM     45  C   UNL A   1      40.555  28.625  31.709  1.00  0.00     0.074 A 
ATOM     46  C   UNL A   1      40.359  27.906  29.341  1.00  0.00     0.049 A 
ATOM     47  N   UNL A   1      41.718  29.086  32.019  1.00  0.00    -0.248 NA
ATOM     48  C   UNL A   1      39.723  28.205  32.844  1.00  0.00     0.031 C 
ATOM     49  C   UNL A   1      39.676  27.618  28.076  1.00  0.00     0.029 A 
ATOM     50  N   UNL A   1      41.507  27.187  29.251  1.00  0.00    -0.354 N 
ATOM     51  C   UNL A   1      41.847  28.849  33.379  1.00  0.00     0.074 A 
ATOM     52  C   UNL A   1      40.544  28.462  33.859  1.00  0.00     0.031 C 
ATOM     53  C   UNL A   1      40.316  26.600  27.458  1.00  0.00     0.029 A 
ATOM     54  C   UNL A   1      41.512  26.267  28.218  1.00  0.00     0.049 A 
ATOM     55  H   UNL A   1      42.267  27.307  29.865  1.00  0.00     0.167 HD
ATOM     56  C   UNL A   1      43.068  28.728  33.958  1.00  0.00     0.031 A 
ATOM     57  C   UNL A   1      42.391  25.249  28.069  1.00  0.00     0.031 A 
ATOM     58  C   UNL A   1      44.108  29.339  33.173  1.00  0.00     0.049 A 
ATOM     59  C   UNL A   1      43.587  25.550  28.890  1.00  0.00     0.074 A 
ATOM     60  C   UNL A   1      44.349  30.617  32.709  1.00  0.00     0.029 A 
ATOM     61  N   UNL A   1      44.928  28.512  32.443  1.00  0.00    -0.354 N 
ATOM     62  N   UNL A   1      44.440  26.492  28.610  1.00  0.00    -0.248 NA
ATOM     63  C   UNL A   1      43.629  25.065  30.263  1.00  0.00     0.031 C 
ATOM     64  C   UNL A   1      44.966  30.446  31.435  1.00  0.00     0.029 A 
ATOM     65  C   UNL A   1      45.089  29.075  31.203  1.00  0.00     0.049 A 
ATOM     66  H   UNL A   1      45.327  27.668  32.754  1.00  0.00     0.167 HD
ATOM     67  C   UNL A   1      44.822  27.009  29.842  1.00  0.00     0.074 A 
ATOM     68  C   UNL A   1      44.391  26.013  30.818  1.00  0.00     0.031 C 
ATOM     69  C   UNL A   1      45.194  28.317  29.974  1.00  0.00     0.031 A 
BRANCH  56  70
ATOM     70  C   UNL A   1      43.337  27.671  34.998  1.00  0.00    -0.014 A 
ATOM     71  C   UNL A   1      44.335  27.905  35.955  1.00  0.00     0.009 A 
ATOM     72  C   UNL A   1      42.847  26.352  34.900  1.00  0.00     0.009 A 
ATOM     73  C   UNL A   1      44.863  26.858  36.719  1.00  0.00     0.001 A 
ATOM     74  C   UNL A   1      43.338  25.314  35.693  1.00  0.00     0.001 A 
ATOM     75  C   UNL A   1      44.370  25.563  36.582  1.00  0.00     0.000 A 
ENDBRANCH  56  70
BRANCH  57  76
ATOM     76  C   UNL A   1      42.133  23.915  27.494  1.00  0.00    -0.014 A 
ATOM     77  C   UNL A   1      41.113  23.100  28.007  1.00  0.00     0.009 A 
ATOM     78  C   UNL A   1      42.726  23.536  26.275  1.00  0.00     0.009 A 
ATOM     79  C   UNL A   1      40.683  21.965  27.307  1.00  0.00     0.001 A 
ATOM     80  C   UNL A   1      42.304  22.400  25.581  1.00  0.00     0.001 A 
ATOM     81  C   UNL A   1      41.270  21.623  26.091  1.00  0.00     0.000 A 
ENDBRANCH  57  76
BRANCH  69  82
ATOM     82  C   UNL A   1      45.442  29.106  28.713  1.00  0.00    -0.014 A 
ATOM     83  C   UNL A   1      44.405  29.715  27.981  1.00  0.00     0.009 A 
ATOM     84  C   UNL A   1      46.766  29.363  28.326  1.00  0.00     0.009 A 
ATOM     85  C   UNL A   1      44.685  30.520  26.873  1.00  0.00     0.001 A 
ATOM     86  C   UNL A   1      47.047  30.187  27.232  1.00  0.00     0.001 A 
ATOM     87  C   UNL A   1      46.006  30.759  26.502  1.00  0.00     0.000 A 
ENDBRANCH  69  82
ENDBRANCH  43  44
ENDBRANCH  36  38
ENDBRANCH  35  36
ENDBRANCH  34  35
ENDBRANCH  33  34
ENDBRANCH  32  33
ENDBRANCH  31  32
ENDBRANCH  30  31
ENDBRANCH  29  30
ENDBRANCH  28  29
ENDBRANCH   1  28
TORSDOF 26
ENDMDL
