MODEL 1
REMARK VINA RESULT:     -10.4      0.000      0.000
REMARK SMILES O=C(Cc1ccccc1-c1ccn(C(F)F)c(=O)c1)OCCOCCOCCOCCOC(=O)c1ccc(-c2c3nc(c(-c4ccccc4)c4ccc([nH]4)c(-c4ccccc4)c4nc(c(-c5ccccc5)c5ccc2[nH]5)C=C4)C=C3)cc1
REMARK SMILES IDX 25 1 24 2 23 3 22 4 21 5 20 6 2 7 1 8 3 9 4 10 5 11 9 12
REMARK SMILES IDX 6 13 8 14 7 15 10 16 11 17 19 18 12 19 17 20 13 21 18 22
REMARK SMILES IDX 14 23 15 24 16 25 26 26 27 27 28 28 29 29 30 30 31 31 32 32
REMARK SMILES IDX 33 33 34 34 35 35 36 36 82 37 37 38 81 39 38 40 39 41 40 42
REMARK SMILES IDX 75 43 41 44 80 45 74 46 76 47 42 48 79 49 73 50 72 51 43 53
REMARK SMILES IDX 65 54 50 55 64 56 51 57 54 58 63 59 77 60 52 61 53 62 62 64
REMARK SMILES IDX 78 65 55 66 44 67 45 68 49 69 46 70 48 71 47 72 66 73 67 74
REMARK SMILES IDX 71 75 68 76 70 77 69 78 56 79 57 80 61 81 58 82 60 83 59 84
REMARK H PARENT 76 52 54 63
REMARK Flexibility Score: inf
ROOT
ATOM      1  C   UNL A   1      33.414  33.821  28.063  1.00  0.00     0.188 C 
ENDROOT
BRANCH   1   2
ATOM      2  C   UNL A   1      34.540  32.974  28.629  1.00  0.00     0.188 C 
BRANCH   2   3
ATOM      3  O   UNL A   1      34.427  31.555  28.581  1.00  0.00    -0.376 OA
BRANCH   3   4
ATOM      4  C   UNL A   1      34.435  30.868  27.333  1.00  0.00     0.202 C 
BRANCH   4   5
ATOM      5  C   UNL A   1      34.231  29.351  27.269  1.00  0.00     0.261 C 
BRANCH   5   6
ATOM      6  O   UNL A   1      32.900  28.819  27.094  1.00  0.00    -0.463 OA
BRANCH   6   7
ATOM      7  C   UNL A   1      32.442  28.157  26.002  1.00  0.00     0.310 C 
ATOM      8  O   UNL A   1      33.217  27.897  25.081  1.00  0.00    -0.252 OA
BRANCH   7   9
ATOM      9  C   UNL A   1      30.994  27.725  25.973  1.00  0.00     0.158 C 
BRANCH   9  10
ATOM     10  C   UNL A   1      30.857  26.296  25.503  1.00  0.00    -0.029 A 
ATOM     11  C   UNL A   1      31.323  25.271  26.337  1.00  0.00     0.005 A 
ATOM     12  C   UNL A   1      30.404  26.004  24.189  1.00  0.00    -0.014 A 
ATOM     13  C   UNL A   1      31.494  23.991  25.832  1.00  0.00     0.000 A 
ATOM     14  C   UNL A   1      30.586  24.713  23.696  1.00  0.00     0.009 A 
ATOM     15  C   UNL A   1      31.153  23.722  24.507  1.00  0.00     0.001 A 
BRANCH  12  16
ATOM     16  C   UNL A   1      29.773  27.073  23.369  1.00  0.00    -0.011 A 
ATOM     17  C   UNL A   1      30.517  28.103  22.661  1.00  0.00     0.027 A 
ATOM     18  C   UNL A   1      28.449  27.240  23.548  1.00  0.00     0.080 A 
ATOM     19  C   UNL A   1      29.957  29.303  22.447  1.00  0.00     0.095 A 
ATOM     20  C   UNL A   1      27.786  28.526  23.188  1.00  0.00     0.255 A 
ATOM     21  N   UNL A   1      28.633  29.539  22.775  1.00  0.00    -0.258 N 
ATOM     22  O   UNL A   1      26.576  28.625  23.362  1.00  0.00    -0.269 OA
BRANCH  21  23
ATOM     23  C   UNL A   1      28.080  30.866  22.679  1.00  0.00     0.451 C 
ATOM     24  F   UNL A   1      27.706  31.321  23.899  1.00  0.00    -0.185 F 
ATOM     25  F   UNL A   1      28.977  31.748  22.166  1.00  0.00    -0.185 F 
ENDBRANCH  21  23
ENDBRANCH  12  16
ENDBRANCH   9  10
ENDBRANCH   7   9
ENDBRANCH   6   7
ENDBRANCH   5   6
ENDBRANCH   4   5
ENDBRANCH   3   4
ENDBRANCH   2   3
ENDBRANCH   1   2
BRANCH   1  26
ATOM     26  O   UNL A   1      32.773  34.698  28.980  1.00  0.00    -0.377 OA
BRANCH  26  27
ATOM     27  C   UNL A   1      33.598  35.230  30.009  1.00  0.00     0.188 C 
BRANCH  27  28
ATOM     28  C   UNL A   1      32.901  35.975  31.173  1.00  0.00     0.188 C 
BRANCH  28  29
ATOM     29  O   UNL A   1      32.848  35.244  32.385  1.00  0.00    -0.376 OA
BRANCH  29  30
ATOM     30  C   UNL A   1      34.055  34.720  32.922  1.00  0.00     0.202 C 
BRANCH  30  31
ATOM     31  C   UNL A   1      34.194  33.227  33.303  1.00  0.00     0.261 C 
BRANCH  31  32
ATOM     32  O   UNL A   1      35.236  32.470  32.674  1.00  0.00    -0.460 OA
BRANCH  32  33
ATOM     33  C   UNL A   1      36.393  32.303  33.341  1.00  0.00     0.338 C 
ATOM     34  O   UNL A   1      36.575  32.447  34.541  1.00  0.00    -0.246 OA
BRANCH  33  35
ATOM     35  C   UNL A   1      37.355  31.656  32.416  1.00  0.00     0.060 A 
ATOM     36  C   UNL A   1      38.365  30.849  32.964  1.00  0.00     0.016 A 
ATOM     37  C   UNL A   1      37.231  31.781  31.030  1.00  0.00     0.016 A 
ATOM     38  C   UNL A   1      39.268  30.190  32.132  1.00  0.00     0.010 A 
ATOM     39  C   UNL A   1      38.168  31.161  30.196  1.00  0.00     0.010 A 
ATOM     40  C   UNL A   1      39.211  30.396  30.749  1.00  0.00    -0.014 A 
BRANCH  40  41
ATOM     41  C   UNL A   1      40.400  30.059  29.931  1.00  0.00     0.031 A 
ATOM     42  C   UNL A   1      40.401  28.721  29.239  1.00  0.00     0.074 A 
ATOM     43  C   UNL A   1      41.422  30.914  29.759  1.00  0.00     0.049 A 
ATOM     44  N   UNL A   1      41.320  28.172  28.490  1.00  0.00    -0.248 NA
ATOM     45  C   UNL A   1      39.196  27.893  29.420  1.00  0.00     0.031 C 
ATOM     46  C   UNL A   1      41.508  32.260  30.320  1.00  0.00     0.029 A 
ATOM     47  N   UNL A   1      42.591  30.764  29.055  1.00  0.00    -0.354 N 
ATOM     48  C   UNL A   1      40.809  26.933  28.122  1.00  0.00     0.074 A 
ATOM     49  C   UNL A   1      39.513  26.799  28.749  1.00  0.00     0.031 C 
ATOM     50  C   UNL A   1      42.680  32.809  29.949  1.00  0.00     0.029 A 
ATOM     51  C   UNL A   1      43.435  31.842  29.156  1.00  0.00     0.049 A 
ATOM     52  H   UNL A   1      42.803  29.960  28.529  1.00  0.00     0.167 HD
ATOM     53  C   UNL A   1      41.368  25.988  27.332  1.00  0.00     0.031 A 
ATOM     54  C   UNL A   1      44.686  32.010  28.682  1.00  0.00     0.031 A 
ATOM     55  C   UNL A   1      42.665  26.113  26.729  1.00  0.00     0.049 A 
ATOM     56  C   UNL A   1      45.326  30.906  27.880  1.00  0.00     0.074 A 
ATOM     57  C   UNL A   1      43.321  25.216  25.905  1.00  0.00     0.029 A 
ATOM     58  N   UNL A   1      43.508  27.200  26.894  1.00  0.00    -0.354 N 
ATOM     59  N   UNL A   1      44.829  29.747  27.520  1.00  0.00    -0.248 NA
ATOM     60  C   UNL A   1      46.701  31.138  27.410  1.00  0.00     0.031 C 
ATOM     61  C   UNL A   1      44.591  25.730  25.628  1.00  0.00     0.029 A 
ATOM     62  C   UNL A   1      44.695  26.982  26.215  1.00  0.00     0.049 A 
ATOM     63  H   UNL A   1      43.297  28.007  27.417  1.00  0.00     0.167 HD
ATOM     64  C   UNL A   1      45.814  29.127  26.758  1.00  0.00     0.074 A 
ATOM     65  C   UNL A   1      46.931  30.047  26.694  1.00  0.00     0.031 C 
ATOM     66  C   UNL A   1      45.796  27.909  26.163  1.00  0.00     0.031 A 
BRANCH  53  67
ATOM     67  C   UNL A   1      40.595  24.716  27.124  1.00  0.00    -0.014 A 
ATOM     68  C   UNL A   1      39.404  24.692  26.380  1.00  0.00     0.009 A 
ATOM     69  C   UNL A   1      41.080  23.517  27.667  1.00  0.00     0.009 A 
ATOM     70  C   UNL A   1      38.701  23.497  26.211  1.00  0.00     0.001 A 
ATOM     71  C   UNL A   1      40.393  22.319  27.469  1.00  0.00     0.001 A 
ATOM     72  C   UNL A   1      39.199  22.311  26.750  1.00  0.00     0.000 A 
ENDBRANCH  53  67
BRANCH  54  73
ATOM     73  C   UNL A   1      45.437  33.262  28.978  1.00  0.00    -0.014 A 
ATOM     74  C   UNL A   1      45.369  34.366  28.114  1.00  0.00     0.009 A 
ATOM     75  C   UNL A   1      46.253  33.345  30.117  1.00  0.00     0.009 A 
ATOM     76  C   UNL A   1      46.122  35.514  28.370  1.00  0.00     0.001 A 
ATOM     77  C   UNL A   1      46.980  34.507  30.388  1.00  0.00     0.001 A 
ATOM     78  C   UNL A   1      46.922  35.587  29.510  1.00  0.00     0.000 A 
ENDBRANCH  54  73
BRANCH  66  79
ATOM     79  C   UNL A   1      46.999  27.517  25.349  1.00  0.00    -0.014 A 
ATOM     80  C   UNL A   1      48.071  26.809  25.915  1.00  0.00     0.009 A 
ATOM     81  C   UNL A   1      47.034  27.818  23.978  1.00  0.00     0.009 A 
ATOM     82  C   UNL A   1      49.170  26.447  25.131  1.00  0.00     0.001 A 
ATOM     83  C   UNL A   1      48.116  27.424  23.190  1.00  0.00     0.001 A 
ATOM     84  C   UNL A   1      49.189  26.749  23.769  1.00  0.00     0.000 A 
ENDBRANCH  66  79
ENDBRANCH  40  41
ENDBRANCH  33  35
ENDBRANCH  32  33
ENDBRANCH  31  32
ENDBRANCH  30  31
ENDBRANCH  29  30
ENDBRANCH  28  29
ENDBRANCH  27  28
ENDBRANCH  26  27
ENDBRANCH   1  26
TORSDOF 23
ENDMDL
MODEL 2
REMARK VINA RESULT:     -10.1      2.623      6.671
REMARK SMILES O=C(Cc1ccccc1-c1ccn(C(F)F)c(=O)c1)OCCOCCOCCOCCOC(=O)c1ccc(-c2c3nc(c(-c4ccccc4)c4ccc([nH]4)c(-c4ccccc4)c4nc(c(-c5ccccc5)c5ccc2[nH]5)C=C4)C=C3)cc1
REMARK SMILES IDX 25 1 24 2 23 3 22 4 21 5 20 6 2 7 1 8 3 9 4 10 5 11 9 12
REMARK SMILES IDX 6 13 8 14 7 15 10 16 11 17 19 18 12 19 17 20 13 21 18 22
REMARK SMILES IDX 14 23 15 24 16 25 26 26 27 27 28 28 29 29 30 30 31 31 32 32
REMARK SMILES IDX 33 33 34 34 35 35 36 36 82 37 37 38 81 39 38 40 39 41 40 42
REMARK SMILES IDX 75 43 41 44 80 45 74 46 76 47 42 48 79 49 73 50 72 51 43 53
REMARK SMILES IDX 65 54 50 55 64 56 51 57 54 58 63 59 77 60 52 61 53 62 62 64
REMARK SMILES IDX 78 65 55 66 44 67 45 68 49 69 46 70 48 71 47 72 66 73 67 74
REMARK SMILES IDX 71 75 68 76 70 77 69 78 56 79 57 80 61 81 58 82 60 83 59 84
REMARK H PARENT 76 52 54 63
REMARK Flexibility Score: inf
ROOT
ATOM      1  C   UNL A   1      32.788  34.270  28.270  1.00  0.00     0.188 C 
ENDROOT
BRANCH   1   2
ATOM      2  C   UNL A   1      34.251  33.900  28.101  1.00  0.00     0.188 C 
BRANCH   2   3
ATOM      3  O   UNL A   1      34.704  32.640  28.585  1.00  0.00    -0.376 OA
BRANCH   3   4
ATOM      4  C   UNL A   1      34.594  31.471  27.778  1.00  0.00     0.202 C 
BRANCH   4   5
ATOM      5  C   UNL A   1      33.228  30.975  27.292  1.00  0.00     0.261 C 
BRANCH   5   6
ATOM      6  O   UNL A   1      33.158  30.062  26.176  1.00  0.00    -0.463 OA
BRANCH   6   7
ATOM      7  C   UNL A   1      33.581  28.772  26.171  1.00  0.00     0.310 C 
ATOM      8  O   UNL A   1      33.791  28.200  27.242  1.00  0.00    -0.252 OA
BRANCH   7   9
ATOM      9  C   UNL A   1      33.740  28.068  24.845  1.00  0.00     0.158 C 
BRANCH   9  10
ATOM     10  C   UNL A   1      32.452  27.406  24.415  1.00  0.00    -0.029 A 
ATOM     11  C   UNL A   1      31.422  28.213  23.913  1.00  0.00     0.005 A 
ATOM     12  C   UNL A   1      32.232  26.023  24.651  1.00  0.00    -0.014 A 
ATOM     13  C   UNL A   1      30.138  27.702  23.793  1.00  0.00     0.000 A 
ATOM     14  C   UNL A   1      30.935  25.527  24.529  1.00  0.00     0.009 A 
ATOM     15  C   UNL A   1      29.892  26.371  24.127  1.00  0.00     0.001 A 
BRANCH  12  16
ATOM     16  C   UNL A   1      33.371  25.149  25.039  1.00  0.00    -0.011 A 
ATOM     17  C   UNL A   1      34.420  24.723  24.125  1.00  0.00     0.027 A 
ATOM     18  C   UNL A   1      33.239  24.508  26.215  1.00  0.00     0.080 A 
ATOM     19  C   UNL A   1      35.044  23.552  24.326  1.00  0.00     0.095 A 
ATOM     20  C   UNL A   1      34.028  23.277  26.507  1.00  0.00     0.255 A 
ATOM     21  N   UNL A   1      34.798  22.800  25.461  1.00  0.00    -0.258 N 
ATOM     22  O   UNL A   1      33.878  22.734  27.596  1.00  0.00    -0.269 OA
BRANCH  21  23
ATOM     23  C   UNL A   1      35.359  21.479  25.600  1.00  0.00     0.451 C 
ATOM     24  F   UNL A   1      34.701  20.592  24.815  1.00  0.00    -0.185 F 
ATOM     25  F   UNL A   1      36.670  21.451  25.247  1.00  0.00    -0.185 F 
ENDBRANCH  21  23
ENDBRANCH  12  16
ENDBRANCH   9  10
ENDBRANCH   7   9
ENDBRANCH   6   7
ENDBRANCH   5   6
ENDBRANCH   4   5
ENDBRANCH   3   4
ENDBRANCH   2   3
ENDBRANCH   1   2
BRANCH   1  26
ATOM     26  O   UNL A   1      32.528  35.520  28.895  1.00  0.00    -0.377 OA
BRANCH  26  27
ATOM     27  C   UNL A   1      33.400  35.872  29.962  1.00  0.00     0.188 C 
BRANCH  27  28
ATOM     28  C   UNL A   1      32.761  36.448  31.249  1.00  0.00     0.188 C 
BRANCH  28  29
ATOM     29  O   UNL A   1      33.470  36.146  32.437  1.00  0.00    -0.376 OA
BRANCH  29  30
ATOM     30  C   UNL A   1      34.430  35.099  32.415  1.00  0.00     0.202 C 
BRANCH  30  31
ATOM     31  C   UNL A   1      34.069  33.656  32.837  1.00  0.00     0.261 C 
BRANCH  31  32
ATOM     32  O   UNL A   1      34.962  32.602  32.452  1.00  0.00    -0.460 OA
BRANCH  32  33
ATOM     33  C   UNL A   1      36.076  32.414  33.183  1.00  0.00     0.338 C 
ATOM     34  O   UNL A   1      36.224  32.658  34.370  1.00  0.00    -0.246 OA
BRANCH  33  35
ATOM     35  C   UNL A   1      37.019  31.613  32.365  1.00  0.00     0.060 A 
ATOM     36  C   UNL A   1      38.091  30.979  33.015  1.00  0.00     0.016 A 
ATOM     37  C   UNL A   1      36.820  31.426  30.994  1.00  0.00     0.016 A 
ATOM     38  C   UNL A   1      38.979  30.183  32.294  1.00  0.00     0.010 A 
ATOM     39  C   UNL A   1      37.741  30.670  30.262  1.00  0.00     0.010 A 
ATOM     40  C   UNL A   1      38.845  30.079  30.905  1.00  0.00    -0.014 A 
BRANCH  40  41
ATOM     41  C   UNL A   1      40.004  29.611  30.111  1.00  0.00     0.031 A 
ATOM     42  C   UNL A   1      41.118  30.596  29.875  1.00  0.00     0.074 A 
ATOM     43  C   UNL A   1      40.103  28.351  29.655  1.00  0.00     0.049 A 
ATOM     44  N   UNL A   1      42.227  30.453  29.197  1.00  0.00    -0.248 NA
ATOM     45  C   UNL A   1      40.955  31.925  30.491  1.00  0.00     0.031 C 
ATOM     46  C   UNL A   1      39.125  27.287  29.874  1.00  0.00     0.029 A 
ATOM     47  N   UNL A   1      41.087  27.757  28.903  1.00  0.00    -0.354 N 
ATOM     48  C   UNL A   1      42.884  31.674  29.296  1.00  0.00     0.074 A 
ATOM     49  C   UNL A   1      42.041  32.553  30.075  1.00  0.00     0.031 C 
ATOM     50  C   UNL A   1      39.553  26.171  29.255  1.00  0.00     0.029 A 
ATOM     51  C   UNL A   1      40.814  26.453  28.571  1.00  0.00     0.049 A 
ATOM     52  H   UNL A   1      41.909  28.223  28.629  1.00  0.00     0.167 HD
ATOM     53  C   UNL A   1      44.083  32.033  28.784  1.00  0.00     0.031 A 
ATOM     54  C   UNL A   1      41.495  25.599  27.782  1.00  0.00     0.031 A 
ATOM     55  C   UNL A   1      44.908  31.166  27.991  1.00  0.00     0.049 A 
ATOM     56  C   UNL A   1      42.785  26.052  27.145  1.00  0.00     0.074 A 
ATOM     57  C   UNL A   1      46.144  31.431  27.430  1.00  0.00     0.029 A 
ATOM     58  N   UNL A   1      44.573  29.869  27.637  1.00  0.00    -0.354 N 
ATOM     59  N   UNL A   1      43.408  27.200  27.261  1.00  0.00    -0.248 NA
ATOM     60  C   UNL A   1      43.471  25.083  26.276  1.00  0.00     0.031 C 
ATOM     61  C   UNL A   1      46.526  30.315  26.677  1.00  0.00     0.029 A 
ATOM     62  C   UNL A   1      45.565  29.330  26.836  1.00  0.00     0.049 A 
ATOM     63  H   UNL A   1      43.752  29.400  27.914  1.00  0.00     0.167 HD
ATOM     64  C   UNL A   1      44.571  27.082  26.506  1.00  0.00     0.074 A 
ATOM     65  C   UNL A   1      44.574  25.743  25.952  1.00  0.00     0.031 C 
ATOM     66  C   UNL A   1      45.550  27.996  26.293  1.00  0.00     0.031 A 
BRANCH  53  67
ATOM     67  C   UNL A   1      44.542  33.444  29.025  1.00  0.00    -0.014 A 
ATOM     68  C   UNL A   1      45.223  33.806  30.198  1.00  0.00     0.009 A 
ATOM     69  C   UNL A   1      44.305  34.423  28.048  1.00  0.00     0.009 A 
ATOM     70  C   UNL A   1      45.630  35.127  30.401  1.00  0.00     0.001 A 
ATOM     71  C   UNL A   1      44.741  35.735  28.239  1.00  0.00     0.001 A 
ATOM     72  C   UNL A   1      45.394  36.088  29.419  1.00  0.00     0.000 A 
ENDBRANCH  53  67
BRANCH  54  73
ATOM     73  C   UNL A   1      40.959  24.235  27.517  1.00  0.00    -0.014 A 
ATOM     74  C   UNL A   1      41.545  23.103  28.103  1.00  0.00     0.009 A 
ATOM     75  C   UNL A   1      39.873  24.058  26.646  1.00  0.00     0.009 A 
ATOM     76  C   UNL A   1      41.072  21.823  27.803  1.00  0.00     0.001 A 
ATOM     77  C   UNL A   1      39.380  22.780  26.372  1.00  0.00     0.001 A 
ATOM     78  C   UNL A   1      39.986  21.663  26.943  1.00  0.00     0.000 A 
ENDBRANCH  54  73
BRANCH  66  79
ATOM     79  C   UNL A   1      46.730  27.567  25.464  1.00  0.00    -0.014 A 
ATOM     80  C   UNL A   1      46.812  27.860  24.094  1.00  0.00     0.009 A 
ATOM     81  C   UNL A   1      47.802  26.902  26.081  1.00  0.00     0.009 A 
ATOM     82  C   UNL A   1      47.927  27.460  23.353  1.00  0.00     0.001 A 
ATOM     83  C   UNL A   1      48.931  26.536  25.345  1.00  0.00     0.001 A 
ATOM     84  C   UNL A   1      48.987  26.805  23.979  1.00  0.00     0.000 A 
ENDBRANCH  66  79
ENDBRANCH  40  41
ENDBRANCH  33  35
ENDBRANCH  32  33
ENDBRANCH  31  32
ENDBRANCH  30  31
ENDBRANCH  29  30
ENDBRANCH  28  29
ENDBRANCH  27  28
ENDBRANCH  26  27
ENDBRANCH   1  26
TORSDOF 23
ENDMDL
MODEL 3
REMARK VINA RESULT:      -9.5      3.039      8.260
REMARK SMILES O=C(Cc1ccccc1-c1ccn(C(F)F)c(=O)c1)OCCOCCOCCOCCOC(=O)c1ccc(-c2c3nc(c(-c4ccccc4)c4ccc([nH]4)c(-c4ccccc4)c4nc(c(-c5ccccc5)c5ccc2[nH]5)C=C4)C=C3)cc1
REMARK SMILES IDX 25 1 24 2 23 3 22 4 21 5 20 6 2 7 1 8 3 9 4 10 5 11 9 12
REMARK SMILES IDX 6 13 8 14 7 15 10 16 11 17 19 18 12 19 17 20 13 21 18 22
REMARK SMILES IDX 14 23 15 24 16 25 26 26 27 27 28 28 29 29 30 30 31 31 32 32
REMARK SMILES IDX 33 33 34 34 35 35 36 36 82 37 37 38 81 39 38 40 39 41 40 42
REMARK SMILES IDX 75 43 41 44 80 45 74 46 76 47 42 48 79 49 73 50 72 51 43 53
REMARK SMILES IDX 65 54 50 55 64 56 51 57 54 58 63 59 77 60 52 61 53 62 62 64
REMARK SMILES IDX 78 65 55 66 44 67 45 68 49 69 46 70 48 71 47 72 66 73 67 74
REMARK SMILES IDX 71 75 68 76 70 77 69 78 56 79 57 80 61 81 58 82 60 83 59 84
REMARK H PARENT 76 52 54 63
REMARK Flexibility Score: inf
ROOT
ATOM      1  C   UNL A   1      32.641  23.561  26.756  1.00  0.00     0.188 C 
ENDROOT
BRANCH   1   2
ATOM      2  C   UNL A   1      33.396  24.731  26.150  1.00  0.00     0.188 C 
BRANCH   2   3
ATOM      3  O   UNL A   1      32.807  26.026  26.191  1.00  0.00    -0.376 OA
BRANCH   3   4
ATOM      4  C   UNL A   1      33.619  27.196  26.137  1.00  0.00     0.202 C 
BRANCH   4   5
ATOM      5  C   UNL A   1      33.238  28.455  26.922  1.00  0.00     0.261 C 
BRANCH   5   6
ATOM      6  O   UNL A   1      31.957  29.079  26.687  1.00  0.00    -0.463 OA
BRANCH   6   7
ATOM      7  C   UNL A   1      31.678  29.989  25.719  1.00  0.00     0.310 C 
ATOM      8  O   UNL A   1      31.364  31.136  26.039  1.00  0.00    -0.252 OA
BRANCH   7   9
ATOM      9  C   UNL A   1      31.802  29.568  24.274  1.00  0.00     0.158 C 
BRANCH   9  10
ATOM     10  C   UNL A   1      30.447  29.308  23.658  1.00  0.00    -0.029 A 
ATOM     11  C   UNL A   1      29.569  30.388  23.497  1.00  0.00     0.005 A 
ATOM     12  C   UNL A   1      30.016  27.983  23.386  1.00  0.00    -0.014 A 
ATOM     13  C   UNL A   1      28.230  30.157  23.225  1.00  0.00     0.000 A 
ATOM     14  C   UNL A   1      28.665  27.768  23.117  1.00  0.00     0.009 A 
ATOM     15  C   UNL A   1      27.775  28.849  23.063  1.00  0.00     0.001 A 
BRANCH  12  16
ATOM     16  C   UNL A   1      30.996  26.865  23.415  1.00  0.00    -0.011 A 
ATOM     17  C   UNL A   1      32.314  26.921  22.802  1.00  0.00     0.027 A 
ATOM     18  C   UNL A   1      30.503  25.666  23.778  1.00  0.00     0.080 A 
ATOM     19  C   UNL A   1      32.891  25.794  22.356  1.00  0.00     0.095 A 
ATOM     20  C   UNL A   1      31.205  24.406  23.405  1.00  0.00     0.255 A 
ATOM     21  N   UNL A   1      32.310  24.559  22.585  1.00  0.00    -0.258 N 
ATOM     22  O   UNL A   1      30.720  23.339  23.766  1.00  0.00    -0.269 OA
BRANCH  21  23
ATOM     23  C   UNL A   1      32.856  23.370  21.980  1.00  0.00     0.451 C 
ATOM     24  F   UNL A   1      33.184  23.596  20.686  1.00  0.00    -0.185 F 
ATOM     25  F   UNL A   1      33.975  22.948  22.623  1.00  0.00    -0.185 F 
ENDBRANCH  21  23
ENDBRANCH  12  16
ENDBRANCH   9  10
ENDBRANCH   7   9
ENDBRANCH   6   7
ENDBRANCH   5   6
ENDBRANCH   4   5
ENDBRANCH   3   4
ENDBRANCH   2   3
ENDBRANCH   1   2
BRANCH   1  26
ATOM     26  O   UNL A   1      33.428  22.436  27.127  1.00  0.00    -0.377 OA
BRANCH  26  27
ATOM     27  C   UNL A   1      33.991  21.693  26.053  1.00  0.00     0.188 C 
BRANCH  27  28
ATOM     28  C   UNL A   1      35.535  21.618  25.965  1.00  0.00     0.188 C 
BRANCH  28  29
ATOM     29  O   UNL A   1      36.023  20.557  25.165  1.00  0.00    -0.376 OA
BRANCH  29  30
ATOM     30  C   UNL A   1      37.339  20.648  24.636  1.00  0.00     0.202 C 
BRANCH  30  31
ATOM     31  C   UNL A   1      38.466  19.692  25.093  1.00  0.00     0.261 C 
BRANCH  31  32
ATOM     32  O   UNL A   1      39.100  19.958  26.351  1.00  0.00    -0.460 OA
BRANCH  32  33
ATOM     33  C   UNL A   1      40.443  20.043  26.382  1.00  0.00     0.338 C 
ATOM     34  O   UNL A   1      41.239  19.236  25.926  1.00  0.00    -0.246 OA
BRANCH  33  35
ATOM     35  C   UNL A   1      40.795  21.412  26.829  1.00  0.00     0.060 A 
ATOM     36  C   UNL A   1      40.207  22.502  26.166  1.00  0.00     0.016 A 
ATOM     37  C   UNL A   1      41.634  21.628  27.926  1.00  0.00     0.016 A 
ATOM     38  C   UNL A   1      40.478  23.805  26.576  1.00  0.00     0.010 A 
ATOM     39  C   UNL A   1      41.947  22.938  28.306  1.00  0.00     0.010 A 
ATOM     40  C   UNL A   1      41.399  24.029  27.606  1.00  0.00    -0.014 A 
BRANCH  40  41
ATOM     41  C   UNL A   1      41.999  25.377  27.743  1.00  0.00     0.031 A 
ATOM     42  C   UNL A   1      41.214  26.403  28.517  1.00  0.00     0.074 A 
ATOM     43  C   UNL A   1      43.211  25.679  27.249  1.00  0.00     0.049 A 
ATOM     44  N   UNL A   1      41.496  27.655  28.761  1.00  0.00    -0.248 NA
ATOM     45  C   UNL A   1      39.936  25.948  29.093  1.00  0.00     0.031 C 
ATOM     46  C   UNL A   1      44.095  24.756  26.540  1.00  0.00     0.029 A 
ATOM     47  N   UNL A   1      43.906  26.863  27.272  1.00  0.00    -0.354 N 
ATOM     48  C   UNL A   1      40.427  28.138  29.507  1.00  0.00     0.074 A 
ATOM     49  C   UNL A   1      39.481  27.055  29.654  1.00  0.00     0.031 C 
ATOM     50  C   UNL A   1      45.212  25.416  26.182  1.00  0.00     0.029 A 
ATOM     51  C   UNL A   1      45.104  26.811  26.606  1.00  0.00     0.049 A 
ATOM     52  H   UNL A   1      43.574  27.672  27.724  1.00  0.00     0.167 HD
ATOM     53  C   UNL A   1      40.247  29.374  30.027  1.00  0.00     0.031 A 
ATOM     54  C   UNL A   1      45.996  27.788  26.348  1.00  0.00     0.031 A 
ATOM     55  C   UNL A   1      41.177  30.455  29.861  1.00  0.00     0.049 A 
ATOM     56  C   UNL A   1      45.731  29.182  26.857  1.00  0.00     0.074 A 
ATOM     57  C   UNL A   1      41.092  31.746  30.352  1.00  0.00     0.029 A 
ATOM     58  N   UNL A   1      42.357  30.375  29.139  1.00  0.00    -0.354 N 
ATOM     59  N   UNL A   1      44.729  29.624  27.579  1.00  0.00    -0.248 NA
ATOM     60  C   UNL A   1      46.728  30.211  26.524  1.00  0.00     0.031 C 
ATOM     61  C   UNL A   1      42.189  32.467  29.868  1.00  0.00     0.029 A 
ATOM     62  C   UNL A   1      42.995  31.604  29.142  1.00  0.00     0.049 A 
ATOM     63  H   UNL A   1      42.692  29.565  28.689  1.00  0.00     0.167 HD
ATOM     64  C   UNL A   1      44.989  30.971  27.811  1.00  0.00     0.074 A 
ATOM     65  C   UNL A   1      46.253  31.268  27.168  1.00  0.00     0.031 C 
ATOM     66  C   UNL A   1      44.252  31.880  28.496  1.00  0.00     0.031 A 
BRANCH  53  67
ATOM     67  C   UNL A   1      38.969  29.630  30.774  1.00  0.00    -0.014 A 
ATOM     68  C   UNL A   1      38.878  29.440  32.163  1.00  0.00     0.009 A 
ATOM     69  C   UNL A   1      37.841  30.090  30.077  1.00  0.00     0.009 A 
ATOM     70  C   UNL A   1      37.675  29.676  32.831  1.00  0.00     0.001 A 
ATOM     71  C   UNL A   1      36.649  30.357  30.753  1.00  0.00     0.001 A 
ATOM     72  C   UNL A   1      36.564  30.140  32.127  1.00  0.00     0.000 A 
ENDBRANCH  53  67
BRANCH  54  73
ATOM     73  C   UNL A   1      47.213  27.498  25.540  1.00  0.00    -0.014 A 
ATOM     74  C   UNL A   1      47.205  27.648  24.144  1.00  0.00     0.009 A 
ATOM     75  C   UNL A   1      48.383  27.035  26.162  1.00  0.00     0.009 A 
ATOM     76  C   UNL A   1      48.334  27.317  23.389  1.00  0.00     0.001 A 
ATOM     77  C   UNL A   1      49.520  26.737  25.409  1.00  0.00     0.001 A 
ATOM     78  C   UNL A   1      49.492  26.868  24.022  1.00  0.00     0.000 A 
ENDBRANCH  54  73
BRANCH  66  79
ATOM     79  C   UNL A   1      44.813  33.270  28.629  1.00  0.00    -0.014 A 
ATOM     80  C   UNL A   1      44.491  34.284  27.714  1.00  0.00     0.009 A 
ATOM     81  C   UNL A   1      45.639  33.579  29.722  1.00  0.00     0.009 A 
ATOM     82  C   UNL A   1      45.018  35.569  27.870  1.00  0.00     0.001 A 
ATOM     83  C   UNL A   1      46.134  34.873  29.896  1.00  0.00     0.001 A 
ATOM     84  C   UNL A   1      45.833  35.863  28.963  1.00  0.00     0.000 A 
ENDBRANCH  66  79
ENDBRANCH  40  41
ENDBRANCH  33  35
ENDBRANCH  32  33
ENDBRANCH  31  32
ENDBRANCH  30  31
ENDBRANCH  29  30
ENDBRANCH  28  29
ENDBRANCH  27  28
ENDBRANCH  26  27
ENDBRANCH   1  26
TORSDOF 23
ENDMDL
