MODEL 1
REMARK VINA RESULT:      -9.1      0.000      0.000
REMARK SMILES C[C@@H](CC[NH+](C)C)NC(=O)Cn1cccc1C(=O)OCCOCCOCCOCCOC(=O)c1ccc(-c2c3nc(c(-c4ccccc4)c4ccc([nH]4)c(-c4ccccc4)c4nc(c(-c5ccccc5)c5ccc2[nH]5)C=C4)C=C3)cc1
REMARK SMILES IDX 23 1 22 2 21 3 20 4 19 5 17 6 18 7 16 8 12 9 13 10 14 11
REMARK SMILES IDX 15 12 11 13 9 14 8 15 10 17 2 18 1 19 3 20 4 21 5 22 6 23
REMARK SMILES IDX 7 24 24 26 25 27 26 28 27 29 28 30 29 31 30 32 31 33 32 34
REMARK SMILES IDX 33 35 34 36 35 37 81 38 36 39 80 40 37 41 38 42 39 43 74 44
REMARK SMILES IDX 40 45 79 46 73 47 75 48 41 49 78 50 72 51 71 52 42 54 64 55
REMARK SMILES IDX 49 56 63 57 50 58 53 59 62 60 76 61 51 62 52 63 61 65 77 66
REMARK SMILES IDX 54 67 43 68 44 69 48 70 45 71 47 72 46 73 65 74 66 75 70 76
REMARK SMILES IDX 67 77 69 78 68 79 55 80 56 81 60 82 57 83 59 84 58 85
REMARK H PARENT 8 16 5 25 75 53 53 64
REMARK Flexibility Score: inf
ROOT
ATOM      1  C   UNL A   1      33.988  28.523  24.048  1.00  0.00     0.188 C 
ENDROOT
BRANCH   1   2
ATOM      2  O   UNL A   1      33.086  27.631  23.400  1.00  0.00    -0.376 OA
BRANCH   2   3
ATOM      3  C   UNL A   1      33.643  26.760  22.429  1.00  0.00     0.202 C 
BRANCH   3   4
ATOM      4  C   UNL A   1      33.028  25.356  22.374  1.00  0.00     0.261 C 
BRANCH   4   5
ATOM      5  O   UNL A   1      33.842  24.323  22.946  1.00  0.00    -0.459 OA
BRANCH   5   6
ATOM      6  C   UNL A   1      33.274  23.108  23.175  1.00  0.00     0.355 C 
ATOM      7  O   UNL A   1      32.637  22.475  22.356  1.00  0.00    -0.244 OA
BRANCH   6   8
ATOM      8  C   UNL A   1      33.748  22.619  24.462  1.00  0.00     0.128 A 
ATOM      9  N   UNL A   1      33.447  23.129  25.718  1.00  0.00    -0.333 N 
ATOM     10  C   UNL A   1      34.352  22.645  26.634  1.00  0.00     0.087 A 
ATOM     11  C   UNL A   1      35.102  21.669  26.020  1.00  0.00     0.020 A 
ATOM     12  C   UNL A   1      34.700  21.627  24.664  1.00  0.00     0.035 A 
BRANCH   9  13
ATOM     13  C   UNL A   1      32.414  24.118  26.006  1.00  0.00     0.222 C 
BRANCH  13  14
ATOM     14  C   UNL A   1      30.996  23.601  25.942  1.00  0.00     0.240 C 
ATOM     15  N   UNL A   1      29.952  24.476  25.875  1.00  0.00    -0.352 N 
ATOM     16  H   UNL A   1      29.062  24.062  25.958  1.00  0.00     0.163 HD
ATOM     17  O   UNL A   1      30.749  22.396  26.033  1.00  0.00    -0.273 OA
BRANCH  15  18
ATOM     18  C   UNL A   1      29.938  25.925  25.700  1.00  0.00     0.084 C 
ATOM     19  C   UNL A   1      31.071  26.632  26.451  1.00  0.00     0.031 C 
BRANCH  18  20
ATOM     20  C   UNL A   1      29.941  26.279  24.207  1.00  0.00     0.086 C 
BRANCH  20  21
ATOM     21  C   UNL A   1      28.710  27.016  23.640  1.00  0.00     0.263 C 
BRANCH  21  22
ATOM     22  N   UNL A   1      29.019  28.279  22.940  1.00  0.00    -0.340 N 
ATOM     23  C   UNL A   1      27.786  29.070  22.791  1.00  0.00     0.332 C 
ATOM     24  C   UNL A   1      29.988  29.116  23.662  1.00  0.00     0.332 C 
ATOM     25  H   UNL A   1      29.421  28.016  22.039  1.00  0.00     0.347 HD
ENDBRANCH  21  22
ENDBRANCH  20  21
ENDBRANCH  18  20
ENDBRANCH  15  18
ENDBRANCH  13  14
ENDBRANCH   9  13
ENDBRANCH   6   8
ENDBRANCH   5   6
ENDBRANCH   4   5
ENDBRANCH   3   4
ENDBRANCH   2   3
ENDBRANCH   1   2
BRANCH   1  26
ATOM     26  C   UNL A   1      33.443  29.041  25.390  1.00  0.00     0.188 C 
BRANCH  26  27
ATOM     27  O   UNL A   1      34.342  29.032  26.484  1.00  0.00    -0.377 OA
BRANCH  27  28
ATOM     28  C   UNL A   1      34.082  29.896  27.587  1.00  0.00     0.188 C 
BRANCH  28  29
ATOM     29  C   UNL A   1      34.372  31.426  27.573  1.00  0.00     0.188 C 
BRANCH  29  30
ATOM     30  O   UNL A   1      34.483  32.076  28.835  1.00  0.00    -0.376 OA
BRANCH  30  31
ATOM     31  C   UNL A   1      35.132  33.332  28.929  1.00  0.00     0.202 C 
BRANCH  31  32
ATOM     32  C   UNL A   1      36.205  33.407  30.020  1.00  0.00     0.261 C 
BRANCH  32  33
ATOM     33  O   UNL A   1      36.657  32.123  30.430  1.00  0.00    -0.460 OA
BRANCH  33  34
ATOM     34  C   UNL A   1      37.777  31.760  29.782  1.00  0.00     0.338 C 
ATOM     35  O   UNL A   1      38.720  32.458  29.450  1.00  0.00    -0.246 OA
BRANCH  34  36
ATOM     36  C   UNL A   1      37.690  30.358  29.402  1.00  0.00     0.060 A 
ATOM     37  C   UNL A   1      38.246  29.497  30.355  1.00  0.00     0.016 A 
ATOM     38  C   UNL A   1      37.817  30.181  28.025  1.00  0.00     0.016 A 
ATOM     39  C   UNL A   1      39.228  28.644  29.926  1.00  0.00     0.010 A 
ATOM     40  C   UNL A   1      38.841  29.378  27.604  1.00  0.00     0.010 A 
ATOM     41  C   UNL A   1      39.571  28.669  28.570  1.00  0.00    -0.014 A 
BRANCH  41  42
ATOM     42  C   UNL A   1      40.651  27.803  28.128  1.00  0.00     0.031 A 
ATOM     43  C   UNL A   1      41.925  28.613  27.940  1.00  0.00     0.074 A 
ATOM     44  C   UNL A   1      40.320  26.490  27.956  1.00  0.00     0.049 A 
ATOM     45  N   UNL A   1      43.025  28.277  27.354  1.00  0.00    -0.248 NA
ATOM     46  C   UNL A   1      41.990  30.015  28.454  1.00  0.00     0.031 C 
ATOM     47  C   UNL A   1      38.975  25.907  28.193  1.00  0.00     0.029 A 
ATOM     48  N   UNL A   1      41.026  25.386  27.542  1.00  0.00    -0.354 N 
ATOM     49  C   UNL A   1      43.945  29.316  27.573  1.00  0.00     0.074 A 
ATOM     50  C   UNL A   1      43.241  30.389  28.200  1.00  0.00     0.031 C 
ATOM     51  C   UNL A   1      38.949  24.601  27.847  1.00  0.00     0.029 A 
ATOM     52  C   UNL A   1      40.265  24.202  27.388  1.00  0.00     0.049 A 
ATOM     53  H   UNL A   1      41.994  25.415  27.364  1.00  0.00     0.167 HD
ATOM     54  C   UNL A   1      45.271  29.187  27.313  1.00  0.00     0.031 A 
ATOM     55  C   UNL A   1      40.665  22.995  26.890  1.00  0.00     0.031 A 
ATOM     56  C   UNL A   1      45.536  27.969  26.628  1.00  0.00     0.049 A 
ATOM     57  C   UNL A   1      42.119  23.098  26.699  1.00  0.00     0.074 A 
ATOM     58  C   UNL A   1      45.259  27.568  25.347  1.00  0.00     0.029 A 
ATOM     59  N   UNL A   1      45.799  26.864  27.399  1.00  0.00    -0.354 N 
ATOM     60  N   UNL A   1      42.993  23.109  27.658  1.00  0.00    -0.248 NA
ATOM     61  C   UNL A   1      42.648  23.266  25.342  1.00  0.00     0.031 C 
ATOM     62  C   UNL A   1      44.923  26.203  25.486  1.00  0.00     0.029 A 
ATOM     63  C   UNL A   1      45.159  25.801  26.805  1.00  0.00     0.049 A 
ATOM     64  H   UNL A   1      46.342  26.838  28.219  1.00  0.00     0.167 HD
ATOM     65  C   UNL A   1      44.086  23.678  27.053  1.00  0.00     0.074 A 
ATOM     66  C   UNL A   1      43.934  23.446  25.633  1.00  0.00     0.031 C 
ATOM     67  C   UNL A   1      44.722  24.717  27.653  1.00  0.00     0.031 A 
BRANCH  54  68
ATOM     68  C   UNL A   1      46.415  30.014  27.795  1.00  0.00    -0.014 A 
ATOM     69  C   UNL A   1      46.729  29.947  29.169  1.00  0.00     0.009 A 
ATOM     70  C   UNL A   1      46.975  31.057  27.047  1.00  0.00     0.009 A 
ATOM     71  C   UNL A   1      47.485  30.937  29.793  1.00  0.00     0.001 A 
ATOM     72  C   UNL A   1      47.764  32.033  27.667  1.00  0.00     0.001 A 
ATOM     73  C   UNL A   1      47.990  31.991  29.042  1.00  0.00     0.000 A 
ENDBRANCH  54  68
BRANCH  55  74
ATOM     74  C   UNL A   1      40.037  21.699  26.452  1.00  0.00    -0.014 A 
ATOM     75  C   UNL A   1      38.834  21.563  25.756  1.00  0.00     0.009 A 
ATOM     76  C   UNL A   1      40.765  20.495  26.663  1.00  0.00     0.009 A 
ATOM     77  C   UNL A   1      38.433  20.314  25.235  1.00  0.00     0.001 A 
ATOM     78  C   UNL A   1      40.398  19.267  26.110  1.00  0.00     0.001 A 
ATOM     79  C   UNL A   1      39.229  19.179  25.380  1.00  0.00     0.000 A 
ENDBRANCH  55  74
BRANCH  67  80
ATOM     80  C   UNL A   1      44.489  24.826  29.155  1.00  0.00    -0.014 A 
ATOM     81  C   UNL A   1      44.227  26.073  29.743  1.00  0.00     0.009 A 
ATOM     82  C   UNL A   1      44.645  23.731  30.023  1.00  0.00     0.009 A 
ATOM     83  C   UNL A   1      44.149  26.219  31.135  1.00  0.00     0.001 A 
ATOM     84  C   UNL A   1      44.564  23.870  31.416  1.00  0.00     0.001 A 
ATOM     85  C   UNL A   1      44.319  25.119  31.972  1.00  0.00     0.000 A 
ENDBRANCH  67  80
ENDBRANCH  41  42
ENDBRANCH  34  36
ENDBRANCH  33  34
ENDBRANCH  32  33
ENDBRANCH  31  32
ENDBRANCH  30  31
ENDBRANCH  29  30
ENDBRANCH  28  29
ENDBRANCH  27  28
ENDBRANCH  26  27
ENDBRANCH   1  26
TORSDOF 26
ENDMDL
MODEL 2
REMARK VINA RESULT:      -8.4      3.175      7.475
REMARK SMILES C[C@@H](CC[NH+](C)C)NC(=O)Cn1cccc1C(=O)OCCOCCOCCOCCOC(=O)c1ccc(-c2c3nc(c(-c4ccccc4)c4ccc([nH]4)c(-c4ccccc4)c4nc(c(-c5ccccc5)c5ccc2[nH]5)C=C4)C=C3)cc1
REMARK SMILES IDX 23 1 22 2 21 3 20 4 19 5 17 6 18 7 16 8 12 9 13 10 14 11
REMARK SMILES IDX 15 12 11 13 9 14 8 15 10 17 2 18 1 19 3 20 4 21 5 22 6 23
REMARK SMILES IDX 7 24 24 26 25 27 26 28 27 29 28 30 29 31 30 32 31 33 32 34
REMARK SMILES IDX 33 35 34 36 35 37 81 38 36 39 80 40 37 41 38 42 39 43 74 44
REMARK SMILES IDX 40 45 79 46 73 47 75 48 41 49 78 50 72 51 71 52 42 54 64 55
REMARK SMILES IDX 49 56 63 57 50 58 53 59 62 60 76 61 51 62 52 63 61 65 77 66
REMARK SMILES IDX 54 67 43 68 44 69 48 70 45 71 47 72 46 73 65 74 66 75 70 76
REMARK SMILES IDX 67 77 69 78 68 79 55 80 56 81 60 82 57 83 59 84 58 85
REMARK H PARENT 8 16 5 25 75 53 53 64
REMARK Flexibility Score: inf
ROOT
ATOM      1  C   UNL A   1      35.333  24.580  24.724  1.00  0.00     0.188 C 
ENDROOT
BRANCH   1   2
ATOM      2  O   UNL A   1      34.373  25.464  25.295  1.00  0.00    -0.376 OA
BRANCH   2   3
ATOM      3  C   UNL A   1      34.301  26.766  24.737  1.00  0.00     0.202 C 
BRANCH   3   4
ATOM      4  C   UNL A   1      33.395  27.754  25.483  1.00  0.00     0.261 C 
BRANCH   4   5
ATOM      5  O   UNL A   1      32.907  27.281  26.746  1.00  0.00    -0.459 OA
BRANCH   5   6
ATOM      6  C   UNL A   1      31.566  27.312  26.971  1.00  0.00     0.355 C 
ATOM      7  O   UNL A   1      31.017  28.017  27.795  1.00  0.00    -0.244 OA
BRANCH   6   8
ATOM      8  C   UNL A   1      30.911  26.545  25.921  1.00  0.00     0.128 A 
ATOM      9  N   UNL A   1      30.928  25.167  25.750  1.00  0.00    -0.333 N 
ATOM     10  C   UNL A   1      30.516  24.861  24.475  1.00  0.00     0.087 A 
ATOM     11  C   UNL A   1      30.037  26.011  23.893  1.00  0.00     0.020 A 
ATOM     12  C   UNL A   1      30.252  27.063  24.813  1.00  0.00     0.035 A 
BRANCH   9  13
ATOM     13  C   UNL A   1      31.422  24.198  26.724  1.00  0.00     0.222 C 
BRANCH  13  14
ATOM     14  C   UNL A   1      30.943  22.781  26.519  1.00  0.00     0.240 C 
ATOM     15  N   UNL A   1      31.817  21.815  26.115  1.00  0.00    -0.352 N 
ATOM     16  H   UNL A   1      31.402  20.952  25.889  1.00  0.00     0.163 HD
ATOM     17  O   UNL A   1      29.750  22.487  26.627  1.00  0.00    -0.273 OA
BRANCH  15  18
ATOM     18  C   UNL A   1      33.269  21.853  25.962  1.00  0.00     0.084 C 
ATOM     19  C   UNL A   1      34.017  21.340  27.196  1.00  0.00     0.031 C 
BRANCH  18  20
ATOM     20  C   UNL A   1      33.687  21.100  24.693  1.00  0.00     0.086 C 
BRANCH  20  21
ATOM     21  C   UNL A   1      33.887  19.574  24.794  1.00  0.00     0.263 C 
BRANCH  21  22
ATOM     22  N   UNL A   1      32.637  18.788  24.780  1.00  0.00    -0.340 N 
ATOM     23  C   UNL A   1      32.263  18.491  23.388  1.00  0.00     0.332 C 
ATOM     24  C   UNL A   1      32.756  17.502  25.482  1.00  0.00     0.332 C 
ATOM     25  H   UNL A   1      31.936  19.357  25.256  1.00  0.00     0.347 HD
ENDBRANCH  21  22
ENDBRANCH  20  21
ENDBRANCH  18  20
ENDBRANCH  15  18
ENDBRANCH  13  14
ENDBRANCH   9  13
ENDBRANCH   6   8
ENDBRANCH   5   6
ENDBRANCH   4   5
ENDBRANCH   3   4
ENDBRANCH   2   3
ENDBRANCH   1   2
BRANCH   1  26
ATOM     26  C   UNL A   1      36.230  23.919  25.785  1.00  0.00     0.188 C 
BRANCH  26  27
ATOM     27  O   UNL A   1      37.417  23.306  25.317  1.00  0.00    -0.377 OA
BRANCH  27  28
ATOM     28  C   UNL A   1      37.653  21.938  25.642  1.00  0.00     0.188 C 
BRANCH  28  29
ATOM     29  C   UNL A   1      39.067  21.287  25.660  1.00  0.00     0.188 C 
BRANCH  29  30
ATOM     30  O   UNL A   1      40.016  21.826  26.575  1.00  0.00    -0.376 OA
BRANCH  30  31
ATOM     31  C   UNL A   1      41.069  21.012  27.064  1.00  0.00     0.202 C 
BRANCH  31  32
ATOM     32  C   UNL A   1      42.346  21.059  26.217  1.00  0.00     0.261 C 
BRANCH  32  33
ATOM     33  O   UNL A   1      42.343  22.131  25.284  1.00  0.00    -0.460 OA
BRANCH  33  34
ATOM     34  C   UNL A   1      43.580  22.404  24.836  1.00  0.00     0.338 C 
ATOM     35  O   UNL A   1      44.437  21.624  24.455  1.00  0.00    -0.246 OA
BRANCH  34  36
ATOM     36  C   UNL A   1      43.842  23.830  24.960  1.00  0.00     0.060 A 
ATOM     37  C   UNL A   1      45.127  24.109  25.439  1.00  0.00     0.016 A 
ATOM     38  C   UNL A   1      42.701  24.541  25.331  1.00  0.00     0.016 A 
ATOM     39  C   UNL A   1      45.218  24.888  26.562  1.00  0.00     0.010 A 
ATOM     40  C   UNL A   1      42.782  25.264  26.488  1.00  0.00     0.010 A 
ATOM     41  C   UNL A   1      44.030  25.374  27.120  1.00  0.00    -0.014 A 
BRANCH  41  42
ATOM     42  C   UNL A   1      44.125  26.153  28.343  1.00  0.00     0.031 A 
ATOM     43  C   UNL A   1      44.270  27.630  28.009  1.00  0.00     0.074 A 
ATOM     44  C   UNL A   1      44.085  25.436  29.504  1.00  0.00     0.049 A 
ATOM     45  N   UNL A   1      44.605  28.611  28.779  1.00  0.00    -0.248 NA
ATOM     46  C   UNL A   1      44.037  28.096  26.608  1.00  0.00     0.031 C 
ATOM     47  C   UNL A   1      43.947  23.960  29.594  1.00  0.00     0.029 A 
ATOM     48  N   UNL A   1      44.162  25.784  30.831  1.00  0.00    -0.354 N 
ATOM     49  C   UNL A   1      44.456  29.792  28.034  1.00  0.00     0.074 A 
ATOM     50  C   UNL A   1      44.166  29.418  26.687  1.00  0.00     0.031 C 
ATOM     51  C   UNL A   1      44.030  23.548  30.879  1.00  0.00     0.029 A 
ATOM     52  C   UNL A   1      44.196  24.701  31.742  1.00  0.00     0.049 A 
ATOM     53  H   UNL A   1      44.192  26.722  31.128  1.00  0.00     0.167 HD
ATOM     54  C   UNL A   1      44.479  31.025  28.603  1.00  0.00     0.031 A 
ATOM     55  C   UNL A   1      44.381  24.735  33.094  1.00  0.00     0.031 A 
ATOM     56  C   UNL A   1      44.865  30.943  29.969  1.00  0.00     0.049 A 
ATOM     57  C   UNL A   1      44.364  26.156  33.469  1.00  0.00     0.074 A 
ATOM     58  C   UNL A   1      46.070  30.661  30.560  1.00  0.00     0.029 A 
ATOM     59  N   UNL A   1      43.862  30.774  30.891  1.00  0.00    -0.354 N 
ATOM     60  N   UNL A   1      43.304  26.905  33.492  1.00  0.00    -0.248 NA
ATOM     61  C   UNL A   1      45.631  26.823  33.785  1.00  0.00     0.031 C 
ATOM     62  C   UNL A   1      45.719  29.897  31.694  1.00  0.00     0.029 A 
ATOM     63  C   UNL A   1      44.327  29.880  31.829  1.00  0.00     0.049 A 
ATOM     64  H   UNL A   1      42.979  31.209  30.884  1.00  0.00     0.167 HD
ATOM     65  C   UNL A   1      43.835  28.169  33.424  1.00  0.00     0.074 A 
ATOM     66  C   UNL A   1      45.188  28.071  33.927  1.00  0.00     0.031 C 
ATOM     67  C   UNL A   1      43.360  29.050  32.507  1.00  0.00     0.031 A 
BRANCH  54  68
ATOM     68  C   UNL A   1      44.000  32.328  28.059  1.00  0.00    -0.014 A 
ATOM     69  C   UNL A   1      44.173  32.556  26.678  1.00  0.00     0.009 A 
ATOM     70  C   UNL A   1      43.686  33.427  28.869  1.00  0.00     0.009 A 
ATOM     71  C   UNL A   1      44.137  33.841  26.141  1.00  0.00     0.001 A 
ATOM     72  C   UNL A   1      43.615  34.715  28.323  1.00  0.00     0.001 A 
ATOM     73  C   UNL A   1      43.874  34.924  26.969  1.00  0.00     0.000 A 
ENDBRANCH  54  68
BRANCH  55  74
ATOM     74  C   UNL A   1      44.648  23.766  34.214  1.00  0.00    -0.014 A 
ATOM     75  C   UNL A   1      44.776  22.381  34.089  1.00  0.00     0.009 A 
ATOM     76  C   UNL A   1      44.897  24.291  35.513  1.00  0.00     0.009 A 
ATOM     77  C   UNL A   1      45.208  21.590  35.175  1.00  0.00     0.001 A 
ATOM     78  C   UNL A   1      45.370  23.522  36.576  1.00  0.00     0.001 A 
ATOM     79  C   UNL A   1      45.539  22.163  36.402  1.00  0.00     0.000 A 
ENDBRANCH  55  74
BRANCH  67  80
ATOM     80  C   UNL A   1      41.961  28.738  31.988  1.00  0.00    -0.014 A 
ATOM     81  C   UNL A   1      40.844  28.897  32.822  1.00  0.00     0.009 A 
ATOM     82  C   UNL A   1      41.737  28.169  30.722  1.00  0.00     0.009 A 
ATOM     83  C   UNL A   1      39.567  28.485  32.416  1.00  0.00     0.001 A 
ATOM     84  C   UNL A   1      40.462  27.758  30.308  1.00  0.00     0.001 A 
ATOM     85  C   UNL A   1      39.376  27.913  31.160  1.00  0.00     0.000 A 
ENDBRANCH  67  80
ENDBRANCH  41  42
ENDBRANCH  34  36
ENDBRANCH  33  34
ENDBRANCH  32  33
ENDBRANCH  31  32
ENDBRANCH  30  31
ENDBRANCH  29  30
ENDBRANCH  28  29
ENDBRANCH  27  28
ENDBRANCH  26  27
ENDBRANCH   1  26
TORSDOF 26
ENDMDL
MODEL 3
REMARK VINA RESULT:      -8.4      3.200      7.729
REMARK SMILES C[C@@H](CC[NH+](C)C)NC(=O)Cn1cccc1C(=O)OCCOCCOCCOCCOC(=O)c1ccc(-c2c3nc(c(-c4ccccc4)c4ccc([nH]4)c(-c4ccccc4)c4nc(c(-c5ccccc5)c5ccc2[nH]5)C=C4)C=C3)cc1
REMARK SMILES IDX 23 1 22 2 21 3 20 4 19 5 17 6 18 7 16 8 12 9 13 10 14 11
REMARK SMILES IDX 15 12 11 13 9 14 8 15 10 17 2 18 1 19 3 20 4 21 5 22 6 23
REMARK SMILES IDX 7 24 24 26 25 27 26 28 27 29 28 30 29 31 30 32 31 33 32 34
REMARK SMILES IDX 33 35 34 36 35 37 81 38 36 39 80 40 37 41 38 42 39 43 74 44
REMARK SMILES IDX 40 45 79 46 73 47 75 48 41 49 78 50 72 51 71 52 42 54 64 55
REMARK SMILES IDX 49 56 63 57 50 58 53 59 62 60 76 61 51 62 52 63 61 65 77 66
REMARK SMILES IDX 54 67 43 68 44 69 48 70 45 71 47 72 46 73 65 74 66 75 70 76
REMARK SMILES IDX 67 77 69 78 68 79 55 80 56 81 60 82 57 83 59 84 58 85
REMARK H PARENT 8 16 5 25 75 53 53 64
REMARK Flexibility Score: inf
ROOT
ATOM      1  C   UNL A   1      35.998  23.353  25.469  1.00  0.00     0.188 C 
ENDROOT
BRANCH   1   2
ATOM      2  O   UNL A   1      35.605  22.999  24.146  1.00  0.00    -0.376 OA
BRANCH   2   3
ATOM      3  C   UNL A   1      34.517  22.096  24.028  1.00  0.00     0.202 C 
BRANCH   3   4
ATOM      4  C   UNL A   1      33.563  22.056  25.228  1.00  0.00     0.261 C 
BRANCH   4   5
ATOM      5  O   UNL A   1      32.182  22.264  24.901  1.00  0.00    -0.459 OA
BRANCH   5   6
ATOM      6  C   UNL A   1      31.869  23.258  24.026  1.00  0.00     0.355 C 
ATOM      7  O   UNL A   1      31.447  23.084  22.900  1.00  0.00    -0.244 OA
BRANCH   6   8
ATOM      8  C   UNL A   1      31.913  24.525  24.743  1.00  0.00     0.128 A 
ATOM      9  N   UNL A   1      32.797  25.576  24.542  1.00  0.00    -0.333 N 
ATOM     10  C   UNL A   1      32.758  26.418  25.627  1.00  0.00     0.087 A 
ATOM     11  C   UNL A   1      31.710  26.033  26.430  1.00  0.00     0.020 A 
ATOM     12  C   UNL A   1      31.156  24.865  25.857  1.00  0.00     0.035 A 
BRANCH   9  13
ATOM     13  C   UNL A   1      33.716  25.706  23.415  1.00  0.00     0.222 C 
BRANCH  13  14
ATOM     14  C   UNL A   1      33.062  25.997  22.085  1.00  0.00     0.240 C 
ATOM     15  N   UNL A   1      32.107  26.966  21.990  1.00  0.00    -0.352 N 
ATOM     16  H   UNL A   1      31.649  27.008  21.119  1.00  0.00     0.163 HD
ATOM     17  O   UNL A   1      33.310  25.316  21.087  1.00  0.00    -0.273 OA
BRANCH  15  18
ATOM     18  C   UNL A   1      31.655  27.951  22.967  1.00  0.00     0.084 C 
ATOM     19  C   UNL A   1      32.603  29.146  23.101  1.00  0.00     0.031 C 
BRANCH  18  20
ATOM     20  C   UNL A   1      30.223  28.399  22.644  1.00  0.00     0.086 C 
BRANCH  20  21
ATOM     21  C   UNL A   1      30.039  29.729  21.884  1.00  0.00     0.263 C 
BRANCH  21  22
ATOM     22  N   UNL A   1      28.632  30.129  21.679  1.00  0.00    -0.340 N 
ATOM     23  C   UNL A   1      27.774  29.403  22.628  1.00  0.00     0.332 C 
ATOM     24  C   UNL A   1      28.404  31.565  21.897  1.00  0.00     0.332 C 
ATOM     25  H   UNL A   1      28.409  29.907  20.707  1.00  0.00     0.347 HD
ENDBRANCH  21  22
ENDBRANCH  20  21
ENDBRANCH  18  20
ENDBRANCH  15  18
ENDBRANCH  13  14
ENDBRANCH   9  13
ENDBRANCH   6   8
ENDBRANCH   5   6
ENDBRANCH   4   5
ENDBRANCH   3   4
ENDBRANCH   2   3
ENDBRANCH   1   2
BRANCH   1  26
ATOM     26  C   UNL A   1      37.487  23.073  25.736  1.00  0.00     0.188 C 
BRANCH  26  27
ATOM     27  O   UNL A   1      37.971  21.801  25.347  1.00  0.00    -0.377 OA
BRANCH  27  28
ATOM     28  C   UNL A   1      39.152  21.300  25.969  1.00  0.00     0.188 C 
BRANCH  28  29
ATOM     29  C   UNL A   1      40.265  22.211  26.567  1.00  0.00     0.188 C 
BRANCH  29  30
ATOM     30  O   UNL A   1      41.386  21.561  27.157  1.00  0.00    -0.376 OA
BRANCH  30  31
ATOM     31  C   UNL A   1      42.513  21.235  26.362  1.00  0.00     0.202 C 
BRANCH  31  32
ATOM     32  C   UNL A   1      42.931  22.335  25.379  1.00  0.00     0.261 C 
BRANCH  32  33
ATOM     33  O   UNL A   1      42.858  23.634  25.951  1.00  0.00    -0.460 OA
BRANCH  33  34
ATOM     34  C   UNL A   1      43.460  24.553  25.177  1.00  0.00     0.338 C 
ATOM     35  O   UNL A   1      44.508  24.455  24.562  1.00  0.00    -0.246 OA
BRANCH  34  36
ATOM     36  C   UNL A   1      42.722  25.806  25.240  1.00  0.00     0.060 A 
ATOM     37  C   UNL A   1      43.517  26.889  25.630  1.00  0.00     0.016 A 
ATOM     38  C   UNL A   1      41.405  25.616  25.657  1.00  0.00     0.016 A 
ATOM     39  C   UNL A   1      43.102  27.606  26.720  1.00  0.00     0.010 A 
ATOM     40  C   UNL A   1      41.019  26.287  26.784  1.00  0.00     0.010 A 
ATOM     41  C   UNL A   1      41.902  27.229  27.334  1.00  0.00    -0.014 A 
BRANCH  41  42
ATOM     42  C   UNL A   1      41.491  27.956  28.524  1.00  0.00     0.031 A 
ATOM     43  C   UNL A   1      42.394  27.594  29.693  1.00  0.00     0.074 A 
ATOM     44  C   UNL A   1      40.408  28.773  28.370  1.00  0.00     0.049 A 
ATOM     45  N   UNL A   1      42.235  27.837  30.951  1.00  0.00    -0.248 NA
ATOM     46  C   UNL A   1      43.652  26.827  29.444  1.00  0.00     0.031 C 
ATOM     47  C   UNL A   1      39.654  28.967  27.105  1.00  0.00     0.029 A 
ATOM     48  N   UNL A   1      39.714  29.591  29.229  1.00  0.00    -0.354 N 
ATOM     49  C   UNL A   1      43.410  27.429  31.603  1.00  0.00     0.074 A 
ATOM     50  C   UNL A   1      44.224  26.756  30.643  1.00  0.00     0.031 C 
ATOM     51  C   UNL A   1      38.583  29.768  27.303  1.00  0.00     0.029 A 
ATOM     52  C   UNL A   1      38.553  30.194  28.688  1.00  0.00     0.049 A 
ATOM     53  H   UNL A   1      40.004  29.747  30.157  1.00  0.00     0.167 HD
ATOM     54  C   UNL A   1      43.688  27.764  32.890  1.00  0.00     0.031 A 
ATOM     55  C   UNL A   1      37.617  30.955  29.326  1.00  0.00     0.031 A 
ATOM     56  C   UNL A   1      42.566  28.387  33.503  1.00  0.00     0.049 A 
ATOM     57  C   UNL A   1      38.139  31.188  30.680  1.00  0.00     0.074 A 
ATOM     58  C   UNL A   1      41.356  27.886  33.908  1.00  0.00     0.029 A 
ATOM     59  N   UNL A   1      42.474  29.752  33.394  1.00  0.00    -0.354 N 
ATOM     60  N   UNL A   1      39.127  31.978  30.968  1.00  0.00    -0.248 NA
ATOM     61  C   UNL A   1      37.564  30.439  31.802  1.00  0.00     0.031 C 
ATOM     62  C   UNL A   1      40.443  28.918  33.599  1.00  0.00     0.029 A 
ATOM     63  C   UNL A   1      41.149  30.047  33.170  1.00  0.00     0.049 A 
ATOM     64  H   UNL A   1      43.214  30.397  33.463  1.00  0.00     0.167 HD
ATOM     65  C   UNL A   1      39.530  31.512  32.195  1.00  0.00     0.074 A 
ATOM     66  C   UNL A   1      38.386  30.838  32.771  1.00  0.00     0.031 C 
ATOM     67  C   UNL A   1      40.842  31.238  32.413  1.00  0.00     0.031 A 
BRANCH  54  68
ATOM     68  C   UNL A   1      44.990  27.733  33.616  1.00  0.00    -0.014 A 
ATOM     69  C   UNL A   1      45.964  28.682  33.240  1.00  0.00     0.009 A 
ATOM     70  C   UNL A   1      45.402  26.650  34.404  1.00  0.00     0.009 A 
ATOM     71  C   UNL A   1      47.310  28.506  33.549  1.00  0.00     0.001 A 
ATOM     72  C   UNL A   1      46.751  26.491  34.744  1.00  0.00     0.001 A 
ATOM     73  C   UNL A   1      47.706  27.399  34.289  1.00  0.00     0.000 A 
ENDBRANCH  54  68
BRANCH  55  74
ATOM     74  C   UNL A   1      36.251  31.521  29.045  1.00  0.00    -0.014 A 
ATOM     75  C   UNL A   1      35.789  32.782  29.428  1.00  0.00     0.009 A 
ATOM     76  C   UNL A   1      35.364  30.763  28.231  1.00  0.00     0.009 A 
ATOM     77  C   UNL A   1      34.557  33.280  28.953  1.00  0.00     0.001 A 
ATOM     78  C   UNL A   1      34.167  31.268  27.719  1.00  0.00     0.001 A 
ATOM     79  C   UNL A   1      33.767  32.541  28.074  1.00  0.00     0.000 A 
ENDBRANCH  55  74
BRANCH  67  80
ATOM     80  C   UNL A   1      41.806  31.942  31.466  1.00  0.00    -0.014 A 
ATOM     81  C   UNL A   1      42.055  33.316  31.602  1.00  0.00     0.009 A 
ATOM     82  C   UNL A   1      42.381  31.296  30.358  1.00  0.00     0.009 A 
ATOM     83  C   UNL A   1      42.825  34.013  30.661  1.00  0.00     0.001 A 
ATOM     84  C   UNL A   1      43.156  31.986  29.415  1.00  0.00     0.001 A 
ATOM     85  C   UNL A   1      43.375  33.350  29.566  1.00  0.00     0.000 A 
ENDBRANCH  67  80
ENDBRANCH  41  42
ENDBRANCH  34  36
ENDBRANCH  33  34
ENDBRANCH  32  33
ENDBRANCH  31  32
ENDBRANCH  30  31
ENDBRANCH  29  30
ENDBRANCH  28  29
ENDBRANCH  27  28
ENDBRANCH  26  27
ENDBRANCH   1  26
TORSDOF 26
ENDMDL
