MODEL 1
REMARK VINA RESULT:      -9.4      0.000      0.000
REMARK SMILES O=C(CNC(=O)N1CC(OCCOCCOCCOCCOC(=O)c2ccc(-c3c4nc(c(-c5ccccc5)c5ccc([nH]5)c(-c5ccccc5)c5nc(c(-c6ccccc6)c6ccc3[nH]6)C=C5)C=C4)cc2)=Nc2ccccc21)N[C@H](C(=O)[O-])c1ccccc1
REMARK SMILES IDX 15 1 14 2 13 3 12 4 11 5 10 6 9 7 7 8 8 9 79 10 74 11 78 12
REMARK SMILES IDX 73 13 75 14 77 15 76 16 5 17 4 18 6 20 3 21 2 22 1 23 80 24
REMARK SMILES IDX 81 26 85 27 86 28 90 29 87 30 89 31 88 32 82 33 83 34 84 35
REMARK SMILES IDX 16 36 17 37 18 38 19 39 20 40 21 41 22 42 23 43 24 44 25 45
REMARK SMILES IDX 26 46 72 47 27 48 71 49 28 50 29 51 30 52 65 53 31 54 70 55
REMARK SMILES IDX 64 56 66 57 32 58 69 59 63 60 62 61 33 63 55 64 40 65 54 66
REMARK SMILES IDX 41 67 44 68 53 69 67 70 42 71 43 72 52 74 68 75 45 76 34 77
REMARK SMILES IDX 35 78 39 79 36 80 38 81 37 82 56 83 57 84 61 85 58 86 60 87
REMARK SMILES IDX 59 88 46 89 47 90 51 91 48 92 50 93 49 94
REMARK H PARENT 4 19 80 25 66 62 44 73
REMARK Flexibility Score: inf
ROOT
ATOM      1  C   UNL A   1      41.412  22.223  27.665  1.00  0.00     0.188 C 
ENDROOT
BRANCH   1   2
ATOM      2  C   UNL A   1      40.057  22.335  26.962  1.00  0.00     0.188 C 
BRANCH   2   3
ATOM      3  O   UNL A   1      39.532  23.603  26.573  1.00  0.00    -0.376 OA
BRANCH   3   4
ATOM      4  C   UNL A   1      38.180  23.772  26.200  1.00  0.00     0.201 C 
BRANCH   4   5
ATOM      5  C   UNL A   1      37.414  22.691  25.410  1.00  0.00     0.259 C 
BRANCH   5   6
ATOM      6  O   UNL A   1      36.070  22.395  25.817  1.00  0.00    -0.477 OA
BRANCH   6   7
ATOM      7  C   UNL A   1      35.387  21.538  25.017  1.00  0.00     0.209 C 
ATOM      8  N   UNL A   1      33.141  21.444  24.039  1.00  0.00    -0.283 N 
ATOM      9  C   UNL A   1      34.384  22.221  24.121  1.00  0.00     0.224 C 
ATOM     10  C   UNL A   1      33.331  20.024  23.993  1.00  0.00     0.072 A 
ATOM     11  C   UNL A   1      34.539  19.478  24.505  1.00  0.00     0.091 A 
ATOM     12  C   UNL A   1      32.381  19.151  23.468  1.00  0.00     0.029 A 
ATOM     13  N   UNL A   1      35.552  20.260  25.088  1.00  0.00    -0.214 NA
ATOM     14  C   UNL A   1      34.683  18.095  24.634  1.00  0.00     0.030 A 
ATOM     15  C   UNL A   1      32.536  17.768  23.606  1.00  0.00     0.002 A 
ATOM     16  C   UNL A   1      33.672  17.240  24.214  1.00  0.00     0.002 A 
BRANCH   8  17
ATOM     17  C   UNL A   1      31.990  22.177  23.883  1.00  0.00     0.322 C 
ATOM     18  N   UNL A   1      31.320  22.742  24.908  1.00  0.00    -0.329 N 
ATOM     19  H   UNL A   1      30.423  23.055  24.651  1.00  0.00     0.165 HD
ATOM     20  O   UNL A   1      31.565  22.449  22.754  1.00  0.00    -0.248 OA
BRANCH  18  21
ATOM     21  C   UNL A   1      31.624  22.993  26.318  1.00  0.00     0.218 C 
BRANCH  21  22
ATOM     22  C   UNL A   1      32.363  24.335  26.489  1.00  0.00     0.240 C 
ATOM     23  O   UNL A   1      33.579  24.383  26.654  1.00  0.00    -0.273 OA
ATOM     24  N   UNL A   1      31.527  25.429  26.484  1.00  0.00    -0.342 N 
ATOM     25  H   UNL A   1      30.581  25.296  26.721  1.00  0.00     0.164 HD
BRANCH  24  26
ATOM     26  C   UNL A   1      31.984  26.798  26.142  1.00  0.00     0.158 C 
BRANCH  26  27
ATOM     27  C   UNL A   1      31.481  27.303  24.806  1.00  0.00    -0.020 A 
ATOM     28  C   UNL A   1      31.434  26.491  23.670  1.00  0.00     0.006 A 
ATOM     29  C   UNL A   1      31.000  28.625  24.708  1.00  0.00     0.006 A 
ATOM     30  C   UNL A   1      30.945  26.998  22.461  1.00  0.00     0.000 A 
ATOM     31  C   UNL A   1      30.514  29.131  23.504  1.00  0.00     0.000 A 
ATOM     32  C   UNL A   1      30.493  28.317  22.377  1.00  0.00     0.000 A 
ENDBRANCH  26  27
BRANCH  26  33
ATOM     33  C   UNL A   1      32.100  27.844  27.310  1.00  0.00     0.068 C 
ATOM     34  O   UNL A   1      31.080  28.015  28.037  1.00  0.00    -0.548 OA
ATOM     35  O   UNL A   1      33.182  28.520  27.306  1.00  0.00    -0.548 OA
ENDBRANCH  26  33
ENDBRANCH  24  26
ENDBRANCH  21  22
ENDBRANCH  18  21
ENDBRANCH   8  17
ENDBRANCH   6   7
ENDBRANCH   5   6
ENDBRANCH   4   5
ENDBRANCH   3   4
ENDBRANCH   2   3
ENDBRANCH   1   2
BRANCH   1  36
ATOM     36  O   UNL A   1      42.259  21.172  27.221  1.00  0.00    -0.377 OA
BRANCH  36  37
ATOM     37  C   UNL A   1      41.775  20.409  26.129  1.00  0.00     0.188 C 
BRANCH  37  38
ATOM     38  C   UNL A   1      42.185  18.928  26.120  1.00  0.00     0.188 C 
BRANCH  38  39
ATOM     39  O   UNL A   1      43.575  18.681  26.222  1.00  0.00    -0.376 OA
BRANCH  39  40
ATOM     40  C   UNL A   1      44.316  18.793  24.999  1.00  0.00     0.202 C 
BRANCH  40  41
ATOM     41  C   UNL A   1      45.516  19.739  25.032  1.00  0.00     0.261 C 
BRANCH  41  42
ATOM     42  O   UNL A   1      45.253  21.024  25.614  1.00  0.00    -0.460 OA
BRANCH  42  43
ATOM     43  C   UNL A   1      44.826  21.975  24.767  1.00  0.00     0.338 C 
ATOM     44  O   UNL A   1      44.163  21.857  23.756  1.00  0.00    -0.246 OA
BRANCH  43  45
ATOM     45  C   UNL A   1      45.044  23.256  25.444  1.00  0.00     0.060 A 
ATOM     46  C   UNL A   1      45.174  23.200  26.834  1.00  0.00     0.016 A 
ATOM     47  C   UNL A   1      45.122  24.468  24.752  1.00  0.00     0.016 A 
ATOM     48  C   UNL A   1      45.336  24.370  27.552  1.00  0.00     0.010 A 
ATOM     49  C   UNL A   1      45.258  25.652  25.479  1.00  0.00     0.010 A 
ATOM     50  C   UNL A   1      45.319  25.600  26.882  1.00  0.00    -0.014 A 
BRANCH  50  51
ATOM     51  C   UNL A   1      45.114  26.799  27.716  1.00  0.00     0.031 A 
ATOM     52  C   UNL A   1      46.320  27.634  28.037  1.00  0.00     0.074 A 
ATOM     53  C   UNL A   1      43.871  27.210  28.014  1.00  0.00     0.049 A 
ATOM     54  N   UNL A   1      46.384  28.828  28.565  1.00  0.00    -0.248 NA
ATOM     55  C   UNL A   1      47.631  27.052  27.698  1.00  0.00     0.031 C 
ATOM     56  C   UNL A   1      42.642  26.490  27.688  1.00  0.00     0.029 A 
ATOM     57  N   UNL A   1      43.442  28.358  28.624  1.00  0.00    -0.354 N 
ATOM     58  C   UNL A   1      47.737  29.143  28.605  1.00  0.00     0.074 A 
ATOM     59  C   UNL A   1      48.461  28.005  28.088  1.00  0.00     0.031 C 
ATOM     60  C   UNL A   1      41.589  27.227  28.081  1.00  0.00     0.029 A 
ATOM     61  C   UNL A   1      42.075  28.461  28.694  1.00  0.00     0.049 A 
ATOM     62  H   UNL A   1      44.054  29.044  28.977  1.00  0.00     0.167 HD
ATOM     63  C   UNL A   1      48.321  30.288  29.025  1.00  0.00     0.031 A 
ATOM     64  C   UNL A   1      41.311  29.452  29.189  1.00  0.00     0.031 A 
ATOM     65  C   UNL A   1      47.588  31.400  29.564  1.00  0.00     0.049 A 
ATOM     66  C   UNL A   1      41.989  30.690  29.710  1.00  0.00     0.074 A 
ATOM     67  C   UNL A   1      48.068  32.600  30.053  1.00  0.00     0.029 A 
ATOM     68  N   UNL A   1      46.206  31.435  29.689  1.00  0.00    -0.354 N 
ATOM     69  N   UNL A   1      43.267  30.985  29.734  1.00  0.00    -0.248 NA
ATOM     70  C   UNL A   1      41.117  31.738  30.255  1.00  0.00     0.031 C 
ATOM     71  C   UNL A   1      46.977  33.343  30.518  1.00  0.00     0.029 A 
ATOM     72  C   UNL A   1      45.815  32.629  30.265  1.00  0.00     0.049 A 
ATOM     73  H   UNL A   1      45.595  30.715  29.409  1.00  0.00     0.167 HD
ATOM     74  C   UNL A   1      43.353  32.262  30.273  1.00  0.00     0.074 A 
ATOM     75  C   UNL A   1      41.993  32.690  30.542  1.00  0.00     0.031 C 
ATOM     76  C   UNL A   1      44.451  33.017  30.525  1.00  0.00     0.031 A 
BRANCH  63  77
ATOM     77  C   UNL A   1      49.821  30.357  28.957  1.00  0.00    -0.014 A 
ATOM     78  C   UNL A   1      50.486  30.658  27.756  1.00  0.00     0.009 A 
ATOM     79  C   UNL A   1      50.582  30.099  30.107  1.00  0.00     0.009 A 
ATOM     80  C   UNL A   1      51.882  30.662  27.703  1.00  0.00     0.001 A 
ATOM     81  C   UNL A   1      51.977  30.130  30.056  1.00  0.00     0.001 A 
ATOM     82  C   UNL A   1      52.625  30.402  28.852  1.00  0.00     0.000 A 
ENDBRANCH  63  77
BRANCH  64  83
ATOM     83  C   UNL A   1      39.831  29.314  29.205  1.00  0.00    -0.014 A 
ATOM     84  C   UNL A   1      39.051  29.730  28.115  1.00  0.00     0.009 A 
ATOM     85  C   UNL A   1      39.186  28.763  30.325  1.00  0.00     0.009 A 
ATOM     86  C   UNL A   1      37.659  29.617  28.157  1.00  0.00     0.001 A 
ATOM     87  C   UNL A   1      37.798  28.626  30.352  1.00  0.00     0.001 A 
ATOM     88  C   UNL A   1      37.033  29.061  29.271  1.00  0.00     0.000 A 
ENDBRANCH  64  83
BRANCH  76  89
ATOM     89  C   UNL A   1      44.214  34.386  31.092  1.00  0.00    -0.014 A 
ATOM     90  C   UNL A   1      44.167  34.602  32.478  1.00  0.00     0.009 A 
ATOM     91  C   UNL A   1      44.064  35.478  30.224  1.00  0.00     0.009 A 
ATOM     92  C   UNL A   1      43.929  35.881  32.982  1.00  0.00     0.001 A 
ATOM     93  C   UNL A   1      43.857  36.761  30.732  1.00  0.00     0.001 A 
ATOM     94  C   UNL A   1      43.777  36.958  32.109  1.00  0.00     0.000 A 
ENDBRANCH  76  89
ENDBRANCH  50  51
ENDBRANCH  43  45
ENDBRANCH  42  43
ENDBRANCH  41  42
ENDBRANCH  40  41
ENDBRANCH  39  40
ENDBRANCH  38  39
ENDBRANCH  37  38
ENDBRANCH  36  37
ENDBRANCH   1  36
TORSDOF 25
ENDMDL
MODEL 2
REMARK VINA RESULT:      -9.3      2.387      5.918
REMARK SMILES O=C(CNC(=O)N1CC(OCCOCCOCCOCCOC(=O)c2ccc(-c3c4nc(c(-c5ccccc5)c5ccc([nH]5)c(-c5ccccc5)c5nc(c(-c6ccccc6)c6ccc3[nH]6)C=C5)C=C4)cc2)=Nc2ccccc21)N[C@H](C(=O)[O-])c1ccccc1
REMARK SMILES IDX 15 1 14 2 13 3 12 4 11 5 10 6 9 7 7 8 8 9 79 10 74 11 78 12
REMARK SMILES IDX 73 13 75 14 77 15 76 16 5 17 4 18 6 20 3 21 2 22 1 23 80 24
REMARK SMILES IDX 81 26 85 27 86 28 90 29 87 30 89 31 88 32 82 33 83 34 84 35
REMARK SMILES IDX 16 36 17 37 18 38 19 39 20 40 21 41 22 42 23 43 24 44 25 45
REMARK SMILES IDX 26 46 72 47 27 48 71 49 28 50 29 51 30 52 65 53 31 54 70 55
REMARK SMILES IDX 64 56 66 57 32 58 69 59 63 60 62 61 33 63 55 64 40 65 54 66
REMARK SMILES IDX 41 67 44 68 53 69 67 70 42 71 43 72 52 74 68 75 45 76 34 77
REMARK SMILES IDX 35 78 39 79 36 80 38 81 37 82 56 83 57 84 61 85 58 86 60 87
REMARK SMILES IDX 59 88 46 89 47 90 51 91 48 92 50 93 49 94
REMARK H PARENT 4 19 80 25 66 62 44 73
REMARK Flexibility Score: inf
ROOT
ATOM      1  C   UNL A   1      41.733  22.271  27.553  1.00  0.00     0.188 C 
ENDROOT
BRANCH   1   2
ATOM      2  C   UNL A   1      40.298  22.292  27.019  1.00  0.00     0.188 C 
BRANCH   2   3
ATOM      3  O   UNL A   1      39.698  23.504  26.570  1.00  0.00    -0.376 OA
BRANCH   3   4
ATOM      4  C   UNL A   1      38.327  23.585  26.236  1.00  0.00     0.201 C 
BRANCH   4   5
ATOM      5  C   UNL A   1      37.579  22.401  25.591  1.00  0.00     0.259 C 
BRANCH   5   6
ATOM      6  O   UNL A   1      36.176  22.268  25.866  1.00  0.00    -0.477 OA
BRANCH   6   7
ATOM      7  C   UNL A   1      35.496  21.412  25.063  1.00  0.00     0.209 C 
ATOM      8  N   UNL A   1      33.241  21.302  24.105  1.00  0.00    -0.283 N 
ATOM      9  C   UNL A   1      34.476  22.093  24.184  1.00  0.00     0.224 C 
ATOM     10  C   UNL A   1      33.449  19.884  24.042  1.00  0.00     0.072 A 
ATOM     11  C   UNL A   1      34.668  19.348  24.536  1.00  0.00     0.091 A 
ATOM     12  C   UNL A   1      32.504  19.006  23.516  1.00  0.00     0.029 A 
ATOM     13  N   UNL A   1      35.676  20.136  25.118  1.00  0.00    -0.214 NA
ATOM     14  C   UNL A   1      34.830  17.965  24.649  1.00  0.00     0.030 A 
ATOM     15  C   UNL A   1      32.677  17.623  23.637  1.00  0.00     0.002 A 
ATOM     16  C   UNL A   1      33.825  17.102  24.229  1.00  0.00     0.002 A 
BRANCH   8  17
ATOM     17  C   UNL A   1      32.081  22.022  23.968  1.00  0.00     0.322 C 
ATOM     18  N   UNL A   1      31.477  22.666  24.988  1.00  0.00    -0.329 N 
ATOM     19  H   UNL A   1      30.564  22.960  24.766  1.00  0.00     0.165 HD
ATOM     20  O   UNL A   1      31.581  22.206  22.852  1.00  0.00    -0.248 OA
BRANCH  18  21
ATOM     21  C   UNL A   1      31.872  23.025  26.352  1.00  0.00     0.218 C 
BRANCH  21  22
ATOM     22  C   UNL A   1      32.493  24.436  26.389  1.00  0.00     0.240 C 
ATOM     23  O   UNL A   1      33.704  24.607  26.274  1.00  0.00    -0.273 OA
ATOM     24  N   UNL A   1      31.575  25.438  26.607  1.00  0.00    -0.342 N 
ATOM     25  H   UNL A   1      30.726  25.206  27.049  1.00  0.00     0.164 HD
BRANCH  24  26
ATOM     26  C   UNL A   1      31.803  26.848  26.210  1.00  0.00     0.158 C 
BRANCH  26  27
ATOM     27  C   UNL A   1      30.928  27.319  25.066  1.00  0.00    -0.020 A 
ATOM     28  C   UNL A   1      29.871  26.553  24.571  1.00  0.00     0.006 A 
ATOM     29  C   UNL A   1      31.155  28.594  24.508  1.00  0.00     0.006 A 
ATOM     30  C   UNL A   1      29.080  27.038  23.523  1.00  0.00     0.000 A 
ATOM     31  C   UNL A   1      30.368  29.077  23.464  1.00  0.00     0.000 A 
ATOM     32  C   UNL A   1      29.332  28.294  22.967  1.00  0.00     0.000 A 
ENDBRANCH  26  27
BRANCH  26  33
ATOM     33  C   UNL A   1      32.123  27.886  27.346  1.00  0.00     0.068 C 
ATOM     34  O   UNL A   1      33.324  28.266  27.461  1.00  0.00    -0.548 OA
ATOM     35  O   UNL A   1      31.147  28.126  28.131  1.00  0.00    -0.548 OA
ENDBRANCH  26  33
ENDBRANCH  24  26
ENDBRANCH  21  22
ENDBRANCH  18  21
ENDBRANCH   8  17
ENDBRANCH   6   7
ENDBRANCH   5   6
ENDBRANCH   4   5
ENDBRANCH   3   4
ENDBRANCH   2   3
ENDBRANCH   1   2
BRANCH   1  36
ATOM     36  O   UNL A   1      42.564  21.229  27.060  1.00  0.00    -0.377 OA
BRANCH  36  37
ATOM     37  C   UNL A   1      41.960  20.342  26.134  1.00  0.00     0.188 C 
BRANCH  37  38
ATOM     38  C   UNL A   1      42.497  18.901  26.147  1.00  0.00     0.188 C 
BRANCH  38  39
ATOM     39  O   UNL A   1      43.863  18.758  25.806  1.00  0.00    -0.376 OA
BRANCH  39  40
ATOM     40  C   UNL A   1      44.164  18.838  24.406  1.00  0.00     0.202 C 
BRANCH  40  41
ATOM     41  C   UNL A   1      45.384  19.680  24.035  1.00  0.00     0.261 C 
BRANCH  41  42
ATOM     42  O   UNL A   1      45.593  20.833  24.863  1.00  0.00    -0.460 OA
BRANCH  42  43
ATOM     43  C   UNL A   1      45.238  22.013  24.327  1.00  0.00     0.338 C 
ATOM     44  O   UNL A   1      44.521  22.235  23.372  1.00  0.00    -0.246 OA
BRANCH  43  45
ATOM     45  C   UNL A   1      45.632  23.039  25.297  1.00  0.00     0.060 A 
ATOM     46  C   UNL A   1      45.482  22.698  26.644  1.00  0.00     0.016 A 
ATOM     47  C   UNL A   1      46.130  24.286  24.909  1.00  0.00     0.016 A 
ATOM     48  C   UNL A   1      45.788  23.628  27.620  1.00  0.00     0.010 A 
ATOM     49  C   UNL A   1      46.412  25.235  25.895  1.00  0.00     0.010 A 
ATOM     50  C   UNL A   1      46.196  24.915  27.245  1.00  0.00    -0.014 A 
BRANCH  50  51
ATOM     51  C   UNL A   1      46.137  25.953  28.292  1.00  0.00     0.031 A 
ATOM     52  C   UNL A   1      44.806  26.590  28.562  1.00  0.00     0.074 A 
ATOM     53  C   UNL A   1      47.200  26.175  29.082  1.00  0.00     0.049 A 
ATOM     54  N   UNL A   1      44.443  27.363  29.553  1.00  0.00    -0.248 NA
ATOM     55  C   UNL A   1      43.730  26.301  27.597  1.00  0.00     0.031 C 
ATOM     56  C   UNL A   1      48.514  25.553  28.927  1.00  0.00     0.029 A 
ATOM     57  N   UNL A   1      47.323  26.956  30.200  1.00  0.00    -0.354 N 
ATOM     58  C   UNL A   1      43.097  27.636  29.335  1.00  0.00     0.074 A 
ATOM     59  C   UNL A   1      42.717  26.983  28.104  1.00  0.00     0.031 C 
ATOM     60  C   UNL A   1      49.309  25.960  29.931  1.00  0.00     0.029 A 
ATOM     61  C   UNL A   1      48.560  26.877  30.789  1.00  0.00     0.049 A 
ATOM     62  H   UNL A   1      46.594  27.520  30.549  1.00  0.00     0.167 HD
ATOM     63  C   UNL A   1      42.252  28.359  30.105  1.00  0.00     0.031 A 
ATOM     64  C   UNL A   1      49.022  27.471  31.903  1.00  0.00     0.031 A 
ATOM     65  C   UNL A   1      42.653  29.026  31.312  1.00  0.00     0.049 A 
ATOM     66  C   UNL A   1      48.079  28.323  32.708  1.00  0.00     0.074 A 
ATOM     67  C   UNL A   1      41.898  29.814  32.160  1.00  0.00     0.029 A 
ATOM     68  N   UNL A   1      43.938  28.983  31.835  1.00  0.00    -0.354 N 
ATOM     69  N   UNL A   1      46.805  28.567  32.503  1.00  0.00    -0.248 NA
ATOM     70  C   UNL A   1      48.630  28.966  33.907  1.00  0.00     0.031 C 
ATOM     71  C   UNL A   1      42.739  30.287  33.173  1.00  0.00     0.029 A 
ATOM     72  C   UNL A   1      44.004  29.746  32.987  1.00  0.00     0.049 A 
ATOM     73  H   UNL A   1      44.691  28.484  31.445  1.00  0.00     0.167 HD
ATOM     74  C   UNL A   1      46.397  29.371  33.558  1.00  0.00     0.074 A 
ATOM     75  C   UNL A   1      47.555  29.554  34.412  1.00  0.00     0.031 C 
ATOM     76  C   UNL A   1      45.178  29.911  33.806  1.00  0.00     0.031 A 
BRANCH  63  77
ATOM     77  C   UNL A   1      40.834  28.493  29.624  1.00  0.00    -0.014 A 
ATOM     78  C   UNL A   1      40.487  29.408  28.616  1.00  0.00     0.009 A 
ATOM     79  C   UNL A   1      39.826  27.706  30.202  1.00  0.00     0.009 A 
ATOM     80  C   UNL A   1      39.154  29.556  28.223  1.00  0.00     0.001 A 
ATOM     81  C   UNL A   1      38.499  27.838  29.789  1.00  0.00     0.001 A 
ATOM     82  C   UNL A   1      38.163  28.769  28.807  1.00  0.00     0.000 A 
ENDBRANCH  63  77
BRANCH  64  83
ATOM     83  C   UNL A   1      50.435  27.275  32.322  1.00  0.00    -0.014 A 
ATOM     84  C   UNL A   1      50.798  26.230  33.184  1.00  0.00     0.009 A 
ATOM     85  C   UNL A   1      51.436  28.144  31.856  1.00  0.00     0.009 A 
ATOM     86  C   UNL A   1      52.127  26.073  33.589  1.00  0.00     0.001 A 
ATOM     87  C   UNL A   1      52.767  27.969  32.240  1.00  0.00     0.001 A 
ATOM     88  C   UNL A   1      53.111  26.939  33.112  1.00  0.00     0.000 A 
ENDBRANCH  64  83
BRANCH  76  89
ATOM     89  C   UNL A   1      45.040  30.722  35.061  1.00  0.00    -0.014 A 
ATOM     90  C   UNL A   1      44.618  30.136  36.265  1.00  0.00     0.009 A 
ATOM     91  C   UNL A   1      45.365  32.087  35.042  1.00  0.00     0.009 A 
ATOM     92  C   UNL A   1      44.482  30.914  37.415  1.00  0.00     0.001 A 
ATOM     93  C   UNL A   1      45.257  32.855  36.202  1.00  0.00     0.001 A 
ATOM     94  C   UNL A   1      44.803  32.270  37.383  1.00  0.00     0.000 A 
ENDBRANCH  76  89
ENDBRANCH  50  51
ENDBRANCH  43  45
ENDBRANCH  42  43
ENDBRANCH  41  42
ENDBRANCH  40  41
ENDBRANCH  39  40
ENDBRANCH  38  39
ENDBRANCH  37  38
ENDBRANCH  36  37
ENDBRANCH   1  36
TORSDOF 25
ENDMDL
MODEL 3
REMARK VINA RESULT:      -9.0      1.769      2.380
REMARK SMILES O=C(CNC(=O)N1CC(OCCOCCOCCOCCOC(=O)c2ccc(-c3c4nc(c(-c5ccccc5)c5ccc([nH]5)c(-c5ccccc5)c5nc(c(-c6ccccc6)c6ccc3[nH]6)C=C5)C=C4)cc2)=Nc2ccccc21)N[C@H](C(=O)[O-])c1ccccc1
REMARK SMILES IDX 15 1 14 2 13 3 12 4 11 5 10 6 9 7 7 8 8 9 79 10 74 11 78 12
REMARK SMILES IDX 73 13 75 14 77 15 76 16 5 17 4 18 6 20 3 21 2 22 1 23 80 24
REMARK SMILES IDX 81 26 85 27 86 28 90 29 87 30 89 31 88 32 82 33 83 34 84 35
REMARK SMILES IDX 16 36 17 37 18 38 19 39 20 40 21 41 22 42 23 43 24 44 25 45
REMARK SMILES IDX 26 46 72 47 27 48 71 49 28 50 29 51 30 52 65 53 31 54 70 55
REMARK SMILES IDX 64 56 66 57 32 58 69 59 63 60 62 61 33 63 55 64 40 65 54 66
REMARK SMILES IDX 41 67 44 68 53 69 67 70 42 71 43 72 52 74 68 75 45 76 34 77
REMARK SMILES IDX 35 78 39 79 36 80 38 81 37 82 56 83 57 84 61 85 58 86 60 87
REMARK SMILES IDX 59 88 46 89 47 90 51 91 48 92 50 93 49 94
REMARK H PARENT 4 19 80 25 66 62 44 73
REMARK Flexibility Score: inf
ROOT
ATOM      1  C   UNL A   1      41.347  22.979  27.385  1.00  0.00     0.188 C 
ENDROOT
BRANCH   1   2
ATOM      2  C   UNL A   1      39.900  22.954  26.889  1.00  0.00     0.188 C 
BRANCH   2   3
ATOM      3  O   UNL A   1      39.007  24.030  27.170  1.00  0.00    -0.376 OA
BRANCH   3   4
ATOM      4  C   UNL A   1      37.773  24.177  26.497  1.00  0.00     0.201 C 
BRANCH   4   5
ATOM      5  C   UNL A   1      37.119  23.005  25.738  1.00  0.00     0.259 C 
BRANCH   5   6
ATOM      6  O   UNL A   1      35.693  22.864  25.831  1.00  0.00    -0.477 OA
BRANCH   6   7
ATOM      7  C   UNL A   1      35.143  21.904  25.047  1.00  0.00     0.209 C 
ATOM      8  N   UNL A   1      33.001  21.571  23.899  1.00  0.00    -0.283 N 
ATOM      9  C   UNL A   1      34.176  22.445  24.023  1.00  0.00     0.224 C 
ATOM     10  C   UNL A   1      33.294  20.170  23.978  1.00  0.00     0.072 A 
ATOM     11  C   UNL A   1      34.488  19.755  24.626  1.00  0.00     0.091 A 
ATOM     12  C   UNL A   1      32.455  19.192  23.447  1.00  0.00     0.029 A 
ATOM     13  N   UNL A   1      35.390  20.650  25.228  1.00  0.00    -0.214 NA
ATOM     14  C   UNL A   1      34.717  18.399  24.873  1.00  0.00     0.030 A 
ATOM     15  C   UNL A   1      32.694  17.838  23.702  1.00  0.00     0.002 A 
ATOM     16  C   UNL A   1      33.808  17.442  24.438  1.00  0.00     0.002 A 
BRANCH   8  17
ATOM     17  C   UNL A   1      31.820  22.202  23.596  1.00  0.00     0.322 C 
ATOM     18  N   UNL A   1      31.110  22.925  24.485  1.00  0.00    -0.329 N 
ATOM     19  H   UNL A   1      30.203  23.138  24.166  1.00  0.00     0.165 HD
ATOM     20  O   UNL A   1      31.399  22.224  22.433  1.00  0.00    -0.248 OA
BRANCH  18  21
ATOM     21  C   UNL A   1      31.381  23.464  25.819  1.00  0.00     0.218 C 
BRANCH  21  22
ATOM     22  C   UNL A   1      31.003  24.957  25.894  1.00  0.00     0.240 C 
ATOM     23  O   UNL A   1      31.277  25.641  26.876  1.00  0.00    -0.273 OA
ATOM     24  N   UNL A   1      30.306  25.405  24.794  1.00  0.00    -0.342 N 
ATOM     25  H   UNL A   1      29.815  24.747  24.251  1.00  0.00     0.164 HD
BRANCH  24  26
ATOM     26  C   UNL A   1      30.259  26.832  24.390  1.00  0.00     0.158 C 
BRANCH  26  27
ATOM     27  C   UNL A   1      31.585  27.383  23.909  1.00  0.00    -0.020 A 
ATOM     28  C   UNL A   1      32.191  26.948  22.728  1.00  0.00     0.006 A 
ATOM     29  C   UNL A   1      32.214  28.405  24.651  1.00  0.00     0.006 A 
ATOM     30  C   UNL A   1      33.409  27.500  22.317  1.00  0.00     0.000 A 
ATOM     31  C   UNL A   1      33.427  28.954  24.242  1.00  0.00     0.000 A 
ATOM     32  C   UNL A   1      34.029  28.495  23.076  1.00  0.00     0.000 A 
ENDBRANCH  26  27
BRANCH  26  33
ATOM     33  C   UNL A   1      28.960  27.345  23.666  1.00  0.00     0.068 C 
ATOM     34  O   UNL A   1      29.029  28.463  23.080  1.00  0.00    -0.548 OA
ATOM     35  O   UNL A   1      27.924  26.631  23.876  1.00  0.00    -0.548 OA
ENDBRANCH  26  33
ENDBRANCH  24  26
ENDBRANCH  21  22
ENDBRANCH  18  21
ENDBRANCH   8  17
ENDBRANCH   6   7
ENDBRANCH   5   6
ENDBRANCH   4   5
ENDBRANCH   3   4
ENDBRANCH   2   3
ENDBRANCH   1   2
BRANCH   1  36
ATOM     36  O   UNL A   1      42.161  21.884  26.985  1.00  0.00    -0.377 OA
BRANCH  36  37
ATOM     37  C   UNL A   1      41.468  20.709  26.600  1.00  0.00     0.188 C 
BRANCH  37  38
ATOM     38  C   UNL A   1      41.505  19.555  27.615  1.00  0.00     0.188 C 
BRANCH  38  39
ATOM     39  O   UNL A   1      42.690  18.780  27.613  1.00  0.00    -0.376 OA
BRANCH  39  40
ATOM     40  C   UNL A   1      42.882  17.945  26.463  1.00  0.00     0.202 C 
BRANCH  40  41
ATOM     41  C   UNL A   1      43.991  18.378  25.504  1.00  0.00     0.261 C 
BRANCH  41  42
ATOM     42  O   UNL A   1      44.371  19.758  25.611  1.00  0.00    -0.460 OA
BRANCH  42  43
ATOM     43  C   UNL A   1      44.676  20.374  24.456  1.00  0.00     0.338 C 
ATOM     44  O   UNL A   1      44.528  19.980  23.316  1.00  0.00    -0.246 OA
BRANCH  43  45
ATOM     45  C   UNL A   1      44.952  21.772  24.797  1.00  0.00     0.060 A 
ATOM     46  C   UNL A   1      45.932  21.983  25.771  1.00  0.00     0.016 A 
ATOM     47  C   UNL A   1      44.284  22.839  24.190  1.00  0.00     0.016 A 
ATOM     48  C   UNL A   1      46.219  23.271  26.182  1.00  0.00     0.010 A 
ATOM     49  C   UNL A   1      44.554  24.139  24.625  1.00  0.00     0.010 A 
ATOM     50  C   UNL A   1      45.490  24.344  25.653  1.00  0.00    -0.014 A 
BRANCH  50  51
ATOM     51  C   UNL A   1      45.570  25.619  26.390  1.00  0.00     0.031 A 
ATOM     52  C   UNL A   1      46.895  26.325  26.410  1.00  0.00     0.074 A 
ATOM     53  C   UNL A   1      44.455  26.197  26.863  1.00  0.00     0.049 A 
ATOM     54  N   UNL A   1      47.180  27.540  26.801  1.00  0.00    -0.248 NA
ATOM     55  C   UNL A   1      48.052  25.566  25.903  1.00  0.00     0.031 C 
ATOM     56  C   UNL A   1      43.118  25.607  26.830  1.00  0.00     0.029 A 
ATOM     57  N   UNL A   1      44.269  27.432  27.424  1.00  0.00    -0.354 N 
ATOM     58  C   UNL A   1      48.543  27.692  26.569  1.00  0.00     0.074 A 
ATOM     59  C   UNL A   1      49.035  26.440  26.044  1.00  0.00     0.031 C 
ATOM     60  C   UNL A   1      42.239  26.493  27.330  1.00  0.00     0.029 A 
ATOM     61  C   UNL A   1      42.957  27.703  27.726  1.00  0.00     0.049 A 
ATOM     62  H   UNL A   1      45.004  28.065  27.596  1.00  0.00     0.167 HD
ATOM     63  C   UNL A   1      49.310  28.788  26.766  1.00  0.00     0.031 A 
ATOM     64  C   UNL A   1      42.406  28.813  28.249  1.00  0.00     0.031 A 
ATOM     65  C   UNL A   1      48.810  30.017  27.317  1.00  0.00     0.049 A 
ATOM     66  C   UNL A   1      43.294  29.997  28.520  1.00  0.00     0.074 A 
ATOM     67  C   UNL A   1      49.496  31.185  27.594  1.00  0.00     0.029 A 
ATOM     68  N   UNL A   1      47.488  30.227  27.680  1.00  0.00    -0.354 N 
ATOM     69  N   UNL A   1      44.579  30.138  28.288  1.00  0.00    -0.248 NA
ATOM     70  C   UNL A   1      42.654  31.181  29.106  1.00  0.00     0.031 C 
ATOM     71  C   UNL A   1      48.595  32.087  28.171  1.00  0.00     0.029 A 
ATOM     72  C   UNL A   1      47.337  31.500  28.198  1.00  0.00     0.049 A 
ATOM     73  H   UNL A   1      46.764  29.567  27.584  1.00  0.00     0.167 HD
ATOM     74  C   UNL A   1      44.896  31.432  28.677  1.00  0.00     0.074 A 
ATOM     75  C   UNL A   1      43.663  32.040  29.140  1.00  0.00     0.031 C 
ATOM     76  C   UNL A   1      46.094  32.067  28.656  1.00  0.00     0.031 A 
BRANCH  63  77
ATOM     77  C   UNL A   1      50.770  28.671  26.427  1.00  0.00    -0.014 A 
ATOM     78  C   UNL A   1      51.717  28.289  27.392  1.00  0.00     0.009 A 
ATOM     79  C   UNL A   1      51.208  28.966  25.127  1.00  0.00     0.009 A 
ATOM     80  C   UNL A   1      53.076  28.241  27.070  1.00  0.00     0.001 A 
ATOM     81  C   UNL A   1      52.563  28.891  24.801  1.00  0.00     0.001 A 
ATOM     82  C   UNL A   1      53.497  28.538  25.775  1.00  0.00     0.000 A 
ENDBRANCH  63  77
BRANCH  64  83
ATOM     83  C   UNL A   1      40.950  28.856  28.540  1.00  0.00    -0.014 A 
ATOM     84  C   UNL A   1      40.027  29.272  27.570  1.00  0.00     0.009 A 
ATOM     85  C   UNL A   1      40.472  28.478  29.807  1.00  0.00     0.009 A 
ATOM     86  C   UNL A   1      38.662  29.331  27.867  1.00  0.00     0.001 A 
ATOM     87  C   UNL A   1      39.107  28.511  30.093  1.00  0.00     0.001 A 
ATOM     88  C   UNL A   1      38.202  28.946  29.126  1.00  0.00     0.000 A 
ENDBRANCH  64  83
BRANCH  76  89
ATOM     89  C   UNL A   1      46.111  33.494  29.121  1.00  0.00    -0.014 A 
ATOM     90  C   UNL A   1      45.880  34.554  28.230  1.00  0.00     0.009 A 
ATOM     91  C   UNL A   1      46.336  33.777  30.477  1.00  0.00     0.009 A 
ATOM     92  C   UNL A   1      45.918  35.873  28.683  1.00  0.00     0.001 A 
ATOM     93  C   UNL A   1      46.342  35.096  30.932  1.00  0.00     0.001 A 
ATOM     94  C   UNL A   1      46.146  36.142  30.032  1.00  0.00     0.000 A 
ENDBRANCH  76  89
ENDBRANCH  50  51
ENDBRANCH  43  45
ENDBRANCH  42  43
ENDBRANCH  41  42
ENDBRANCH  40  41
ENDBRANCH  39  40
ENDBRANCH  38  39
ENDBRANCH  37  38
ENDBRANCH  36  37
ENDBRANCH   1  36
TORSDOF 25
ENDMDL
