MODEL 1
REMARK VINA RESULT:      -8.4      0.000      0.000
REMARK SMILES O=C(OCCOCCOCCOCCOC(=O)[C@H]1CC2(CC[NH+](S(=O)(=O)N3CCOCC3)CC2)C[NH2+]1)c1ccc(-c2c3nc(c(-c4ccccc4)c4ccc([nH]4)c(-c4ccccc4)c4nc(c(-c5ccccc5)c5ccc2[nH]5)C=C4)C=C3)cc1
REMARK SMILES IDX 9 1 8 2 7 3 6 4 5 5 4 6 3 7 2 8 1 9 37 10 38 11 84 12 39 13
REMARK SMILES IDX 83 14 40 15 41 16 42 17 77 18 43 19 82 20 76 21 78 22 44 23
REMARK SMILES IDX 81 24 75 25 74 26 45 28 67 29 52 30 66 31 53 32 56 33 65 34
REMARK SMILES IDX 79 35 54 36 55 37 64 39 80 40 57 41 46 42 47 43 51 44 48 45
REMARK SMILES IDX 50 46 49 47 68 48 69 49 73 50 70 51 72 52 71 53 58 54 59 55
REMARK SMILES IDX 63 56 60 57 62 58 61 59 10 60 11 61 12 62 13 63 14 64 15 65
REMARK SMILES IDX 16 66 17 67 18 68 19 69 36 70 20 71 35 72 21 75 34 76 22 77
REMARK SMILES IDX 33 78 23 79 24 81 25 82 26 83 27 84 28 85 32 86 29 87 31 88
REMARK SMILES IDX 30 89
REMARK H PARENT 78 27 56 38 36 73 36 74 23 80
REMARK Flexibility Score: inf
ROOT
ATOM      1  O   UNL A   1      32.904  34.335  28.247  1.00  0.00    -0.377 OA
ENDROOT
BRANCH   1   2
ATOM      2  C   UNL A   1      33.405  35.606  28.631  1.00  0.00     0.188 C 
BRANCH   2   3
ATOM      3  C   UNL A   1      32.866  36.145  29.956  1.00  0.00     0.188 C 
BRANCH   3   4
ATOM      4  O   UNL A   1      33.584  35.630  31.078  1.00  0.00    -0.376 OA
BRANCH   4   5
ATOM      5  C   UNL A   1      33.075  35.910  32.383  1.00  0.00     0.202 C 
BRANCH   5   6
ATOM      6  C   UNL A   1      34.075  36.498  33.374  1.00  0.00     0.261 C 
BRANCH   6   7
ATOM      7  O   UNL A   1      35.399  35.951  33.284  1.00  0.00    -0.460 OA
BRANCH   7   8
ATOM      8  C   UNL A   1      35.888  34.773  33.738  1.00  0.00     0.338 C 
ATOM      9  O   UNL A   1      35.291  34.215  34.658  1.00  0.00    -0.246 OA
BRANCH   8  10
ATOM     10  C   UNL A   1      37.114  34.102  33.210  1.00  0.00     0.060 A 
ATOM     11  C   UNL A   1      37.156  33.238  32.120  1.00  0.00     0.016 A 
ATOM     12  C   UNL A   1      38.334  34.429  33.822  1.00  0.00     0.016 A 
ATOM     13  C   UNL A   1      38.324  32.655  31.681  1.00  0.00     0.010 A 
ATOM     14  C   UNL A   1      39.533  33.858  33.387  1.00  0.00     0.010 A 
ATOM     15  C   UNL A   1      39.511  32.938  32.334  1.00  0.00    -0.014 A 
BRANCH  15  16
ATOM     16  C   UNL A   1      40.625  32.037  32.032  1.00  0.00     0.031 A 
ATOM     17  C   UNL A   1      41.608  32.503  31.003  1.00  0.00     0.074 A 
ATOM     18  C   UNL A   1      40.858  30.980  32.827  1.00  0.00     0.049 A 
ATOM     19  N   UNL A   1      42.660  31.899  30.530  1.00  0.00    -0.248 NA
ATOM     20  C   UNL A   1      41.383  33.851  30.444  1.00  0.00     0.031 C 
ATOM     21  C   UNL A   1      40.054  30.606  33.997  1.00  0.00     0.029 A 
ATOM     22  N   UNL A   1      41.866  30.061  32.807  1.00  0.00    -0.354 N 
ATOM     23  C   UNL A   1      43.188  32.768  29.584  1.00  0.00     0.074 A 
ATOM     24  C   UNL A   1      42.351  33.941  29.548  1.00  0.00     0.031 C 
ATOM     25  C   UNL A   1      40.617  29.541  34.590  1.00  0.00     0.029 A 
ATOM     26  C   UNL A   1      41.758  29.113  33.793  1.00  0.00     0.049 A 
ATOM     27  H   UNL A   1      42.600  30.077  32.150  1.00  0.00     0.167 HD
ATOM     28  C   UNL A   1      44.275  32.579  28.805  1.00  0.00     0.031 A 
ATOM     29  C   UNL A   1      42.484  27.998  33.982  1.00  0.00     0.031 A 
ATOM     30  C   UNL A   1      45.069  31.385  28.875  1.00  0.00     0.049 A 
ATOM     31  C   UNL A   1      43.593  27.733  33.002  1.00  0.00     0.074 A 
ATOM     32  C   UNL A   1      46.140  31.006  28.093  1.00  0.00     0.029 A 
ATOM     33  N   UNL A   1      44.859  30.370  29.802  1.00  0.00    -0.354 N 
ATOM     34  N   UNL A   1      44.031  28.496  32.025  1.00  0.00    -0.248 NA
ATOM     35  C   UNL A   1      44.296  26.454  33.133  1.00  0.00     0.031 C 
ATOM     36  C   UNL A   1      46.537  29.730  28.508  1.00  0.00     0.029 A 
ATOM     37  C   UNL A   1      45.764  29.349  29.597  1.00  0.00     0.049 A 
ATOM     38  H   UNL A   1      44.166  30.378  30.502  1.00  0.00     0.167 HD
ATOM     39  C   UNL A   1      45.079  27.802  31.440  1.00  0.00     0.074 A 
ATOM     40  C   UNL A   1      45.220  26.566  32.190  1.00  0.00     0.031 C 
ATOM     41  C   UNL A   1      45.857  28.142  30.381  1.00  0.00     0.031 A 
BRANCH  28  42
ATOM     42  C   UNL A   1      44.555  33.623  27.764  1.00  0.00    -0.014 A 
ATOM     43  C   UNL A   1      44.075  33.516  26.448  1.00  0.00     0.009 A 
ATOM     44  C   UNL A   1      45.388  34.704  28.093  1.00  0.00     0.009 A 
ATOM     45  C   UNL A   1      44.462  34.444  25.476  1.00  0.00     0.001 A 
ATOM     46  C   UNL A   1      45.746  35.647  27.130  1.00  0.00     0.001 A 
ATOM     47  C   UNL A   1      45.295  35.509  25.819  1.00  0.00     0.000 A 
ENDBRANCH  28  42
BRANCH  29  48
ATOM     48  C   UNL A   1      42.136  27.034  35.059  1.00  0.00    -0.014 A 
ATOM     49  C   UNL A   1      41.471  25.833  34.770  1.00  0.00     0.009 A 
ATOM     50  C   UNL A   1      42.446  27.324  36.399  1.00  0.00     0.009 A 
ATOM     51  C   UNL A   1      41.099  24.963  35.800  1.00  0.00     0.001 A 
ATOM     52  C   UNL A   1      42.103  26.438  37.423  1.00  0.00     0.001 A 
ATOM     53  C   UNL A   1      41.418  25.264  37.124  1.00  0.00     0.000 A 
ENDBRANCH  29  48
BRANCH  41  54
ATOM     54  C   UNL A   1      46.954  27.184  30.023  1.00  0.00    -0.014 A 
ATOM     55  C   UNL A   1      46.778  26.208  29.031  1.00  0.00     0.009 A 
ATOM     56  C   UNL A   1      48.199  27.303  30.660  1.00  0.00     0.009 A 
ATOM     57  C   UNL A   1      47.823  25.341  28.712  1.00  0.00     0.001 A 
ATOM     58  C   UNL A   1      49.252  26.461  30.310  1.00  0.00     0.001 A 
ATOM     59  C   UNL A   1      49.060  25.473  29.344  1.00  0.00     0.000 A 
ENDBRANCH  41  54
ENDBRANCH  15  16
ENDBRANCH   8  10
ENDBRANCH   7   8
ENDBRANCH   6   7
ENDBRANCH   5   6
ENDBRANCH   4   5
ENDBRANCH   3   4
ENDBRANCH   2   3
ENDBRANCH   1   2
BRANCH   1  60
ATOM     60  C   UNL A   1      33.878  33.316  28.072  1.00  0.00     0.188 C 
BRANCH  60  61
ATOM     61  C   UNL A   1      35.120  33.292  28.988  1.00  0.00     0.188 C 
BRANCH  61  62
ATOM     62  O   UNL A   1      36.155  32.463  28.506  1.00  0.00    -0.376 OA
BRANCH  62  63
ATOM     63  C   UNL A   1      35.820  31.099  28.293  1.00  0.00     0.202 C 
BRANCH  63  64
ATOM     64  C   UNL A   1      36.882  30.024  27.942  1.00  0.00     0.261 C 
BRANCH  64  65
ATOM     65  O   UNL A   1      38.236  30.210  28.399  1.00  0.00    -0.459 OA
BRANCH  65  66
ATOM     66  C   UNL A   1      38.663  29.600  29.534  1.00  0.00     0.364 C 
ATOM     67  O   UNL A   1      37.996  29.534  30.561  1.00  0.00    -0.245 OA
BRANCH  66  68
ATOM     68  C   UNL A   1      40.031  28.885  29.380  1.00  0.00     0.294 C 
ATOM     69  C   UNL A   1      39.948  27.721  28.390  1.00  0.00     0.090 C 
ATOM     70  N   UNL A   1      41.106  29.705  28.800  1.00  0.00    -0.334 N 
ATOM     71  C   UNL A   1      41.395  27.497  27.893  1.00  0.00     0.036 C 
ATOM     72  C   UNL A   1      42.122  28.810  28.257  1.00  0.00     0.268 C 
ATOM     73  H   UNL A   1      41.517  30.296  29.523  1.00  0.00     0.347 HD
ATOM     74  H   UNL A   1      40.733  30.302  28.062  1.00  0.00     0.347 HD
ATOM     75  C   UNL A   1      41.458  27.253  26.363  1.00  0.00     0.076 C 
ATOM     76  C   UNL A   1      42.006  26.302  28.661  1.00  0.00     0.076 C 
ATOM     77  C   UNL A   1      41.015  25.854  25.966  1.00  0.00     0.280 C 
ATOM     78  C   UNL A   1      41.496  24.949  28.155  1.00  0.00     0.280 C 
ATOM     79  N   UNL A   1      41.755  24.804  26.695  1.00  0.00    -0.215 N 
ATOM     80  H   UNL A   1      41.358  23.941  26.325  1.00  0.00     0.367 HD
BRANCH  79  81
ATOM     81  S   UNL A   1      43.377  24.468  26.314  1.00  0.00     0.371 S 
ATOM     82  O   UNL A   1      43.921  25.571  25.573  1.00  0.00    -0.157 OA
ATOM     83  O   UNL A   1      43.998  24.024  27.550  1.00  0.00    -0.157 OA
BRANCH  81  84
ATOM     84  N   UNL A   1      43.272  23.155  25.322  1.00  0.00    -0.151 NA
ATOM     85  C   UNL A   1      44.117  23.016  24.130  1.00  0.00     0.136 C 
ATOM     86  C   UNL A   1      42.526  21.934  25.663  1.00  0.00     0.136 C 
ATOM     87  C   UNL A   1      45.081  21.859  24.370  1.00  0.00     0.177 C 
ATOM     88  C   UNL A   1      43.455  20.712  25.704  1.00  0.00     0.177 C 
ATOM     89  O   UNL A   1      44.363  20.632  24.596  1.00  0.00    -0.379 OA
ENDBRANCH  81  84
ENDBRANCH  79  81
ENDBRANCH  66  68
ENDBRANCH  65  66
ENDBRANCH  64  65
ENDBRANCH  63  64
ENDBRANCH  62  63
ENDBRANCH  61  62
ENDBRANCH  60  61
ENDBRANCH   1  60
TORSDOF 22
ENDMDL
MODEL 2
REMARK VINA RESULT:      -7.2      7.762     11.602
REMARK SMILES O=C(OCCOCCOCCOCCOC(=O)[C@H]1CC2(CC[NH+](S(=O)(=O)N3CCOCC3)CC2)C[NH2+]1)c1ccc(-c2c3nc(c(-c4ccccc4)c4ccc([nH]4)c(-c4ccccc4)c4nc(c(-c5ccccc5)c5ccc2[nH]5)C=C4)C=C3)cc1
REMARK SMILES IDX 9 1 8 2 7 3 6 4 5 5 4 6 3 7 2 8 1 9 37 10 38 11 84 12 39 13
REMARK SMILES IDX 83 14 40 15 41 16 42 17 77 18 43 19 82 20 76 21 78 22 44 23
REMARK SMILES IDX 81 24 75 25 74 26 45 28 67 29 52 30 66 31 53 32 56 33 65 34
REMARK SMILES IDX 79 35 54 36 55 37 64 39 80 40 57 41 46 42 47 43 51 44 48 45
REMARK SMILES IDX 50 46 49 47 68 48 69 49 73 50 70 51 72 52 71 53 58 54 59 55
REMARK SMILES IDX 63 56 60 57 62 58 61 59 10 60 11 61 12 62 13 63 14 64 15 65
REMARK SMILES IDX 16 66 17 67 18 68 19 69 36 70 20 71 35 72 21 75 34 76 22 77
REMARK SMILES IDX 33 78 23 79 24 81 25 82 26 83 27 84 28 85 32 86 29 87 31 88
REMARK SMILES IDX 30 89
REMARK H PARENT 78 27 56 38 36 73 36 74 23 80
REMARK Flexibility Score: inf
ROOT
ATOM      1  O   UNL A   1      32.882  30.459  27.641  1.00  0.00    -0.377 OA
ENDROOT
BRANCH   1   2
ATOM      2  C   UNL A   1      33.939  31.375  27.394  1.00  0.00     0.188 C 
BRANCH   2   3
ATOM      3  C   UNL A   1      33.613  32.838  27.690  1.00  0.00     0.188 C 
BRANCH   3   4
ATOM      4  O   UNL A   1      33.559  33.103  29.092  1.00  0.00    -0.376 OA
BRANCH   4   5
ATOM      5  C   UNL A   1      34.793  33.183  29.807  1.00  0.00     0.202 C 
BRANCH   5   6
ATOM      6  C   UNL A   1      34.858  32.396  31.111  1.00  0.00     0.261 C 
BRANCH   6   7
ATOM      7  O   UNL A   1      35.853  31.361  31.138  1.00  0.00    -0.460 OA
BRANCH   7   8
ATOM      8  C   UNL A   1      36.445  30.749  32.190  1.00  0.00     0.338 C 
ATOM      9  O   UNL A   1      36.529  29.521  32.173  1.00  0.00    -0.246 OA
BRANCH   8  10
ATOM     10  C   UNL A   1      37.000  31.457  33.383  1.00  0.00     0.060 A 
ATOM     11  C   UNL A   1      36.483  32.620  33.945  1.00  0.00     0.016 A 
ATOM     12  C   UNL A   1      38.090  30.855  34.031  1.00  0.00     0.016 A 
ATOM     13  C   UNL A   1      37.042  33.220  35.051  1.00  0.00     0.010 A 
ATOM     14  C   UNL A   1      38.667  31.440  35.162  1.00  0.00     0.010 A 
ATOM     15  C   UNL A   1      38.155  32.650  35.643  1.00  0.00    -0.014 A 
BRANCH  15  16
ATOM     16  C   UNL A   1      38.879  33.510  36.583  1.00  0.00     0.031 A 
ATOM     17  C   UNL A   1      38.560  33.338  38.035  1.00  0.00     0.074 A 
ATOM     18  C   UNL A   1      39.935  34.219  36.154  1.00  0.00     0.049 A 
ATOM     19  N   UNL A   1      39.027  33.981  39.067  1.00  0.00    -0.248 NA
ATOM     20  C   UNL A   1      37.592  32.275  38.374  1.00  0.00     0.031 C 
ATOM     21  C   UNL A   1      40.436  34.244  34.774  1.00  0.00     0.029 A 
ATOM     22  N   UNL A   1      40.809  35.010  36.840  1.00  0.00    -0.354 N 
ATOM     23  C   UNL A   1      38.372  33.438  40.165  1.00  0.00     0.074 A 
ATOM     24  C   UNL A   1      37.480  32.414  39.684  1.00  0.00     0.031 C 
ATOM     25  C   UNL A   1      41.542  35.003  34.725  1.00  0.00     0.029 A 
ATOM     26  C   UNL A   1      41.768  35.581  36.042  1.00  0.00     0.049 A 
ATOM     27  H   UNL A   1      40.756  35.157  37.812  1.00  0.00     0.167 HD
ATOM     28  C   UNL A   1      38.505  33.791  41.462  1.00  0.00     0.031 A 
ATOM     29  C   UNL A   1      42.689  36.509  36.354  1.00  0.00     0.031 A 
ATOM     30  C   UNL A   1      39.403  34.827  41.886  1.00  0.00     0.049 A 
ATOM     31  C   UNL A   1      42.710  36.998  37.776  1.00  0.00     0.074 A 
ATOM     32  C   UNL A   1      39.583  35.361  43.145  1.00  0.00     0.029 A 
ATOM     33  N   UNL A   1      40.279  35.488  41.032  1.00  0.00    -0.354 N 
ATOM     34  N   UNL A   1      42.012  36.573  38.805  1.00  0.00    -0.248 NA
ATOM     35  C   UNL A   1      43.626  38.101  38.078  1.00  0.00     0.031 C 
ATOM     36  C   UNL A   1      40.525  36.390  43.039  1.00  0.00     0.029 A 
ATOM     37  C   UNL A   1      40.987  36.445  41.730  1.00  0.00     0.049 A 
ATOM     38  H   UNL A   1      40.380  35.302  40.070  1.00  0.00     0.167 HD
ATOM     39  C   UNL A   1      42.422  37.338  39.886  1.00  0.00     0.074 A 
ATOM     40  C   UNL A   1      43.446  38.239  39.384  1.00  0.00     0.031 C 
ATOM     41  C   UNL A   1      41.998  37.311  41.174  1.00  0.00     0.031 A 
BRANCH  28  42
ATOM     42  C   UNL A   1      37.577  33.135  42.443  1.00  0.00    -0.014 A 
ATOM     43  C   UNL A   1      37.899  31.928  43.085  1.00  0.00     0.009 A 
ATOM     44  C   UNL A   1      36.315  33.704  42.669  1.00  0.00     0.009 A 
ATOM     45  C   UNL A   1      36.959  31.285  43.894  1.00  0.00     0.001 A 
ATOM     46  C   UNL A   1      35.389  33.077  43.503  1.00  0.00     0.001 A 
ATOM     47  C   UNL A   1      35.706  31.861  44.104  1.00  0.00     0.000 A 
ENDBRANCH  28  42
BRANCH  29  48
ATOM     48  C   UNL A   1      43.578  37.083  35.308  1.00  0.00    -0.014 A 
ATOM     49  C   UNL A   1      44.838  36.527  35.043  1.00  0.00     0.009 A 
ATOM     50  C   UNL A   1      43.177  38.217  34.580  1.00  0.00     0.009 A 
ATOM     51  C   UNL A   1      45.687  37.112  34.097  1.00  0.00     0.001 A 
ATOM     52  C   UNL A   1      44.012  38.780  33.612  1.00  0.00     0.001 A 
ATOM     53  C   UNL A   1      45.272  38.235  33.380  1.00  0.00     0.000 A 
ENDBRANCH  29  48
BRANCH  41  54
ATOM     54  C   UNL A   1      42.687  38.244  42.125  1.00  0.00    -0.014 A 
ATOM     55  C   UNL A   1      42.191  39.532  42.375  1.00  0.00     0.009 A 
ATOM     56  C   UNL A   1      43.825  37.798  42.816  1.00  0.00     0.009 A 
ATOM     57  C   UNL A   1      42.847  40.371  43.274  1.00  0.00     0.001 A 
ATOM     58  C   UNL A   1      44.454  38.625  43.743  1.00  0.00     0.001 A 
ATOM     59  C   UNL A   1      43.972  39.915  43.963  1.00  0.00     0.000 A 
ENDBRANCH  41  54
ENDBRANCH  15  16
ENDBRANCH   8  10
ENDBRANCH   7   8
ENDBRANCH   6   7
ENDBRANCH   5   6
ENDBRANCH   4   5
ENDBRANCH   3   4
ENDBRANCH   2   3
ENDBRANCH   1   2
BRANCH   1  60
ATOM     60  C   UNL A   1      33.099  29.131  27.185  1.00  0.00     0.188 C 
BRANCH  60  61
ATOM     61  C   UNL A   1      33.561  28.898  25.730  1.00  0.00     0.188 C 
BRANCH  61  62
ATOM     62  O   UNL A   1      32.497  28.864  24.804  1.00  0.00    -0.376 OA
BRANCH  62  63
ATOM     63  C   UNL A   1      32.777  28.268  23.546  1.00  0.00     0.202 C 
BRANCH  63  64
ATOM     64  C   UNL A   1      31.677  28.005  22.483  1.00  0.00     0.261 C 
BRANCH  64  65
ATOM     65  O   UNL A   1      30.947  26.764  22.532  1.00  0.00    -0.459 OA
BRANCH  65  66
ATOM     66  C   UNL A   1      30.067  26.529  23.539  1.00  0.00     0.364 C 
ATOM     67  O   UNL A   1      29.079  27.225  23.753  1.00  0.00    -0.245 OA
BRANCH  66  68
ATOM     68  C   UNL A   1      30.358  25.227  24.330  1.00  0.00     0.294 C 
ATOM     69  C   UNL A   1      31.509  24.436  23.703  1.00  0.00     0.090 C 
ATOM     70  N   UNL A   1      30.837  25.423  25.707  1.00  0.00    -0.334 N 
ATOM     71  C   UNL A   1      32.069  23.550  24.839  1.00  0.00     0.036 C 
ATOM     72  C   UNL A   1      31.531  24.212  26.127  1.00  0.00     0.268 C 
ATOM     73  H   UNL A   1      30.044  25.598  26.325  1.00  0.00     0.347 HD
ATOM     74  H   UNL A   1      31.467  26.223  25.749  1.00  0.00     0.347 HD
ATOM     75  C   UNL A   1      33.620  23.525  24.854  1.00  0.00     0.076 C 
ATOM     76  C   UNL A   1      31.503  22.120  24.682  1.00  0.00     0.076 C 
ATOM     77  C   UNL A   1      34.210  22.646  23.763  1.00  0.00     0.280 C 
ATOM     78  C   UNL A   1      32.192  21.330  23.565  1.00  0.00     0.280 C 
ATOM     79  N   UNL A   1      33.663  21.275  23.793  1.00  0.00    -0.215 N 
ATOM     80  H   UNL A   1      34.148  20.815  23.022  1.00  0.00     0.367 HD
BRANCH  79  81
ATOM     81  S   UNL A   1      34.130  20.186  25.011  1.00  0.00     0.371 S 
ATOM     82  O   UNL A   1      35.524  19.880  24.856  1.00  0.00    -0.157 OA
ATOM     83  O   UNL A   1      33.624  20.733  26.258  1.00  0.00    -0.157 OA
BRANCH  81  84
ATOM     84  N   UNL A   1      33.244  18.835  24.677  1.00  0.00    -0.151 NA
ATOM     85  C   UNL A   1      33.242  18.222  23.343  1.00  0.00     0.136 C 
ATOM     86  C   UNL A   1      32.596  18.011  25.708  1.00  0.00     0.136 C 
ATOM     87  C   UNL A   1      33.935  16.867  23.449  1.00  0.00     0.177 C 
ATOM     88  C   UNL A   1      33.138  16.574  25.689  1.00  0.00     0.177 C 
ATOM     89  O   UNL A   1      33.245  16.008  24.374  1.00  0.00    -0.379 OA
ENDBRANCH  81  84
ENDBRANCH  79  81
ENDBRANCH  66  68
ENDBRANCH  65  66
ENDBRANCH  64  65
ENDBRANCH  63  64
ENDBRANCH  62  63
ENDBRANCH  61  62
ENDBRANCH  60  61
ENDBRANCH   1  60
TORSDOF 22
ENDMDL
MODEL 3
REMARK VINA RESULT:      -7.0      5.809      8.258
REMARK SMILES O=C(OCCOCCOCCOCCOC(=O)[C@H]1CC2(CC[NH+](S(=O)(=O)N3CCOCC3)CC2)C[NH2+]1)c1ccc(-c2c3nc(c(-c4ccccc4)c4ccc([nH]4)c(-c4ccccc4)c4nc(c(-c5ccccc5)c5ccc2[nH]5)C=C4)C=C3)cc1
REMARK SMILES IDX 9 1 8 2 7 3 6 4 5 5 4 6 3 7 2 8 1 9 37 10 38 11 84 12 39 13
REMARK SMILES IDX 83 14 40 15 41 16 42 17 77 18 43 19 82 20 76 21 78 22 44 23
REMARK SMILES IDX 81 24 75 25 74 26 45 28 67 29 52 30 66 31 53 32 56 33 65 34
REMARK SMILES IDX 79 35 54 36 55 37 64 39 80 40 57 41 46 42 47 43 51 44 48 45
REMARK SMILES IDX 50 46 49 47 68 48 69 49 73 50 70 51 72 52 71 53 58 54 59 55
REMARK SMILES IDX 63 56 60 57 62 58 61 59 10 60 11 61 12 62 13 63 14 64 15 65
REMARK SMILES IDX 16 66 17 67 18 68 19 69 36 70 20 71 35 72 21 75 34 76 22 77
REMARK SMILES IDX 33 78 23 79 24 81 25 82 26 83 27 84 28 85 32 86 29 87 31 88
REMARK SMILES IDX 30 89
REMARK H PARENT 78 27 56 38 36 73 36 74 23 80
REMARK Flexibility Score: inf
ROOT
ATOM      1  O   UNL A   1      28.711  31.046  24.062  1.00  0.00    -0.377 OA
ENDROOT
BRANCH   1   2
ATOM      2  C   UNL A   1      29.981  31.562  24.434  1.00  0.00     0.188 C 
BRANCH   2   3
ATOM      3  C   UNL A   1      30.951  30.539  25.021  1.00  0.00     0.188 C 
BRANCH   3   4
ATOM      4  O   UNL A   1      31.542  30.993  26.239  1.00  0.00    -0.376 OA
BRANCH   4   5
ATOM      5  C   UNL A   1      31.028  32.191  26.825  1.00  0.00     0.202 C 
BRANCH   5   6
ATOM      6  C   UNL A   1      31.994  33.370  26.882  1.00  0.00     0.261 C 
BRANCH   6   7
ATOM      7  O   UNL A   1      33.203  33.120  27.615  1.00  0.00    -0.460 OA
BRANCH   7   8
ATOM      8  C   UNL A   1      33.886  33.919  28.467  1.00  0.00     0.338 C 
ATOM      9  O   UNL A   1      33.543  35.098  28.557  1.00  0.00    -0.246 OA
BRANCH   8  10
ATOM     10  C   UNL A   1      35.041  33.477  29.306  1.00  0.00     0.060 A 
ATOM     11  C   UNL A   1      36.352  33.922  29.175  1.00  0.00     0.016 A 
ATOM     12  C   UNL A   1      34.761  32.592  30.359  1.00  0.00     0.016 A 
ATOM     13  C   UNL A   1      37.371  33.476  29.987  1.00  0.00     0.010 A 
ATOM     14  C   UNL A   1      35.777  32.134  31.202  1.00  0.00     0.010 A 
ATOM     15  C   UNL A   1      37.092  32.555  30.982  1.00  0.00    -0.014 A 
BRANCH  15  16
ATOM     16  C   UNL A   1      38.258  31.887  31.566  1.00  0.00     0.031 A 
ATOM     17  C   UNL A   1      38.579  32.216  32.990  1.00  0.00     0.074 A 
ATOM     18  C   UNL A   1      38.829  30.861  30.915  1.00  0.00     0.049 A 
ATOM     19  N   UNL A   1      39.560  31.795  33.736  1.00  0.00    -0.248 NA
ATOM     20  C   UNL A   1      37.651  33.136  33.677  1.00  0.00     0.031 C 
ATOM     21  C   UNL A   1      38.403  30.343  29.609  1.00  0.00     0.029 A 
ATOM     22  N   UNL A   1      39.850  30.035  31.284  1.00  0.00    -0.354 N 
ATOM     23  C   UNL A   1      39.396  32.438  34.956  1.00  0.00     0.074 A 
ATOM     24  C   UNL A   1      38.225  33.273  34.860  1.00  0.00     0.031 C 
ATOM     25  C   UNL A   1      39.153  29.273  29.298  1.00  0.00     0.029 A 
ATOM     26  C   UNL A   1      40.159  29.094  30.335  1.00  0.00     0.049 A 
ATOM     27  H   UNL A   1      40.319  30.108  32.147  1.00  0.00     0.167 HD
ATOM     28  C   UNL A   1      40.179  32.340  36.052  1.00  0.00     0.031 A 
ATOM     29  C   UNL A   1      41.183  28.223  30.305  1.00  0.00     0.031 A 
ATOM     30  C   UNL A   1      41.341  31.499  36.090  1.00  0.00     0.049 A 
ATOM     31  C   UNL A   1      42.131  28.245  31.471  1.00  0.00     0.074 A 
ATOM     32  C   UNL A   1      42.283  31.362  37.089  1.00  0.00     0.029 A 
ATOM     33  N   UNL A   1      41.712  30.644  35.058  1.00  0.00    -0.354 N 
ATOM     34  N   UNL A   1      42.051  28.936  32.587  1.00  0.00    -0.248 NA
ATOM     35  C   UNL A   1      43.315  27.388  31.373  1.00  0.00     0.031 C 
ATOM     36  C   UNL A   1      43.259  30.470  36.631  1.00  0.00     0.029 A 
ATOM     37  C   UNL A   1      42.884  29.993  35.382  1.00  0.00     0.049 A 
ATOM     38  H   UNL A   1      41.211  30.522  34.218  1.00  0.00     0.167 HD
ATOM     39  C   UNL A   1      43.160  28.578  33.337  1.00  0.00     0.074 A 
ATOM     40  C   UNL A   1      43.884  27.592  32.553  1.00  0.00     0.031 C 
ATOM     41  C   UNL A   1      43.556  29.017  34.558  1.00  0.00     0.031 A 
BRANCH  28  42
ATOM     42  C   UNL A   1      39.854  33.248  37.202  1.00  0.00    -0.014 A 
ATOM     43  C   UNL A   1      38.901  32.910  38.177  1.00  0.00     0.009 A 
ATOM     44  C   UNL A   1      40.466  34.509  37.266  1.00  0.00     0.009 A 
ATOM     45  C   UNL A   1      38.536  33.833  39.160  1.00  0.00     0.001 A 
ATOM     46  C   UNL A   1      40.124  35.418  38.268  1.00  0.00     0.001 A 
ATOM     47  C   UNL A   1      39.149  35.085  39.205  1.00  0.00     0.000 A 
ENDBRANCH  28  42
BRANCH  29  48
ATOM     48  C   UNL A   1      41.406  27.349  29.122  1.00  0.00    -0.014 A 
ATOM     49  C   UNL A   1      40.733  26.126  28.986  1.00  0.00     0.009 A 
ATOM     50  C   UNL A   1      42.323  27.725  28.124  1.00  0.00     0.009 A 
ATOM     51  C   UNL A   1      40.996  25.288  27.898  1.00  0.00     0.001 A 
ATOM     52  C   UNL A   1      42.559  26.902  27.021  1.00  0.00     0.001 A 
ATOM     53  C   UNL A   1      41.905  25.678  26.915  1.00  0.00     0.000 A 
ENDBRANCH  29  48
BRANCH  41  54
ATOM     54  C   UNL A   1      44.792  28.387  35.127  1.00  0.00    -0.014 A 
ATOM     55  C   UNL A   1      44.721  27.271  35.973  1.00  0.00     0.009 A 
ATOM     56  C   UNL A   1      46.048  28.897  34.763  1.00  0.00     0.009 A 
ATOM     57  C   UNL A   1      45.890  26.699  36.475  1.00  0.00     0.001 A 
ATOM     58  C   UNL A   1      47.214  28.299  35.234  1.00  0.00     0.001 A 
ATOM     59  C   UNL A   1      47.134  27.208  36.100  1.00  0.00     0.000 A 
ENDBRANCH  41  54
ENDBRANCH  15  16
ENDBRANCH   8  10
ENDBRANCH   7   8
ENDBRANCH   6   7
ENDBRANCH   5   6
ENDBRANCH   4   5
ENDBRANCH   3   4
ENDBRANCH   2   3
ENDBRANCH   1   2
BRANCH   1  60
ATOM     60  C   UNL A   1      28.675  30.322  22.841  1.00  0.00     0.188 C 
BRANCH  60  61
ATOM     61  C   UNL A   1      28.456  28.794  22.875  1.00  0.00     0.188 C 
BRANCH  61  62
ATOM     62  O   UNL A   1      29.654  28.060  23.009  1.00  0.00    -0.376 OA
BRANCH  62  63
ATOM     63  C   UNL A   1      30.684  28.363  22.079  1.00  0.00     0.202 C 
BRANCH  63  64
ATOM     64  C   UNL A   1      32.083  28.868  22.518  1.00  0.00     0.261 C 
BRANCH  64  65
ATOM     65  O   UNL A   1      33.145  27.909  22.693  1.00  0.00    -0.459 OA
BRANCH  65  66
ATOM     66  C   UNL A   1      33.067  26.690  22.100  1.00  0.00     0.364 C 
ATOM     67  O   UNL A   1      33.523  26.446  20.989  1.00  0.00    -0.245 OA
BRANCH  66  68
ATOM     68  C   UNL A   1      32.448  25.595  23.007  1.00  0.00     0.294 C 
ATOM     69  C   UNL A   1      33.289  24.316  22.998  1.00  0.00     0.090 C 
ATOM     70  N   UNL A   1      32.401  25.919  24.441  1.00  0.00    -0.334 N 
ATOM     71  C   UNL A   1      32.938  23.579  24.310  1.00  0.00     0.036 C 
ATOM     72  C   UNL A   1      32.292  24.672  25.190  1.00  0.00     0.268 C 
ATOM     73  H   UNL A   1      31.592  26.510  24.635  1.00  0.00     0.347 HD
ATOM     74  H   UNL A   1      33.245  26.421  24.716  1.00  0.00     0.347 HD
ATOM     75  C   UNL A   1      34.193  22.997  25.010  1.00  0.00     0.076 C 
ATOM     76  C   UNL A   1      31.920  22.458  23.995  1.00  0.00     0.076 C 
ATOM     77  C   UNL A   1      34.714  21.734  24.341  1.00  0.00     0.280 C 
ATOM     78  C   UNL A   1      32.570  21.235  23.342  1.00  0.00     0.280 C 
ATOM     79  N   UNL A   1      33.666  20.703  24.200  1.00  0.00    -0.215 N 
ATOM     80  H   UNL A   1      34.159  19.932  23.750  1.00  0.00     0.367 HD
BRANCH  79  81
ATOM     81  S   UNL A   1      33.119  19.836  25.556  1.00  0.00     0.371 S 
ATOM     82  O   UNL A   1      33.702  20.404  26.740  1.00  0.00    -0.157 OA
ATOM     83  O   UNL A   1      31.677  19.732  25.415  1.00  0.00    -0.157 OA
BRANCH  81  84
ATOM     84  N   UNL A   1      33.743  18.327  25.322  1.00  0.00    -0.151 NA
ATOM     85  C   UNL A   1      33.059  17.123  25.810  1.00  0.00     0.136 C 
ATOM     86  C   UNL A   1      34.870  18.044  24.422  1.00  0.00     0.136 C 
ATOM     87  C   UNL A   1      32.580  16.331  24.597  1.00  0.00     0.177 C 
ATOM     88  C   UNL A   1      34.457  17.074  23.305  1.00  0.00     0.177 C 
ATOM     89  O   UNL A   1      33.690  15.950  23.763  1.00  0.00    -0.379 OA
ENDBRANCH  81  84
ENDBRANCH  79  81
ENDBRANCH  66  68
ENDBRANCH  65  66
ENDBRANCH  64  65
ENDBRANCH  63  64
ENDBRANCH  62  63
ENDBRANCH  61  62
ENDBRANCH  60  61
ENDBRANCH   1  60
TORSDOF 22
ENDMDL
