MODEL 1
REMARK VINA RESULT:      -9.4      0.000      0.000
REMARK SMILES O=C(CCC(=O)N1CCN(S(=O)(=O)c2cccs2)CC1)OCCOCCOCCOCCOC(=O)c1ccc(-c2c3nc(c(-c4ccccc4)c4ccc([nH]4)c(-c4ccccc4)c4nc(c(-c5ccccc5)c5ccc2[nH]5)C=C4)C=C3)cc1
REMARK SMILES IDX 26 1 25 2 24 3 23 4 22 5 21 6 2 7 1 8 3 9 4 10 5 11 6 12
REMARK SMILES IDX 7 13 8 14 20 15 9 16 19 17 10 18 11 19 12 20 13 21 14 22
REMARK SMILES IDX 15 23 18 24 16 25 17 26 27 27 28 28 29 29 30 30 31 31 32 32
REMARK SMILES IDX 33 33 34 34 35 35 36 36 37 37 83 38 38 39 82 40 39 41 40 42
REMARK SMILES IDX 41 43 76 44 42 45 81 46 75 47 77 48 43 49 80 50 74 51 73 52
REMARK SMILES IDX 44 54 66 55 51 56 65 57 52 58 55 59 64 60 78 61 53 62 54 63
REMARK SMILES IDX 63 65 79 66 56 67 45 68 46 69 50 70 47 71 49 72 48 73 67 74
REMARK SMILES IDX 68 75 72 76 69 77 71 78 70 79 57 80 58 81 62 82 59 83 61 84
REMARK SMILES IDX 60 85
REMARK H PARENT 77 53 55 64
REMARK Flexibility Score: inf
ROOT
ATOM      1  C   UNL A   1      31.742  30.483  26.458  1.00  0.00     0.188 C 
ENDROOT
BRANCH   1   2
ATOM      2  C   UNL A   1      31.006  30.581  25.101  1.00  0.00     0.188 C 
BRANCH   2   3
ATOM      3  O   UNL A   1      30.045  31.619  25.002  1.00  0.00    -0.376 OA
BRANCH   3   4
ATOM      4  C   UNL A   1      28.993  31.623  24.058  1.00  0.00     0.202 C 
BRANCH   4   5
ATOM      5  C   UNL A   1      29.328  31.240  22.627  1.00  0.00     0.261 C 
BRANCH   5   6
ATOM      6  O   UNL A   1      28.590  30.108  22.141  1.00  0.00    -0.463 OA
BRANCH   6   7
ATOM      7  C   UNL A   1      28.087  29.068  22.823  1.00  0.00     0.306 C 
ATOM      8  O   UNL A   1      26.903  29.074  23.154  1.00  0.00    -0.252 OA
BRANCH   7   9
ATOM      9  C   UNL A   1      28.964  27.902  23.109  1.00  0.00     0.132 C 
BRANCH   9  10
ATOM     10  C   UNL A   1      30.348  27.998  22.502  1.00  0.00     0.112 C 
BRANCH  10  11
ATOM     11  C   UNL A   1      31.203  26.740  22.470  1.00  0.00     0.223 C 
ATOM     12  O   UNL A   1      31.400  26.189  21.383  1.00  0.00    -0.275 OA
ATOM     13  N   UNL A   1      31.765  26.250  23.650  1.00  0.00    -0.340 N 
ATOM     14  C   UNL A   1      32.678  25.105  23.516  1.00  0.00     0.136 C 
ATOM     15  C   UNL A   1      31.181  26.457  24.982  1.00  0.00     0.136 C 
ATOM     16  C   UNL A   1      33.571  24.884  24.750  1.00  0.00     0.124 C 
ATOM     17  C   UNL A   1      32.054  26.125  26.189  1.00  0.00     0.124 C 
ATOM     18  N   UNL A   1      32.773  24.836  26.024  1.00  0.00    -0.194 NA
BRANCH  18  19
ATOM     19  S   UNL A   1      31.912  23.374  26.226  1.00  0.00     0.252 S 
ATOM     20  O   UNL A   1      31.754  23.142  27.654  1.00  0.00    -0.206 OA
ATOM     21  O   UNL A   1      30.754  23.432  25.369  1.00  0.00    -0.206 OA
BRANCH  19  22
ATOM     22  C   UNL A   1      32.882  21.973  25.706  1.00  0.00     0.135 A 
ATOM     23  C   UNL A   1      32.596  20.956  24.810  1.00  0.00     0.033 A 
ATOM     24  S   UNL A   1      34.472  21.838  26.314  1.00  0.00    -0.131 S 
ATOM     25  C   UNL A   1      33.714  20.105  24.574  1.00  0.00     0.013 A 
ATOM     26  C   UNL A   1      34.811  20.487  25.314  1.00  0.00     0.066 A 
ENDBRANCH  19  22
ENDBRANCH  18  19
ENDBRANCH  10  11
ENDBRANCH   9  10
ENDBRANCH   7   9
ENDBRANCH   6   7
ENDBRANCH   5   6
ENDBRANCH   4   5
ENDBRANCH   3   4
ENDBRANCH   2   3
ENDBRANCH   1   2
BRANCH   1  27
ATOM     27  O   UNL A   1      33.151  30.282  26.407  1.00  0.00    -0.377 OA
BRANCH  27  28
ATOM     28  C   UNL A   1      33.886  30.831  27.490  1.00  0.00     0.188 C 
BRANCH  28  29
ATOM     29  C   UNL A   1      33.709  32.352  27.716  1.00  0.00     0.188 C 
BRANCH  29  30
ATOM     30  O   UNL A   1      34.321  33.022  28.811  1.00  0.00    -0.376 OA
BRANCH  30  31
ATOM     31  C   UNL A   1      34.479  34.429  28.781  1.00  0.00     0.202 C 
BRANCH  31  32
ATOM     32  C   UNL A   1      33.323  35.330  29.242  1.00  0.00     0.261 C 
BRANCH  32  33
ATOM     33  O   UNL A   1      32.580  34.880  30.387  1.00  0.00    -0.460 OA
BRANCH  33  34
ATOM     34  C   UNL A   1      32.823  35.558  31.535  1.00  0.00     0.338 C 
ATOM     35  O   UNL A   1      32.167  36.472  32.003  1.00  0.00    -0.246 OA
BRANCH  34  36
ATOM     36  C   UNL A   1      33.924  34.909  32.283  1.00  0.00     0.060 A 
ATOM     37  C   UNL A   1      35.141  35.600  32.394  1.00  0.00     0.016 A 
ATOM     38  C   UNL A   1      33.793  33.623  32.810  1.00  0.00     0.016 A 
ATOM     39  C   UNL A   1      36.246  34.990  32.973  1.00  0.00     0.010 A 
ATOM     40  C   UNL A   1      34.919  32.991  33.352  1.00  0.00     0.010 A 
ATOM     41  C   UNL A   1      36.159  33.655  33.380  1.00  0.00    -0.014 A 
BRANCH  41  42
ATOM     42  C   UNL A   1      37.425  32.903  33.539  1.00  0.00     0.031 A 
ATOM     43  C   UNL A   1      38.214  33.117  34.806  1.00  0.00     0.074 A 
ATOM     44  C   UNL A   1      37.810  31.975  32.647  1.00  0.00     0.049 A 
ATOM     45  N   UNL A   1      39.327  32.554  35.199  1.00  0.00    -0.248 NA
ATOM     46  C   UNL A   1      37.667  34.096  35.762  1.00  0.00     0.031 C 
ATOM     47  C   UNL A   1      37.093  31.627  31.422  1.00  0.00     0.029 A 
ATOM     48  N   UNL A   1      38.902  31.145  32.649  1.00  0.00    -0.354 N 
ATOM     49  C   UNL A   1      39.608  33.107  36.444  1.00  0.00     0.074 A 
ATOM     50  C   UNL A   1      38.576  34.079  36.723  1.00  0.00     0.031 C 
ATOM     51  C   UNL A   1      37.774  30.659  30.783  1.00  0.00     0.029 A 
ATOM     52  C   UNL A   1      38.983  30.341  31.541  1.00  0.00     0.049 A 
ATOM     53  H   UNL A   1      39.566  31.130  33.377  1.00  0.00     0.167 HD
ATOM     54  C   UNL A   1      40.627  32.823  37.288  1.00  0.00     0.031 A 
ATOM     55  C   UNL A   1      39.936  29.464  31.175  1.00  0.00     0.031 A 
ATOM     56  C   UNL A   1      41.666  31.871  37.002  1.00  0.00     0.049 A 
ATOM     57  C   UNL A   1      41.112  29.233  32.090  1.00  0.00     0.074 A 
ATOM     58  C   UNL A   1      42.757  31.523  37.779  1.00  0.00     0.029 A 
ATOM     59  N   UNL A   1      41.742  31.116  35.841  1.00  0.00    -0.354 N 
ATOM     60  N   UNL A   1      41.368  29.760  33.264  1.00  0.00    -0.248 NA
ATOM     61  C   UNL A   1      42.126  28.272  31.631  1.00  0.00     0.031 C 
ATOM     62  C   UNL A   1      43.524  30.599  37.063  1.00  0.00     0.029 A 
ATOM     63  C   UNL A   1      42.874  30.319  35.870  1.00  0.00     0.049 A 
ATOM     64  H   UNL A   1      41.089  31.143  35.106  1.00  0.00     0.167 HD
ATOM     65  C   UNL A   1      42.553  29.174  33.695  1.00  0.00     0.074 A 
ATOM     66  C   UNL A   1      42.949  28.233  32.668  1.00  0.00     0.031 C 
ATOM     67  C   UNL A   1      43.254  29.395  34.835  1.00  0.00     0.031 A 
BRANCH  54  68
ATOM     68  C   UNL A   1      40.680  33.579  38.587  1.00  0.00    -0.014 A 
ATOM     69  C   UNL A   1      40.004  33.117  39.729  1.00  0.00     0.009 A 
ATOM     70  C   UNL A   1      41.434  34.758  38.676  1.00  0.00     0.009 A 
ATOM     71  C   UNL A   1      40.060  33.838  40.925  1.00  0.00     0.001 A 
ATOM     72  C   UNL A   1      41.513  35.460  39.881  1.00  0.00     0.001 A 
ATOM     73  C   UNL A   1      40.819  35.005  41.001  1.00  0.00     0.000 A 
ENDBRANCH  54  68
BRANCH  55  74
ATOM     74  C   UNL A   1      39.844  28.760  29.867  1.00  0.00    -0.014 A 
ATOM     75  C   UNL A   1      39.343  27.452  29.779  1.00  0.00     0.009 A 
ATOM     76  C   UNL A   1      40.299  29.388  28.696  1.00  0.00     0.009 A 
ATOM     77  C   UNL A   1      39.332  26.778  28.554  1.00  0.00     0.001 A 
ATOM     78  C   UNL A   1      40.253  28.728  27.468  1.00  0.00     0.001 A 
ATOM     79  C   UNL A   1      39.783  27.417  27.400  1.00  0.00     0.000 A 
ENDBRANCH  55  74
BRANCH  67  80
ATOM     80  C   UNL A   1      44.498  28.573  35.045  1.00  0.00    -0.014 A 
ATOM     81  C   UNL A   1      45.779  29.122  34.868  1.00  0.00     0.009 A 
ATOM     82  C   UNL A   1      44.385  27.231  35.441  1.00  0.00     0.009 A 
ATOM     83  C   UNL A   1      46.916  28.329  35.031  1.00  0.00     0.001 A 
ATOM     84  C   UNL A   1      45.525  26.451  35.641  1.00  0.00     0.001 A 
ATOM     85  C   UNL A   1      46.789  26.996  35.420  1.00  0.00     0.000 A 
ENDBRANCH  67  80
ENDBRANCH  41  42
ENDBRANCH  34  36
ENDBRANCH  33  34
ENDBRANCH  32  33
ENDBRANCH  31  32
ENDBRANCH  30  31
ENDBRANCH  29  30
ENDBRANCH  28  29
ENDBRANCH  27  28
ENDBRANCH   1  27
TORSDOF 24
ENDMDL
MODEL 2
REMARK VINA RESULT:      -8.7      6.057     11.933
REMARK SMILES O=C(CCC(=O)N1CCN(S(=O)(=O)c2cccs2)CC1)OCCOCCOCCOCCOC(=O)c1ccc(-c2c3nc(c(-c4ccccc4)c4ccc([nH]4)c(-c4ccccc4)c4nc(c(-c5ccccc5)c5ccc2[nH]5)C=C4)C=C3)cc1
REMARK SMILES IDX 26 1 25 2 24 3 23 4 22 5 21 6 2 7 1 8 3 9 4 10 5 11 6 12
REMARK SMILES IDX 7 13 8 14 20 15 9 16 19 17 10 18 11 19 12 20 13 21 14 22
REMARK SMILES IDX 15 23 18 24 16 25 17 26 27 27 28 28 29 29 30 30 31 31 32 32
REMARK SMILES IDX 33 33 34 34 35 35 36 36 37 37 83 38 38 39 82 40 39 41 40 42
REMARK SMILES IDX 41 43 76 44 42 45 81 46 75 47 77 48 43 49 80 50 74 51 73 52
REMARK SMILES IDX 44 54 66 55 51 56 65 57 52 58 55 59 64 60 78 61 53 62 54 63
REMARK SMILES IDX 63 65 79 66 56 67 45 68 46 69 50 70 47 71 49 72 48 73 67 74
REMARK SMILES IDX 68 75 72 76 69 77 71 78 70 79 57 80 58 81 62 82 59 83 61 84
REMARK SMILES IDX 60 85
REMARK H PARENT 77 53 55 64
REMARK Flexibility Score: inf
ROOT
ATOM      1  C   UNL A   1      45.557  25.961  25.410  1.00  0.00     0.188 C 
ENDROOT
BRANCH   1   2
ATOM      2  C   UNL A   1      44.599  24.806  25.034  1.00  0.00     0.188 C 
BRANCH   2   3
ATOM      3  O   UNL A   1      44.664  23.663  25.872  1.00  0.00    -0.376 OA
BRANCH   3   4
ATOM      4  C   UNL A   1      43.956  22.466  25.618  1.00  0.00     0.202 C 
BRANCH   4   5
ATOM      5  C   UNL A   1      42.463  22.458  25.896  1.00  0.00     0.261 C 
BRANCH   5   6
ATOM      6  O   UNL A   1      41.852  21.167  25.749  1.00  0.00    -0.463 OA
BRANCH   6   7
ATOM      7  C   UNL A   1      40.872  20.605  26.475  1.00  0.00     0.306 C 
ATOM      8  O   UNL A   1      40.935  20.633  27.702  1.00  0.00    -0.252 OA
BRANCH   7   9
ATOM      9  C   UNL A   1      39.701  20.017  25.773  1.00  0.00     0.132 C 
BRANCH   9  10
ATOM     10  C   UNL A   1      38.605  21.010  25.446  1.00  0.00     0.112 C 
BRANCH  10  11
ATOM     11  C   UNL A   1      37.223  20.465  25.118  1.00  0.00     0.223 C 
ATOM     12  O   UNL A   1      37.114  19.269  24.832  1.00  0.00    -0.275 OA
ATOM     13  N   UNL A   1      36.112  21.307  25.173  1.00  0.00    -0.340 N 
ATOM     14  C   UNL A   1      34.799  20.676  24.966  1.00  0.00     0.136 C 
ATOM     15  C   UNL A   1      36.172  22.757  24.949  1.00  0.00     0.136 C 
ATOM     16  C   UNL A   1      33.620  21.542  25.443  1.00  0.00     0.124 C 
ATOM     17  C   UNL A   1      34.944  23.578  25.333  1.00  0.00     0.124 C 
ATOM     18  N   UNL A   1      33.680  22.937  24.887  1.00  0.00    -0.194 NA
BRANCH  18  19
ATOM     19  S   UNL A   1      33.243  23.026  23.237  1.00  0.00     0.252 S 
ATOM     20  O   UNL A   1      34.454  23.253  22.465  1.00  0.00    -0.206 OA
ATOM     21  O   UNL A   1      32.403  21.890  22.951  1.00  0.00    -0.206 OA
BRANCH  19  22
ATOM     22  C   UNL A   1      32.282  24.488  22.900  1.00  0.00     0.135 A 
ATOM     23  C   UNL A   1      31.217  25.051  23.584  1.00  0.00     0.033 A 
ATOM     24  S   UNL A   1      32.742  25.451  21.566  1.00  0.00    -0.131 S 
ATOM     25  C   UNL A   1      30.826  26.311  23.048  1.00  0.00     0.013 A 
ATOM     26  C   UNL A   1      31.592  26.661  21.958  1.00  0.00     0.066 A 
ENDBRANCH  19  22
ENDBRANCH  18  19
ENDBRANCH  10  11
ENDBRANCH   9  10
ENDBRANCH   7   9
ENDBRANCH   6   7
ENDBRANCH   5   6
ENDBRANCH   4   5
ENDBRANCH   3   4
ENDBRANCH   2   3
ENDBRANCH   1   2
BRANCH   1  27
ATOM     27  O   UNL A   1      46.687  25.620  26.207  1.00  0.00    -0.377 OA
BRANCH  27  28
ATOM     28  C   UNL A   1      47.867  25.301  25.486  1.00  0.00     0.188 C 
BRANCH  28  29
ATOM     29  C   UNL A   1      48.782  26.500  25.135  1.00  0.00     0.188 C 
BRANCH  29  30
ATOM     30  O   UNL A   1      50.088  26.630  25.683  1.00  0.00    -0.376 OA
BRANCH  30  31
ATOM     31  C   UNL A   1      50.549  25.695  26.641  1.00  0.00     0.202 C 
BRANCH  31  32
ATOM     32  C   UNL A   1      51.327  26.190  27.869  1.00  0.00     0.261 C 
BRANCH  32  33
ATOM     33  O   UNL A   1      50.568  26.903  28.860  1.00  0.00    -0.460 OA
BRANCH  33  34
ATOM     34  C   UNL A   1      49.348  26.381  29.137  1.00  0.00     0.338 C 
ATOM     35  O   UNL A   1      49.084  25.217  29.381  1.00  0.00    -0.246 OA
BRANCH  34  36
ATOM     36  C   UNL A   1      48.356  27.468  29.296  1.00  0.00     0.060 A 
ATOM     37  C   UNL A   1      47.611  27.510  30.486  1.00  0.00     0.016 A 
ATOM     38  C   UNL A   1      48.109  28.390  28.277  1.00  0.00     0.016 A 
ATOM     39  C   UNL A   1      46.579  28.428  30.638  1.00  0.00     0.010 A 
ATOM     40  C   UNL A   1      47.040  29.285  28.412  1.00  0.00     0.010 A 
ATOM     41  C   UNL A   1      46.240  29.263  29.569  1.00  0.00    -0.014 A 
BRANCH  41  42
ATOM     42  C   UNL A   1      44.888  29.868  29.575  1.00  0.00     0.031 A 
ATOM     43  C   UNL A   1      43.737  29.019  29.101  1.00  0.00     0.074 A 
ATOM     44  C   UNL A   1      44.666  31.088  30.091  1.00  0.00     0.049 A 
ATOM     45  N   UNL A   1      42.461  29.301  29.045  1.00  0.00    -0.248 NA
ATOM     46  C   UNL A   1      44.072  27.662  28.632  1.00  0.00     0.031 C 
ATOM     47  C   UNL A   1      45.687  31.974  30.646  1.00  0.00     0.029 A 
ATOM     48  N   UNL A   1      43.494  31.786  30.238  1.00  0.00    -0.354 N 
ATOM     49  C   UNL A   1      41.846  28.161  28.540  1.00  0.00     0.074 A 
ATOM     50  C   UNL A   1      42.888  27.198  28.265  1.00  0.00     0.031 C 
ATOM     51  C   UNL A   1      45.095  33.107  31.066  1.00  0.00     0.029 A 
ATOM     52  C   UNL A   1      43.663  33.033  30.785  1.00  0.00     0.049 A 
ATOM     53  H   UNL A   1      42.615  31.426  29.976  1.00  0.00     0.167 HD
ATOM     54  C   UNL A   1      40.529  27.927  28.335  1.00  0.00     0.031 A 
ATOM     55  C   UNL A   1      42.762  34.008  31.012  1.00  0.00     0.031 A 
ATOM     56  C   UNL A   1      39.492  28.891  28.589  1.00  0.00     0.049 A 
ATOM     57  C   UNL A   1      41.311  33.758  30.687  1.00  0.00     0.074 A 
ATOM     58  C   UNL A   1      38.128  28.765  28.395  1.00  0.00     0.029 A 
ATOM     59  N   UNL A   1      39.711  30.166  29.090  1.00  0.00    -0.354 N 
ATOM     60  N   UNL A   1      40.740  32.677  30.210  1.00  0.00    -0.248 NA
ATOM     61  C   UNL A   1      40.378  34.864  30.945  1.00  0.00     0.031 C 
ATOM     62  C   UNL A   1      37.527  29.983  28.726  1.00  0.00     0.029 A 
ATOM     63  C   UNL A   1      38.509  30.845  29.193  1.00  0.00     0.049 A 
ATOM     64  H   UNL A   1      40.590  30.533  29.337  1.00  0.00     0.167 HD
ATOM     65  C   UNL A   1      39.381  32.963  30.141  1.00  0.00     0.074 A 
ATOM     66  C   UNL A   1      39.213  34.308  30.649  1.00  0.00     0.031 C 
ATOM     67  C   UNL A   1      38.363  32.186  29.694  1.00  0.00     0.031 A 
BRANCH  54  68
ATOM     68  C   UNL A   1      40.143  26.584  27.778  1.00  0.00    -0.014 A 
ATOM     69  C   UNL A   1      40.432  26.235  26.449  1.00  0.00     0.009 A 
ATOM     70  C   UNL A   1      39.503  25.646  28.602  1.00  0.00     0.009 A 
ATOM     71  C   UNL A   1      40.058  24.985  25.948  1.00  0.00     0.001 A 
ATOM     72  C   UNL A   1      39.159  24.386  28.108  1.00  0.00     0.001 A 
ATOM     73  C   UNL A   1      39.429  24.060  26.780  1.00  0.00     0.000 A 
ENDBRANCH  54  68
BRANCH  55  74
ATOM     74  C   UNL A   1      43.203  35.326  31.543  1.00  0.00    -0.014 A 
ATOM     75  C   UNL A   1      43.707  36.321  30.691  1.00  0.00     0.009 A 
ATOM     76  C   UNL A   1      43.156  35.581  32.923  1.00  0.00     0.009 A 
ATOM     77  C   UNL A   1      44.186  37.526  31.214  1.00  0.00     0.001 A 
ATOM     78  C   UNL A   1      43.600  36.799  33.440  1.00  0.00     0.001 A 
ATOM     79  C   UNL A   1      44.128  37.765  32.586  1.00  0.00     0.000 A 
ENDBRANCH  55  74
BRANCH  67  80
ATOM     80  C   UNL A   1      36.974  32.762  29.776  1.00  0.00    -0.014 A 
ATOM     81  C   UNL A   1      36.219  32.693  30.958  1.00  0.00     0.009 A 
ATOM     82  C   UNL A   1      36.421  33.399  28.654  1.00  0.00     0.009 A 
ATOM     83  C   UNL A   1      34.920  33.201  30.996  1.00  0.00     0.001 A 
ATOM     84  C   UNL A   1      35.135  33.940  28.707  1.00  0.00     0.001 A 
ATOM     85  C   UNL A   1      34.380  33.826  29.873  1.00  0.00     0.000 A 
ENDBRANCH  67  80
ENDBRANCH  41  42
ENDBRANCH  34  36
ENDBRANCH  33  34
ENDBRANCH  32  33
ENDBRANCH  31  32
ENDBRANCH  30  31
ENDBRANCH  29  30
ENDBRANCH  28  29
ENDBRANCH  27  28
ENDBRANCH   1  27
TORSDOF 24
ENDMDL
MODEL 3
REMARK VINA RESULT:      -8.3      7.020     12.800
REMARK SMILES O=C(CCC(=O)N1CCN(S(=O)(=O)c2cccs2)CC1)OCCOCCOCCOCCOC(=O)c1ccc(-c2c3nc(c(-c4ccccc4)c4ccc([nH]4)c(-c4ccccc4)c4nc(c(-c5ccccc5)c5ccc2[nH]5)C=C4)C=C3)cc1
REMARK SMILES IDX 26 1 25 2 24 3 23 4 22 5 21 6 2 7 1 8 3 9 4 10 5 11 6 12
REMARK SMILES IDX 7 13 8 14 20 15 9 16 19 17 10 18 11 19 12 20 13 21 14 22
REMARK SMILES IDX 15 23 18 24 16 25 17 26 27 27 28 28 29 29 30 30 31 31 32 32
REMARK SMILES IDX 33 33 34 34 35 35 36 36 37 37 83 38 38 39 82 40 39 41 40 42
REMARK SMILES IDX 41 43 76 44 42 45 81 46 75 47 77 48 43 49 80 50 74 51 73 52
REMARK SMILES IDX 44 54 66 55 51 56 65 57 52 58 55 59 64 60 78 61 53 62 54 63
REMARK SMILES IDX 63 65 79 66 56 67 45 68 46 69 50 70 47 71 49 72 48 73 67 74
REMARK SMILES IDX 68 75 72 76 69 77 71 78 70 79 57 80 58 81 62 82 59 83 61 84
REMARK SMILES IDX 60 85
REMARK H PARENT 77 53 55 64
REMARK Flexibility Score: inf
ROOT
ATOM      1  C   UNL A   1      45.721  26.322  25.332  1.00  0.00     0.188 C 
ENDROOT
BRANCH   1   2
ATOM      2  C   UNL A   1      44.737  25.155  25.082  1.00  0.00     0.188 C 
BRANCH   2   3
ATOM      3  O   UNL A   1      45.203  23.871  25.468  1.00  0.00    -0.376 OA
BRANCH   3   4
ATOM      4  C   UNL A   1      44.426  22.695  25.368  1.00  0.00     0.202 C 
BRANCH   4   5
ATOM      5  C   UNL A   1      42.915  22.850  25.320  1.00  0.00     0.261 C 
BRANCH   5   6
ATOM      6  O   UNL A   1      42.198  21.631  25.566  1.00  0.00    -0.463 OA
BRANCH   6   7
ATOM      7  C   UNL A   1      41.244  21.378  26.476  1.00  0.00     0.306 C 
ATOM      8  O   UNL A   1      41.413  21.725  27.643  1.00  0.00    -0.252 OA
BRANCH   7   9
ATOM      9  C   UNL A   1      39.977  20.739  26.034  1.00  0.00     0.132 C 
BRANCH   9  10
ATOM     10  C   UNL A   1      38.830  21.705  25.823  1.00  0.00     0.112 C 
BRANCH  10  11
ATOM     11  C   UNL A   1      37.521  21.151  25.281  1.00  0.00     0.223 C 
ATOM     12  O   UNL A   1      37.503  19.992  24.854  1.00  0.00    -0.275 OA
ATOM     13  N   UNL A   1      36.371  21.940  25.299  1.00  0.00    -0.340 N 
ATOM     14  C   UNL A   1      35.121  21.289  24.875  1.00  0.00     0.136 C 
ATOM     15  C   UNL A   1      36.384  23.407  25.244  1.00  0.00     0.136 C 
ATOM     16  C   UNL A   1      33.855  22.051  25.306  1.00  0.00     0.124 C 
ATOM     17  C   UNL A   1      35.082  24.133  25.571  1.00  0.00     0.124 C 
ATOM     18  N   UNL A   1      33.908  23.502  24.916  1.00  0.00    -0.194 NA
BRANCH  18  19
ATOM     19  S   UNL A   1      33.651  23.763  23.246  1.00  0.00     0.252 S 
ATOM     20  O   UNL A   1      34.944  24.013  22.628  1.00  0.00    -0.206 OA
ATOM     21  O   UNL A   1      32.813  22.693  22.766  1.00  0.00    -0.206 OA
BRANCH  19  22
ATOM     22  C   UNL A   1      32.775  25.287  22.956  1.00  0.00     0.135 A 
ATOM     23  C   UNL A   1      31.674  25.563  22.163  1.00  0.00     0.033 A 
ATOM     24  S   UNL A   1      33.274  26.668  23.828  1.00  0.00    -0.131 S 
ATOM     25  C   UNL A   1      31.200  26.896  22.328  1.00  0.00     0.013 A 
ATOM     26  C   UNL A   1      31.968  27.602  23.226  1.00  0.00     0.066 A 
ENDBRANCH  19  22
ENDBRANCH  18  19
ENDBRANCH  10  11
ENDBRANCH   9  10
ENDBRANCH   7   9
ENDBRANCH   6   7
ENDBRANCH   5   6
ENDBRANCH   4   5
ENDBRANCH   3   4
ENDBRANCH   2   3
ENDBRANCH   1   2
BRANCH   1  27
ATOM     27  O   UNL A   1      47.075  25.970  25.594  1.00  0.00    -0.377 OA
BRANCH  27  28
ATOM     28  C   UNL A   1      47.950  26.036  24.479  1.00  0.00     0.188 C 
BRANCH  28  29
ATOM     29  C   UNL A   1      47.968  27.385  23.720  1.00  0.00     0.188 C 
BRANCH  29  30
ATOM     30  O   UNL A   1      49.158  27.899  23.135  1.00  0.00    -0.376 OA
BRANCH  30  31
ATOM     31  C   UNL A   1      50.368  27.172  23.240  1.00  0.00     0.202 C 
BRANCH  31  32
ATOM     32  C   UNL A   1      51.704  27.930  23.300  1.00  0.00     0.261 C 
BRANCH  32  33
ATOM     33  O   UNL A   1      52.240  28.175  24.611  1.00  0.00    -0.460 OA
BRANCH  33  34
ATOM     34  C   UNL A   1      52.898  27.130  25.169  1.00  0.00     0.338 C 
ATOM     35  O   UNL A   1      53.918  26.600  24.762  1.00  0.00    -0.246 OA
BRANCH  34  36
ATOM     36  C   UNL A   1      52.311  26.808  26.490  1.00  0.00     0.060 A 
ATOM     37  C   UNL A   1      51.528  25.649  26.597  1.00  0.00     0.016 A 
ATOM     38  C   UNL A   1      52.467  27.657  27.587  1.00  0.00     0.016 A 
ATOM     39  C   UNL A   1      50.849  25.364  27.775  1.00  0.00     0.010 A 
ATOM     40  C   UNL A   1      51.748  27.395  28.759  1.00  0.00     0.010 A 
ATOM     41  C   UNL A   1      50.893  26.279  28.831  1.00  0.00    -0.014 A 
BRANCH  41  42
ATOM     42  C   UNL A   1      49.822  26.201  29.850  1.00  0.00     0.031 A 
ATOM     43  C   UNL A   1      48.517  26.894  29.552  1.00  0.00     0.074 A 
ATOM     44  C   UNL A   1      49.954  25.448  30.955  1.00  0.00     0.049 A 
ATOM     45  N   UNL A   1      47.418  26.941  30.259  1.00  0.00    -0.248 NA
ATOM     46  C   UNL A   1      48.440  27.626  28.275  1.00  0.00     0.031 C 
ATOM     47  C   UNL A   1      51.140  24.674  31.316  1.00  0.00     0.029 A 
ATOM     48  N   UNL A   1      49.066  25.204  31.972  1.00  0.00    -0.354 N 
ATOM     49  C   UNL A   1      46.524  27.703  29.515  1.00  0.00     0.074 A 
ATOM     50  C   UNL A   1      47.218  28.133  28.322  1.00  0.00     0.031 C 
ATOM     51  C   UNL A   1      50.909  24.048  32.484  1.00  0.00     0.029 A 
ATOM     52  C   UNL A   1      49.572  24.398  32.960  1.00  0.00     0.049 A 
ATOM     53  H   UNL A   1      48.153  25.574  31.990  1.00  0.00     0.167 HD
ATOM     54  C   UNL A   1      45.235  28.008  29.789  1.00  0.00     0.031 A 
ATOM     55  C   UNL A   1      49.020  24.007  34.124  1.00  0.00     0.031 A 
ATOM     56  C   UNL A   1      44.549  27.599  30.985  1.00  0.00     0.049 A 
ATOM     57  C   UNL A   1      47.613  24.439  34.452  1.00  0.00     0.074 A 
ATOM     58  C   UNL A   1      43.249  27.872  31.372  1.00  0.00     0.029 A 
ATOM     59  N   UNL A   1      45.115  26.829  31.990  1.00  0.00    -0.354 N 
ATOM     60  N   UNL A   1      46.777  25.157  33.741  1.00  0.00    -0.248 NA
ATOM     61  C   UNL A   1      47.070  23.990  35.743  1.00  0.00     0.031 C 
ATOM     62  C   UNL A   1      43.047  27.315  32.639  1.00  0.00     0.029 A 
ATOM     63  C   UNL A   1      44.197  26.635  33.008  1.00  0.00     0.049 A 
ATOM     64  H   UNL A   1      46.032  26.473  31.981  1.00  0.00     0.167 HD
ATOM     65  C   UNL A   1      45.603  25.222  34.483  1.00  0.00     0.074 A 
ATOM     66  C   UNL A   1      45.828  24.446  35.685  1.00  0.00     0.031 C 
ATOM     67  C   UNL A   1      44.443  25.866  34.200  1.00  0.00     0.031 A 
BRANCH  54  68
ATOM     68  C   UNL A   1      44.496  28.854  28.788  1.00  0.00    -0.014 A 
ATOM     69  C   UNL A   1      44.568  30.256  28.823  1.00  0.00     0.009 A 
ATOM     70  C   UNL A   1      43.736  28.238  27.783  1.00  0.00     0.009 A 
ATOM     71  C   UNL A   1      43.868  31.024  27.888  1.00  0.00     0.001 A 
ATOM     72  C   UNL A   1      43.063  29.008  26.832  1.00  0.00     0.001 A 
ATOM     73  C   UNL A   1      43.122  30.399  26.891  1.00  0.00     0.000 A 
ENDBRANCH  54  68
BRANCH  55  74
ATOM     74  C   UNL A   1      49.806  23.189  35.088  1.00  0.00    -0.014 A 
ATOM     75  C   UNL A   1      49.768  21.787  35.051  1.00  0.00     0.009 A 
ATOM     76  C   UNL A   1      50.574  23.818  36.081  1.00  0.00     0.009 A 
ATOM     77  C   UNL A   1      50.453  21.034  36.010  1.00  0.00     0.001 A 
ATOM     78  C   UNL A   1      51.287  23.064  37.014  1.00  0.00     0.001 A 
ATOM     79  C   UNL A   1      51.215  21.673  36.987  1.00  0.00     0.000 A 
ENDBRANCH  55  74
BRANCH  67  80
ATOM     80  C   UNL A   1      43.319  25.722  35.192  1.00  0.00    -0.014 A 
ATOM     81  C   UNL A   1      43.109  26.670  36.206  1.00  0.00     0.009 A 
ATOM     82  C   UNL A   1      42.447  24.626  35.098  1.00  0.00     0.009 A 
ATOM     83  C   UNL A   1      42.084  26.495  37.136  1.00  0.00     0.001 A 
ATOM     84  C   UNL A   1      41.399  24.473  36.006  1.00  0.00     0.001 A 
ATOM     85  C   UNL A   1      41.228  25.399  37.034  1.00  0.00     0.000 A 
ENDBRANCH  67  80
ENDBRANCH  41  42
ENDBRANCH  34  36
ENDBRANCH  33  34
ENDBRANCH  32  33
ENDBRANCH  31  32
ENDBRANCH  30  31
ENDBRANCH  29  30
ENDBRANCH  28  29
ENDBRANCH  27  28
ENDBRANCH   1  27
TORSDOF 24
ENDMDL
