MODEL 1
REMARK VINA RESULT:      -9.5      0.000      0.000
REMARK SMILES C[C@H](C(=O)OCCOCCOCCOCCOC(=O)c1ccc(-c2c3nc(c(-c4ccccc4)c4ccc([nH]4)c(-c4ccccc4)c4nc(c(-c5ccccc5)c5ccc2[nH]5)C=C4)C=C3)cc1)c1ccc(-c2ccccc2)c(F)c1
REMARK SMILES IDX 11 1 10 2 9 3 8 4 7 5 6 6 5 7 3 8 4 9 2 10 1 11 68 12 69 13
REMARK SMILES IDX 80 14 70 15 78 16 71 17 79 18 72 19 73 20 77 21 74 22 76 23
REMARK SMILES IDX 75 24 12 25 13 26 14 27 15 28 16 29 17 30 18 31 19 32 20 33
REMARK SMILES IDX 21 34 67 35 22 36 66 37 23 38 24 39 25 40 60 41 26 42 65 43
REMARK SMILES IDX 59 44 61 45 27 46 64 47 58 48 57 49 28 51 50 52 35 53 49 54
REMARK SMILES IDX 36 55 39 56 48 57 62 58 37 59 38 60 47 62 63 63 40 64 29 65
REMARK SMILES IDX 30 66 34 67 31 68 33 69 32 70 51 71 52 72 56 73 53 74 55 75
REMARK SMILES IDX 54 76 41 77 42 78 46 79 43 80 45 81 44 82
REMARK H PARENT 61 50 39 61
REMARK Flexibility Score: inf
ROOT
ATOM      1  O   UNL A   1      33.004  30.928  26.386  1.00  0.00    -0.377 OA
ENDROOT
BRANCH   1   2
ATOM      2  C   UNL A   1      31.739  30.316  26.226  1.00  0.00     0.188 C 
BRANCH   2   3
ATOM      3  C   UNL A   1      31.020  30.098  24.890  1.00  0.00     0.188 C 
BRANCH   3   4
ATOM      4  O   UNL A   1      30.971  28.756  24.464  1.00  0.00    -0.376 OA
BRANCH   4   5
ATOM      5  C   UNL A   1      31.524  28.312  23.243  1.00  0.00     0.202 C 
BRANCH   5   6
ATOM      6  C   UNL A   1      31.225  26.985  22.509  1.00  0.00     0.261 C 
BRANCH   6   7
ATOM      7  O   UNL A   1      31.876  25.767  22.899  1.00  0.00    -0.463 OA
BRANCH   7   8
ATOM      8  C   UNL A   1      33.212  25.694  22.680  1.00  0.00     0.313 C 
ATOM      9  O   UNL A   1      33.712  26.025  21.608  1.00  0.00    -0.252 OA
BRANCH   8  10
ATOM     10  C   UNL A   1      34.034  25.086  23.845  1.00  0.00     0.126 C 
ATOM     11  C   UNL A   1      33.605  25.866  25.103  1.00  0.00     0.025 C 
BRANCH  10  12
ATOM     12  C   UNL A   1      34.004  23.563  24.091  1.00  0.00    -0.031 A 
ATOM     13  C   UNL A   1      33.493  22.674  23.128  1.00  0.00     0.005 A 
ATOM     14  C   UNL A   1      34.497  22.971  25.271  1.00  0.00     0.044 A 
ATOM     15  C   UNL A   1      33.420  21.279  23.367  1.00  0.00     0.012 A 
ATOM     16  C   UNL A   1      34.441  21.583  25.490  1.00  0.00     0.131 A 
ATOM     17  C   UNL A   1      33.886  20.696  24.561  1.00  0.00     0.017 A 
ATOM     18  F   UNL A   1      34.930  21.127  26.655  1.00  0.00    -0.206 F 
BRANCH  17  19
ATOM     19  C   UNL A   1      33.760  19.237  24.829  1.00  0.00    -0.015 A 
ATOM     20  C   UNL A   1      34.645  18.301  24.264  1.00  0.00     0.009 A 
ATOM     21  C   UNL A   1      32.738  18.721  25.652  1.00  0.00     0.009 A 
ATOM     22  C   UNL A   1      34.505  16.923  24.492  1.00  0.00     0.001 A 
ATOM     23  C   UNL A   1      32.587  17.346  25.874  1.00  0.00     0.001 A 
ATOM     24  C   UNL A   1      33.471  16.446  25.290  1.00  0.00     0.000 A 
ENDBRANCH  17  19
ENDBRANCH  10  12
ENDBRANCH   8  10
ENDBRANCH   7   8
ENDBRANCH   6   7
ENDBRANCH   5   6
ENDBRANCH   4   5
ENDBRANCH   3   4
ENDBRANCH   2   3
ENDBRANCH   1   2
BRANCH   1  25
ATOM     25  C   UNL A   1      33.912  30.342  27.288  1.00  0.00     0.188 C 
BRANCH  25  26
ATOM     26  C   UNL A   1      34.959  31.357  27.754  1.00  0.00     0.188 C 
BRANCH  26  27
ATOM     27  O   UNL A   1      34.542  32.701  27.534  1.00  0.00    -0.376 OA
BRANCH  27  28
ATOM     28  C   UNL A   1      34.167  33.476  28.671  1.00  0.00     0.202 C 
BRANCH  28  29
ATOM     29  C   UNL A   1      34.421  32.981  30.111  1.00  0.00     0.261 C 
BRANCH  29  30
ATOM     30  O   UNL A   1      35.723  33.178  30.685  1.00  0.00    -0.460 OA
BRANCH  30  31
ATOM     31  C   UNL A   1      36.141  32.362  31.665  1.00  0.00     0.338 C 
ATOM     32  O   UNL A   1      35.632  32.192  32.759  1.00  0.00    -0.246 OA
BRANCH  31  33
ATOM     33  C   UNL A   1      37.235  31.539  31.100  1.00  0.00     0.060 A 
ATOM     34  C   UNL A   1      37.962  30.705  31.960  1.00  0.00     0.016 A 
ATOM     35  C   UNL A   1      37.512  31.549  29.729  1.00  0.00     0.016 A 
ATOM     36  C   UNL A   1      38.983  29.899  31.458  1.00  0.00     0.010 A 
ATOM     37  C   UNL A   1      38.558  30.765  29.230  1.00  0.00     0.010 A 
ATOM     38  C   UNL A   1      39.318  29.961  30.099  1.00  0.00    -0.014 A 
BRANCH  38  39
ATOM     39  C   UNL A   1      40.603  29.375  29.645  1.00  0.00     0.031 A 
ATOM     40  C   UNL A   1      41.825  30.251  29.679  1.00  0.00     0.074 A 
ATOM     41  C   UNL A   1      40.703  28.091  29.259  1.00  0.00     0.049 A 
ATOM     42  N   UNL A   1      43.059  29.972  29.347  1.00  0.00    -0.248 NA
ATOM     43  C   UNL A   1      41.626  31.629  30.158  1.00  0.00     0.031 C 
ATOM     44  C   UNL A   1      39.610  27.121  29.234  1.00  0.00     0.029 A 
ATOM     45  N   UNL A   1      41.793  27.382  28.815  1.00  0.00    -0.354 N 
ATOM     46  C   UNL A   1      43.779  31.140  29.573  1.00  0.00     0.074 A 
ATOM     47  C   UNL A   1      42.842  32.136  30.040  1.00  0.00     0.031 C 
ATOM     48  C   UNL A   1      40.085  25.942  28.793  1.00  0.00     0.029 A 
ATOM     49  C   UNL A   1      41.506  26.081  28.477  1.00  0.00     0.049 A 
ATOM     50  H   UNL A   1      42.695  27.770  28.744  1.00  0.00     0.167 HD
ATOM     51  C   UNL A   1      45.104  31.364  29.409  1.00  0.00     0.031 A 
ATOM     52  C   UNL A   1      42.299  25.123  27.959  1.00  0.00     0.031 A 
ATOM     53  C   UNL A   1      46.033  30.383  28.922  1.00  0.00     0.049 A 
ATOM     54  C   UNL A   1      43.752  25.426  27.693  1.00  0.00     0.074 A 
ATOM     55  C   UNL A   1      47.398  30.510  28.730  1.00  0.00     0.029 A 
ATOM     56  N   UNL A   1      45.691  29.097  28.535  1.00  0.00    -0.354 N 
ATOM     57  N   UNL A   1      44.428  26.523  27.939  1.00  0.00    -0.248 NA
ATOM     58  C   UNL A   1      44.552  24.353  27.084  1.00  0.00     0.031 C 
ATOM     59  C   UNL A   1      47.869  29.321  28.165  1.00  0.00     0.029 A 
ATOM     60  C   UNL A   1      46.812  28.430  28.073  1.00  0.00     0.049 A 
ATOM     61  H   UNL A   1      44.784  28.715  28.583  1.00  0.00     0.167 HD
ATOM     62  C   UNL A   1      45.736  26.260  27.547  1.00  0.00     0.074 A 
ATOM     63  C   UNL A   1      45.761  24.897  27.059  1.00  0.00     0.031 C 
ATOM     64  C   UNL A   1      46.820  27.073  27.590  1.00  0.00     0.031 A 
BRANCH  51  65
ATOM     65  C   UNL A   1      45.610  32.746  29.716  1.00  0.00    -0.014 A 
ATOM     66  C   UNL A   1      46.122  33.076  30.981  1.00  0.00     0.009 A 
ATOM     67  C   UNL A   1      45.590  33.728  28.714  1.00  0.00     0.009 A 
ATOM     68  C   UNL A   1      46.568  34.373  31.246  1.00  0.00     0.001 A 
ATOM     69  C   UNL A   1      46.066  35.014  28.972  1.00  0.00     0.001 A 
ATOM     70  C   UNL A   1      46.545  35.339  30.241  1.00  0.00     0.000 A 
ENDBRANCH  51  65
BRANCH  52  71
ATOM     71  C   UNL A   1      41.740  23.783  27.631  1.00  0.00    -0.014 A 
ATOM     72  C   UNL A   1      40.915  23.603  26.509  1.00  0.00     0.009 A 
ATOM     73  C   UNL A   1      41.999  22.681  28.462  1.00  0.00     0.009 A 
ATOM     74  C   UNL A   1      40.343  22.356  26.242  1.00  0.00     0.001 A 
ATOM     75  C   UNL A   1      41.449  21.430  28.176  1.00  0.00     0.001 A 
ATOM     76  C   UNL A   1      40.614  21.270  27.073  1.00  0.00     0.000 A 
ENDBRANCH  52  71
BRANCH  64  77
ATOM     77  C   UNL A   1      48.136  26.500  27.139  1.00  0.00    -0.014 A 
ATOM     78  C   UNL A   1      48.938  25.736  27.999  1.00  0.00     0.009 A 
ATOM     79  C   UNL A   1      48.554  26.688  25.811  1.00  0.00     0.009 A 
ATOM     80  C   UNL A   1      50.148  25.201  27.550  1.00  0.00     0.001 A 
ATOM     81  C   UNL A   1      49.746  26.125  25.354  1.00  0.00     0.001 A 
ATOM     82  C   UNL A   1      50.547  25.391  26.227  1.00  0.00     0.000 A 
ENDBRANCH  64  77
ENDBRANCH  38  39
ENDBRANCH  31  33
ENDBRANCH  30  31
ENDBRANCH  29  30
ENDBRANCH  28  29
ENDBRANCH  27  28
ENDBRANCH  26  27
ENDBRANCH  25  26
ENDBRANCH   1  25
TORSDOF 22
ENDMDL
MODEL 2
REMARK VINA RESULT:      -9.1      1.542      2.047
REMARK SMILES C[C@H](C(=O)OCCOCCOCCOCCOC(=O)c1ccc(-c2c3nc(c(-c4ccccc4)c4ccc([nH]4)c(-c4ccccc4)c4nc(c(-c5ccccc5)c5ccc2[nH]5)C=C4)C=C3)cc1)c1ccc(-c2ccccc2)c(F)c1
REMARK SMILES IDX 11 1 10 2 9 3 8 4 7 5 6 6 5 7 3 8 4 9 2 10 1 11 68 12 69 13
REMARK SMILES IDX 80 14 70 15 78 16 71 17 79 18 72 19 73 20 77 21 74 22 76 23
REMARK SMILES IDX 75 24 12 25 13 26 14 27 15 28 16 29 17 30 18 31 19 32 20 33
REMARK SMILES IDX 21 34 67 35 22 36 66 37 23 38 24 39 25 40 60 41 26 42 65 43
REMARK SMILES IDX 59 44 61 45 27 46 64 47 58 48 57 49 28 51 50 52 35 53 49 54
REMARK SMILES IDX 36 55 39 56 48 57 62 58 37 59 38 60 47 62 63 63 40 64 29 65
REMARK SMILES IDX 30 66 34 67 31 68 33 69 32 70 51 71 52 72 56 73 53 74 55 75
REMARK SMILES IDX 54 76 41 77 42 78 46 79 43 80 45 81 44 82
REMARK H PARENT 61 50 39 61
REMARK Flexibility Score: inf
ROOT
ATOM      1  O   UNL A   1      34.040  31.117  27.116  1.00  0.00    -0.377 OA
ENDROOT
BRANCH   1   2
ATOM      2  C   UNL A   1      33.065  30.426  26.360  1.00  0.00     0.188 C 
BRANCH   2   3
ATOM      3  C   UNL A   1      33.173  28.971  25.886  1.00  0.00     0.188 C 
BRANCH   3   4
ATOM      4  O   UNL A   1      34.309  28.696  25.100  1.00  0.00    -0.376 OA
BRANCH   4   5
ATOM      5  C   UNL A   1      34.256  28.529  23.699  1.00  0.00     0.202 C 
BRANCH   5   6
ATOM      6  C   UNL A   1      33.246  27.676  22.896  1.00  0.00     0.261 C 
BRANCH   6   7
ATOM      7  O   UNL A   1      32.734  26.447  23.431  1.00  0.00    -0.463 OA
BRANCH   7   8
ATOM      8  C   UNL A   1      33.429  25.320  23.140  1.00  0.00     0.313 C 
ATOM      9  O   UNL A   1      33.536  24.905  21.989  1.00  0.00    -0.252 OA
BRANCH   8  10
ATOM     10  C   UNL A   1      33.994  24.563  24.369  1.00  0.00     0.126 C 
ATOM     11  C   UNL A   1      33.396  25.271  25.599  1.00  0.00     0.025 C 
BRANCH  10  12
ATOM     12  C   UNL A   1      33.831  23.032  24.468  1.00  0.00    -0.031 A 
ATOM     13  C   UNL A   1      34.665  22.257  25.295  1.00  0.00     0.005 A 
ATOM     14  C   UNL A   1      32.838  22.323  23.762  1.00  0.00     0.044 A 
ATOM     15  C   UNL A   1      34.550  20.845  25.354  1.00  0.00     0.012 A 
ATOM     16  C   UNL A   1      32.718  20.925  23.844  1.00  0.00     0.131 A 
ATOM     17  C   UNL A   1      33.577  20.139  24.622  1.00  0.00     0.017 A 
ATOM     18  F   UNL A   1      31.743  20.350  23.121  1.00  0.00    -0.206 F 
BRANCH  17  19
ATOM     19  C   UNL A   1      33.493  18.653  24.647  1.00  0.00    -0.015 A 
ATOM     20  C   UNL A   1      34.035  17.863  23.616  1.00  0.00     0.009 A 
ATOM     21  C   UNL A   1      32.855  17.965  25.699  1.00  0.00     0.009 A 
ATOM     22  C   UNL A   1      33.926  16.464  23.626  1.00  0.00     0.001 A 
ATOM     23  C   UNL A   1      32.734  16.569  25.708  1.00  0.00     0.001 A 
ATOM     24  C   UNL A   1      33.269  15.818  24.667  1.00  0.00     0.000 A 
ENDBRANCH  17  19
ENDBRANCH  10  12
ENDBRANCH   8  10
ENDBRANCH   7   8
ENDBRANCH   6   7
ENDBRANCH   5   6
ENDBRANCH   4   5
ENDBRANCH   3   4
ENDBRANCH   2   3
ENDBRANCH   1   2
BRANCH   1  25
ATOM     25  C   UNL A   1      35.024  30.359  27.777  1.00  0.00     0.188 C 
BRANCH  25  26
ATOM     26  C   UNL A   1      36.108  31.261  28.370  1.00  0.00     0.188 C 
BRANCH  26  27
ATOM     27  O   UNL A   1      35.968  31.419  29.779  1.00  0.00    -0.376 OA
BRANCH  27  28
ATOM     28  C   UNL A   1      34.839  32.146  30.258  1.00  0.00     0.202 C 
BRANCH  28  29
ATOM     29  C   UNL A   1      34.714  32.569  31.738  1.00  0.00     0.261 C 
BRANCH  29  30
ATOM     30  O   UNL A   1      35.723  33.427  32.294  1.00  0.00    -0.460 OA
BRANCH  30  31
ATOM     31  C   UNL A   1      36.519  32.961  33.269  1.00  0.00     0.338 C 
ATOM     32  O   UNL A   1      36.249  32.828  34.450  1.00  0.00    -0.246 OA
BRANCH  31  33
ATOM     33  C   UNL A   1      37.740  32.439  32.613  1.00  0.00     0.060 A 
ATOM     34  C   UNL A   1      38.285  33.158  31.540  1.00  0.00     0.016 A 
ATOM     35  C   UNL A   1      38.372  31.282  33.078  1.00  0.00     0.016 A 
ATOM     36  C   UNL A   1      39.446  32.708  30.913  1.00  0.00     0.010 A 
ATOM     37  C   UNL A   1      39.519  30.813  32.429  1.00  0.00     0.010 A 
ATOM     38  C   UNL A   1      40.042  31.508  31.323  1.00  0.00    -0.014 A 
BRANCH  38  39
ATOM     39  C   UNL A   1      41.055  30.870  30.448  1.00  0.00     0.031 A 
ATOM     40  C   UNL A   1      42.343  31.610  30.208  1.00  0.00     0.074 A 
ATOM     41  C   UNL A   1      40.869  29.649  29.915  1.00  0.00     0.049 A 
ATOM     42  N   UNL A   1      43.383  31.262  29.496  1.00  0.00    -0.248 NA
ATOM     43  C   UNL A   1      42.473  32.920  30.868  1.00  0.00     0.031 C 
ATOM     44  C   UNL A   1      39.694  28.803  30.115  1.00  0.00     0.029 A 
ATOM     45  N   UNL A   1      41.682  28.907  29.094  1.00  0.00    -0.354 N 
ATOM     46  C   UNL A   1      44.287  32.311  29.619  1.00  0.00     0.074 A 
ATOM     47  C   UNL A   1      43.663  33.318  30.447  1.00  0.00     0.031 C 
ATOM     48  C   UNL A   1      39.862  27.657  29.431  1.00  0.00     0.029 A 
ATOM     49  C   UNL A   1      41.140  27.701  28.722  1.00  0.00     0.049 A 
ATOM     50  H   UNL A   1      42.572  29.212  28.799  1.00  0.00     0.167 HD
ATOM     51  C   UNL A   1      45.528  32.426  29.092  1.00  0.00     0.031 A 
ATOM     52  C   UNL A   1      41.618  26.753  27.892  1.00  0.00     0.031 A 
ATOM     53  C   UNL A   1      46.142  31.438  28.250  1.00  0.00     0.049 A 
ATOM     54  C   UNL A   1      42.963  26.948  27.240  1.00  0.00     0.074 A 
ATOM     55  C   UNL A   1      47.400  31.458  27.674  1.00  0.00     0.029 A 
ATOM     56  N   UNL A   1      45.534  30.258  27.848  1.00  0.00    -0.354 N 
ATOM     57  N   UNL A   1      43.821  27.929  27.387  1.00  0.00    -0.248 NA
ATOM     58  C   UNL A   1      43.406  25.898  26.309  1.00  0.00     0.031 C 
ATOM     59  C   UNL A   1      47.528  30.320  26.871  1.00  0.00     0.029 A 
ATOM     60  C   UNL A   1      46.378  29.557  27.005  1.00  0.00     0.049 A 
ATOM     61  H   UNL A   1      44.636  29.963  28.123  1.00  0.00     0.167 HD
ATOM     62  C   UNL A   1      44.917  27.597  26.597  1.00  0.00     0.074 A 
ATOM     63  C   UNL A   1      44.620  26.320  25.983  1.00  0.00     0.031 C 
ATOM     64  C   UNL A   1      46.068  28.287  26.401  1.00  0.00     0.031 A 
BRANCH  51  65
ATOM     65  C   UNL A   1      46.281  33.695  29.379  1.00  0.00    -0.014 A 
ATOM     66  C   UNL A   1      47.150  33.802  30.476  1.00  0.00     0.009 A 
ATOM     67  C   UNL A   1      46.130  34.798  28.522  1.00  0.00     0.009 A 
ATOM     68  C   UNL A   1      47.823  34.999  30.731  1.00  0.00     0.001 A 
ATOM     69  C   UNL A   1      46.827  35.982  28.762  1.00  0.00     0.001 A 
ATOM     70  C   UNL A   1      47.666  36.086  29.871  1.00  0.00     0.000 A 
ENDBRANCH  51  65
BRANCH  52  71
ATOM     71  C   UNL A   1      40.815  25.533  27.606  1.00  0.00    -0.014 A 
ATOM     72  C   UNL A   1      41.204  24.281  28.109  1.00  0.00     0.009 A 
ATOM     73  C   UNL A   1      39.670  25.608  26.795  1.00  0.00     0.009 A 
ATOM     74  C   UNL A   1      40.481  23.130  27.784  1.00  0.00     0.001 A 
ATOM     75  C   UNL A   1      38.933  24.461  26.497  1.00  0.00     0.001 A 
ATOM     76  C   UNL A   1      39.343  23.222  26.983  1.00  0.00     0.000 A 
ENDBRANCH  52  71
BRANCH  64  77
ATOM     77  C   UNL A   1      47.113  27.658  25.520  1.00  0.00    -0.014 A 
ATOM     78  C   UNL A   1      48.077  26.780  26.037  1.00  0.00     0.009 A 
ATOM     79  C   UNL A   1      47.097  27.912  24.139  1.00  0.00     0.009 A 
ATOM     80  C   UNL A   1      49.026  26.196  25.194  1.00  0.00     0.001 A 
ATOM     81  C   UNL A   1      48.025  27.301  23.293  1.00  0.00     0.001 A 
ATOM     82  C   UNL A   1      48.994  26.453  23.823  1.00  0.00     0.000 A 
ENDBRANCH  64  77
ENDBRANCH  38  39
ENDBRANCH  31  33
ENDBRANCH  30  31
ENDBRANCH  29  30
ENDBRANCH  28  29
ENDBRANCH  27  28
ENDBRANCH  26  27
ENDBRANCH  25  26
ENDBRANCH   1  25
TORSDOF 22
ENDMDL
MODEL 3
REMARK VINA RESULT:      -9.0      1.310      5.937
REMARK SMILES C[C@H](C(=O)OCCOCCOCCOCCOC(=O)c1ccc(-c2c3nc(c(-c4ccccc4)c4ccc([nH]4)c(-c4ccccc4)c4nc(c(-c5ccccc5)c5ccc2[nH]5)C=C4)C=C3)cc1)c1ccc(-c2ccccc2)c(F)c1
REMARK SMILES IDX 11 1 10 2 9 3 8 4 7 5 6 6 5 7 3 8 4 9 2 10 1 11 68 12 69 13
REMARK SMILES IDX 80 14 70 15 78 16 71 17 79 18 72 19 73 20 77 21 74 22 76 23
REMARK SMILES IDX 75 24 12 25 13 26 14 27 15 28 16 29 17 30 18 31 19 32 20 33
REMARK SMILES IDX 21 34 67 35 22 36 66 37 23 38 24 39 25 40 60 41 26 42 65 43
REMARK SMILES IDX 59 44 61 45 27 46 64 47 58 48 57 49 28 51 50 52 35 53 49 54
REMARK SMILES IDX 36 55 39 56 48 57 62 58 37 59 38 60 47 62 63 63 40 64 29 65
REMARK SMILES IDX 30 66 34 67 31 68 33 69 32 70 51 71 52 72 56 73 53 74 55 75
REMARK SMILES IDX 54 76 41 77 42 78 46 79 43 80 45 81 44 82
REMARK H PARENT 61 50 39 61
REMARK Flexibility Score: inf
ROOT
ATOM      1  O   UNL A   1      34.454  30.167  26.889  1.00  0.00    -0.377 OA
ENDROOT
BRANCH   1   2
ATOM      2  C   UNL A   1      33.055  30.106  26.693  1.00  0.00     0.188 C 
BRANCH   2   3
ATOM      3  C   UNL A   1      32.357  29.679  25.397  1.00  0.00     0.188 C 
BRANCH   3   4
ATOM      4  O   UNL A   1      31.784  28.393  25.439  1.00  0.00    -0.376 OA
BRANCH   4   5
ATOM      5  C   UNL A   1      30.981  27.870  24.401  1.00  0.00     0.202 C 
BRANCH   5   6
ATOM      6  C   UNL A   1      30.237  26.515  24.386  1.00  0.00     0.261 C 
BRANCH   6   7
ATOM      7  O   UNL A   1      30.926  25.303  24.048  1.00  0.00    -0.463 OA
BRANCH   7   8
ATOM      8  C   UNL A   1      31.718  25.340  22.948  1.00  0.00     0.313 C 
ATOM      9  O   UNL A   1      31.338  25.842  21.893  1.00  0.00    -0.252 OA
BRANCH   8  10
ATOM     10  C   UNL A   1      33.087  24.631  23.103  1.00  0.00     0.126 C 
ATOM     11  C   UNL A   1      33.841  25.423  24.188  1.00  0.00     0.025 C 
BRANCH  10  12
ATOM     12  C   UNL A   1      33.138  23.113  23.378  1.00  0.00    -0.031 A 
ATOM     13  C   UNL A   1      32.390  22.202  22.610  1.00  0.00     0.005 A 
ATOM     14  C   UNL A   1      33.940  22.548  24.390  1.00  0.00     0.044 A 
ATOM     15  C   UNL A   1      32.396  20.812  22.888  1.00  0.00     0.012 A 
ATOM     16  C   UNL A   1      33.956  21.165  24.644  1.00  0.00     0.131 A 
ATOM     17  C   UNL A   1      33.175  20.256  23.920  1.00  0.00     0.017 A 
ATOM     18  F   UNL A   1      34.749  20.735  25.639  1.00  0.00    -0.206 F 
BRANCH  17  19
ATOM     19  C   UNL A   1      33.139  18.803  24.242  1.00  0.00    -0.015 A 
ATOM     20  C   UNL A   1      32.661  18.330  25.479  1.00  0.00     0.009 A 
ATOM     21  C   UNL A   1      33.595  17.831  23.330  1.00  0.00     0.009 A 
ATOM     22  C   UNL A   1      32.658  16.963  25.792  1.00  0.00     0.001 A 
ATOM     23  C   UNL A   1      33.605  16.465  23.642  1.00  0.00     0.001 A 
ATOM     24  C   UNL A   1      33.138  16.031  24.878  1.00  0.00     0.000 A 
ENDBRANCH  17  19
ENDBRANCH  10  12
ENDBRANCH   8  10
ENDBRANCH   7   8
ENDBRANCH   6   7
ENDBRANCH   5   6
ENDBRANCH   4   5
ENDBRANCH   3   4
ENDBRANCH   2   3
ENDBRANCH   1   2
BRANCH   1  25
ATOM     25  C   UNL A   1      34.958  29.835  28.161  1.00  0.00     0.188 C 
BRANCH  25  26
ATOM     26  C   UNL A   1      35.754  30.997  28.759  1.00  0.00     0.188 C 
BRANCH  26  27
ATOM     27  O   UNL A   1      35.318  32.261  28.266  1.00  0.00    -0.376 OA
BRANCH  27  28
ATOM     28  C   UNL A   1      34.604  33.113  29.158  1.00  0.00     0.202 C 
BRANCH  28  29
ATOM     29  C   UNL A   1      34.697  32.946  30.691  1.00  0.00     0.261 C 
BRANCH  29  30
ATOM     30  O   UNL A   1      35.930  33.287  31.345  1.00  0.00    -0.460 OA
BRANCH  30  31
ATOM     31  C   UNL A   1      36.491  32.409  32.191  1.00  0.00     0.338 C 
ATOM     32  O   UNL A   1      35.966  31.844  33.134  1.00  0.00    -0.246 OA
BRANCH  31  33
ATOM     33  C   UNL A   1      37.831  32.087  31.647  1.00  0.00     0.060 A 
ATOM     34  C   UNL A   1      38.197  32.620  30.403  1.00  0.00     0.016 A 
ATOM     35  C   UNL A   1      38.738  31.309  32.373  1.00  0.00     0.016 A 
ATOM     36  C   UNL A   1      39.458  32.357  29.872  1.00  0.00     0.010 A 
ATOM     37  C   UNL A   1      39.992  31.018  31.826  1.00  0.00     0.010 A 
ATOM     38  C   UNL A   1      40.344  31.516  30.557  1.00  0.00    -0.014 A 
BRANCH  38  39
ATOM     39  C   UNL A   1      41.523  30.972  29.841  1.00  0.00     0.031 A 
ATOM     40  C   UNL A   1      41.413  29.589  29.256  1.00  0.00     0.074 A 
ATOM     41  C   UNL A   1      42.645  31.692  29.665  1.00  0.00     0.049 A 
ATOM     42  N   UNL A   1      42.294  28.899  28.579  1.00  0.00    -0.248 NA
ATOM     43  C   UNL A   1      40.131  28.896  29.462  1.00  0.00     0.031 C 
ATOM     44  C   UNL A   1      42.860  33.061  30.130  1.00  0.00     0.029 A 
ATOM     45  N   UNL A   1      43.821  31.361  29.037  1.00  0.00    -0.354 N 
ATOM     46  C   UNL A   1      41.674  27.691  28.283  1.00  0.00     0.074 A 
ATOM     47  C   UNL A   1      40.357  27.730  28.878  1.00  0.00     0.031 C 
ATOM     48  C   UNL A   1      44.097  33.452  29.772  1.00  0.00     0.029 A 
ATOM     49  C   UNL A   1      44.770  32.353  29.081  1.00  0.00     0.049 A 
ATOM     50  H   UNL A   1      43.970  30.493  28.596  1.00  0.00     0.167 HD
ATOM     51  C   UNL A   1      42.155  26.642  27.577  1.00  0.00     0.031 A 
ATOM     52  C   UNL A   1      46.039  32.363  28.630  1.00  0.00     0.031 A 
ATOM     53  C   UNL A   1      43.472  26.591  27.005  1.00  0.00     0.049 A 
ATOM     54  C   UNL A   1      46.586  31.144  27.930  1.00  0.00     0.074 A 
ATOM     55  C   UNL A   1      44.051  25.576  26.263  1.00  0.00     0.029 A 
ATOM     56  N   UNL A   1      44.423  27.592  27.126  1.00  0.00    -0.354 N 
ATOM     57  N   UNL A   1      45.982  30.020  27.629  1.00  0.00    -0.248 NA
ATOM     58  C   UNL A   1      47.992  31.201  27.502  1.00  0.00     0.031 C 
ATOM     59  C   UNL A   1      45.373  25.937  25.991  1.00  0.00     0.029 A 
ATOM     60  C   UNL A   1      45.595  27.207  26.501  1.00  0.00     0.049 A 
ATOM     61  H   UNL A   1      44.283  28.452  27.587  1.00  0.00     0.167 HD
ATOM     62  C   UNL A   1      46.920  29.253  26.948  1.00  0.00     0.074 A 
ATOM     63  C   UNL A   1      48.130  30.044  26.870  1.00  0.00     0.031 C 
ATOM     64  C   UNL A   1      46.792  28.006  26.432  1.00  0.00     0.031 A 
BRANCH  51  65
ATOM     65  C   UNL A   1      41.260  25.444  27.430  1.00  0.00    -0.014 A 
ATOM     66  C   UNL A   1      40.140  25.463  26.584  1.00  0.00     0.009 A 
ATOM     67  C   UNL A   1      41.555  24.268  28.139  1.00  0.00     0.009 A 
ATOM     68  C   UNL A   1      39.313  24.342  26.481  1.00  0.00     0.001 A 
ATOM     69  C   UNL A   1      40.745  23.140  28.010  1.00  0.00     0.001 A 
ATOM     70  C   UNL A   1      39.619  23.180  27.188  1.00  0.00     0.000 A 
ENDBRANCH  51  65
BRANCH  52  71
ATOM     71  C   UNL A   1      46.901  33.558  28.838  1.00  0.00    -0.014 A 
ATOM     72  C   UNL A   1      47.663  33.700  30.009  1.00  0.00     0.009 A 
ATOM     73  C   UNL A   1      46.937  34.585  27.880  1.00  0.00     0.009 A 
ATOM     74  C   UNL A   1      48.421  34.854  30.226  1.00  0.00     0.001 A 
ATOM     75  C   UNL A   1      47.718  35.724  28.087  1.00  0.00     0.001 A 
ATOM     76  C   UNL A   1      48.452  35.862  29.264  1.00  0.00     0.000 A 
ENDBRANCH  52  71
BRANCH  64  77
ATOM     77  C   UNL A   1      47.973  27.433  25.696  1.00  0.00    -0.014 A 
ATOM     78  C   UNL A   1      48.945  26.665  26.353  1.00  0.00     0.009 A 
ATOM     79  C   UNL A   1      48.083  27.626  24.309  1.00  0.00     0.009 A 
ATOM     80  C   UNL A   1      50.023  26.130  25.643  1.00  0.00     0.001 A 
ATOM     81  C   UNL A   1      49.143  27.063  23.596  1.00  0.00     0.001 A 
ATOM     82  C   UNL A   1      50.117  26.326  24.264  1.00  0.00     0.000 A 
ENDBRANCH  64  77
ENDBRANCH  38  39
ENDBRANCH  31  33
ENDBRANCH  30  31
ENDBRANCH  29  30
ENDBRANCH  28  29
ENDBRANCH  27  28
ENDBRANCH  26  27
ENDBRANCH  25  26
ENDBRANCH   1  25
TORSDOF 22
ENDMDL
