MODEL 1
REMARK VINA RESULT:     -10.1      0.000      0.000
REMARK SMILES Cn1c(=O)[nH]c(=O)c2c1nc(NC1CCCC1)n2CC(=O)OCCOCCOCCOCCOC(=O)c1ccc(-c2c3nc(c(-c4ccccc4)c4ccc([nH]4)c(-c4ccccc4)c4nc(c(-c5ccccc5)c5ccc2[nH]5)C=C4)C=C3)cc1
REMARK SMILES IDX 27 1 26 2 25 3 24 4 23 5 22 6 20 7 21 8 19 9 18 10 1 11 2 12
REMARK SMILES IDX 3 13 9 14 4 15 5 16 8 17 10 18 6 19 11 21 7 22 12 23 13 25
REMARK SMILES IDX 14 26 17 27 15 28 16 29 28 30 29 31 30 32 31 33 32 34 33 35
REMARK SMILES IDX 34 36 35 37 36 38 37 39 38 40 84 41 39 42 83 43 40 44 41 45
REMARK SMILES IDX 42 46 77 47 43 48 82 49 76 50 78 51 44 52 81 53 75 54 74 55
REMARK SMILES IDX 45 57 67 58 52 59 66 60 53 61 56 62 65 63 79 64 54 65 55 66
REMARK SMILES IDX 64 68 80 69 57 70 46 71 47 72 51 73 48 74 50 75 49 76 68 77
REMARK SMILES IDX 69 78 73 79 70 80 72 81 71 82 58 83 59 84 63 85 60 86 62 87
REMARK SMILES IDX 61 88
REMARK H PARENT 5 20 12 24 78 56 56 67
REMARK Flexibility Score: inf
ROOT
ATOM      1  C   UNL A   1      34.904  30.977  27.387  1.00  0.00     0.188 C 
ENDROOT
BRANCH   1   2
ATOM      2  C   UNL A   1      33.414  30.588  27.544  1.00  0.00     0.188 C 
BRANCH   2   3
ATOM      3  O   UNL A   1      32.756  29.718  26.627  1.00  0.00    -0.376 OA
BRANCH   3   4
ATOM      4  C   UNL A   1      33.510  28.735  25.938  1.00  0.00     0.202 C 
BRANCH   4   5
ATOM      5  C   UNL A   1      32.981  27.294  26.000  1.00  0.00     0.261 C 
BRANCH   5   6
ATOM      6  O   UNL A   1      34.003  26.277  25.890  1.00  0.00    -0.462 OA
BRANCH   6   7
ATOM      7  C   UNL A   1      33.607  24.996  26.104  1.00  0.00     0.326 C 
ATOM      8  O   UNL A   1      32.470  24.681  26.447  1.00  0.00    -0.250 OA
BRANCH   7   9
ATOM      9  C   UNL A   1      34.620  23.937  25.726  1.00  0.00     0.248 C 
BRANCH   9  10
ATOM     10  N   UNL A   1      34.223  22.829  24.865  1.00  0.00    -0.293 N 
ATOM     11  C   UNL A   1      32.225  19.064  23.081  1.00  0.00     0.157 C 
ATOM     12  N   UNL A   1      32.776  19.692  24.267  1.00  0.00    -0.279 N 
ATOM     13  C   UNL A   1      32.692  19.061  25.500  1.00  0.00     0.329 A 
ATOM     14  C   UNL A   1      33.319  20.955  24.215  1.00  0.00     0.170 A 
ATOM     15  O   UNL A   1      32.175  17.957  25.667  1.00  0.00    -0.248 OA
ATOM     16  N   UNL A   1      33.214  19.740  26.589  1.00  0.00    -0.272 N 
ATOM     17  C   UNL A   1      33.814  21.592  25.310  1.00  0.00     0.154 A 
ATOM     18  N   UNL A   1      33.389  21.728  23.116  1.00  0.00    -0.194 NA
ATOM     19  C   UNL A   1      33.791  20.994  26.598  1.00  0.00     0.279 A 
ATOM     20  H   UNL A   1      33.166  19.275  27.455  1.00  0.00     0.175 HD
ATOM     21  C   UNL A   1      33.911  22.870  23.502  1.00  0.00     0.206 A 
ATOM     22  O   UNL A   1      34.214  21.519  27.618  1.00  0.00    -0.267 OA
BRANCH  21  23
ATOM     23  N   UNL A   1      34.128  23.938  22.704  1.00  0.00    -0.353 N 
ATOM     24  H   UNL A   1      35.041  24.089  22.369  1.00  0.00     0.163 HD
BRANCH  23  25
ATOM     25  C   UNL A   1      33.082  24.884  22.313  1.00  0.00     0.082 C 
ATOM     26  C   UNL A   1      31.758  24.846  23.068  1.00  0.00     0.025 C 
ATOM     27  C   UNL A   1      33.467  26.353  22.429  1.00  0.00     0.025 C 
ATOM     28  C   UNL A   1      31.025  26.069  22.534  1.00  0.00     0.002 C 
ATOM     29  C   UNL A   1      32.131  27.106  22.310  1.00  0.00     0.002 C 
ENDBRANCH  23  25
ENDBRANCH  21  23
ENDBRANCH   9  10
ENDBRANCH   7   9
ENDBRANCH   6   7
ENDBRANCH   5   6
ENDBRANCH   4   5
ENDBRANCH   3   4
ENDBRANCH   2   3
ENDBRANCH   1   2
BRANCH   1  30
ATOM     30  O   UNL A   1      35.216  32.336  27.654  1.00  0.00    -0.377 OA
BRANCH  30  31
ATOM     31  C   UNL A   1      34.255  33.033  28.431  1.00  0.00     0.188 C 
BRANCH  31  32
ATOM     32  C   UNL A   1      34.007  34.482  27.991  1.00  0.00     0.188 C 
BRANCH  32  33
ATOM     33  O   UNL A   1      32.892  35.087  28.641  1.00  0.00    -0.376 OA
BRANCH  33  34
ATOM     34  C   UNL A   1      33.137  36.272  29.385  1.00  0.00     0.202 C 
BRANCH  34  35
ATOM     35  C   UNL A   1      32.580  36.198  30.805  1.00  0.00     0.261 C 
BRANCH  35  36
ATOM     36  O   UNL A   1      33.037  35.089  31.577  1.00  0.00    -0.460 OA
BRANCH  36  37
ATOM     37  C   UNL A   1      33.617  35.390  32.755  1.00  0.00     0.338 C 
ATOM     38  O   UNL A   1      33.379  36.349  33.465  1.00  0.00    -0.246 OA
BRANCH  37  39
ATOM     39  C   UNL A   1      34.670  34.405  33.046  1.00  0.00     0.060 A 
ATOM     40  C   UNL A   1      35.860  34.897  33.582  1.00  0.00     0.016 A 
ATOM     41  C   UNL A   1      34.559  33.078  32.609  1.00  0.00     0.016 A 
ATOM     42  C   UNL A   1      36.992  34.113  33.505  1.00  0.00     0.010 A 
ATOM     43  C   UNL A   1      35.691  32.291  32.532  1.00  0.00     0.010 A 
ATOM     44  C   UNL A   1      36.910  32.854  32.899  1.00  0.00    -0.014 A 
BRANCH  44  45
ATOM     45  C   UNL A   1      38.160  32.195  32.581  1.00  0.00     0.031 A 
ATOM     46  C   UNL A   1      39.129  32.046  33.684  1.00  0.00     0.074 A 
ATOM     47  C   UNL A   1      38.422  31.726  31.348  1.00  0.00     0.049 A 
ATOM     48  N   UNL A   1      40.317  32.549  33.760  1.00  0.00    -0.248 NA
ATOM     49  C   UNL A   1      38.701  31.298  34.870  1.00  0.00     0.031 C 
ATOM     50  C   UNL A   1      37.496  31.547  30.226  1.00  0.00     0.029 A 
ATOM     51  N   UNL A   1      39.589  31.204  30.881  1.00  0.00    -0.354 N 
ATOM     52  C   UNL A   1      40.851  32.080  34.954  1.00  0.00     0.074 A 
ATOM     53  C   UNL A   1      39.787  31.389  35.640  1.00  0.00     0.031 C 
ATOM     54  C   UNL A   1      38.080  30.755  29.299  1.00  0.00     0.029 A 
ATOM     55  C   UNL A   1      39.450  30.485  29.707  1.00  0.00     0.049 A 
ATOM     56  H   UNL A   1      40.453  31.328  31.335  1.00  0.00     0.167 HD
ATOM     57  C   UNL A   1      42.178  32.152  35.237  1.00  0.00     0.031 A 
ATOM     58  C   UNL A   1      40.372  29.660  29.159  1.00  0.00     0.031 A 
ATOM     59  C   UNL A   1      42.881  33.066  34.381  1.00  0.00     0.049 A 
ATOM     60  C   UNL A   1      41.696  30.014  29.721  1.00  0.00     0.074 A 
ATOM     61  C   UNL A   1      42.814  34.425  34.150  1.00  0.00     0.029 A 
ATOM     62  N   UNL A   1      43.617  32.542  33.346  1.00  0.00    -0.354 N 
ATOM     63  N   UNL A   1      42.335  31.110  29.429  1.00  0.00    -0.248 NA
ATOM     64  C   UNL A   1      42.154  29.333  30.924  1.00  0.00     0.031 C 
ATOM     65  C   UNL A   1      43.113  34.583  32.766  1.00  0.00     0.029 A 
ATOM     66  C   UNL A   1      43.357  33.312  32.242  1.00  0.00     0.049 A 
ATOM     67  H   UNL A   1      44.218  31.762  33.389  1.00  0.00     0.167 HD
ATOM     68  C   UNL A   1      42.970  31.479  30.607  1.00  0.00     0.074 A 
ATOM     69  C   UNL A   1      42.927  30.288  31.448  1.00  0.00     0.031 C 
ATOM     70  C   UNL A   1      43.217  32.791  30.899  1.00  0.00     0.031 A 
BRANCH  57  71
ATOM     71  C   UNL A   1      42.890  31.161  36.108  1.00  0.00    -0.014 A 
ATOM     72  C   UNL A   1      43.597  31.615  37.233  1.00  0.00     0.009 A 
ATOM     73  C   UNL A   1      43.099  29.826  35.714  1.00  0.00     0.009 A 
ATOM     74  C   UNL A   1      44.491  30.779  37.912  1.00  0.00     0.001 A 
ATOM     75  C   UNL A   1      43.959  28.977  36.414  1.00  0.00     0.001 A 
ATOM     76  C   UNL A   1      44.671  29.462  37.502  1.00  0.00     0.000 A 
ENDBRANCH  57  71
BRANCH  58  77
ATOM     77  C   UNL A   1      40.135  28.444  28.356  1.00  0.00    -0.014 A 
ATOM     78  C   UNL A   1      40.749  28.275  27.107  1.00  0.00     0.009 A 
ATOM     79  C   UNL A   1      39.483  27.330  28.919  1.00  0.00     0.009 A 
ATOM     80  C   UNL A   1      40.729  27.032  26.460  1.00  0.00     0.001 A 
ATOM     81  C   UNL A   1      39.452  26.094  28.271  1.00  0.00     0.001 A 
ATOM     82  C   UNL A   1      40.088  25.942  27.045  1.00  0.00     0.000 A 
ENDBRANCH  58  77
BRANCH  70  83
ATOM     83  C   UNL A   1      42.998  33.812  29.809  1.00  0.00    -0.014 A 
ATOM     84  C   UNL A   1      41.771  34.479  29.643  1.00  0.00     0.009 A 
ATOM     85  C   UNL A   1      44.094  34.241  29.047  1.00  0.00     0.009 A 
ATOM     86  C   UNL A   1      41.637  35.522  28.722  1.00  0.00     0.001 A 
ATOM     87  C   UNL A   1      43.967  35.299  28.142  1.00  0.00     0.001 A 
ATOM     88  C   UNL A   1      42.738  35.935  27.976  1.00  0.00     0.000 A 
ENDBRANCH  70  83
ENDBRANCH  44  45
ENDBRANCH  37  39
ENDBRANCH  36  37
ENDBRANCH  35  36
ENDBRANCH  34  35
ENDBRANCH  33  34
ENDBRANCH  32  33
ENDBRANCH  31  32
ENDBRANCH  30  31
ENDBRANCH   1  30
TORSDOF 23
ENDMDL
MODEL 2
REMARK VINA RESULT:      -9.8      3.214      5.306
REMARK SMILES Cn1c(=O)[nH]c(=O)c2c1nc(NC1CCCC1)n2CC(=O)OCCOCCOCCOCCOC(=O)c1ccc(-c2c3nc(c(-c4ccccc4)c4ccc([nH]4)c(-c4ccccc4)c4nc(c(-c5ccccc5)c5ccc2[nH]5)C=C4)C=C3)cc1
REMARK SMILES IDX 27 1 26 2 25 3 24 4 23 5 22 6 20 7 21 8 19 9 18 10 1 11 2 12
REMARK SMILES IDX 3 13 9 14 4 15 5 16 8 17 10 18 6 19 11 21 7 22 12 23 13 25
REMARK SMILES IDX 14 26 17 27 15 28 16 29 28 30 29 31 30 32 31 33 32 34 33 35
REMARK SMILES IDX 34 36 35 37 36 38 37 39 38 40 84 41 39 42 83 43 40 44 41 45
REMARK SMILES IDX 42 46 77 47 43 48 82 49 76 50 78 51 44 52 81 53 75 54 74 55
REMARK SMILES IDX 45 57 67 58 52 59 66 60 53 61 56 62 65 63 79 64 54 65 55 66
REMARK SMILES IDX 64 68 80 69 57 70 46 71 47 72 51 73 48 74 50 75 49 76 68 77
REMARK SMILES IDX 69 78 73 79 70 80 72 81 71 82 58 83 59 84 63 85 60 86 62 87
REMARK SMILES IDX 61 88
REMARK H PARENT 5 20 12 24 78 56 56 67
REMARK Flexibility Score: inf
ROOT
ATOM      1  C   UNL A   1      29.547  28.747  23.205  1.00  0.00     0.188 C 
ENDROOT
BRANCH   1   2
ATOM      2  C   UNL A   1      30.566  28.496  22.066  1.00  0.00     0.188 C 
BRANCH   2   3
ATOM      3  O   UNL A   1      31.361  27.315  22.006  1.00  0.00    -0.376 OA
BRANCH   3   4
ATOM      4  C   UNL A   1      32.544  27.233  22.781  1.00  0.00     0.202 C 
BRANCH   4   5
ATOM      5  C   UNL A   1      32.653  26.044  23.748  1.00  0.00     0.261 C 
BRANCH   5   6
ATOM      6  O   UNL A   1      33.981  25.822  24.276  1.00  0.00    -0.462 OA
BRANCH   6   7
ATOM      7  C   UNL A   1      34.512  24.590  24.077  1.00  0.00     0.326 C 
ATOM      8  O   UNL A   1      34.781  24.131  22.969  1.00  0.00    -0.250 OA
BRANCH   7   9
ATOM      9  C   UNL A   1      34.925  23.856  25.335  1.00  0.00     0.248 C 
BRANCH   9  10
ATOM     10  N   UNL A   1      35.157  22.416  25.291  1.00  0.00    -0.293 N 
ATOM     11  C   UNL A   1      34.862  17.876  24.490  1.00  0.00     0.157 C 
ATOM     12  N   UNL A   1      34.144  19.095  24.808  1.00  0.00    -0.279 N 
ATOM     13  C   UNL A   1      32.757  19.098  24.871  1.00  0.00     0.329 A 
ATOM     14  C   UNL A   1      34.808  20.288  24.973  1.00  0.00     0.170 A 
ATOM     15  O   UNL A   1      32.064  18.099  24.684  1.00  0.00    -0.248 OA
ATOM     16  N   UNL A   1      32.145  20.309  25.150  1.00  0.00    -0.272 N 
ATOM     17  C   UNL A   1      34.168  21.460  25.237  1.00  0.00     0.154 A 
ATOM     18  N   UNL A   1      36.137  20.463  24.852  1.00  0.00    -0.194 NA
ATOM     19  C   UNL A   1      32.754  21.532  25.349  1.00  0.00     0.279 A 
ATOM     20  H   UNL A   1      31.163  20.296  25.212  1.00  0.00     0.175 HD
ATOM     21  C   UNL A   1      36.355  21.748  25.018  1.00  0.00     0.206 A 
ATOM     22  O   UNL A   1      32.125  22.555  25.577  1.00  0.00    -0.267 OA
BRANCH  21  23
ATOM     23  N   UNL A   1      37.562  22.350  24.947  1.00  0.00    -0.353 N 
ATOM     24  H   UNL A   1      37.906  22.597  24.058  1.00  0.00     0.163 HD
BRANCH  23  25
ATOM     25  C   UNL A   1      38.387  22.653  26.117  1.00  0.00     0.082 C 
ATOM     26  C   UNL A   1      39.652  21.832  26.340  1.00  0.00     0.025 C 
ATOM     27  C   UNL A   1      38.924  24.078  26.175  1.00  0.00     0.025 C 
ATOM     28  C   UNL A   1      40.327  22.551  27.499  1.00  0.00     0.002 C 
ATOM     29  C   UNL A   1      40.007  24.031  27.266  1.00  0.00     0.002 C 
ENDBRANCH  23  25
ENDBRANCH  21  23
ENDBRANCH   9  10
ENDBRANCH   7   9
ENDBRANCH   6   7
ENDBRANCH   5   6
ENDBRANCH   4   5
ENDBRANCH   3   4
ENDBRANCH   2   3
ENDBRANCH   1   2
BRANCH   1  30
ATOM     30  O   UNL A   1      29.199  30.105  23.430  1.00  0.00    -0.377 OA
BRANCH  30  31
ATOM     31  C   UNL A   1      30.135  30.847  24.195  1.00  0.00     0.188 C 
BRANCH  31  32
ATOM     32  C   UNL A   1      31.067  29.995  25.068  1.00  0.00     0.188 C 
BRANCH  32  33
ATOM     33  O   UNL A   1      31.737  30.744  26.079  1.00  0.00    -0.376 OA
BRANCH  33  34
ATOM     34  C   UNL A   1      32.990  30.251  26.530  1.00  0.00     0.202 C 
BRANCH  34  35
ATOM     35  C   UNL A   1      33.674  31.200  27.512  1.00  0.00     0.261 C 
BRANCH  35  36
ATOM     36  O   UNL A   1      34.663  30.598  28.345  1.00  0.00    -0.460 OA
BRANCH  36  37
ATOM     37  C   UNL A   1      35.551  31.440  28.908  1.00  0.00     0.338 C 
ATOM     38  O   UNL A   1      35.311  32.500  29.455  1.00  0.00    -0.246 OA
BRANCH  37  39
ATOM     39  C   UNL A   1      36.912  30.921  28.703  1.00  0.00     0.060 A 
ATOM     40  C   UNL A   1      37.022  29.635  28.175  1.00  0.00     0.016 A 
ATOM     41  C   UNL A   1      38.029  31.600  29.212  1.00  0.00     0.016 A 
ATOM     42  C   UNL A   1      38.213  28.958  28.329  1.00  0.00     0.010 A 
ATOM     43  C   UNL A   1      39.222  30.924  29.365  1.00  0.00     0.010 A 
ATOM     44  C   UNL A   1      39.270  29.581  29.003  1.00  0.00    -0.014 A 
BRANCH  44  45
ATOM     45  C   UNL A   1      40.385  28.743  29.394  1.00  0.00     0.031 A 
ATOM     46  C   UNL A   1      40.571  28.520  30.841  1.00  0.00     0.074 A 
ATOM     47  C   UNL A   1      41.202  28.179  28.486  1.00  0.00     0.049 A 
ATOM     48  N   UNL A   1      41.586  28.859  31.564  1.00  0.00    -0.248 NA
ATOM     49  C   UNL A   1      39.468  27.900  31.582  1.00  0.00     0.031 C 
ATOM     50  C   UNL A   1      41.015  28.070  27.037  1.00  0.00     0.029 A 
ATOM     51  N   UNL A   1      42.347  27.480  28.710  1.00  0.00    -0.354 N 
ATOM     52  C   UNL A   1      41.316  28.385  32.842  1.00  0.00     0.074 A 
ATOM     53  C   UNL A   1      39.965  27.881  32.819  1.00  0.00     0.031 C 
ATOM     54  C   UNL A   1      41.887  27.160  26.550  1.00  0.00     0.029 A 
ATOM     55  C   UNL A   1      42.764  26.726  27.627  1.00  0.00     0.049 A 
ATOM     56  H   UNL A   1      42.836  27.508  29.564  1.00  0.00     0.167 HD
ATOM     57  C   UNL A   1      42.275  28.290  33.801  1.00  0.00     0.031 A 
ATOM     58  C   UNL A   1      43.707  25.756  27.641  1.00  0.00     0.031 A 
ATOM     59  C   UNL A   1      43.450  29.053  33.491  1.00  0.00     0.049 A 
ATOM     60  C   UNL A   1      44.552  25.955  28.842  1.00  0.00     0.074 A 
ATOM     61  C   UNL A   1      43.714  30.395  33.304  1.00  0.00     0.029 A 
ATOM     62  N   UNL A   1      44.546  28.381  33.006  1.00  0.00    -0.354 N 
ATOM     63  N   UNL A   1      45.395  26.937  28.977  1.00  0.00    -0.248 NA
ATOM     64  C   UNL A   1      44.184  25.280  30.079  1.00  0.00     0.031 C 
ATOM     65  C   UNL A   1      44.732  30.439  32.308  1.00  0.00     0.029 A 
ATOM     66  C   UNL A   1      45.036  29.121  31.961  1.00  0.00     0.049 A 
ATOM     67  H   UNL A   1      44.909  27.530  33.343  1.00  0.00     0.167 HD
ATOM     68  C   UNL A   1      45.338  27.276  30.322  1.00  0.00     0.074 A 
ATOM     69  C   UNL A   1      44.677  26.147  30.967  1.00  0.00     0.031 C 
ATOM     70  C   UNL A   1      45.572  28.555  30.741  1.00  0.00     0.031 A 
BRANCH  57  71
ATOM     71  C   UNL A   1      42.253  27.257  34.888  1.00  0.00    -0.014 A 
ATOM     72  C   UNL A   1      42.618  25.934  34.588  1.00  0.00     0.009 A 
ATOM     73  C   UNL A   1      41.643  27.488  36.136  1.00  0.00     0.009 A 
ATOM     74  C   UNL A   1      42.356  24.891  35.484  1.00  0.00     0.001 A 
ATOM     75  C   UNL A   1      41.418  26.456  37.048  1.00  0.00     0.001 A 
ATOM     76  C   UNL A   1      41.757  25.153  36.712  1.00  0.00     0.000 A 
ENDBRANCH  57  71
BRANCH  58  77
ATOM     77  C   UNL A   1      43.771  24.544  26.801  1.00  0.00    -0.014 A 
ATOM     78  C   UNL A   1      43.814  23.267  27.380  1.00  0.00     0.009 A 
ATOM     79  C   UNL A   1      43.555  24.624  25.412  1.00  0.00     0.009 A 
ATOM     80  C   UNL A   1      43.624  22.119  26.600  1.00  0.00     0.001 A 
ATOM     81  C   UNL A   1      43.377  23.480  24.631  1.00  0.00     0.001 A 
ATOM     82  C   UNL A   1      43.398  22.226  25.229  1.00  0.00     0.000 A 
ENDBRANCH  58  77
BRANCH  70  83
ATOM     83  C   UNL A   1      46.125  29.539  29.738  1.00  0.00    -0.014 A 
ATOM     84  C   UNL A   1      47.507  29.730  29.560  1.00  0.00     0.009 A 
ATOM     85  C   UNL A   1      45.248  30.154  28.833  1.00  0.00     0.009 A 
ATOM     86  C   UNL A   1      47.995  30.536  28.528  1.00  0.00     0.001 A 
ATOM     87  C   UNL A   1      45.736  30.943  27.787  1.00  0.00     0.001 A 
ATOM     88  C   UNL A   1      47.109  31.138  27.638  1.00  0.00     0.000 A 
ENDBRANCH  70  83
ENDBRANCH  44  45
ENDBRANCH  37  39
ENDBRANCH  36  37
ENDBRANCH  35  36
ENDBRANCH  34  35
ENDBRANCH  33  34
ENDBRANCH  32  33
ENDBRANCH  31  32
ENDBRANCH  30  31
ENDBRANCH   1  30
TORSDOF 23
ENDMDL
MODEL 3
REMARK VINA RESULT:      -9.6      3.989      6.683
REMARK SMILES Cn1c(=O)[nH]c(=O)c2c1nc(NC1CCCC1)n2CC(=O)OCCOCCOCCOCCOC(=O)c1ccc(-c2c3nc(c(-c4ccccc4)c4ccc([nH]4)c(-c4ccccc4)c4nc(c(-c5ccccc5)c5ccc2[nH]5)C=C4)C=C3)cc1
REMARK SMILES IDX 27 1 26 2 25 3 24 4 23 5 22 6 20 7 21 8 19 9 18 10 1 11 2 12
REMARK SMILES IDX 3 13 9 14 4 15 5 16 8 17 10 18 6 19 11 21 7 22 12 23 13 25
REMARK SMILES IDX 14 26 17 27 15 28 16 29 28 30 29 31 30 32 31 33 32 34 33 35
REMARK SMILES IDX 34 36 35 37 36 38 37 39 38 40 84 41 39 42 83 43 40 44 41 45
REMARK SMILES IDX 42 46 77 47 43 48 82 49 76 50 78 51 44 52 81 53 75 54 74 55
REMARK SMILES IDX 45 57 67 58 52 59 66 60 53 61 56 62 65 63 79 64 54 65 55 66
REMARK SMILES IDX 64 68 80 69 57 70 46 71 47 72 51 73 48 74 50 75 49 76 68 77
REMARK SMILES IDX 69 78 73 79 70 80 72 81 71 82 58 83 59 84 63 85 60 86 62 87
REMARK SMILES IDX 61 88
REMARK H PARENT 5 20 12 24 78 56 56 67
REMARK Flexibility Score: inf
ROOT
ATOM      1  C   UNL A   1      37.089  29.332  31.462  1.00  0.00     0.188 C 
ENDROOT
BRANCH   1   2
ATOM      2  C   UNL A   1      36.509  29.808  30.108  1.00  0.00     0.188 C 
BRANCH   2   3
ATOM      3  O   UNL A   1      36.972  29.295  28.862  1.00  0.00    -0.376 OA
BRANCH   3   4
ATOM      4  C   UNL A   1      36.349  29.716  27.661  1.00  0.00     0.202 C 
BRANCH   4   5
ATOM      5  C   UNL A   1      34.820  29.868  27.696  1.00  0.00     0.261 C 
BRANCH   5   6
ATOM      6  O   UNL A   1      34.109  28.959  26.824  1.00  0.00    -0.462 OA
BRANCH   6   7
ATOM      7  C   UNL A   1      32.903  29.380  26.367  1.00  0.00     0.326 C 
ATOM      8  O   UNL A   1      32.568  30.561  26.307  1.00  0.00    -0.250 OA
BRANCH   7   9
ATOM      9  C   UNL A   1      32.032  28.300  25.761  1.00  0.00     0.248 C 
BRANCH   9  10
ATOM     10  N   UNL A   1      32.252  27.882  24.380  1.00  0.00    -0.293 N 
ATOM     11  C   UNL A   1      32.682  25.455  20.473  1.00  0.00     0.157 C 
ATOM     12  N   UNL A   1      32.925  25.496  21.903  1.00  0.00    -0.279 N 
ATOM     13  C   UNL A   1      33.444  24.388  22.559  1.00  0.00     0.329 A 
ATOM     14  C   UNL A   1      32.575  26.595  22.651  1.00  0.00     0.170 A 
ATOM     15  O   UNL A   1      33.738  23.335  21.994  1.00  0.00    -0.248 OA
ATOM     16  N   UNL A   1      33.618  24.496  23.929  1.00  0.00    -0.272 N 
ATOM     17  C   UNL A   1      32.755  26.658  23.999  1.00  0.00     0.154 A 
ATOM     18  N   UNL A   1      31.982  27.705  22.175  1.00  0.00    -0.194 NA
ATOM     19  C   UNL A   1      33.311  25.577  24.732  1.00  0.00     0.279 A 
ATOM     20  H   UNL A   1      34.005  23.713  24.382  1.00  0.00     0.175 HD
ATOM     21  C   UNL A   1      31.760  28.477  23.215  1.00  0.00     0.206 A 
ATOM     22  O   UNL A   1      33.489  25.574  25.942  1.00  0.00    -0.267 OA
BRANCH  21  23
ATOM     23  N   UNL A   1      31.152  29.683  23.175  1.00  0.00    -0.353 N 
ATOM     24  H   UNL A   1      31.697  30.484  23.348  1.00  0.00     0.163 HD
BRANCH  23  25
ATOM     25  C   UNL A   1      29.728  29.864  22.889  1.00  0.00     0.082 C 
ATOM     26  C   UNL A   1      28.781  28.706  23.188  1.00  0.00     0.025 C 
ATOM     27  C   UNL A   1      29.063  31.013  23.635  1.00  0.00     0.025 C 
ATOM     28  C   UNL A   1      27.408  29.322  22.962  1.00  0.00     0.002 C 
ATOM     29  C   UNL A   1      27.556  30.769  23.442  1.00  0.00     0.002 C 
ENDBRANCH  23  25
ENDBRANCH  21  23
ENDBRANCH   9  10
ENDBRANCH   7   9
ENDBRANCH   6   7
ENDBRANCH   5   6
ENDBRANCH   4   5
ENDBRANCH   3   4
ENDBRANCH   2   3
ENDBRANCH   1   2
BRANCH   1  30
ATOM     30  O   UNL A   1      37.797  30.311  32.208  1.00  0.00    -0.377 OA
BRANCH  30  31
ATOM     31  C   UNL A   1      36.984  31.194  32.965  1.00  0.00     0.188 C 
BRANCH  31  32
ATOM     32  C   UNL A   1      37.650  31.748  34.231  1.00  0.00     0.188 C 
BRANCH  32  33
ATOM     33  O   UNL A   1      38.874  32.432  33.974  1.00  0.00    -0.376 OA
BRANCH  33  34
ATOM     34  C   UNL A   1      38.855  33.850  34.050  1.00  0.00     0.202 C 
BRANCH  34  35
ATOM     35  C   UNL A   1      40.023  34.493  33.306  1.00  0.00     0.261 C 
BRANCH  35  36
ATOM     36  O   UNL A   1      40.715  33.629  32.406  1.00  0.00    -0.460 OA
BRANCH  36  37
ATOM     37  C   UNL A   1      40.302  33.662  31.124  1.00  0.00     0.338 C 
ATOM     38  O   UNL A   1      39.575  34.491  30.609  1.00  0.00    -0.246 OA
BRANCH  37  39
ATOM     39  C   UNL A   1      40.809  32.476  30.417  1.00  0.00     0.060 A 
ATOM     40  C   UNL A   1      39.858  31.567  29.952  1.00  0.00     0.016 A 
ATOM     41  C   UNL A   1      42.177  32.172  30.403  1.00  0.00     0.016 A 
ATOM     42  C   UNL A   1      40.264  30.284  29.649  1.00  0.00     0.010 A 
ATOM     43  C   UNL A   1      42.585  30.890  30.099  1.00  0.00     0.010 A 
ATOM     44  C   UNL A   1      41.611  29.938  29.813  1.00  0.00    -0.014 A 
BRANCH  44  45
ATOM     45  C   UNL A   1      41.937  28.528  29.765  1.00  0.00     0.031 A 
ATOM     46  C   UNL A   1      42.672  27.978  30.921  1.00  0.00     0.074 A 
ATOM     47  C   UNL A   1      41.573  27.750  28.729  1.00  0.00     0.049 A 
ATOM     48  N   UNL A   1      43.851  27.450  30.923  1.00  0.00    -0.248 NA
ATOM     49  C   UNL A   1      42.044  28.086  32.242  1.00  0.00     0.031 C 
ATOM     50  C   UNL A   1      40.630  28.053  27.650  1.00  0.00     0.029 A 
ATOM     51  N   UNL A   1      41.916  26.454  28.495  1.00  0.00    -0.354 N 
ATOM     52  C   UNL A   1      44.077  27.034  32.230  1.00  0.00     0.074 A 
ATOM     53  C   UNL A   1      42.974  27.528  33.017  1.00  0.00     0.031 C 
ATOM     54  C   UNL A   1      40.306  26.904  27.016  1.00  0.00     0.029 A 
ATOM     55  C   UNL A   1      41.111  25.823  27.563  1.00  0.00     0.049 A 
ATOM     56  H   UNL A   1      42.667  26.006  28.946  1.00  0.00     0.167 HD
ATOM     57  C   UNL A   1      45.078  26.175  32.558  1.00  0.00     0.031 A 
ATOM     58  C   UNL A   1      41.057  24.492  27.322  1.00  0.00     0.031 A 
ATOM     59  C   UNL A   1      46.065  26.049  31.523  1.00  0.00     0.049 A 
ATOM     60  C   UNL A   1      42.303  23.881  27.839  1.00  0.00     0.074 A 
ATOM     61  C   UNL A   1      46.953  26.915  30.920  1.00  0.00     0.029 A 
ATOM     62  N   UNL A   1      46.019  24.935  30.721  1.00  0.00    -0.354 N 
ATOM     63  N   UNL A   1      43.472  24.049  27.291  1.00  0.00    -0.248 NA
ATOM     64  C   UNL A   1      42.327  23.387  29.208  1.00  0.00     0.031 C 
ATOM     65  C   UNL A   1      47.038  26.478  29.566  1.00  0.00     0.029 A 
ATOM     66  C   UNL A   1      46.208  25.364  29.433  1.00  0.00     0.049 A 
ATOM     67  H   UNL A   1      45.876  24.005  31.015  1.00  0.00     0.167 HD
ATOM     68  C   UNL A   1      44.363  24.093  28.354  1.00  0.00     0.074 A 
ATOM     69  C   UNL A   1      43.622  23.555  29.490  1.00  0.00     0.031 C 
ATOM     70  C   UNL A   1      45.517  24.821  28.282  1.00  0.00     0.031 A 
BRANCH  57  71
ATOM     71  C   UNL A   1      44.998  25.220  33.711  1.00  0.00    -0.014 A 
ATOM     72  C   UNL A   1      44.180  24.083  33.607  1.00  0.00     0.009 A 
ATOM     73  C   UNL A   1      45.502  25.534  34.987  1.00  0.00     0.009 A 
ATOM     74  C   UNL A   1      43.860  23.316  34.734  1.00  0.00     0.001 A 
ATOM     75  C   UNL A   1      45.218  24.749  36.106  1.00  0.00     0.001 A 
ATOM     76  C   UNL A   1      44.379  23.651  35.982  1.00  0.00     0.000 A 
ENDBRANCH  57  71
BRANCH  58  77
ATOM     77  C   UNL A   1      39.893  23.700  26.877  1.00  0.00    -0.014 A 
ATOM     78  C   UNL A   1      38.674  24.322  26.569  1.00  0.00     0.009 A 
ATOM     79  C   UNL A   1      40.041  22.344  26.529  1.00  0.00     0.009 A 
ATOM     80  C   UNL A   1      37.655  23.617  25.915  1.00  0.00     0.001 A 
ATOM     81  C   UNL A   1      39.022  21.637  25.888  1.00  0.00     0.001 A 
ATOM     82  C   UNL A   1      37.832  22.279  25.568  1.00  0.00     0.000 A 
ENDBRANCH  58  77
BRANCH  70  83
ATOM     83  C   UNL A   1      45.916  25.384  26.940  1.00  0.00    -0.014 A 
ATOM     84  C   UNL A   1      45.385  26.589  26.445  1.00  0.00     0.009 A 
ATOM     85  C   UNL A   1      46.975  24.789  26.239  1.00  0.00     0.009 A 
ATOM     86  C   UNL A   1      45.876  27.163  25.269  1.00  0.00     0.001 A 
ATOM     87  C   UNL A   1      47.482  25.374  25.075  1.00  0.00     0.001 A 
ATOM     88  C   UNL A   1      46.929  26.558  24.588  1.00  0.00     0.000 A 
ENDBRANCH  70  83
ENDBRANCH  44  45
ENDBRANCH  37  39
ENDBRANCH  36  37
ENDBRANCH  35  36
ENDBRANCH  34  35
ENDBRANCH  33  34
ENDBRANCH  32  33
ENDBRANCH  31  32
ENDBRANCH  30  31
ENDBRANCH   1  30
TORSDOF 23
ENDMDL
