MODEL 1
REMARK VINA RESULT:      -6.2      0.000      0.000
REMARK SMILES COc1ccc(F)cc1[C@H](C)NC(=O)[C@H]1CC=CC[C@@H]1C(=O)OCCOCCOCCOCCOC(=O)c1ccc(-c2c3nc(c(-c4ccccc4)c4ccc([nH]4)c(-c4ccccc4)c4nc(c(-c5ccccc5)c5ccc2[nH]5)C=C4)C=C3)cc1
REMARK SMILES IDX 28 1 27 2 26 3 25 4 24 5 23 6 21 7 22 8 20 9 15 10 16 11
REMARK SMILES IDX 17 12 19 13 18 14 13 15 12 16 14 18 10 19 11 20 9 21 3 22
REMARK SMILES IDX 4 23 5 24 8 25 6 26 7 27 2 28 1 29 29 30 30 31 31 32 32 33
REMARK SMILES IDX 33 34 34 35 35 36 36 37 37 38 38 39 39 40 85 41 40 42 84 43
REMARK SMILES IDX 41 44 42 45 43 46 78 47 44 48 83 49 77 50 79 51 45 52 82 53
REMARK SMILES IDX 76 54 75 55 46 57 68 58 53 59 67 60 54 61 57 62 66 63 80 64
REMARK SMILES IDX 55 65 56 66 65 68 81 69 58 70 47 71 48 72 52 73 49 74 51 75
REMARK SMILES IDX 50 76 69 77 70 78 74 79 71 80 73 81 72 82 59 83 60 84 64 85
REMARK SMILES IDX 61 86 63 87 62 88
REMARK H PARENT 12 17 79 56 57 67
REMARK Flexibility Score: inf
ROOT
ATOM      1  C   UNL A   1      38.306  32.733  39.332  1.00  0.00     0.188 C 
ENDROOT
BRANCH   1   2
ATOM      2  C   UNL A   1      38.388  33.792  38.216  1.00  0.00     0.188 C 
BRANCH   2   3
ATOM      3  O   UNL A   1      37.959  33.326  36.945  1.00  0.00    -0.376 OA
BRANCH   3   4
ATOM      4  C   UNL A   1      38.691  32.302  36.292  1.00  0.00     0.202 C 
BRANCH   4   5
ATOM      5  C   UNL A   1      37.923  31.181  35.564  1.00  0.00     0.261 C 
BRANCH   5   6
ATOM      6  O   UNL A   1      38.033  31.179  34.135  1.00  0.00    -0.463 OA
BRANCH   6   7
ATOM      7  C   UNL A   1      39.035  30.411  33.650  1.00  0.00     0.310 C 
ATOM      8  O   UNL A   1      39.639  29.597  34.336  1.00  0.00    -0.252 OA
BRANCH   7   9
ATOM      9  C   UNL A   1      39.246  30.658  32.157  1.00  0.00     0.115 C 
ATOM     10  C   UNL A   1      37.882  30.637  31.409  1.00  0.00     0.097 C 
ATOM     11  C   UNL A   1      37.270  29.230  31.528  1.00  0.00     0.041 C 
ATOM     12  C   UNL A   1      38.264  28.099  31.453  1.00  0.00    -0.030 C 
ATOM     13  C   UNL A   1      40.242  29.604  31.672  1.00  0.00     0.043 C 
ATOM     14  C   UNL A   1      39.594  28.266  31.489  1.00  0.00    -0.030 C 
BRANCH  10  15
ATOM     15  C   UNL A   1      38.008  31.070  29.939  1.00  0.00     0.224 C 
ATOM     16  N   UNL A   1      37.165  31.975  29.367  1.00  0.00    -0.349 N 
ATOM     17  H   UNL A   1      37.205  31.973  28.383  1.00  0.00     0.164 HD
ATOM     18  O   UNL A   1      38.871  30.598  29.194  1.00  0.00    -0.275 OA
BRANCH  16  19
ATOM     19  C   UNL A   1      36.209  32.954  29.904  1.00  0.00     0.113 C 
ATOM     20  C   UNL A   1      34.820  32.300  29.724  1.00  0.00     0.036 C 
BRANCH  19  21
ATOM     21  C   UNL A   1      36.528  33.404  31.345  1.00  0.00     0.019 A 
ATOM     22  C   UNL A   1      37.689  34.143  31.665  1.00  0.00     0.124 A 
ATOM     23  C   UNL A   1      37.882  34.721  32.930  1.00  0.00     0.050 A 
ATOM     24  C   UNL A   1      36.940  34.538  33.934  1.00  0.00     0.043 A 
ATOM     25  C   UNL A   1      35.596  33.235  32.392  1.00  0.00     0.049 A 
ATOM     26  C   UNL A   1      35.813  33.786  33.659  1.00  0.00     0.123 A 
ATOM     27  F   UNL A   1      34.891  33.615  34.615  1.00  0.00    -0.207 F 
BRANCH  22  28
ATOM     28  O   UNL A   1      38.576  34.412  30.671  1.00  0.00    -0.496 OA
ATOM     29  C   UNL A   1      39.936  34.087  30.928  1.00  0.00     0.278 C 
ENDBRANCH  22  28
ENDBRANCH  19  21
ENDBRANCH  16  19
ENDBRANCH  10  15
ENDBRANCH   7   9
ENDBRANCH   6   7
ENDBRANCH   5   6
ENDBRANCH   4   5
ENDBRANCH   3   4
ENDBRANCH   2   3
ENDBRANCH   1   2
BRANCH   1  30
ATOM     30  O   UNL A   1      39.506  32.468  40.035  1.00  0.00    -0.377 OA
BRANCH  30  31
ATOM     31  C   UNL A   1      40.726  33.053  39.581  1.00  0.00     0.188 C 
BRANCH  31  32
ATOM     32  C   UNL A   1      41.491  34.139  40.379  1.00  0.00     0.188 C 
BRANCH  32  33
ATOM     33  O   UNL A   1      40.714  34.845  41.332  1.00  0.00    -0.376 OA
BRANCH  33  34
ATOM     34  C   UNL A   1      39.877  35.888  40.871  1.00  0.00     0.202 C 
BRANCH  34  35
ATOM     35  C   UNL A   1      40.554  37.036  40.112  1.00  0.00     0.261 C 
BRANCH  35  36
ATOM     36  O   UNL A   1      40.680  36.869  38.692  1.00  0.00    -0.460 OA
BRANCH  36  37
ATOM     37  C   UNL A   1      41.891  37.092  38.138  1.00  0.00     0.338 C 
ATOM     38  O   UNL A   1      42.686  37.973  38.424  1.00  0.00    -0.246 OA
BRANCH  37  39
ATOM     39  C   UNL A   1      42.179  35.956  37.238  1.00  0.00     0.060 A 
ATOM     40  C   UNL A   1      43.441  35.343  37.272  1.00  0.00     0.016 A 
ATOM     41  C   UNL A   1      41.183  35.484  36.382  1.00  0.00     0.016 A 
ATOM     42  C   UNL A   1      43.720  34.271  36.421  1.00  0.00     0.010 A 
ATOM     43  C   UNL A   1      41.474  34.434  35.512  1.00  0.00     0.010 A 
ATOM     44  C   UNL A   1      42.753  33.848  35.503  1.00  0.00    -0.014 A 
BRANCH  44  45
ATOM     45  C   UNL A   1      43.118  32.967  34.369  1.00  0.00     0.031 A 
ATOM     46  C   UNL A   1      43.333  33.616  33.029  1.00  0.00     0.074 A 
ATOM     47  C   UNL A   1      43.202  31.632  34.502  1.00  0.00     0.049 A 
ATOM     48  N   UNL A   1      43.470  33.065  31.852  1.00  0.00    -0.248 NA
ATOM     49  C   UNL A   1      43.386  35.089  33.016  1.00  0.00     0.031 C 
ATOM     50  C   UNL A   1      43.070  30.891  35.754  1.00  0.00     0.029 A 
ATOM     51  N   UNL A   1      43.387  30.658  33.550  1.00  0.00    -0.354 N 
ATOM     52  C   UNL A   1      43.589  34.122  30.958  1.00  0.00     0.074 A 
ATOM     53  C   UNL A   1      43.503  35.346  31.722  1.00  0.00     0.031 C 
ATOM     54  C   UNL A   1      43.145  29.574  35.489  1.00  0.00     0.029 A 
ATOM     55  C   UNL A   1      43.277  29.382  34.046  1.00  0.00     0.049 A 
ATOM     56  H   UNL A   1      43.580  30.857  32.605  1.00  0.00     0.167 HD
ATOM     57  C   UNL A   1      43.744  34.075  29.616  1.00  0.00     0.031 A 
ATOM     58  C   UNL A   1      43.236  28.199  33.399  1.00  0.00     0.031 A 
ATOM     59  C   UNL A   1      43.825  32.855  28.861  1.00  0.00     0.049 A 
ATOM     60  C   UNL A   1      43.336  28.176  31.892  1.00  0.00     0.074 A 
ATOM     61  C   UNL A   1      44.014  32.701  27.499  1.00  0.00     0.029 A 
ATOM     62  N   UNL A   1      43.710  31.586  29.401  1.00  0.00    -0.354 N 
ATOM     63  N   UNL A   1      43.479  29.178  31.057  1.00  0.00    -0.248 NA
ATOM     64  C   UNL A   1      43.270  26.860  31.238  1.00  0.00     0.031 C 
ATOM     65  C   UNL A   1      43.944  31.339  27.205  1.00  0.00     0.029 A 
ATOM     66  C   UNL A   1      43.793  30.642  28.395  1.00  0.00     0.049 A 
ATOM     67  H   UNL A   1      43.589  31.385  30.358  1.00  0.00     0.167 HD
ATOM     68  C   UNL A   1      43.564  28.610  29.791  1.00  0.00     0.074 A 
ATOM     69  C   UNL A   1      43.460  27.177  29.965  1.00  0.00     0.031 C 
ATOM     70  C   UNL A   1      43.719  29.219  28.590  1.00  0.00     0.031 A 
BRANCH  57  71
ATOM     71  C   UNL A   1      43.789  35.374  28.865  1.00  0.00    -0.014 A 
ATOM     72  C   UNL A   1      45.002  36.013  28.573  1.00  0.00     0.009 A 
ATOM     73  C   UNL A   1      42.593  35.927  28.378  1.00  0.00     0.009 A 
ATOM     74  C   UNL A   1      45.015  37.191  27.822  1.00  0.00     0.001 A 
ATOM     75  C   UNL A   1      42.612  37.087  27.603  1.00  0.00     0.001 A 
ATOM     76  C   UNL A   1      43.822  37.720  27.331  1.00  0.00     0.000 A 
ENDBRANCH  57  71
BRANCH  58  77
ATOM     77  C   UNL A   1      43.036  26.931  34.154  1.00  0.00    -0.014 A 
ATOM     78  C   UNL A   1      41.779  26.594  34.678  1.00  0.00     0.009 A 
ATOM     79  C   UNL A   1      44.121  26.075  34.404  1.00  0.00     0.009 A 
ATOM     80  C   UNL A   1      41.622  25.452  35.468  1.00  0.00     0.001 A 
ATOM     81  C   UNL A   1      43.953  24.914  35.164  1.00  0.00     0.001 A 
ATOM     82  C   UNL A   1      42.707  24.613  35.708  1.00  0.00     0.000 A 
ENDBRANCH  58  77
BRANCH  70  83
ATOM     83  C   UNL A   1      43.867  28.353  27.371  1.00  0.00    -0.014 A 
ATOM     84  C   UNL A   1      42.769  28.015  26.568  1.00  0.00     0.009 A 
ATOM     85  C   UNL A   1      45.154  27.959  26.965  1.00  0.00     0.009 A 
ATOM     86  C   UNL A   1      42.956  27.284  25.392  1.00  0.00     0.001 A 
ATOM     87  C   UNL A   1      45.341  27.258  25.774  1.00  0.00     0.001 A 
ATOM     88  C   UNL A   1      44.241  26.916  24.991  1.00  0.00     0.000 A 
ENDBRANCH  70  83
ENDBRANCH  44  45
ENDBRANCH  37  39
ENDBRANCH  36  37
ENDBRANCH  35  36
ENDBRANCH  34  35
ENDBRANCH  33  34
ENDBRANCH  32  33
ENDBRANCH  31  32
ENDBRANCH  30  31
ENDBRANCH   1  30
TORSDOF 24
ENDMDL
MODEL 2
REMARK VINA RESULT:      -6.2      5.276     12.075
REMARK SMILES COc1ccc(F)cc1[C@H](C)NC(=O)[C@H]1CC=CC[C@@H]1C(=O)OCCOCCOCCOCCOC(=O)c1ccc(-c2c3nc(c(-c4ccccc4)c4ccc([nH]4)c(-c4ccccc4)c4nc(c(-c5ccccc5)c5ccc2[nH]5)C=C4)C=C3)cc1
REMARK SMILES IDX 28 1 27 2 26 3 25 4 24 5 23 6 21 7 22 8 20 9 15 10 16 11
REMARK SMILES IDX 17 12 19 13 18 14 13 15 12 16 14 18 10 19 11 20 9 21 3 22
REMARK SMILES IDX 4 23 5 24 8 25 6 26 7 27 2 28 1 29 29 30 30 31 31 32 32 33
REMARK SMILES IDX 33 34 34 35 35 36 36 37 37 38 38 39 39 40 85 41 40 42 84 43
REMARK SMILES IDX 41 44 42 45 43 46 78 47 44 48 83 49 77 50 79 51 45 52 82 53
REMARK SMILES IDX 76 54 75 55 46 57 68 58 53 59 67 60 54 61 57 62 66 63 80 64
REMARK SMILES IDX 55 65 56 66 65 68 81 69 58 70 47 71 48 72 52 73 49 74 51 75
REMARK SMILES IDX 50 76 69 77 70 78 74 79 71 80 73 81 72 82 59 83 60 84 64 85
REMARK SMILES IDX 61 86 63 87 62 88
REMARK H PARENT 12 17 79 56 57 67
REMARK Flexibility Score: inf
ROOT
ATOM      1  C   UNL A   1      37.956  28.838  29.488  1.00  0.00     0.188 C 
ENDROOT
BRANCH   1   2
ATOM      2  C   UNL A   1      39.296  28.419  28.852  1.00  0.00     0.188 C 
BRANCH   2   3
ATOM      3  O   UNL A   1      39.164  27.486  27.790  1.00  0.00    -0.376 OA
BRANCH   3   4
ATOM      4  C   UNL A   1      39.237  26.097  28.067  1.00  0.00     0.202 C 
BRANCH   4   5
ATOM      5  C   UNL A   1      39.329  25.104  26.891  1.00  0.00     0.261 C 
BRANCH   5   6
ATOM      6  O   UNL A   1      38.094  24.496  26.491  1.00  0.00    -0.463 OA
BRANCH   6   7
ATOM      7  C   UNL A   1      38.224  23.262  25.954  1.00  0.00     0.310 C 
ATOM      8  O   UNL A   1      38.934  22.395  26.445  1.00  0.00    -0.252 OA
BRANCH   7   9
ATOM      9  C   UNL A   1      37.333  23.100  24.723  1.00  0.00     0.115 C 
ATOM     10  C   UNL A   1      36.014  23.904  24.904  1.00  0.00     0.097 C 
ATOM     11  C   UNL A   1      35.225  23.310  26.085  1.00  0.00     0.041 C 
ATOM     12  C   UNL A   1      35.293  21.809  26.199  1.00  0.00    -0.030 C 
ATOM     13  C   UNL A   1      37.127  21.598  24.522  1.00  0.00     0.043 C 
ATOM     14  C   UNL A   1      36.123  21.038  25.481  1.00  0.00    -0.030 C 
BRANCH  10  15
ATOM     15  C   UNL A   1      35.163  23.938  23.623  1.00  0.00     0.224 C 
ATOM     16  N   UNL A   1      34.237  24.909  23.384  1.00  0.00    -0.349 N 
ATOM     17  H   UNL A   1      33.609  24.676  22.662  1.00  0.00     0.164 HD
ATOM     18  O   UNL A   1      35.261  23.067  22.755  1.00  0.00    -0.275 OA
BRANCH  16  19
ATOM     19  C   UNL A   1      33.976  26.231  23.972  1.00  0.00     0.113 C 
ATOM     20  C   UNL A   1      33.704  27.161  22.769  1.00  0.00     0.036 C 
BRANCH  19  21
ATOM     21  C   UNL A   1      32.865  26.222  25.044  1.00  0.00     0.019 A 
ATOM     22  C   UNL A   1      32.552  27.364  25.816  1.00  0.00     0.124 A 
ATOM     23  C   UNL A   1      31.420  27.417  26.645  1.00  0.00     0.050 A 
ATOM     24  C   UNL A   1      30.590  26.311  26.767  1.00  0.00     0.043 A 
ATOM     25  C   UNL A   1      32.001  25.117  25.198  1.00  0.00     0.049 A 
ATOM     26  C   UNL A   1      30.895  25.168  26.053  1.00  0.00     0.123 A 
ATOM     27  F   UNL A   1      30.093  24.100  26.151  1.00  0.00    -0.207 F 
BRANCH  22  28
ATOM     28  O   UNL A   1      33.299  28.485  25.639  1.00  0.00    -0.496 OA
ATOM     29  C   UNL A   1      32.588  29.684  25.361  1.00  0.00     0.278 C 
ENDBRANCH  22  28
ENDBRANCH  19  21
ENDBRANCH  16  19
ENDBRANCH  10  15
ENDBRANCH   7   9
ENDBRANCH   6   7
ENDBRANCH   5   6
ENDBRANCH   4   5
ENDBRANCH   3   4
ENDBRANCH   2   3
ENDBRANCH   1   2
BRANCH   1  30
ATOM     30  O   UNL A   1      37.312  29.959  28.910  1.00  0.00    -0.377 OA
BRANCH  30  31
ATOM     31  C   UNL A   1      36.298  29.754  27.927  1.00  0.00     0.188 C 
BRANCH  31  32
ATOM     32  C   UNL A   1      35.137  30.752  27.689  1.00  0.00     0.188 C 
BRANCH  32  33
ATOM     33  O   UNL A   1      35.532  32.101  27.501  1.00  0.00    -0.376 OA
BRANCH  33  34
ATOM     34  C   UNL A   1      34.735  33.117  28.078  1.00  0.00     0.202 C 
BRANCH  34  35
ATOM     35  C   UNL A   1      35.448  34.122  28.991  1.00  0.00     0.261 C 
BRANCH  35  36
ATOM     36  O   UNL A   1      36.190  33.566  30.088  1.00  0.00    -0.460 OA
BRANCH  36  37
ATOM     37  C   UNL A   1      35.491  33.025  31.108  1.00  0.00     0.338 C 
ATOM     38  O   UNL A   1      34.480  32.345  31.036  1.00  0.00    -0.246 OA
BRANCH  37  39
ATOM     39  C   UNL A   1      36.275  33.243  32.342  1.00  0.00     0.060 A 
ATOM     40  C   UNL A   1      36.135  34.445  33.053  1.00  0.00     0.016 A 
ATOM     41  C   UNL A   1      37.124  32.238  32.806  1.00  0.00     0.016 A 
ATOM     42  C   UNL A   1      36.876  34.658  34.218  1.00  0.00     0.010 A 
ATOM     43  C   UNL A   1      37.885  32.465  33.952  1.00  0.00     0.010 A 
ATOM     44  C   UNL A   1      37.791  33.688  34.641  1.00  0.00    -0.014 A 
BRANCH  44  45
ATOM     45  C   UNL A   1      38.826  34.012  35.650  1.00  0.00     0.031 A 
ATOM     46  C   UNL A   1      38.521  33.682  37.086  1.00  0.00     0.074 A 
ATOM     47  C   UNL A   1      39.975  34.628  35.320  1.00  0.00     0.049 A 
ATOM     48  N   UNL A   1      39.161  34.029  38.171  1.00  0.00    -0.248 NA
ATOM     49  C   UNL A   1      37.321  32.861  37.328  1.00  0.00     0.031 C 
ATOM     50  C   UNL A   1      40.409  34.949  33.963  1.00  0.00     0.029 A 
ATOM     51  N   UNL A   1      40.973  35.126  36.123  1.00  0.00    -0.354 N 
ATOM     52  C   UNL A   1      38.423  33.500  39.223  1.00  0.00     0.074 A 
ATOM     53  C   UNL A   1      37.287  32.814  38.651  1.00  0.00     0.031 C 
ATOM     54  C   UNL A   1      41.573  35.621  34.028  1.00  0.00     0.029 A 
ATOM     55  C   UNL A   1      41.935  35.821  35.431  1.00  0.00     0.049 A 
ATOM     56  H   UNL A   1      40.997  34.996  37.098  1.00  0.00     0.167 HD
ATOM     57  C   UNL A   1      38.667  33.589  40.550  1.00  0.00     0.031 A 
ATOM     58  C   UNL A   1      42.958  36.574  35.884  1.00  0.00     0.031 A 
ATOM     59  C   UNL A   1      39.797  34.275  41.112  1.00  0.00     0.049 A 
ATOM     60  C   UNL A   1      43.166  36.720  37.372  1.00  0.00     0.074 A 
ATOM     61  C   UNL A   1      40.150  34.395  42.445  1.00  0.00     0.029 A 
ATOM     62  N   UNL A   1      40.746  34.964  40.377  1.00  0.00    -0.354 N 
ATOM     63  N   UNL A   1      42.482  36.192  38.360  1.00  0.00    -0.248 NA
ATOM     64  C   UNL A   1      44.287  37.566  37.810  1.00  0.00     0.031 C 
ATOM     65  C   UNL A   1      41.276  35.217  42.521  1.00  0.00     0.029 A 
ATOM     66  C   UNL A   1      41.669  35.539  41.230  1.00  0.00     0.049 A 
ATOM     67  H   UNL A   1      40.762  35.034  39.395  1.00  0.00     0.167 HD
ATOM     68  C   UNL A   1      43.116  36.604  39.526  1.00  0.00     0.074 A 
ATOM     69  C   UNL A   1      44.239  37.424  39.128  1.00  0.00     0.031 C 
ATOM     70  C   UNL A   1      42.799  36.326  40.814  1.00  0.00     0.031 A 
BRANCH  57  71
ATOM     71  C   UNL A   1      37.675  32.973  41.493  1.00  0.00    -0.014 A 
ATOM     72  C   UNL A   1      37.755  31.625  41.867  1.00  0.00     0.009 A 
ATOM     73  C   UNL A   1      36.683  33.783  42.071  1.00  0.00     0.009 A 
ATOM     74  C   UNL A   1      36.851  31.095  42.791  1.00  0.00     0.001 A 
ATOM     75  C   UNL A   1      35.801  33.258  43.016  1.00  0.00     0.001 A 
ATOM     76  C   UNL A   1      35.883  31.914  43.371  1.00  0.00     0.000 A 
ENDBRANCH  57  71
BRANCH  58  77
ATOM     77  C   UNL A   1      43.840  37.303  34.931  1.00  0.00    -0.014 A 
ATOM     78  C   UNL A   1      43.495  38.579  34.459  1.00  0.00     0.009 A 
ATOM     79  C   UNL A   1      45.010  36.698  34.442  1.00  0.00     0.009 A 
ATOM     80  C   UNL A   1      44.277  39.214  33.490  1.00  0.00     0.001 A 
ATOM     81  C   UNL A   1      45.811  37.351  33.501  1.00  0.00     0.001 A 
ATOM     82  C   UNL A   1      45.435  38.601  33.015  1.00  0.00     0.000 A 
ENDBRANCH  58  77
BRANCH  70  83
ATOM     83  C   UNL A   1      43.712  36.836  41.894  1.00  0.00    -0.014 A 
ATOM     84  C   UNL A   1      44.841  36.114  42.307  1.00  0.00     0.009 A 
ATOM     85  C   UNL A   1      43.489  38.116  42.429  1.00  0.00     0.009 A 
ATOM     86  C   UNL A   1      45.717  36.659  43.248  1.00  0.00     0.001 A 
ATOM     87  C   UNL A   1      44.383  38.670  43.344  1.00  0.00     0.001 A 
ATOM     88  C   UNL A   1      45.494  37.939  43.757  1.00  0.00     0.000 A 
ENDBRANCH  70  83
ENDBRANCH  44  45
ENDBRANCH  37  39
ENDBRANCH  36  37
ENDBRANCH  35  36
ENDBRANCH  34  35
ENDBRANCH  33  34
ENDBRANCH  32  33
ENDBRANCH  31  32
ENDBRANCH  30  31
ENDBRANCH   1  30
TORSDOF 24
ENDMDL
MODEL 3
REMARK VINA RESULT:      -6.2      6.326     12.227
REMARK SMILES COc1ccc(F)cc1[C@H](C)NC(=O)[C@H]1CC=CC[C@@H]1C(=O)OCCOCCOCCOCCOC(=O)c1ccc(-c2c3nc(c(-c4ccccc4)c4ccc([nH]4)c(-c4ccccc4)c4nc(c(-c5ccccc5)c5ccc2[nH]5)C=C4)C=C3)cc1
REMARK SMILES IDX 28 1 27 2 26 3 25 4 24 5 23 6 21 7 22 8 20 9 15 10 16 11
REMARK SMILES IDX 17 12 19 13 18 14 13 15 12 16 14 18 10 19 11 20 9 21 3 22
REMARK SMILES IDX 4 23 5 24 8 25 6 26 7 27 2 28 1 29 29 30 30 31 31 32 32 33
REMARK SMILES IDX 33 34 34 35 35 36 36 37 37 38 38 39 39 40 85 41 40 42 84 43
REMARK SMILES IDX 41 44 42 45 43 46 78 47 44 48 83 49 77 50 79 51 45 52 82 53
REMARK SMILES IDX 76 54 75 55 46 57 68 58 53 59 67 60 54 61 57 62 66 63 80 64
REMARK SMILES IDX 55 65 56 66 65 68 81 69 58 70 47 71 48 72 52 73 49 74 51 75
REMARK SMILES IDX 50 76 69 77 70 78 74 79 71 80 73 81 72 82 59 83 60 84 64 85
REMARK SMILES IDX 61 86 63 87 62 88
REMARK H PARENT 12 17 79 56 57 67
REMARK Flexibility Score: inf
ROOT
ATOM      1  C   UNL A   1      52.676  26.496  36.351  1.00  0.00     0.188 C 
ENDROOT
BRANCH   1   2
ATOM      2  C   UNL A   1      53.065  25.466  35.273  1.00  0.00     0.188 C 
BRANCH   2   3
ATOM      3  O   UNL A   1      52.048  25.225  34.312  1.00  0.00    -0.376 OA
BRANCH   3   4
ATOM      4  C   UNL A   1      52.292  24.320  33.248  1.00  0.00     0.202 C 
BRANCH   4   5
ATOM      5  C   UNL A   1      51.097  23.619  32.572  1.00  0.00     0.261 C 
BRANCH   5   6
ATOM      6  O   UNL A   1      50.696  22.373  33.155  1.00  0.00    -0.463 OA
BRANCH   6   7
ATOM      7  C   UNL A   1      51.535  21.341  32.905  1.00  0.00     0.310 C 
ATOM      8  O   UNL A   1      52.358  21.359  31.999  1.00  0.00    -0.252 OA
BRANCH   7   9
ATOM      9  C   UNL A   1      51.349  20.220  33.927  1.00  0.00     0.115 C 
ATOM     10  C   UNL A   1      50.945  20.812  35.307  1.00  0.00     0.097 C 
ATOM     11  C   UNL A   1      52.098  21.684  35.834  1.00  0.00     0.041 C 
ATOM     12  C   UNL A   1      53.478  21.153  35.542  1.00  0.00    -0.030 C 
ATOM     13  C   UNL A   1      52.654  19.421  33.946  1.00  0.00     0.043 C 
ATOM     14  C   UNL A   1      53.727  20.123  34.720  1.00  0.00    -0.030 C 
BRANCH  10  15
ATOM     15  C   UNL A   1      50.557  19.725  36.324  1.00  0.00     0.224 C 
ATOM     16  N   UNL A   1      49.719  19.966  37.371  1.00  0.00    -0.349 N 
ATOM     17  H   UNL A   1      49.753  19.267  38.064  1.00  0.00     0.164 HD
ATOM     18  O   UNL A   1      51.007  18.578  36.254  1.00  0.00    -0.275 OA
BRANCH  16  19
ATOM     19  C   UNL A   1      48.775  21.048  37.689  1.00  0.00     0.113 C 
ATOM     20  C   UNL A   1      49.642  22.174  38.295  1.00  0.00     0.036 C 
BRANCH  19  21
ATOM     21  C   UNL A   1      47.903  21.480  36.492  1.00  0.00     0.019 A 
ATOM     22  C   UNL A   1      46.808  20.709  36.039  1.00  0.00     0.124 A 
ATOM     23  C   UNL A   1      45.898  21.192  35.085  1.00  0.00     0.050 A 
ATOM     24  C   UNL A   1      46.081  22.445  34.515  1.00  0.00     0.043 A 
ATOM     25  C   UNL A   1      48.059  22.745  35.886  1.00  0.00     0.049 A 
ATOM     26  C   UNL A   1      47.167  23.204  34.911  1.00  0.00     0.123 A 
ATOM     27  F   UNL A   1      47.346  24.420  34.379  1.00  0.00    -0.207 F 
BRANCH  22  28
ATOM     28  O   UNL A   1      46.559  19.521  36.651  1.00  0.00    -0.496 OA
ATOM     29  C   UNL A   1      45.484  18.751  36.131  1.00  0.00     0.278 C 
ENDBRANCH  22  28
ENDBRANCH  19  21
ENDBRANCH  16  19
ENDBRANCH  10  15
ENDBRANCH   7   9
ENDBRANCH   6   7
ENDBRANCH   5   6
ENDBRANCH   4   5
ENDBRANCH   3   4
ENDBRANCH   2   3
ENDBRANCH   1   2
BRANCH   1  30
ATOM     30  O   UNL A   1      51.943  27.623  35.907  1.00  0.00    -0.377 OA
BRANCH  30  31
ATOM     31  C   UNL A   1      51.426  28.544  36.867  1.00  0.00     0.188 C 
BRANCH  31  32
ATOM     32  C   UNL A   1      50.544  28.109  38.065  1.00  0.00     0.188 C 
BRANCH  32  33
ATOM     33  O   UNL A   1      49.382  27.374  37.721  1.00  0.00    -0.376 OA
BRANCH  33  34
ATOM     34  C   UNL A   1      49.211  26.089  38.289  1.00  0.00     0.202 C 
BRANCH  34  35
ATOM     35  C   UNL A   1      47.770  25.602  38.479  1.00  0.00     0.261 C 
BRANCH  35  36
ATOM     36  O   UNL A   1      46.907  25.718  37.338  1.00  0.00    -0.460 OA
BRANCH  36  37
ATOM     37  C   UNL A   1      45.596  25.443  37.512  1.00  0.00     0.338 C 
ATOM     38  O   UNL A   1      45.076  24.886  38.464  1.00  0.00    -0.246 OA
BRANCH  37  39
ATOM     39  C   UNL A   1      44.859  26.110  36.418  1.00  0.00     0.060 A 
ATOM     40  C   UNL A   1      45.418  27.229  35.782  1.00  0.00     0.016 A 
ATOM     41  C   UNL A   1      43.626  25.602  36.008  1.00  0.00     0.016 A 
ATOM     42  C   UNL A   1      44.724  27.866  34.751  1.00  0.00     0.010 A 
ATOM     43  C   UNL A   1      42.921  26.257  34.999  1.00  0.00     0.010 A 
ATOM     44  C   UNL A   1      43.450  27.411  34.392  1.00  0.00    -0.014 A 
BRANCH  44  45
ATOM     45  C   UNL A   1      42.552  28.249  33.564  1.00  0.00     0.031 A 
ATOM     46  C   UNL A   1      41.699  29.263  34.276  1.00  0.00     0.074 A 
ATOM     47  C   UNL A   1      42.449  28.084  32.234  1.00  0.00     0.049 A 
ATOM     48  N   UNL A   1      40.705  29.979  33.820  1.00  0.00    -0.248 NA
ATOM     49  C   UNL A   1      42.001  29.487  35.701  1.00  0.00     0.031 C 
ATOM     50  C   UNL A   1      43.257  27.177  31.423  1.00  0.00     0.029 A 
ATOM     51  N   UNL A   1      41.583  28.661  31.336  1.00  0.00    -0.354 N 
ATOM     52  C   UNL A   1      40.243  30.709  34.909  1.00  0.00     0.074 A 
ATOM     53  C   UNL A   1      41.057  30.349  36.047  1.00  0.00     0.031 C 
ATOM     54  C   UNL A   1      42.827  27.233  30.149  1.00  0.00     0.029 A 
ATOM     55  C   UNL A   1      41.682  28.139  30.069  1.00  0.00     0.049 A 
ATOM     56  H   UNL A   1      40.954  29.378  31.577  1.00  0.00     0.167 HD
ATOM     57  C   UNL A   1      39.221  31.593  34.955  1.00  0.00     0.031 A 
ATOM     58  C   UNL A   1      40.902  28.334  28.985  1.00  0.00     0.031 A 
ATOM     59  C   UNL A   1      38.413  31.944  33.821  1.00  0.00     0.049 A 
ATOM     60  C   UNL A   1      39.721  29.269  29.083  1.00  0.00     0.074 A 
ATOM     61  C   UNL A   1      37.373  32.855  33.758  1.00  0.00     0.029 A 
ATOM     62  N   UNL A   1      38.547  31.393  32.558  1.00  0.00    -0.354 N 
ATOM     63  N   UNL A   1      39.310  29.979  30.106  1.00  0.00    -0.248 NA
ATOM     64  C   UNL A   1      38.897  29.432  27.875  1.00  0.00     0.031 C 
ATOM     65  C   UNL A   1      36.831  32.804  32.473  1.00  0.00     0.029 A 
ATOM     66  C   UNL A   1      37.588  31.922  31.715  1.00  0.00     0.049 A 
ATOM     67  H   UNL A   1      39.224  30.727  32.299  1.00  0.00     0.167 HD
ATOM     68  C   UNL A   1      38.212  30.701  29.653  1.00  0.00     0.074 A 
ATOM     69  C   UNL A   1      38.021  30.348  28.263  1.00  0.00     0.031 C 
ATOM     70  C   UNL A   1      37.432  31.582  30.326  1.00  0.00     0.031 A 
BRANCH  57  71
ATOM     71  C   UNL A   1      38.883  32.211  36.281  1.00  0.00    -0.014 A 
ATOM     72  C   UNL A   1      39.413  33.448  36.673  1.00  0.00     0.009 A 
ATOM     73  C   UNL A   1      37.956  31.570  37.120  1.00  0.00     0.009 A 
ATOM     74  C   UNL A   1      39.033  34.024  37.888  1.00  0.00     0.001 A 
ATOM     75  C   UNL A   1      37.557  32.161  38.319  1.00  0.00     0.001 A 
ATOM     76  C   UNL A   1      38.099  33.385  38.703  1.00  0.00     0.000 A 
ENDBRANCH  57  71
BRANCH  58  77
ATOM     77  C   UNL A   1      41.166  27.591  27.721  1.00  0.00    -0.014 A 
ATOM     78  C   UNL A   1      41.979  28.140  26.718  1.00  0.00     0.009 A 
ATOM     79  C   UNL A   1      40.556  26.348  27.489  1.00  0.00     0.009 A 
ATOM     80  C   UNL A   1      42.141  27.482  25.496  1.00  0.00     0.001 A 
ATOM     81  C   UNL A   1      40.749  25.673  26.280  1.00  0.00     0.001 A 
ATOM     82  C   UNL A   1      41.529  26.249  25.279  1.00  0.00     0.000 A 
ENDBRANCH  58  77
BRANCH  70  83
ATOM     83  C   UNL A   1      36.349  32.294  29.565  1.00  0.00    -0.014 A 
ATOM     84  C   UNL A   1      36.477  33.637  29.183  1.00  0.00     0.009 A 
ATOM     85  C   UNL A   1      35.226  31.567  29.134  1.00  0.00     0.009 A 
ATOM     86  C   UNL A   1      35.492  34.241  28.399  1.00  0.00     0.001 A 
ATOM     87  C   UNL A   1      34.260  32.164  28.325  1.00  0.00     0.001 A 
ATOM     88  C   UNL A   1      34.391  33.503  27.961  1.00  0.00     0.000 A 
ENDBRANCH  70  83
ENDBRANCH  44  45
ENDBRANCH  37  39
ENDBRANCH  36  37
ENDBRANCH  35  36
ENDBRANCH  34  35
ENDBRANCH  33  34
ENDBRANCH  32  33
ENDBRANCH  31  32
ENDBRANCH  30  31
ENDBRANCH   1  30
TORSDOF 24
ENDMDL
