MODEL 1
REMARK VINA RESULT:      -8.6      0.000      0.000
REMARK SMILES CO[C@H]1CC[C@@H]([NH2+]CC(=O)OCCOCCOCCOCCOC(=O)c2ccc(-c3c4nc(c(-c5ccccc5)c5ccc([nH]5)c(-c5ccccc5)c5nc(c(-c6ccccc6)c6ccc3[nH]6)C=C5)C=C4)cc2)CC1
REMARK SMILES IDX 16 1 15 2 14 3 13 4 12 5 11 6 9 7 10 8 8 9 7 10 6 13 3 14
REMARK SMILES IDX 75 15 4 16 74 17 5 18 2 19 1 20 17 21 18 22 19 23 20 24
REMARK SMILES IDX 21 25 22 26 23 27 24 28 25 29 26 30 27 31 73 32 28 33 72 34
REMARK SMILES IDX 29 35 30 36 31 37 66 38 32 39 71 40 65 41 67 42 33 43 70 44
REMARK SMILES IDX 64 45 63 46 34 48 56 49 41 50 55 51 42 52 45 53 54 54 68 55
REMARK SMILES IDX 43 56 44 57 53 59 69 60 46 61 35 62 36 63 40 64 37 65 39 66
REMARK SMILES IDX 38 67 57 68 58 69 62 70 59 71 61 72 60 73 47 74 48 75 52 76
REMARK SMILES IDX 49 77 51 78 50 79
REMARK H PARENT 7 11 7 12 67 47 45 58
REMARK Flexibility Score: inf
ROOT
ATOM      1  C   UNL A   1      38.177  24.080  26.447  1.00  0.00     0.188 C 
ENDROOT
BRANCH   1   2
ATOM      2  C   UNL A   1      37.411  23.164  25.487  1.00  0.00     0.188 C 
BRANCH   2   3
ATOM      3  O   UNL A   1      36.009  23.038  25.720  1.00  0.00    -0.376 OA
BRANCH   3   4
ATOM      4  C   UNL A   1      35.137  23.827  24.897  1.00  0.00     0.202 C 
BRANCH   4   5
ATOM      5  C   UNL A   1      34.057  23.039  24.158  1.00  0.00     0.261 C 
BRANCH   5   6
ATOM      6  O   UNL A   1      32.891  22.953  25.004  1.00  0.00    -0.459 OA
BRANCH   6   7
ATOM      7  C   UNL A   1      32.043  21.913  24.823  1.00  0.00     0.361 C 
ATOM      8  O   UNL A   1      31.079  21.674  25.543  1.00  0.00    -0.245 OA
BRANCH   7   9
ATOM      9  C   UNL A   1      32.381  21.081  23.587  1.00  0.00     0.385 C 
BRANCH   9  10
ATOM     10  N   UNL A   1      32.710  19.657  23.829  1.00  0.00    -0.335 N 
ATOM     11  H   UNL A   1      31.849  19.170  24.077  1.00  0.00     0.347 HD
ATOM     12  H   UNL A   1      33.136  19.312  22.969  1.00  0.00     0.347 HD
BRANCH  10  13
ATOM     13  C   UNL A   1      33.690  19.420  24.897  1.00  0.00     0.183 C 
ATOM     14  C   UNL A   1      33.851  16.434  25.252  1.00  0.00     0.118 C 
ATOM     15  C   UNL A   1      34.512  17.147  24.077  1.00  0.00     0.038 C 
ATOM     16  C   UNL A   1      32.637  17.229  25.743  1.00  0.00     0.038 C 
ATOM     17  C   UNL A   1      34.897  18.576  24.445  1.00  0.00     0.067 C 
ATOM     18  C   UNL A   1      32.987  18.684  26.058  1.00  0.00     0.067 C 
BRANCH  14  19
ATOM     19  O   UNL A   1      33.444  15.143  24.802  1.00  0.00    -0.381 OA
ATOM     20  C   UNL A   1      32.325  14.634  25.511  1.00  0.00     0.195 C 
ENDBRANCH  14  19
ENDBRANCH  10  13
ENDBRANCH   9  10
ENDBRANCH   7   9
ENDBRANCH   6   7
ENDBRANCH   5   6
ENDBRANCH   4   5
ENDBRANCH   3   4
ENDBRANCH   2   3
ENDBRANCH   1   2
BRANCH   1  21
ATOM     21  O   UNL A   1      39.512  23.642  26.662  1.00  0.00    -0.377 OA
BRANCH  21  22
ATOM     22  C   UNL A   1      39.606  22.216  26.639  1.00  0.00     0.188 C 
BRANCH  22  23
ATOM     23  C   UNL A   1      41.059  21.775  26.669  1.00  0.00     0.188 C 
BRANCH  23  24
ATOM     24  O   UNL A   1      41.331  20.586  25.934  1.00  0.00    -0.376 OA
BRANCH  24  25
ATOM     25  C   UNL A   1      42.006  19.578  26.704  1.00  0.00     0.202 C 
BRANCH  25  26
ATOM     26  C   UNL A   1      43.038  18.776  25.892  1.00  0.00     0.261 C 
BRANCH  26  27
ATOM     27  O   UNL A   1      43.270  19.359  24.593  1.00  0.00    -0.460 OA
BRANCH  27  28
ATOM     28  C   UNL A   1      44.554  19.530  24.197  1.00  0.00     0.338 C 
ATOM     29  O   UNL A   1      45.231  18.778  23.527  1.00  0.00    -0.246 OA
BRANCH  28  30
ATOM     30  C   UNL A   1      44.958  20.914  24.543  1.00  0.00     0.060 A 
ATOM     31  C   UNL A   1      45.630  21.157  25.749  1.00  0.00     0.016 A 
ATOM     32  C   UNL A   1      44.645  21.972  23.694  1.00  0.00     0.016 A 
ATOM     33  C   UNL A   1      45.937  22.468  26.131  1.00  0.00     0.010 A 
ATOM     34  C   UNL A   1      44.988  23.276  24.054  1.00  0.00     0.010 A 
ATOM     35  C   UNL A   1      45.575  23.543  25.306  1.00  0.00    -0.014 A 
BRANCH  35  36
ATOM     36  C   UNL A   1      45.552  24.938  25.829  1.00  0.00     0.031 A 
ATOM     37  C   UNL A   1      46.853  25.711  25.824  1.00  0.00     0.074 A 
ATOM     38  C   UNL A   1      44.435  25.528  26.291  1.00  0.00     0.049 A 
ATOM     39  N   UNL A   1      47.129  26.887  26.331  1.00  0.00    -0.248 NA
ATOM     40  C   UNL A   1      48.005  25.051  25.183  1.00  0.00     0.031 C 
ATOM     41  C   UNL A   1      43.102  24.929  26.329  1.00  0.00     0.029 A 
ATOM     42  N   UNL A   1      44.253  26.781  26.830  1.00  0.00    -0.354 N 
ATOM     43  C   UNL A   1      48.485  27.087  26.092  1.00  0.00     0.074 A 
ATOM     44  C   UNL A   1      48.989  25.890  25.461  1.00  0.00     0.031 C 
ATOM     45  C   UNL A   1      42.239  25.819  26.855  1.00  0.00     0.029 A 
ATOM     46  C   UNL A   1      42.962  27.034  27.227  1.00  0.00     0.049 A 
ATOM     47  H   UNL A   1      44.982  27.437  26.922  1.00  0.00     0.167 HD
ATOM     48  C   UNL A   1      49.245  28.179  26.339  1.00  0.00     0.031 A 
ATOM     49  C   UNL A   1      42.432  28.116  27.834  1.00  0.00     0.031 A 
ATOM     50  C   UNL A   1      48.754  29.388  26.936  1.00  0.00     0.049 A 
ATOM     51  C   UNL A   1      43.316  29.297  28.163  1.00  0.00     0.074 A 
ATOM     52  C   UNL A   1      49.445  30.556  27.212  1.00  0.00     0.029 A 
ATOM     53  N   UNL A   1      47.444  29.593  27.335  1.00  0.00    -0.354 N 
ATOM     54  N   UNL A   1      44.590  29.479  27.913  1.00  0.00    -0.248 NA
ATOM     55  C   UNL A   1      42.678  30.430  28.854  1.00  0.00     0.031 C 
ATOM     56  C   UNL A   1      48.562  31.451  27.821  1.00  0.00     0.029 A 
ATOM     57  C   UNL A   1      47.308  30.863  27.865  1.00  0.00     0.049 A 
ATOM     58  H   UNL A   1      46.719  28.932  27.253  1.00  0.00     0.167 HD
ATOM     59  C   UNL A   1      44.890  30.757  28.372  1.00  0.00     0.074 A 
ATOM     60  C   UNL A   1      43.664  31.313  28.900  1.00  0.00     0.031 C 
ATOM     61  C   UNL A   1      46.076  31.415  28.360  1.00  0.00     0.031 A 
BRANCH  48  62
ATOM     62  C   UNL A   1      50.695  28.114  25.948  1.00  0.00    -0.014 A 
ATOM     63  C   UNL A   1      51.111  28.439  24.645  1.00  0.00     0.009 A 
ATOM     64  C   UNL A   1      51.663  27.755  26.898  1.00  0.00     0.009 A 
ATOM     65  C   UNL A   1      52.459  28.369  24.294  1.00  0.00     0.001 A 
ATOM     66  C   UNL A   1      53.015  27.720  26.553  1.00  0.00     0.001 A 
ATOM     67  C   UNL A   1      53.411  28.017  25.250  1.00  0.00     0.000 A 
ENDBRANCH  48  62
BRANCH  49  68
ATOM     68  C   UNL A   1      40.986  28.159  28.196  1.00  0.00    -0.014 A 
ATOM     69  C   UNL A   1      40.061  28.820  27.370  1.00  0.00     0.009 A 
ATOM     70  C   UNL A   1      40.536  27.618  29.411  1.00  0.00     0.009 A 
ATOM     71  C   UNL A   1      38.734  28.982  27.775  1.00  0.00     0.001 A 
ATOM     72  C   UNL A   1      39.200  27.749  29.796  1.00  0.00     0.001 A 
ATOM     73  C   UNL A   1      38.304  28.446  28.987  1.00  0.00     0.000 A 
ENDBRANCH  49  68
BRANCH  61  74
ATOM     74  C   UNL A   1      46.098  32.831  28.867  1.00  0.00    -0.014 A 
ATOM     75  C   UNL A   1      45.822  33.920  28.025  1.00  0.00     0.009 A 
ATOM     76  C   UNL A   1      46.348  33.073  30.228  1.00  0.00     0.009 A 
ATOM     77  C   UNL A   1      45.833  35.222  28.529  1.00  0.00     0.001 A 
ATOM     78  C   UNL A   1      46.323  34.373  30.736  1.00  0.00     0.001 A 
ATOM     79  C   UNL A   1      46.076  35.447  29.883  1.00  0.00     0.000 A 
ENDBRANCH  61  74
ENDBRANCH  35  36
ENDBRANCH  28  30
ENDBRANCH  27  28
ENDBRANCH  26  27
ENDBRANCH  25  26
ENDBRANCH  24  25
ENDBRANCH  23  24
ENDBRANCH  22  23
ENDBRANCH  21  22
ENDBRANCH   1  21
TORSDOF 23
ENDMDL
MODEL 2
REMARK VINA RESULT:      -8.5      4.227      9.256
REMARK SMILES CO[C@H]1CC[C@@H]([NH2+]CC(=O)OCCOCCOCCOCCOC(=O)c2ccc(-c3c4nc(c(-c5ccccc5)c5ccc([nH]5)c(-c5ccccc5)c5nc(c(-c6ccccc6)c6ccc3[nH]6)C=C5)C=C4)cc2)CC1
REMARK SMILES IDX 16 1 15 2 14 3 13 4 12 5 11 6 9 7 10 8 8 9 7 10 6 13 3 14
REMARK SMILES IDX 75 15 4 16 74 17 5 18 2 19 1 20 17 21 18 22 19 23 20 24
REMARK SMILES IDX 21 25 22 26 23 27 24 28 25 29 26 30 27 31 73 32 28 33 72 34
REMARK SMILES IDX 29 35 30 36 31 37 66 38 32 39 71 40 65 41 67 42 33 43 70 44
REMARK SMILES IDX 64 45 63 46 34 48 56 49 41 50 55 51 42 52 45 53 54 54 68 55
REMARK SMILES IDX 43 56 44 57 53 59 69 60 46 61 35 62 36 63 40 64 37 65 39 66
REMARK SMILES IDX 38 67 57 68 58 69 62 70 59 71 61 72 60 73 47 74 48 75 52 76
REMARK SMILES IDX 49 77 51 78 50 79
REMARK H PARENT 7 11 7 12 67 47 45 58
REMARK Flexibility Score: inf
ROOT
ATOM      1  C   UNL A   1      34.046  31.487  27.788  1.00  0.00     0.188 C 
ENDROOT
BRANCH   1   2
ATOM      2  C   UNL A   1      33.022  30.476  27.262  1.00  0.00     0.188 C 
BRANCH   2   3
ATOM      3  O   UNL A   1      33.503  29.153  27.031  1.00  0.00    -0.376 OA
BRANCH   3   4
ATOM      4  C   UNL A   1      33.880  28.822  25.687  1.00  0.00     0.202 C 
BRANCH   4   5
ATOM      5  C   UNL A   1      32.741  28.315  24.802  1.00  0.00     0.261 C 
BRANCH   5   6
ATOM      6  O   UNL A   1      32.798  26.874  24.761  1.00  0.00    -0.459 OA
BRANCH   6   7
ATOM      7  C   UNL A   1      31.767  26.207  24.190  1.00  0.00     0.361 C 
ATOM      8  O   UNL A   1      30.585  26.425  24.430  1.00  0.00    -0.245 OA
BRANCH   7   9
ATOM      9  C   UNL A   1      32.228  25.172  23.164  1.00  0.00     0.385 C 
BRANCH   9  10
ATOM     10  N   UNL A   1      31.872  23.764  23.454  1.00  0.00    -0.335 N 
ATOM     11  H   UNL A   1      32.046  23.589  24.443  1.00  0.00     0.347 HD
ATOM     12  H   UNL A   1      30.892  23.657  23.190  1.00  0.00     0.347 HD
BRANCH  10  13
ATOM     13  C   UNL A   1      32.617  22.763  22.677  1.00  0.00     0.183 C 
ATOM     14  C   UNL A   1      34.351  21.282  24.644  1.00  0.00     0.118 C 
ATOM     15  C   UNL A   1      32.851  21.028  24.532  1.00  0.00     0.038 C 
ATOM     16  C   UNL A   1      34.680  22.715  24.215  1.00  0.00     0.038 C 
ATOM     17  C   UNL A   1      32.346  21.314  23.123  1.00  0.00     0.067 C 
ATOM     18  C   UNL A   1      34.127  23.046  22.828  1.00  0.00     0.067 C 
BRANCH  14  19
ATOM     19  O   UNL A   1      34.725  21.077  26.005  1.00  0.00    -0.381 OA
ATOM     20  C   UNL A   1      34.452  22.200  26.830  1.00  0.00     0.195 C 
ENDBRANCH  14  19
ENDBRANCH  10  13
ENDBRANCH   9  10
ENDBRANCH   7   9
ENDBRANCH   6   7
ENDBRANCH   5   6
ENDBRANCH   4   5
ENDBRANCH   3   4
ENDBRANCH   2   3
ENDBRANCH   1   2
BRANCH   1  21
ATOM     21  O   UNL A   1      33.542  32.816  27.789  1.00  0.00    -0.377 OA
BRANCH  21  22
ATOM     22  C   UNL A   1      34.449  33.720  28.423  1.00  0.00     0.188 C 
BRANCH  22  23
ATOM     23  C   UNL A   1      33.706  34.654  29.361  1.00  0.00     0.188 C 
BRANCH  23  24
ATOM     24  O   UNL A   1      33.688  34.232  30.722  1.00  0.00    -0.376 OA
BRANCH  24  25
ATOM     25  C   UNL A   1      33.789  35.317  31.660  1.00  0.00     0.202 C 
BRANCH  25  26
ATOM     26  C   UNL A   1      34.908  35.127  32.698  1.00  0.00     0.261 C 
BRANCH  26  27
ATOM     27  O   UNL A   1      35.900  34.180  32.251  1.00  0.00    -0.460 OA
BRANCH  27  28
ATOM     28  C   UNL A   1      36.183  33.131  33.060  1.00  0.00     0.338 C 
ATOM     29  O   UNL A   1      35.693  32.872  34.139  1.00  0.00    -0.246 OA
BRANCH  28  30
ATOM     30  C   UNL A   1      37.063  32.201  32.311  1.00  0.00     0.060 A 
ATOM     31  C   UNL A   1      37.985  31.409  33.008  1.00  0.00     0.016 A 
ATOM     32  C   UNL A   1      36.998  32.138  30.922  1.00  0.00     0.016 A 
ATOM     33  C   UNL A   1      38.882  30.595  32.309  1.00  0.00     0.010 A 
ATOM     34  C   UNL A   1      37.865  31.294  30.225  1.00  0.00     0.010 A 
ATOM     35  C   UNL A   1      38.860  30.568  30.907  1.00  0.00    -0.014 A 
BRANCH  35  36
ATOM     36  C   UNL A   1      40.006  30.015  30.131  1.00  0.00     0.031 A 
ATOM     37  C   UNL A   1      41.192  30.922  29.887  1.00  0.00     0.074 A 
ATOM     38  C   UNL A   1      40.026  28.757  29.652  1.00  0.00     0.049 A 
ATOM     39  N   UNL A   1      42.254  30.728  29.145  1.00  0.00    -0.248 NA
ATOM     40  C   UNL A   1      41.159  32.238  30.551  1.00  0.00     0.031 C 
ATOM     41  C   UNL A   1      38.979  27.754  29.833  1.00  0.00     0.029 A 
ATOM     42  N   UNL A   1      40.981  28.111  28.901  1.00  0.00    -0.354 N 
ATOM     43  C   UNL A   1      42.992  31.904  29.236  1.00  0.00     0.074 A 
ATOM     44  C   UNL A   1      42.228  32.827  30.043  1.00  0.00     0.031 C 
ATOM     45  C   UNL A   1      39.352  26.617  29.215  1.00  0.00     0.029 A 
ATOM     46  C   UNL A   1      40.644  26.822  28.563  1.00  0.00     0.049 A 
ATOM     47  H   UNL A   1      41.827  28.534  28.629  1.00  0.00     0.167 HD
ATOM     48  C   UNL A   1      44.213  32.190  28.727  1.00  0.00     0.031 A 
ATOM     49  C   UNL A   1      41.300  25.920  27.805  1.00  0.00     0.031 A 
ATOM     50  C   UNL A   1      45.000  31.275  27.950  1.00  0.00     0.049 A 
ATOM     51  C   UNL A   1      42.631  26.286  27.188  1.00  0.00     0.074 A 
ATOM     52  C   UNL A   1      46.257  31.468  27.404  1.00  0.00     0.029 A 
ATOM     53  N   UNL A   1      44.612  29.987  27.622  1.00  0.00    -0.354 N 
ATOM     54  N   UNL A   1      43.323  27.394  27.299  1.00  0.00    -0.248 NA
ATOM     55  C   UNL A   1      43.274  25.264  26.346  1.00  0.00     0.031 C 
ATOM     56  C   UNL A   1      46.611  30.311  26.706  1.00  0.00     0.029 A 
ATOM     57  C   UNL A   1      45.601  29.377  26.872  1.00  0.00     0.049 A 
ATOM     58  H   UNL A   1      43.761  29.569  27.884  1.00  0.00     0.167 HD
ATOM     59  C   UNL A   1      44.497  27.183  26.583  1.00  0.00     0.074 A 
ATOM     60  C   UNL A   1      44.432  25.838  26.056  1.00  0.00     0.031 C 
ATOM     61  C   UNL A   1      45.537  28.028  26.378  1.00  0.00     0.031 A 
BRANCH  48  62
ATOM     62  C   UNL A   1      44.777  33.555  29.009  1.00  0.00    -0.014 A 
ATOM     63  C   UNL A   1      45.582  33.787  30.137  1.00  0.00     0.009 A 
ATOM     64  C   UNL A   1      44.529  34.614  28.123  1.00  0.00     0.009 A 
ATOM     65  C   UNL A   1      46.094  35.060  30.392  1.00  0.00     0.001 A 
ATOM     66  C   UNL A   1      45.072  35.878  28.361  1.00  0.00     0.001 A 
ATOM     67  C   UNL A   1      45.845  36.102  29.499  1.00  0.00     0.000 A 
ENDBRANCH  48  62
BRANCH  49  68
ATOM     68  C   UNL A   1      40.723  24.567  27.554  1.00  0.00    -0.014 A 
ATOM     69  C   UNL A   1      41.317  23.422  28.111  1.00  0.00     0.009 A 
ATOM     70  C   UNL A   1      39.631  24.404  26.687  1.00  0.00     0.009 A 
ATOM     71  C   UNL A   1      40.865  22.146  27.766  1.00  0.00     0.001 A 
ATOM     72  C   UNL A   1      39.157  23.128  26.373  1.00  0.00     0.001 A 
ATOM     73  C   UNL A   1      39.785  22.000  26.898  1.00  0.00     0.000 A 
ENDBRANCH  49  68
BRANCH  61  74
ATOM     74  C   UNL A   1      46.722  27.508  25.610  1.00  0.00    -0.014 A 
ATOM     75  C   UNL A   1      46.894  27.785  24.244  1.00  0.00     0.009 A 
ATOM     76  C   UNL A   1      47.711  26.772  26.282  1.00  0.00     0.009 A 
ATOM     77  C   UNL A   1      48.014  27.303  23.562  1.00  0.00     0.001 A 
ATOM     78  C   UNL A   1      48.846  26.321  25.606  1.00  0.00     0.001 A 
ATOM     79  C   UNL A   1      48.991  26.579  24.244  1.00  0.00     0.000 A 
ENDBRANCH  61  74
ENDBRANCH  35  36
ENDBRANCH  28  30
ENDBRANCH  27  28
ENDBRANCH  26  27
ENDBRANCH  25  26
ENDBRANCH  24  25
ENDBRANCH  23  24
ENDBRANCH  22  23
ENDBRANCH  21  22
ENDBRANCH   1  21
TORSDOF 23
ENDMDL
MODEL 3
REMARK VINA RESULT:      -8.4      6.913     11.893
REMARK SMILES CO[C@H]1CC[C@@H]([NH2+]CC(=O)OCCOCCOCCOCCOC(=O)c2ccc(-c3c4nc(c(-c5ccccc5)c5ccc([nH]5)c(-c5ccccc5)c5nc(c(-c6ccccc6)c6ccc3[nH]6)C=C5)C=C4)cc2)CC1
REMARK SMILES IDX 16 1 15 2 14 3 13 4 12 5 11 6 9 7 10 8 8 9 7 10 6 13 3 14
REMARK SMILES IDX 75 15 4 16 74 17 5 18 2 19 1 20 17 21 18 22 19 23 20 24
REMARK SMILES IDX 21 25 22 26 23 27 24 28 25 29 26 30 27 31 73 32 28 33 72 34
REMARK SMILES IDX 29 35 30 36 31 37 66 38 32 39 71 40 65 41 67 42 33 43 70 44
REMARK SMILES IDX 64 45 63 46 34 48 56 49 41 50 55 51 42 52 45 53 54 54 68 55
REMARK SMILES IDX 43 56 44 57 53 59 69 60 46 61 35 62 36 63 40 64 37 65 39 66
REMARK SMILES IDX 38 67 57 68 58 69 62 70 59 71 61 72 60 73 47 74 48 75 52 76
REMARK SMILES IDX 49 77 51 78 50 79
REMARK H PARENT 7 11 7 12 67 47 45 58
REMARK Flexibility Score: inf
ROOT
ATOM      1  C   UNL A   1      33.990  29.540  27.405  1.00  0.00     0.188 C 
ENDROOT
BRANCH   1   2
ATOM      2  C   UNL A   1      33.090  29.844  26.203  1.00  0.00     0.188 C 
BRANCH   2   3
ATOM      3  O   UNL A   1      31.785  29.266  26.231  1.00  0.00    -0.376 OA
BRANCH   3   4
ATOM      4  C   UNL A   1      31.596  28.124  27.080  1.00  0.00     0.202 C 
BRANCH   4   5
ATOM      5  C   UNL A   1      31.086  26.870  26.371  1.00  0.00     0.261 C 
BRANCH   5   6
ATOM      6  O   UNL A   1      31.824  25.732  26.864  1.00  0.00    -0.459 OA
BRANCH   6   7
ATOM      7  C   UNL A   1      32.780  25.194  26.070  1.00  0.00     0.361 C 
ATOM      8  O   UNL A   1      33.429  25.825  25.244  1.00  0.00    -0.245 OA
BRANCH   7   9
ATOM      9  C   UNL A   1      33.009  23.707  26.343  1.00  0.00     0.385 C 
BRANCH   9  10
ATOM     10  N   UNL A   1      32.327  22.764  25.428  1.00  0.00    -0.335 N 
ATOM     11  H   UNL A   1      32.197  21.881  25.921  1.00  0.00     0.347 HD
ATOM     12  H   UNL A   1      31.450  23.210  25.159  1.00  0.00     0.347 HD
BRANCH  10  13
ATOM     13  C   UNL A   1      33.046  22.485  24.177  1.00  0.00     0.183 C 
ATOM     14  C   UNL A   1      33.828  19.578  24.280  1.00  0.00     0.118 C 
ATOM     15  C   UNL A   1      32.401  20.024  23.980  1.00  0.00     0.038 C 
ATOM     16  C   UNL A   1      34.543  20.625  25.140  1.00  0.00     0.038 C 
ATOM     17  C   UNL A   1      32.379  21.396  23.316  1.00  0.00     0.067 C 
ATOM     18  C   UNL A   1      34.478  22.023  24.524  1.00  0.00     0.067 C 
BRANCH  14  19
ATOM     19  O   UNL A   1      33.757  18.335  24.975  1.00  0.00    -0.381 OA
ATOM     20  C   UNL A   1      34.387  17.272  24.277  1.00  0.00     0.195 C 
ENDBRANCH  14  19
ENDBRANCH  10  13
ENDBRANCH   9  10
ENDBRANCH   7   9
ENDBRANCH   6   7
ENDBRANCH   5   6
ENDBRANCH   4   5
ENDBRANCH   3   4
ENDBRANCH   2   3
ENDBRANCH   1   2
BRANCH   1  21
ATOM     21  O   UNL A   1      34.980  30.540  27.605  1.00  0.00    -0.377 OA
BRANCH  21  22
ATOM     22  C   UNL A   1      34.395  31.790  27.978  1.00  0.00     0.188 C 
BRANCH  22  23
ATOM     23  C   UNL A   1      35.461  32.863  28.102  1.00  0.00     0.188 C 
BRANCH  23  24
ATOM     24  O   UNL A   1      35.029  34.052  28.757  1.00  0.00    -0.376 OA
BRANCH  24  25
ATOM     25  C   UNL A   1      33.633  34.337  28.566  1.00  0.00     0.202 C 
BRANCH  25  26
ATOM     26  C   UNL A   1      33.125  35.512  29.420  1.00  0.00     0.261 C 
BRANCH  26  27
ATOM     27  O   UNL A   1      32.446  35.058  30.608  1.00  0.00    -0.460 OA
BRANCH  27  28
ATOM     28  C   UNL A   1      32.726  35.684  31.776  1.00  0.00     0.338 C 
ATOM     29  O   UNL A   1      32.068  36.532  32.340  1.00  0.00    -0.246 OA
BRANCH  28  30
ATOM     30  C   UNL A   1      33.896  35.007  32.386  1.00  0.00     0.060 A 
ATOM     31  C   UNL A   1      35.138  35.657  32.407  1.00  0.00     0.016 A 
ATOM     32  C   UNL A   1      33.772  33.722  32.907  1.00  0.00     0.016 A 
ATOM     33  C   UNL A   1      36.269  34.996  32.898  1.00  0.00     0.010 A 
ATOM     34  C   UNL A   1      34.892  33.077  33.436  1.00  0.00     0.010 A 
ATOM     35  C   UNL A   1      36.163  33.681  33.373  1.00  0.00    -0.014 A 
BRANCH  35  36
ATOM     36  C   UNL A   1      37.373  32.830  33.558  1.00  0.00     0.031 A 
ATOM     37  C   UNL A   1      38.178  33.020  34.824  1.00  0.00     0.074 A 
ATOM     38  C   UNL A   1      37.766  31.912  32.656  1.00  0.00     0.049 A 
ATOM     39  N   UNL A   1      39.329  32.500  35.170  1.00  0.00    -0.248 NA
ATOM     40  C   UNL A   1      37.617  33.947  35.824  1.00  0.00     0.031 C 
ATOM     41  C   UNL A   1      37.080  31.587  31.407  1.00  0.00     0.029 A 
ATOM     42  N   UNL A   1      38.861  31.079  32.661  1.00  0.00    -0.354 N 
ATOM     43  C   UNL A   1      39.635  33.057  36.407  1.00  0.00     0.074 A 
ATOM     44  C   UNL A   1      38.590  34.004  36.719  1.00  0.00     0.031 C 
ATOM     45  C   UNL A   1      37.766  30.620  30.771  1.00  0.00     0.029 A 
ATOM     46  C   UNL A   1      38.960  30.283  31.545  1.00  0.00     0.049 A 
ATOM     47  H   UNL A   1      39.515  31.056  33.397  1.00  0.00     0.167 HD
ATOM     48  C   UNL A   1      40.671  32.788  37.235  1.00  0.00     0.031 A 
ATOM     49  C   UNL A   1      39.911  29.397  31.187  1.00  0.00     0.031 A 
ATOM     50  C   UNL A   1      41.700  31.828  36.956  1.00  0.00     0.049 A 
ATOM     51  C   UNL A   1      41.096  29.163  32.096  1.00  0.00     0.074 A 
ATOM     52  C   UNL A   1      42.784  31.473  37.742  1.00  0.00     0.029 A 
ATOM     53  N   UNL A   1      41.766  31.056  35.808  1.00  0.00    -0.354 N 
ATOM     54  N   UNL A   1      41.360  29.683  33.270  1.00  0.00    -0.248 NA
ATOM     55  C   UNL A   1      42.112  28.206  31.627  1.00  0.00     0.031 C 
ATOM     56  C   UNL A   1      43.531  30.519  37.047  1.00  0.00     0.029 A 
ATOM     57  C   UNL A   1      42.877  30.235  35.858  1.00  0.00     0.049 A 
ATOM     58  H   UNL A   1      41.119  31.089  35.067  1.00  0.00     0.167 HD
ATOM     59  C   UNL A   1      42.542  29.084  33.696  1.00  0.00     0.074 A 
ATOM     60  C   UNL A   1      42.935  28.150  32.664  1.00  0.00     0.031 C 
ATOM     61  C   UNL A   1      43.242  29.289  34.839  1.00  0.00     0.031 A 
BRANCH  48  62
ATOM     62  C   UNL A   1      40.731  33.541  38.535  1.00  0.00    -0.014 A 
ATOM     63  C   UNL A   1      41.396  34.777  38.626  1.00  0.00     0.009 A 
ATOM     64  C   UNL A   1      40.093  33.029  39.673  1.00  0.00     0.009 A 
ATOM     65  C   UNL A   1      41.450  35.463  39.839  1.00  0.00     0.001 A 
ATOM     66  C   UNL A   1      40.119  33.735  40.878  1.00  0.00     0.001 A 
ATOM     67  C   UNL A   1      40.805  34.946  40.962  1.00  0.00     0.000 A 
ENDBRANCH  48  62
BRANCH  49  68
ATOM     68  C   UNL A   1      39.818  28.651  29.898  1.00  0.00    -0.014 A 
ATOM     69  C   UNL A   1      39.264  27.361  29.857  1.00  0.00     0.009 A 
ATOM     70  C   UNL A   1      40.361  29.189  28.720  1.00  0.00     0.009 A 
ATOM     71  C   UNL A   1      39.302  26.607  28.682  1.00  0.00     0.001 A 
ATOM     72  C   UNL A   1      40.364  28.446  27.537  1.00  0.00     0.001 A 
ATOM     73  C   UNL A   1      39.851  27.151  27.522  1.00  0.00     0.000 A 
ENDBRANCH  49  68
BRANCH  61  74
ATOM     74  C   UNL A   1      44.464  28.444  35.073  1.00  0.00    -0.014 A 
ATOM     75  C   UNL A   1      45.755  28.923  34.798  1.00  0.00     0.009 A 
ATOM     76  C   UNL A   1      44.321  27.163  35.632  1.00  0.00     0.009 A 
ATOM     77  C   UNL A   1      46.872  28.121  35.043  1.00  0.00     0.001 A 
ATOM     78  C   UNL A   1      45.442  26.378  35.909  1.00  0.00     0.001 A 
ATOM     79  C   UNL A   1      46.716  26.855  35.603  1.00  0.00     0.000 A 
ENDBRANCH  61  74
ENDBRANCH  35  36
ENDBRANCH  28  30
ENDBRANCH  27  28
ENDBRANCH  26  27
ENDBRANCH  25  26
ENDBRANCH  24  25
ENDBRANCH  23  24
ENDBRANCH  22  23
ENDBRANCH  21  22
ENDBRANCH   1  21
TORSDOF 23
ENDMDL
