MODEL 1
REMARK VINA RESULT:      -9.8      0.000      0.000
REMARK SMILES C[C@H]1CC[C@H]([NH2+]Cc2c(C(=O)OCCOCCOCCOCCOC(=O)c3ccc(-c4c5nc(c(-c6ccccc6)c6ccc([nH]6)c(-c6ccccc6)c6nc(c(-c7ccccc7)c7ccc4[nH]7)C=C6)C=C5)cc3)n(Cc3ccccc3F)c3ccccc23)CC1
REMARK SMILES IDX 17 1 16 2 15 3 14 4 13 5 12 6 10 7 11 8 9 9 8 10 89 11 75 12
REMARK SMILES IDX 84 13 88 14 85 15 87 16 86 17 7 18 6 19 5 22 1 23 2 24 3 25
REMARK SMILES IDX 91 26 4 27 90 28 76 29 77 30 78 31 82 32 79 33 81 34 83 35
REMARK SMILES IDX 80 36 18 37 19 38 20 39 21 40 22 41 23 42 24 43 25 44 26 45
REMARK SMILES IDX 27 46 28 47 74 48 29 49 73 50 30 51 31 52 32 53 67 54 33 55
REMARK SMILES IDX 72 56 66 57 68 58 34 59 71 60 65 61 64 62 35 64 57 65 42 66
REMARK SMILES IDX 56 67 43 68 46 69 55 70 69 71 44 72 45 73 54 75 70 76 47 77
REMARK SMILES IDX 36 78 37 79 41 80 38 81 40 82 39 83 58 84 59 85 63 86 60 87
REMARK SMILES IDX 62 88 61 89 48 90 49 91 53 92 50 93 52 94 51 95
REMARK H PARENT 6 20 6 21 68 63 46 74
REMARK Flexibility Score: inf
ROOT
ATOM      1  C   UNL A   1      40.829  23.622  26.817  1.00  0.00     0.188 C 
ENDROOT
BRANCH   1   2
ATOM      2  C   UNL A   1      39.376  24.011  27.132  1.00  0.00     0.188 C 
BRANCH   2   3
ATOM      3  O   UNL A   1      38.474  24.358  26.099  1.00  0.00    -0.376 OA
BRANCH   3   4
ATOM      4  C   UNL A   1      37.380  23.520  25.776  1.00  0.00     0.202 C 
BRANCH   4   5
ATOM      5  C   UNL A   1      36.203  23.951  24.900  1.00  0.00     0.261 C 
BRANCH   5   6
ATOM      6  O   UNL A   1      35.681  23.018  23.935  1.00  0.00    -0.459 OA
BRANCH   6   7
ATOM      7  C   UNL A   1      34.525  23.359  23.307  1.00  0.00     0.355 C 
ATOM      8  O   UNL A   1      34.381  23.305  22.082  1.00  0.00    -0.244 OA
BRANCH   7   9
ATOM      9  C   UNL A   1      33.456  23.730  24.223  1.00  0.00     0.137 A 
ATOM     10  C   UNL A   1      32.530  24.795  24.209  1.00  0.00     0.047 A 
ATOM     11  C   UNL A   1      31.549  24.505  25.225  1.00  0.00     0.009 A 
ATOM     12  N   UNL A   1      33.107  22.923  25.311  1.00  0.00    -0.330 N 
ATOM     13  C   UNL A   1      31.840  23.256  25.754  1.00  0.00     0.050 A 
ATOM     14  C   UNL A   1      30.378  25.168  25.663  1.00  0.00     0.011 A 
ATOM     15  C   UNL A   1      30.940  22.584  26.599  1.00  0.00     0.027 A 
ATOM     16  C   UNL A   1      29.516  24.539  26.564  1.00  0.00     0.001 A 
ATOM     17  C   UNL A   1      29.783  23.249  27.006  1.00  0.00     0.002 A 
BRANCH  10  18
ATOM     18  C   UNL A   1      32.327  25.989  23.305  1.00  0.00     0.300 C 
BRANCH  18  19
ATOM     19  N   UNL A   1      33.482  26.833  23.125  1.00  0.00    -0.340 N 
ATOM     20  H   UNL A   1      34.300  26.280  23.380  1.00  0.00     0.346 HD
ATOM     21  H   UNL A   1      33.421  27.130  22.151  1.00  0.00     0.346 HD
BRANCH  19  22
ATOM     22  C   UNL A   1      33.562  28.093  23.875  1.00  0.00     0.182 C 
ATOM     23  C   UNL A   1      31.415  28.147  27.729  1.00  0.00     0.007 C 
ATOM     24  C   UNL A   1      32.149  28.067  26.397  1.00  0.00    -0.014 C 
ATOM     25  C   UNL A   1      33.610  28.463  26.481  1.00  0.00     0.009 C 
ATOM     26  C   UNL A   1      31.490  28.864  25.287  1.00  0.00     0.009 C 
ATOM     27  C   UNL A   1      34.345  28.043  25.212  1.00  0.00     0.065 C 
ATOM     28  C   UNL A   1      32.116  28.640  23.919  1.00  0.00     0.065 C 
ENDBRANCH  19  22
ENDBRANCH  18  19
ENDBRANCH  10  18
BRANCH  12  29
ATOM     29  C   UNL A   1      33.885  21.797  25.858  1.00  0.00     0.161 C 
BRANCH  29  30
ATOM     30  C   UNL A   1      33.680  20.479  25.133  1.00  0.00     0.008 A 
ATOM     31  C   UNL A   1      32.450  20.091  24.584  1.00  0.00     0.008 A 
ATOM     32  C   UNL A   1      34.765  19.625  24.906  1.00  0.00     0.128 A 
ATOM     33  C   UNL A   1      32.306  18.881  23.895  1.00  0.00     0.001 A 
ATOM     34  C   UNL A   1      34.627  18.397  24.258  1.00  0.00     0.039 A 
ATOM     35  F   UNL A   1      35.995  19.995  25.286  1.00  0.00    -0.207 F 
ATOM     36  C   UNL A   1      33.389  18.022  23.749  1.00  0.00     0.003 A 
ENDBRANCH  29  30
ENDBRANCH  12  29
ENDBRANCH   7   9
ENDBRANCH   6   7
ENDBRANCH   5   6
ENDBRANCH   4   5
ENDBRANCH   3   4
ENDBRANCH   2   3
ENDBRANCH   1   2
BRANCH   1  37
ATOM     37  O   UNL A   1      40.989  22.412  26.114  1.00  0.00    -0.377 OA
BRANCH  37  38
ATOM     38  C   UNL A   1      42.034  21.537  26.501  1.00  0.00     0.188 C 
BRANCH  38  39
ATOM     39  C   UNL A   1      43.488  21.836  26.097  1.00  0.00     0.188 C 
BRANCH  39  40
ATOM     40  O   UNL A   1      43.865  21.156  24.908  1.00  0.00    -0.376 OA
BRANCH  40  41
ATOM     41  C   UNL A   1      44.859  21.783  24.109  1.00  0.00     0.202 C 
BRANCH  41  42
ATOM     42  C   UNL A   1      45.747  22.821  24.816  1.00  0.00     0.261 C 
BRANCH  42  43
ATOM     43  O   UNL A   1      45.352  24.193  24.611  1.00  0.00    -0.460 OA
BRANCH  43  44
ATOM     44  C   UNL A   1      46.246  25.181  24.816  1.00  0.00     0.338 C 
ATOM     45  O   UNL A   1      47.347  25.288  24.282  1.00  0.00    -0.246 OA
BRANCH  44  46
ATOM     46  C   UNL A   1      45.520  26.283  25.510  1.00  0.00     0.060 A 
ATOM     47  C   UNL A   1      46.190  27.419  25.978  1.00  0.00     0.016 A 
ATOM     48  C   UNL A   1      44.204  26.030  25.931  1.00  0.00     0.016 A 
ATOM     49  C   UNL A   1      45.575  28.239  26.925  1.00  0.00     0.010 A 
ATOM     50  C   UNL A   1      43.592  26.852  26.885  1.00  0.00     0.010 A 
ATOM     51  C   UNL A   1      44.284  27.946  27.411  1.00  0.00    -0.014 A 
BRANCH  51  52
ATOM     52  C   UNL A   1      43.654  28.940  28.298  1.00  0.00     0.031 A 
ATOM     53  C   UNL A   1      43.305  28.413  29.650  1.00  0.00     0.074 A 
ATOM     54  C   UNL A   1      43.532  30.276  28.132  1.00  0.00     0.049 A 
ATOM     55  N   UNL A   1      42.169  28.457  30.268  1.00  0.00    -0.248 NA
ATOM     56  C   UNL A   1      44.372  27.711  30.382  1.00  0.00     0.031 C 
ATOM     57  C   UNL A   1      44.137  31.119  27.102  1.00  0.00     0.029 A 
ATOM     58  N   UNL A   1      42.913  31.185  28.960  1.00  0.00    -0.354 N 
ATOM     59  C   UNL A   1      42.398  27.894  31.518  1.00  0.00     0.074 A 
ATOM     60  C   UNL A   1      43.741  27.372  31.505  1.00  0.00     0.031 C 
ATOM     61  C   UNL A   1      44.048  32.414  27.486  1.00  0.00     0.029 A 
ATOM     62  C   UNL A   1      43.282  32.499  28.722  1.00  0.00     0.049 A 
ATOM     63  H   UNL A   1      42.267  30.925  29.656  1.00  0.00     0.167 HD
ATOM     64  C   UNL A   1      41.528  28.008  32.556  1.00  0.00     0.031 A 
ATOM     65  C   UNL A   1      43.060  33.574  29.517  1.00  0.00     0.031 A 
ATOM     66  C   UNL A   1      40.220  28.430  32.153  1.00  0.00     0.049 A 
ATOM     67  C   UNL A   1      42.016  33.264  30.517  1.00  0.00     0.074 A 
ATOM     68  C   UNL A   1      39.273  27.927  31.286  1.00  0.00     0.029 A 
ATOM     69  N   UNL A   1      39.815  29.702  32.472  1.00  0.00    -0.354 N 
ATOM     70  N   UNL A   1      40.739  33.217  30.282  1.00  0.00    -0.248 NA
ATOM     71  C   UNL A   1      42.427  32.780  31.825  1.00  0.00     0.031 C 
ATOM     72  C   UNL A   1      38.599  29.065  30.773  1.00  0.00     0.029 A 
ATOM     73  C   UNL A   1      39.106  30.203  31.406  1.00  0.00     0.049 A 
ATOM     74  H   UNL A   1      40.000  30.173  33.316  1.00  0.00     0.167 HD
ATOM     75  C   UNL A   1      40.217  32.369  31.243  1.00  0.00     0.074 A 
ATOM     76  C   UNL A   1      41.281  32.234  32.231  1.00  0.00     0.031 C 
ATOM     77  C   UNL A   1      39.100  31.611  31.011  1.00  0.00     0.031 A 
BRANCH  64  78
ATOM     78  C   UNL A   1      41.959  27.971  33.993  1.00  0.00    -0.014 A 
ATOM     79  C   UNL A   1      41.907  26.791  34.761  1.00  0.00     0.009 A 
ATOM     80  C   UNL A   1      42.648  29.064  34.543  1.00  0.00     0.009 A 
ATOM     81  C   UNL A   1      42.487  26.709  36.028  1.00  0.00     0.001 A 
ATOM     82  C   UNL A   1      43.269  28.970  35.795  1.00  0.00     0.001 A 
ATOM     83  C   UNL A   1      43.185  27.795  36.537  1.00  0.00     0.000 A 
ENDBRANCH  64  78
BRANCH  65  84
ATOM     84  C   UNL A   1      43.870  34.806  29.649  1.00  0.00    -0.014 A 
ATOM     85  C   UNL A   1      43.242  36.063  29.598  1.00  0.00     0.009 A 
ATOM     86  C   UNL A   1      45.270  34.767  29.546  1.00  0.00     0.009 A 
ATOM     87  C   UNL A   1      43.981  37.236  29.421  1.00  0.00     0.001 A 
ATOM     88  C   UNL A   1      46.011  35.943  29.365  1.00  0.00     0.001 A 
ATOM     89  C   UNL A   1      45.364  37.175  29.289  1.00  0.00     0.000 A 
ENDBRANCH  65  84
BRANCH  77  90
ATOM     90  C   UNL A   1      38.008  32.083  30.047  1.00  0.00    -0.014 A 
ATOM     91  C   UNL A   1      37.610  31.211  29.008  1.00  0.00     0.009 A 
ATOM     92  C   UNL A   1      37.366  33.331  30.076  1.00  0.00     0.009 A 
ATOM     93  C   UNL A   1      36.713  31.598  28.005  1.00  0.00     0.001 A 
ATOM     94  C   UNL A   1      36.414  33.699  29.112  1.00  0.00     0.001 A 
ATOM     95  C   UNL A   1      36.115  32.848  28.056  1.00  0.00     0.000 A 
ENDBRANCH  77  90
ENDBRANCH  51  52
ENDBRANCH  44  46
ENDBRANCH  43  44
ENDBRANCH  42  43
ENDBRANCH  41  42
ENDBRANCH  40  41
ENDBRANCH  39  40
ENDBRANCH  38  39
ENDBRANCH  37  38
ENDBRANCH   1  37
TORSDOF 25
ENDMDL
MODEL 2
REMARK VINA RESULT:      -9.4      3.156      5.830
REMARK SMILES C[C@H]1CC[C@H]([NH2+]Cc2c(C(=O)OCCOCCOCCOCCOC(=O)c3ccc(-c4c5nc(c(-c6ccccc6)c6ccc([nH]6)c(-c6ccccc6)c6nc(c(-c7ccccc7)c7ccc4[nH]7)C=C6)C=C5)cc3)n(Cc3ccccc3F)c3ccccc23)CC1
REMARK SMILES IDX 17 1 16 2 15 3 14 4 13 5 12 6 10 7 11 8 9 9 8 10 89 11 75 12
REMARK SMILES IDX 84 13 88 14 85 15 87 16 86 17 7 18 6 19 5 22 1 23 2 24 3 25
REMARK SMILES IDX 91 26 4 27 90 28 76 29 77 30 78 31 82 32 79 33 81 34 83 35
REMARK SMILES IDX 80 36 18 37 19 38 20 39 21 40 22 41 23 42 24 43 25 44 26 45
REMARK SMILES IDX 27 46 28 47 74 48 29 49 73 50 30 51 31 52 32 53 67 54 33 55
REMARK SMILES IDX 72 56 66 57 68 58 34 59 71 60 65 61 64 62 35 64 57 65 42 66
REMARK SMILES IDX 56 67 43 68 46 69 55 70 69 71 44 72 45 73 54 75 70 76 47 77
REMARK SMILES IDX 36 78 37 79 41 80 38 81 40 82 39 83 58 84 59 85 63 86 60 87
REMARK SMILES IDX 62 88 61 89 48 90 49 91 53 92 50 93 52 94 51 95
REMARK H PARENT 6 20 6 21 68 63 46 74
REMARK Flexibility Score: inf
ROOT
ATOM      1  C   UNL A   1      39.746  20.545  26.128  1.00  0.00     0.188 C 
ENDROOT
BRANCH   1   2
ATOM      2  C   UNL A   1      38.430  20.825  25.385  1.00  0.00     0.188 C 
BRANCH   2   3
ATOM      3  O   UNL A   1      37.576  21.878  25.787  1.00  0.00    -0.376 OA
BRANCH   3   4
ATOM      4  C   UNL A   1      37.396  23.021  24.971  1.00  0.00     0.202 C 
BRANCH   4   5
ATOM      5  C   UNL A   1      36.306  23.147  23.907  1.00  0.00     0.261 C 
BRANCH   5   6
ATOM      6  O   UNL A   1      35.406  24.269  23.968  1.00  0.00    -0.459 OA
BRANCH   6   7
ATOM      7  C   UNL A   1      34.171  24.104  23.424  1.00  0.00     0.355 C 
ATOM      8  O   UNL A   1      33.991  23.752  22.254  1.00  0.00    -0.244 OA
BRANCH   7   9
ATOM      9  C   UNL A   1      33.087  24.318  24.372  1.00  0.00     0.137 A 
ATOM     10  C   UNL A   1      32.177  25.383  24.538  1.00  0.00     0.047 A 
ATOM     11  C   UNL A   1      31.169  24.928  25.464  1.00  0.00     0.009 A 
ATOM     12  N   UNL A   1      32.702  23.330  25.284  1.00  0.00    -0.330 N 
ATOM     13  C   UNL A   1      31.431  23.598  25.757  1.00  0.00     0.050 A 
ATOM     14  C   UNL A   1      29.998  25.519  25.994  1.00  0.00     0.011 A 
ATOM     15  C   UNL A   1      30.503  22.797  26.445  1.00  0.00     0.027 A 
ATOM     16  C   UNL A   1      29.107  24.749  26.746  1.00  0.00     0.001 A 
ATOM     17  C   UNL A   1      29.347  23.396  26.946  1.00  0.00     0.002 A 
BRANCH  10  18
ATOM     18  C   UNL A   1      32.010  26.728  23.868  1.00  0.00     0.300 C 
BRANCH  18  19
ATOM     19  N   UNL A   1      32.696  27.826  24.503  1.00  0.00    -0.340 N 
ATOM     20  H   UNL A   1      33.636  27.500  24.730  1.00  0.00     0.346 HD
ATOM     21  H   UNL A   1      32.631  28.583  23.824  1.00  0.00     0.346 HD
BRANCH  19  22
ATOM     22  C   UNL A   1      32.130  28.400  25.730  1.00  0.00     0.182 C 
ATOM     23  C   UNL A   1      34.606  31.468  27.710  1.00  0.00     0.007 C 
ATOM     24  C   UNL A   1      33.788  30.413  26.977  1.00  0.00    -0.014 C 
ATOM     25  C   UNL A   1      32.367  30.847  26.671  1.00  0.00     0.009 C 
ATOM     26  C   UNL A   1      33.748  29.070  27.683  1.00  0.00     0.009 C 
ATOM     27  C   UNL A   1      31.730  29.896  25.662  1.00  0.00     0.065 C 
ATOM     28  C   UNL A   1      33.086  27.970  26.867  1.00  0.00     0.065 C 
ENDBRANCH  19  22
ENDBRANCH  18  19
ENDBRANCH  10  18
BRANCH  12  29
ATOM     29  C   UNL A   1      33.453  22.108  25.628  1.00  0.00     0.161 C 
BRANCH  29  30
ATOM     30  C   UNL A   1      33.018  20.868  24.868  1.00  0.00     0.008 A 
ATOM     31  C   UNL A   1      32.682  20.883  23.507  1.00  0.00     0.008 A 
ATOM     32  C   UNL A   1      33.023  19.619  25.498  1.00  0.00     0.128 A 
ATOM     33  C   UNL A   1      32.315  19.714  22.831  1.00  0.00     0.001 A 
ATOM     34  C   UNL A   1      32.618  18.452  24.848  1.00  0.00     0.039 A 
ATOM     35  F   UNL A   1      33.460  19.510  26.760  1.00  0.00    -0.207 F 
ATOM     36  C   UNL A   1      32.261  18.500  23.506  1.00  0.00     0.003 A 
ENDBRANCH  29  30
ENDBRANCH  12  29
ENDBRANCH   7   9
ENDBRANCH   6   7
ENDBRANCH   5   6
ENDBRANCH   4   5
ENDBRANCH   3   4
ENDBRANCH   2   3
ENDBRANCH   1   2
BRANCH   1  37
ATOM     37  O   UNL A   1      40.007  21.384  27.227  1.00  0.00    -0.377 OA
BRANCH  37  38
ATOM     38  C   UNL A   1      41.335  21.831  27.439  1.00  0.00     0.188 C 
BRANCH  38  39
ATOM     39  C   UNL A   1      42.226  22.211  26.244  1.00  0.00     0.188 C 
BRANCH  39  40
ATOM     40  O   UNL A   1      43.176  23.212  26.581  1.00  0.00    -0.376 OA
BRANCH  40  41
ATOM     41  C   UNL A   1      43.047  24.458  25.910  1.00  0.00     0.202 C 
BRANCH  41  42
ATOM     42  C   UNL A   1      41.682  25.156  26.025  1.00  0.00     0.261 C 
BRANCH  42  43
ATOM     43  O   UNL A   1      41.460  25.849  27.270  1.00  0.00    -0.460 OA
BRANCH  43  44
ATOM     44  C   UNL A   1      42.251  26.888  27.605  1.00  0.00     0.338 C 
ATOM     45  O   UNL A   1      43.271  27.243  27.020  1.00  0.00    -0.246 OA
BRANCH  44  46
ATOM     46  C   UNL A   1      41.478  27.726  28.565  1.00  0.00     0.060 A 
ATOM     47  C   UNL A   1      40.650  28.765  28.126  1.00  0.00     0.016 A 
ATOM     48  C   UNL A   1      41.814  27.634  29.926  1.00  0.00     0.016 A 
ATOM     49  C   UNL A   1      40.240  29.748  29.029  1.00  0.00     0.010 A 
ATOM     50  C   UNL A   1      41.407  28.624  30.827  1.00  0.00     0.010 A 
ATOM     51  C   UNL A   1      40.640  29.704  30.380  1.00  0.00    -0.014 A 
BRANCH  51  52
ATOM     52  C   UNL A   1      40.046  30.697  31.293  1.00  0.00     0.031 A 
ATOM     53  C   UNL A   1      41.031  31.662  31.863  1.00  0.00     0.074 A 
ATOM     54  C   UNL A   1      38.744  30.971  31.525  1.00  0.00     0.049 A 
ATOM     55  N   UNL A   1      41.243  31.966  33.103  1.00  0.00    -0.248 NA
ATOM     56  C   UNL A   1      41.918  32.346  30.907  1.00  0.00     0.031 C 
ATOM     57  C   UNL A   1      37.571  30.467  30.811  1.00  0.00     0.029 A 
ATOM     58  N   UNL A   1      38.208  31.884  32.406  1.00  0.00    -0.354 N 
ATOM     59  C   UNL A   1      42.208  32.967  33.087  1.00  0.00     0.074 A 
ATOM     60  C   UNL A   1      42.653  33.099  31.722  1.00  0.00     0.031 C 
ATOM     61  C   UNL A   1      36.502  31.235  31.125  1.00  0.00     0.029 A 
ATOM     62  C   UNL A   1      36.886  32.204  32.143  1.00  0.00     0.049 A 
ATOM     63  H   UNL A   1      38.717  32.273  33.152  1.00  0.00     0.167 HD
ATOM     64  C   UNL A   1      42.498  33.740  34.166  1.00  0.00     0.031 A 
ATOM     65  C   UNL A   1      36.172  33.238  32.650  1.00  0.00     0.031 A 
ATOM     66  C   UNL A   1      41.997  33.202  35.396  1.00  0.00     0.049 A 
ATOM     67  C   UNL A   1      36.848  33.792  33.842  1.00  0.00     0.074 A 
ATOM     68  C   UNL A   1      42.184  32.016  36.072  1.00  0.00     0.029 A 
ATOM     69  N   UNL A   1      40.934  33.827  36.000  1.00  0.00    -0.354 N 
ATOM     70  N   UNL A   1      36.844  33.255  35.026  1.00  0.00    -0.248 NA
ATOM     71  C   UNL A   1      37.755  34.914  33.670  1.00  0.00     0.031 C 
ATOM     72  C   UNL A   1      40.957  31.773  36.743  1.00  0.00     0.029 A 
ATOM     73  C   UNL A   1      40.106  32.858  36.515  1.00  0.00     0.049 A 
ATOM     74  H   UNL A   1      40.791  34.800  36.054  1.00  0.00     0.167 HD
ATOM     75  C   UNL A   1      37.994  33.714  35.644  1.00  0.00     0.074 A 
ATOM     76  C   UNL A   1      38.442  34.822  34.808  1.00  0.00     0.031 C 
ATOM     77  C   UNL A   1      38.651  32.977  36.593  1.00  0.00     0.031 A 
BRANCH  64  78
ATOM     78  C   UNL A   1      43.033  35.137  34.053  1.00  0.00    -0.014 A 
ATOM     79  C   UNL A   1      42.203  36.269  34.170  1.00  0.00     0.009 A 
ATOM     80  C   UNL A   1      44.421  35.355  34.063  1.00  0.00     0.009 A 
ATOM     81  C   UNL A   1      42.725  37.560  34.262  1.00  0.00     0.001 A 
ATOM     82  C   UNL A   1      44.948  36.645  34.200  1.00  0.00     0.001 A 
ATOM     83  C   UNL A   1      44.101  37.746  34.295  1.00  0.00     0.000 A 
ENDBRANCH  64  78
BRANCH  65  84
ATOM     84  C   UNL A   1      35.046  33.972  32.030  1.00  0.00    -0.014 A 
ATOM     85  C   UNL A   1      34.648  33.662  30.717  1.00  0.00     0.009 A 
ATOM     86  C   UNL A   1      34.546  35.152  32.606  1.00  0.00     0.009 A 
ATOM     87  C   UNL A   1      33.806  34.512  29.994  1.00  0.00     0.001 A 
ATOM     88  C   UNL A   1      33.703  36.005  31.880  1.00  0.00     0.001 A 
ATOM     89  C   UNL A   1      33.345  35.691  30.570  1.00  0.00     0.000 A 
ENDBRANCH  65  84
BRANCH  77  90
ATOM     90  C   UNL A   1      37.897  31.998  37.499  1.00  0.00    -0.014 A 
ATOM     91  C   UNL A   1      37.308  32.500  38.681  1.00  0.00     0.009 A 
ATOM     92  C   UNL A   1      37.751  30.619  37.282  1.00  0.00     0.009 A 
ATOM     93  C   UNL A   1      36.709  31.668  39.633  1.00  0.00     0.001 A 
ATOM     94  C   UNL A   1      37.090  29.789  38.201  1.00  0.00     0.001 A 
ATOM     95  C   UNL A   1      36.602  30.307  39.394  1.00  0.00     0.000 A 
ENDBRANCH  77  90
ENDBRANCH  51  52
ENDBRANCH  44  46
ENDBRANCH  43  44
ENDBRANCH  42  43
ENDBRANCH  41  42
ENDBRANCH  40  41
ENDBRANCH  39  40
ENDBRANCH  38  39
ENDBRANCH  37  38
ENDBRANCH   1  37
TORSDOF 25
ENDMDL
MODEL 3
REMARK VINA RESULT:      -9.2      3.650      8.708
REMARK SMILES C[C@H]1CC[C@H]([NH2+]Cc2c(C(=O)OCCOCCOCCOCCOC(=O)c3ccc(-c4c5nc(c(-c6ccccc6)c6ccc([nH]6)c(-c6ccccc6)c6nc(c(-c7ccccc7)c7ccc4[nH]7)C=C6)C=C5)cc3)n(Cc3ccccc3F)c3ccccc23)CC1
REMARK SMILES IDX 17 1 16 2 15 3 14 4 13 5 12 6 10 7 11 8 9 9 8 10 89 11 75 12
REMARK SMILES IDX 84 13 88 14 85 15 87 16 86 17 7 18 6 19 5 22 1 23 2 24 3 25
REMARK SMILES IDX 91 26 4 27 90 28 76 29 77 30 78 31 82 32 79 33 81 34 83 35
REMARK SMILES IDX 80 36 18 37 19 38 20 39 21 40 22 41 23 42 24 43 25 44 26 45
REMARK SMILES IDX 27 46 28 47 74 48 29 49 73 50 30 51 31 52 32 53 67 54 33 55
REMARK SMILES IDX 72 56 66 57 68 58 34 59 71 60 65 61 64 62 35 64 57 65 42 66
REMARK SMILES IDX 56 67 43 68 46 69 55 70 69 71 44 72 45 73 54 75 70 76 47 77
REMARK SMILES IDX 36 78 37 79 41 80 38 81 40 82 39 83 58 84 59 85 63 86 60 87
REMARK SMILES IDX 62 88 61 89 48 90 49 91 53 92 50 93 52 94 51 95
REMARK H PARENT 6 20 6 21 68 63 46 74
REMARK Flexibility Score: inf
ROOT
ATOM      1  C   UNL A   1      33.495  31.732  27.364  1.00  0.00     0.188 C 
ENDROOT
BRANCH   1   2
ATOM      2  C   UNL A   1      32.484  30.666  26.911  1.00  0.00     0.188 C 
BRANCH   2   3
ATOM      3  O   UNL A   1      32.753  29.834  25.799  1.00  0.00    -0.376 OA
BRANCH   3   4
ATOM      4  C   UNL A   1      33.969  29.117  25.705  1.00  0.00     0.202 C 
BRANCH   4   5
ATOM      5  C   UNL A   1      34.231  28.010  24.683  1.00  0.00     0.261 C 
BRANCH   5   6
ATOM      6  O   UNL A   1      33.579  28.084  23.401  1.00  0.00    -0.459 OA
BRANCH   6   7
ATOM      7  C   UNL A   1      33.250  26.908  22.804  1.00  0.00     0.355 C 
ATOM      8  O   UNL A   1      33.389  26.702  21.595  1.00  0.00    -0.244 OA
BRANCH   7   9
ATOM      9  C   UNL A   1      32.781  25.895  23.740  1.00  0.00     0.137 A 
ATOM     10  C   UNL A   1      31.743  25.904  24.696  1.00  0.00     0.047 A 
ATOM     11  C   UNL A   1      31.577  24.542  25.141  1.00  0.00     0.009 A 
ATOM     12  N   UNL A   1      33.301  24.596  23.739  1.00  0.00    -0.330 N 
ATOM     13  C   UNL A   1      32.432  23.744  24.395  1.00  0.00     0.050 A 
ATOM     14  C   UNL A   1      30.693  23.918  26.052  1.00  0.00     0.011 A 
ATOM     15  C   UNL A   1      32.344  22.341  24.422  1.00  0.00     0.027 A 
ATOM     16  C   UNL A   1      30.654  22.524  26.143  1.00  0.00     0.001 A 
ATOM     17  C   UNL A   1      31.454  21.746  25.316  1.00  0.00     0.002 A 
BRANCH  10  18
ATOM     18  C   UNL A   1      30.774  26.960  25.174  1.00  0.00     0.300 C 
BRANCH  18  19
ATOM     19  N   UNL A   1      29.458  26.906  24.586  1.00  0.00    -0.340 N 
ATOM     20  H   UNL A   1      29.211  25.920  24.496  1.00  0.00     0.346 HD
ATOM     21  H   UNL A   1      28.883  27.462  25.218  1.00  0.00     0.346 HD
BRANCH  19  22
ATOM     22  C   UNL A   1      29.244  27.526  23.273  1.00  0.00     0.182 C 
ATOM     23  C   UNL A   1      28.058  31.775  23.351  1.00  0.00     0.007 C 
ATOM     24  C   UNL A   1      28.482  30.312  23.384  1.00  0.00    -0.014 C 
ATOM     25  C   UNL A   1      29.695  30.010  22.526  1.00  0.00     0.009 C 
ATOM     26  C   UNL A   1      27.371  29.345  23.019  1.00  0.00     0.009 C 
ATOM     27  C   UNL A   1      30.252  28.631  22.867  1.00  0.00     0.065 C 
ATOM     28  C   UNL A   1      27.740  27.884  23.226  1.00  0.00     0.065 C 
ENDBRANCH  19  22
ENDBRANCH  18  19
ENDBRANCH  10  18
BRANCH  12  29
ATOM     29  C   UNL A   1      34.522  24.136  23.053  1.00  0.00     0.161 C 
BRANCH  29  30
ATOM     30  C   UNL A   1      35.562  23.515  23.969  1.00  0.00     0.008 A 
ATOM     31  C   UNL A   1      36.345  22.413  23.600  1.00  0.00     0.008 A 
ATOM     32  C   UNL A   1      35.840  24.095  25.211  1.00  0.00     0.128 A 
ATOM     33  C   UNL A   1      37.317  21.886  24.460  1.00  0.00     0.001 A 
ATOM     34  C   UNL A   1      36.775  23.555  26.095  1.00  0.00     0.039 A 
ATOM     35  F   UNL A   1      35.224  25.228  25.572  1.00  0.00    -0.207 F 
ATOM     36  C   UNL A   1      37.518  22.443  25.718  1.00  0.00     0.003 A 
ENDBRANCH  29  30
ENDBRANCH  12  29
ENDBRANCH   7   9
ENDBRANCH   6   7
ENDBRANCH   5   6
ENDBRANCH   4   5
ENDBRANCH   3   4
ENDBRANCH   2   3
ENDBRANCH   1   2
BRANCH   1  37
ATOM     37  O   UNL A   1      32.943  32.988  27.682  1.00  0.00    -0.377 OA
BRANCH  37  38
ATOM     38  C   UNL A   1      33.779  33.964  28.279  1.00  0.00     0.188 C 
BRANCH  38  39
ATOM     39  C   UNL A   1      33.174  35.248  28.871  1.00  0.00     0.188 C 
BRANCH  39  40
ATOM     40  O   UNL A   1      32.577  35.025  30.141  1.00  0.00    -0.376 OA
BRANCH  40  41
ATOM     41  C   UNL A   1      33.298  35.498  31.271  1.00  0.00     0.202 C 
BRANCH  41  42
ATOM     42  C   UNL A   1      34.431  34.594  31.783  1.00  0.00     0.261 C 
BRANCH  42  43
ATOM     43  O   UNL A   1      35.425  35.265  32.585  1.00  0.00    -0.460 OA
BRANCH  43  44
ATOM     44  C   UNL A   1      35.848  34.700  33.734  1.00  0.00     0.338 C 
ATOM     45  O   UNL A   1      35.154  34.432  34.710  1.00  0.00    -0.246 OA
BRANCH  44  46
ATOM     46  C   UNL A   1      37.202  34.138  33.465  1.00  0.00     0.060 A 
ATOM     47  C   UNL A   1      37.871  34.389  32.262  1.00  0.00     0.016 A 
ATOM     48  C   UNL A   1      37.670  33.130  34.322  1.00  0.00     0.016 A 
ATOM     49  C   UNL A   1      38.941  33.574  31.886  1.00  0.00     0.010 A 
ATOM     50  C   UNL A   1      38.740  32.311  33.941  1.00  0.00     0.010 A 
ATOM     51  C   UNL A   1      39.365  32.509  32.707  1.00  0.00    -0.014 A 
BRANCH  51  52
ATOM     52  C   UNL A   1      40.589  31.793  32.305  1.00  0.00     0.031 A 
ATOM     53  C   UNL A   1      41.773  32.680  32.105  1.00  0.00     0.074 A 
ATOM     54  C   UNL A   1      40.833  30.464  32.285  1.00  0.00     0.049 A 
ATOM     55  N   UNL A   1      42.555  32.767  31.078  1.00  0.00    -0.248 NA
ATOM     56  C   UNL A   1      42.091  33.616  33.196  1.00  0.00     0.031 C 
ATOM     57  C   UNL A   1      40.001  29.383  32.812  1.00  0.00     0.029 A 
ATOM     58  N   UNL A   1      41.975  29.812  31.877  1.00  0.00    -0.354 N 
ATOM     59  C   UNL A   1      43.539  33.685  31.430  1.00  0.00     0.074 A 
ATOM     60  C   UNL A   1      43.157  34.242  32.703  1.00  0.00     0.031 C 
ATOM     61  C   UNL A   1      40.747  28.257  32.899  1.00  0.00     0.029 A 
ATOM     62  C   UNL A   1      42.064  28.506  32.329  1.00  0.00     0.049 A 
ATOM     63  H   UNL A   1      42.663  30.236  31.316  1.00  0.00     0.167 HD
ATOM     64  C   UNL A   1      44.693  33.842  30.731  1.00  0.00     0.031 A 
ATOM     65  C   UNL A   1      43.157  27.704  32.323  1.00  0.00     0.031 A 
ATOM     66  C   UNL A   1      44.647  33.259  29.423  1.00  0.00     0.049 A 
ATOM     67  C   UNL A   1      44.184  28.247  31.408  1.00  0.00     0.074 A 
ATOM     68  C   UNL A   1      43.840  33.438  28.321  1.00  0.00     0.029 A 
ATOM     69  N   UNL A   1      45.376  32.120  29.188  1.00  0.00    -0.354 N 
ATOM     70  N   UNL A   1      44.158  28.162  30.112  1.00  0.00    -0.248 NA
ATOM     71  C   UNL A   1      45.214  29.115  31.955  1.00  0.00     0.031 C 
ATOM     72  C   UNL A   1      43.789  32.169  27.688  1.00  0.00     0.029 A 
ATOM     73  C   UNL A   1      44.628  31.294  28.384  1.00  0.00     0.049 A 
ATOM     74  H   UNL A   1      46.278  31.929  29.534  1.00  0.00     0.167 HD
ATOM     75  C   UNL A   1      44.910  29.231  29.656  1.00  0.00     0.074 A 
ATOM     76  C   UNL A   1      45.630  29.702  30.833  1.00  0.00     0.031 C 
ATOM     77  C   UNL A   1      44.657  29.834  28.452  1.00  0.00     0.031 A 
BRANCH  64  78
ATOM     78  C   UNL A   1      45.970  34.323  31.357  1.00  0.00    -0.014 A 
ATOM     79  C   UNL A   1      46.987  33.436  31.761  1.00  0.00     0.009 A 
ATOM     80  C   UNL A   1      46.283  35.692  31.339  1.00  0.00     0.009 A 
ATOM     81  C   UNL A   1      48.246  33.889  32.158  1.00  0.00     0.001 A 
ATOM     82  C   UNL A   1      47.559  36.146  31.695  1.00  0.00     0.001 A 
ATOM     83  C   UNL A   1      48.538  35.245  32.107  1.00  0.00     0.000 A 
ENDBRANCH  64  78
BRANCH  65  84
ATOM     84  C   UNL A   1      43.500  26.607  33.254  1.00  0.00    -0.014 A 
ATOM     85  C   UNL A   1      43.003  26.625  34.569  1.00  0.00     0.009 A 
ATOM     86  C   UNL A   1      44.526  25.695  32.953  1.00  0.00     0.009 A 
ATOM     87  C   UNL A   1      43.530  25.787  35.556  1.00  0.00     0.001 A 
ATOM     88  C   UNL A   1      45.056  24.857  33.943  1.00  0.00     0.001 A 
ATOM     89  C   UNL A   1      44.567  24.913  35.247  1.00  0.00     0.000 A 
ENDBRANCH  65  84
BRANCH  77  90
ATOM     90  C   UNL A   1      44.060  29.047  27.282  1.00  0.00    -0.014 A 
ATOM     91  C   UNL A   1      42.665  29.127  27.064  1.00  0.00     0.009 A 
ATOM     92  C   UNL A   1      44.768  28.216  26.400  1.00  0.00     0.009 A 
ATOM     93  C   UNL A   1      42.009  28.349  26.103  1.00  0.00     0.001 A 
ATOM     94  C   UNL A   1      44.124  27.486  25.388  1.00  0.00     0.001 A 
ATOM     95  C   UNL A   1      42.741  27.523  25.264  1.00  0.00     0.000 A 
ENDBRANCH  77  90
ENDBRANCH  51  52
ENDBRANCH  44  46
ENDBRANCH  43  44
ENDBRANCH  42  43
ENDBRANCH  41  42
ENDBRANCH  40  41
ENDBRANCH  39  40
ENDBRANCH  38  39
ENDBRANCH  37  38
ENDBRANCH   1  37
TORSDOF 25
ENDMDL
