MODEL 1
REMARK VINA RESULT:      -8.7      0.000      0.000
REMARK SMILES COc1cc([C@@H]2CC(=O)Nc3c(C(=O)OCCOCCOCCOCCOC(=O)c4ccc(-c5c6nc(c(-c7ccccc7)c7ccc([nH]7)c(-c7ccccc7)c7nc(c(-c8ccccc8)c8ccc5[nH]8)C=C7)C=C6)cc4)cn(-c4ccc(F)cc4)c32)c(OC)c2c1OCO2
REMARK SMILES IDX 21 1 20 2 19 3 18 4 17 5 16 6 15 7 13 8 14 9 12 10 6 11 7 12
REMARK SMILES IDX 87 13 8 14 11 15 79 16 9 17 10 18 78 19 5 21 3 22 4 23 92 24
REMARK SMILES IDX 91 25 93 26 88 27 95 28 94 29 2 30 1 31 89 32 90 33 80 34
REMARK SMILES IDX 81 35 86 36 82 37 85 38 83 39 84 40 22 41 23 42 24 43 25 44
REMARK SMILES IDX 26 45 27 46 28 47 29 48 30 49 31 50 77 51 32 52 76 53 33 54
REMARK SMILES IDX 34 55 35 56 70 57 36 58 75 59 69 60 71 61 37 62 74 63 68 64
REMARK SMILES IDX 67 65 38 67 60 68 45 69 59 70 46 71 49 72 58 73 72 74 47 75
REMARK SMILES IDX 48 76 57 78 73 79 50 80 39 81 40 82 44 83 41 84 43 85 42 86
REMARK SMILES IDX 61 87 62 88 66 89 63 90 65 91 64 92 51 93 52 94 56 95 53 96
REMARK SMILES IDX 55 97 54 98
REMARK H PARENT 10 20 71 66 49 77
REMARK Flexibility Score: inf
ROOT
ATOM      1  O   UNL A   1      50.941  22.681  39.394  1.00  0.00    -0.377 OA
ENDROOT
BRANCH   1   2
ATOM      2  C   UNL A   1      50.872  22.844  40.800  1.00  0.00     0.188 C 
BRANCH   2   3
ATOM      3  C   UNL A   1      51.959  22.091  41.595  1.00  0.00     0.188 C 
BRANCH   3   4
ATOM      4  O   UNL A   1      51.992  20.705  41.296  1.00  0.00    -0.376 OA
BRANCH   4   5
ATOM      5  C   UNL A   1      50.919  19.856  41.638  1.00  0.00     0.202 C 
BRANCH   5   6
ATOM      6  C   UNL A   1      50.245  19.901  43.019  1.00  0.00     0.261 C 
BRANCH   6   7
ATOM      7  O   UNL A   1      49.141  19.026  43.242  1.00  0.00    -0.460 OA
BRANCH   7   8
ATOM      8  C   UNL A   1      49.241  18.157  44.282  1.00  0.00     0.341 C 
ATOM      9  O   UNL A   1      50.244  17.988  44.955  1.00  0.00    -0.246 OA
BRANCH   8  10
ATOM     10  C   UNL A   1      47.948  17.559  44.580  1.00  0.00     0.102 A 
ATOM     11  C   UNL A   1      44.293  17.381  44.334  1.00  0.00     0.082 C 
ATOM     12  C   UNL A   1      43.907  18.842  44.623  1.00  0.00     0.115 C 
ATOM     13  C   UNL A   1      45.735  17.170  44.666  1.00  0.00     0.055 A 
ATOM     14  C   UNL A   1      44.994  19.880  44.360  1.00  0.00     0.225 C 
ATOM     15  C   UNL A   1      46.675  18.169  44.616  1.00  0.00     0.078 A 
ATOM     16  N   UNL A   1      46.379  16.003  45.004  1.00  0.00    -0.317 N 
ATOM     17  O   UNL A   1      44.711  21.062  44.155  1.00  0.00    -0.275 OA
ATOM     18  N   UNL A   1      46.306  19.484  44.462  1.00  0.00    -0.324 N 
ATOM     19  C   UNL A   1      47.736  16.233  44.936  1.00  0.00     0.109 A 
ATOM     20  H   UNL A   1      47.010  20.171  44.423  1.00  0.00     0.170 HD
BRANCH  11  21
ATOM     21  C   UNL A   1      43.973  16.948  42.893  1.00  0.00     0.012 A 
ATOM     22  C   UNL A   1      42.617  15.466  41.474  1.00  0.00     0.165 A 
ATOM     23  C   UNL A   1      42.876  16.068  42.708  1.00  0.00     0.059 A 
ATOM     24  C   UNL A   1      43.426  15.810  40.408  1.00  0.00     0.211 A 
ATOM     25  C   UNL A   1      44.463  16.712  40.550  1.00  0.00     0.211 A 
ATOM     26  O   UNL A   1      43.322  15.356  39.127  1.00  0.00    -0.449 OA
ATOM     27  C   UNL A   1      44.761  17.304  41.769  1.00  0.00     0.168 A 
ATOM     28  O   UNL A   1      45.126  16.905  39.373  1.00  0.00    -0.449 OA
ATOM     29  C   UNL A   1      44.357  16.101  38.470  1.00  0.00     0.468 C 
BRANCH  22  30
ATOM     30  O   UNL A   1      41.565  14.597  41.459  1.00  0.00    -0.493 OA
ATOM     31  C   UNL A   1      41.898  13.241  41.739  1.00  0.00     0.278 C 
ENDBRANCH  22  30
BRANCH  27  32
ATOM     32  O   UNL A   1      45.755  18.206  41.982  1.00  0.00    -0.492 OA
ATOM     33  C   UNL A   1      46.036  19.211  41.023  1.00  0.00     0.278 C 
ENDBRANCH  27  32
ENDBRANCH  11  21
BRANCH  16  34
ATOM     34  C   UNL A   1      45.794  14.761  45.313  1.00  0.00     0.046 A 
ATOM     35  C   UNL A   1      45.609  13.823  44.295  1.00  0.00     0.029 A 
ATOM     36  C   UNL A   1      45.409  14.486  46.631  1.00  0.00     0.029 A 
ATOM     37  C   UNL A   1      44.984  12.614  44.585  1.00  0.00     0.041 A 
ATOM     38  C   UNL A   1      44.780  13.270  46.910  1.00  0.00     0.041 A 
ATOM     39  C   UNL A   1      44.566  12.351  45.885  1.00  0.00     0.123 A 
ATOM     40  F   UNL A   1      43.953  11.192  46.157  1.00  0.00    -0.207 F 
ENDBRANCH  16  34
ENDBRANCH   8  10
ENDBRANCH   7   8
ENDBRANCH   6   7
ENDBRANCH   5   6
ENDBRANCH   4   5
ENDBRANCH   3   4
ENDBRANCH   2   3
ENDBRANCH   1   2
BRANCH   1  41
ATOM     41  C   UNL A   1      49.900  21.958  38.735  1.00  0.00     0.188 C 
BRANCH  41  42
ATOM     42  C   UNL A   1      48.585  21.488  39.432  1.00  0.00     0.188 C 
BRANCH  42  43
ATOM     43  O   UNL A   1      47.443  22.313  39.237  1.00  0.00    -0.376 OA
BRANCH  43  44
ATOM     44  C   UNL A   1      47.152  22.888  37.978  1.00  0.00     0.202 C 
BRANCH  44  45
ATOM     45  C   UNL A   1      46.185  22.068  37.132  1.00  0.00     0.261 C 
BRANCH  45  46
ATOM     46  O   UNL A   1      45.021  22.800  36.796  1.00  0.00    -0.460 OA
BRANCH  46  47
ATOM     47  C   UNL A   1      44.754  22.845  35.476  1.00  0.00     0.338 C 
ATOM     48  O   UNL A   1      44.513  21.907  34.738  1.00  0.00    -0.246 OA
BRANCH  47  49
ATOM     49  C   UNL A   1      44.925  24.229  35.021  1.00  0.00     0.060 A 
ATOM     50  C   UNL A   1      43.729  24.932  34.910  1.00  0.00     0.016 A 
ATOM     51  C   UNL A   1      46.055  24.508  34.238  1.00  0.00     0.016 A 
ATOM     52  C   UNL A   1      43.527  25.608  33.739  1.00  0.00     0.010 A 
ATOM     53  C   UNL A   1      45.842  25.151  33.053  1.00  0.00     0.010 A 
ATOM     54  C   UNL A   1      44.547  25.576  32.783  1.00  0.00    -0.014 A 
BRANCH  54  55
ATOM     55  C   UNL A   1      44.201  26.007  31.459  1.00  0.00     0.031 A 
ATOM     56  C   UNL A   1      44.499  25.000  30.436  1.00  0.00     0.074 A 
ATOM     57  C   UNL A   1      43.612  27.189  31.220  1.00  0.00     0.049 A 
ATOM     58  N   UNL A   1      45.398  25.067  29.516  1.00  0.00    -0.248 NA
ATOM     59  C   UNL A   1      43.837  23.694  30.565  1.00  0.00     0.031 C 
ATOM     60  C   UNL A   1      42.997  28.114  32.174  1.00  0.00     0.029 A 
ATOM     61  N   UNL A   1      43.313  27.735  30.017  1.00  0.00    -0.354 N 
ATOM     62  C   UNL A   1      45.306  23.865  28.834  1.00  0.00     0.074 A 
ATOM     63  C   UNL A   1      44.474  22.997  29.628  1.00  0.00     0.031 C 
ATOM     64  C   UNL A   1      42.171  28.944  31.495  1.00  0.00     0.029 A 
ATOM     65  C   UNL A   1      42.295  28.668  30.070  1.00  0.00     0.049 A 
ATOM     66  H   UNL A   1      43.778  27.490  29.183  1.00  0.00     0.167 HD
ATOM     67  C   UNL A   1      45.710  23.752  27.543  1.00  0.00     0.031 A 
ATOM     68  C   UNL A   1      41.530  29.053  29.018  1.00  0.00     0.031 A 
ATOM     69  C   UNL A   1      46.538  24.854  27.132  1.00  0.00     0.049 A 
ATOM     70  C   UNL A   1      42.248  28.668  27.771  1.00  0.00     0.074 A 
ATOM     71  C   UNL A   1      47.736  25.378  27.581  1.00  0.00     0.029 A 
ATOM     72  N   UNL A   1      45.955  25.838  26.368  1.00  0.00    -0.354 N 
ATOM     73  N   UNL A   1      43.355  29.230  27.372  1.00  0.00    -0.248 NA
ATOM     74  C   UNL A   1      41.991  27.348  27.207  1.00  0.00     0.031 C 
ATOM     75  C   UNL A   1      47.587  26.790  27.462  1.00  0.00     0.029 A 
ATOM     76  C   UNL A   1      46.334  27.044  26.903  1.00  0.00     0.049 A 
ATOM     77  H   UNL A   1      45.374  25.703  25.584  1.00  0.00     0.167 HD
ATOM     78  C   UNL A   1      44.127  28.188  26.872  1.00  0.00     0.074 A 
ATOM     79  C   UNL A   1      43.197  27.075  26.699  1.00  0.00     0.031 C 
ATOM     80  C   UNL A   1      45.494  28.222  26.926  1.00  0.00     0.031 A 
BRANCH  67  81
ATOM     81  C   UNL A   1      45.013  22.853  26.566  1.00  0.00    -0.014 A 
ATOM     82  C   UNL A   1      43.623  22.701  26.663  1.00  0.00     0.009 A 
ATOM     83  C   UNL A   1      45.700  21.950  25.730  1.00  0.00     0.009 A 
ATOM     84  C   UNL A   1      42.964  21.663  25.995  1.00  0.00     0.001 A 
ATOM     85  C   UNL A   1      45.042  20.945  25.024  1.00  0.00     0.001 A 
ATOM     86  C   UNL A   1      43.674  20.786  25.179  1.00  0.00     0.000 A 
ENDBRANCH  67  81
BRANCH  68  87
ATOM     87  C   UNL A   1      40.091  29.402  29.049  1.00  0.00    -0.014 A 
ATOM     88  C   UNL A   1      39.660  30.614  29.606  1.00  0.00     0.009 A 
ATOM     89  C   UNL A   1      39.147  28.648  28.324  1.00  0.00     0.009 A 
ATOM     90  C   UNL A   1      38.343  31.063  29.422  1.00  0.00     0.001 A 
ATOM     91  C   UNL A   1      37.832  29.087  28.151  1.00  0.00     0.001 A 
ATOM     92  C   UNL A   1      37.433  30.303  28.689  1.00  0.00     0.000 A 
ENDBRANCH  68  87
BRANCH  80  93
ATOM     93  C   UNL A   1      46.168  29.512  27.330  1.00  0.00    -0.014 A 
ATOM     94  C   UNL A   1      46.539  30.502  26.404  1.00  0.00     0.009 A 
ATOM     95  C   UNL A   1      46.270  29.814  28.696  1.00  0.00     0.009 A 
ATOM     96  C   UNL A   1      47.032  31.739  26.831  1.00  0.00     0.001 A 
ATOM     97  C   UNL A   1      46.738  31.059  29.125  1.00  0.00     0.001 A 
ATOM     98  C   UNL A   1      47.125  32.018  28.192  1.00  0.00     0.000 A 
ENDBRANCH  80  93
ENDBRANCH  54  55
ENDBRANCH  47  49
ENDBRANCH  46  47
ENDBRANCH  45  46
ENDBRANCH  44  45
ENDBRANCH  43  44
ENDBRANCH  42  43
ENDBRANCH  41  42
ENDBRANCH   1  41
TORSDOF 24
ENDMDL
MODEL 2
REMARK VINA RESULT:      -8.5     10.424     14.865
REMARK SMILES COc1cc([C@@H]2CC(=O)Nc3c(C(=O)OCCOCCOCCOCCOC(=O)c4ccc(-c5c6nc(c(-c7ccccc7)c7ccc([nH]7)c(-c7ccccc7)c7nc(c(-c8ccccc8)c8ccc5[nH]8)C=C7)C=C6)cc4)cn(-c4ccc(F)cc4)c32)c(OC)c2c1OCO2
REMARK SMILES IDX 21 1 20 2 19 3 18 4 17 5 16 6 15 7 13 8 14 9 12 10 6 11 7 12
REMARK SMILES IDX 87 13 8 14 11 15 79 16 9 17 10 18 78 19 5 21 3 22 4 23 92 24
REMARK SMILES IDX 91 25 93 26 88 27 95 28 94 29 2 30 1 31 89 32 90 33 80 34
REMARK SMILES IDX 81 35 86 36 82 37 85 38 83 39 84 40 22 41 23 42 24 43 25 44
REMARK SMILES IDX 26 45 27 46 28 47 29 48 30 49 31 50 77 51 32 52 76 53 33 54
REMARK SMILES IDX 34 55 35 56 70 57 36 58 75 59 69 60 71 61 37 62 74 63 68 64
REMARK SMILES IDX 67 65 38 67 60 68 45 69 59 70 46 71 49 72 58 73 72 74 47 75
REMARK SMILES IDX 48 76 57 78 73 79 50 80 39 81 40 82 44 83 41 84 43 85 42 86
REMARK SMILES IDX 61 87 62 88 66 89 63 90 65 91 64 92 51 93 52 94 56 95 53 96
REMARK SMILES IDX 55 97 54 98
REMARK H PARENT 10 20 71 66 49 77
REMARK Flexibility Score: inf
ROOT
ATOM      1  O   UNL A   1      49.473  34.220  27.272  1.00  0.00    -0.377 OA
ENDROOT
BRANCH   1   2
ATOM      2  C   UNL A   1      49.997  33.845  26.009  1.00  0.00     0.188 C 
BRANCH   2   3
ATOM      3  C   UNL A   1      50.999  32.673  26.045  1.00  0.00     0.188 C 
BRANCH   3   4
ATOM      4  O   UNL A   1      50.913  31.846  24.896  1.00  0.00    -0.376 OA
BRANCH   4   5
ATOM      5  C   UNL A   1      52.061  31.237  24.344  1.00  0.00     0.202 C 
BRANCH   5   6
ATOM      6  C   UNL A   1      52.021  29.837  23.710  1.00  0.00     0.261 C 
BRANCH   6   7
ATOM      7  O   UNL A   1      51.156  28.870  24.303  1.00  0.00    -0.460 OA
BRANCH   7   8
ATOM      8  C   UNL A   1      50.726  27.855  23.508  1.00  0.00     0.341 C 
ATOM      9  O   UNL A   1      51.066  27.686  22.349  1.00  0.00    -0.246 OA
BRANCH   8  10
ATOM     10  C   UNL A   1      49.919  26.912  24.267  1.00  0.00     0.102 A 
ATOM     11  C   UNL A   1      48.828  25.306  27.379  1.00  0.00     0.082 C 
ATOM     12  C   UNL A   1      50.182  24.979  28.032  1.00  0.00     0.115 C 
ATOM     13  C   UNL A   1      49.044  25.714  25.958  1.00  0.00     0.055 A 
ATOM     14  C   UNL A   1      51.364  25.824  27.567  1.00  0.00     0.225 C 
ATOM     15  C   UNL A   1      50.201  26.299  25.508  1.00  0.00     0.078 A 
ATOM     16  N   UNL A   1      48.167  25.648  24.900  1.00  0.00    -0.317 N 
ATOM     17  O   UNL A   1      52.370  25.954  28.268  1.00  0.00    -0.275 OA
ATOM     18  N   UNL A   1      51.324  26.352  26.300  1.00  0.00    -0.324 N 
ATOM     19  C   UNL A   1      48.692  26.396  23.868  1.00  0.00     0.109 A 
ATOM     20  H   UNL A   1      52.133  26.788  25.944  1.00  0.00     0.170 HD
BRANCH  11  21
ATOM     21  C   UNL A   1      48.024  26.362  28.157  1.00  0.00     0.012 A 
ATOM     22  C   UNL A   1      48.052  28.618  29.135  1.00  0.00     0.165 A 
ATOM     23  C   UNL A   1      48.603  27.648  28.293  1.00  0.00     0.059 A 
ATOM     24  C   UNL A   1      46.872  28.309  29.785  1.00  0.00     0.211 A 
ATOM     25  C   UNL A   1      46.257  27.083  29.621  1.00  0.00     0.211 A 
ATOM     26  O   UNL A   1      46.168  29.122  30.623  1.00  0.00    -0.449 OA
ATOM     27  C   UNL A   1      46.796  26.092  28.813  1.00  0.00     0.168 A 
ATOM     28  O   UNL A   1      45.108  26.996  30.352  1.00  0.00    -0.449 OA
ATOM     29  C   UNL A   1      45.026  28.307  30.923  1.00  0.00     0.468 C 
BRANCH  22  30
ATOM     30  O   UNL A   1      48.750  29.788  29.211  1.00  0.00    -0.493 OA
ATOM     31  C   UNL A   1      48.905  30.480  27.976  1.00  0.00     0.278 C 
ENDBRANCH  22  30
BRANCH  27  32
ATOM     32  O   UNL A   1      46.243  24.870  28.595  1.00  0.00    -0.492 OA
ATOM     33  C   UNL A   1      45.508  24.217  29.616  1.00  0.00     0.278 C 
ENDBRANCH  27  32
ENDBRANCH  11  21
BRANCH  16  34
ATOM     34  C   UNL A   1      46.922  24.996  24.860  1.00  0.00     0.046 A 
ATOM     35  C   UNL A   1      46.868  23.653  24.481  1.00  0.00     0.029 A 
ATOM     36  C   UNL A   1      45.760  25.699  25.203  1.00  0.00     0.029 A 
ATOM     37  C   UNL A   1      45.633  23.017  24.390  1.00  0.00     0.041 A 
ATOM     38  C   UNL A   1      44.526  25.052  25.106  1.00  0.00     0.041 A 
ATOM     39  C   UNL A   1      44.474  23.722  24.693  1.00  0.00     0.123 A 
ATOM     40  F   UNL A   1      43.287  23.110  24.592  1.00  0.00    -0.207 F 
ENDBRANCH  16  34
ENDBRANCH   8  10
ENDBRANCH   7   8
ENDBRANCH   6   7
ENDBRANCH   5   6
ENDBRANCH   4   5
ENDBRANCH   3   4
ENDBRANCH   2   3
ENDBRANCH   1   2
BRANCH   1  41
ATOM     41  C   UNL A   1      50.079  35.309  27.970  1.00  0.00     0.188 C 
BRANCH  41  42
ATOM     42  C   UNL A   1      49.417  36.710  28.151  1.00  0.00     0.188 C 
BRANCH  42  43
ATOM     43  O   UNL A   1      48.650  36.894  29.334  1.00  0.00    -0.376 OA
BRANCH  43  44
ATOM     44  C   UNL A   1      47.371  36.307  29.485  1.00  0.00     0.202 C 
BRANCH  44  45
ATOM     45  C   UNL A   1      46.315  36.878  28.546  1.00  0.00     0.261 C 
BRANCH  45  46
ATOM     46  O   UNL A   1      45.594  35.860  27.876  1.00  0.00    -0.460 OA
BRANCH  46  47
ATOM     47  C   UNL A   1      46.098  35.521  26.673  1.00  0.00     0.338 C 
ATOM     48  O   UNL A   1      46.786  36.207  25.940  1.00  0.00    -0.246 OA
BRANCH  47  49
ATOM     49  C   UNL A   1      45.572  34.201  26.312  1.00  0.00     0.060 A 
ATOM     50  C   UNL A   1      44.188  34.172  26.166  1.00  0.00     0.016 A 
ATOM     51  C   UNL A   1      46.326  33.084  26.703  1.00  0.00     0.016 A 
ATOM     52  C   UNL A   1      43.528  33.169  26.821  1.00  0.00     0.010 A 
ATOM     53  C   UNL A   1      45.669  32.104  27.388  1.00  0.00     0.010 A 
ATOM     54  C   UNL A   1      44.293  32.241  27.533  1.00  0.00    -0.014 A 
BRANCH  54  55
ATOM     55  C   UNL A   1      43.589  31.404  28.462  1.00  0.00     0.031 A 
ATOM     56  C   UNL A   1      43.212  30.108  27.888  1.00  0.00     0.074 A 
ATOM     57  C   UNL A   1      43.367  31.772  29.733  1.00  0.00     0.049 A 
ATOM     58  N   UNL A   1      42.023  29.693  27.620  1.00  0.00    -0.248 NA
ATOM     59  C   UNL A   1      44.298  29.249  27.395  1.00  0.00     0.031 C 
ATOM     60  C   UNL A   1      43.961  32.882  30.482  1.00  0.00     0.029 A 
ATOM     61  N   UNL A   1      42.651  31.108  30.673  1.00  0.00    -0.354 N 
ATOM     62  C   UNL A   1      42.197  28.435  27.068  1.00  0.00     0.074 A 
ATOM     63  C   UNL A   1      43.602  28.295  26.783  1.00  0.00     0.031 C 
ATOM     64  C   UNL A   1      43.798  32.643  31.803  1.00  0.00     0.029 A 
ATOM     65  C   UNL A   1      43.003  31.433  31.969  1.00  0.00     0.049 A 
ATOM     66  H   UNL A   1      41.947  30.455  30.452  1.00  0.00     0.167 HD
ATOM     67  C   UNL A   1      41.216  27.498  27.118  1.00  0.00     0.031 A 
ATOM     68  C   UNL A   1      42.769  30.663  33.060  1.00  0.00     0.031 A 
ATOM     69  C   UNL A   1      39.936  28.066  27.449  1.00  0.00     0.049 A 
ATOM     70  C   UNL A   1      41.707  29.681  32.703  1.00  0.00     0.074 A 
ATOM     71  C   UNL A   1      39.137  29.038  26.876  1.00  0.00     0.029 A 
ATOM     72  N   UNL A   1      39.489  27.920  28.742  1.00  0.00    -0.354 N 
ATOM     73  N   UNL A   1      40.466  30.011  32.476  1.00  0.00    -0.248 NA
ATOM     74  C   UNL A   1      42.115  28.398  32.144  1.00  0.00     0.031 C 
ATOM     75  C   UNL A   1      38.580  29.752  27.976  1.00  0.00     0.029 A 
ATOM     76  C   UNL A   1      39.028  29.146  29.151  1.00  0.00     0.049 A 
ATOM     77  H   UNL A   1      39.499  27.091  29.274  1.00  0.00     0.167 HD
ATOM     78  C   UNL A   1      40.074  29.217  31.405  1.00  0.00     0.074 A 
ATOM     79  C   UNL A   1      41.092  28.173  31.313  1.00  0.00     0.031 C 
ATOM     80  C   UNL A   1      39.135  29.642  30.506  1.00  0.00     0.031 A 
BRANCH  67  81
ATOM     81  C   UNL A   1      41.516  26.036  27.263  1.00  0.00    -0.014 A 
ATOM     82  C   UNL A   1      40.842  25.124  26.439  1.00  0.00     0.009 A 
ATOM     83  C   UNL A   1      42.234  25.505  28.354  1.00  0.00     0.009 A 
ATOM     84  C   UNL A   1      40.846  23.755  26.725  1.00  0.00     0.001 A 
ATOM     85  C   UNL A   1      42.282  24.137  28.615  1.00  0.00     0.001 A 
ATOM     86  C   UNL A   1      41.563  23.264  27.813  1.00  0.00     0.000 A 
ENDBRANCH  67  81
BRANCH  68  87
ATOM     87  C   UNL A   1      43.647  30.511  34.243  1.00  0.00    -0.014 A 
ATOM     88  C   UNL A   1      44.427  29.359  34.414  1.00  0.00     0.009 A 
ATOM     89  C   UNL A   1      43.900  31.600  35.102  1.00  0.00     0.009 A 
ATOM     90  C   UNL A   1      45.436  29.311  35.389  1.00  0.00     0.001 A 
ATOM     91  C   UNL A   1      44.894  31.549  36.082  1.00  0.00     0.001 A 
ATOM     92  C   UNL A   1      45.672  30.407  36.216  1.00  0.00     0.000 A 
ENDBRANCH  68  87
BRANCH  80  93
ATOM     93  C   UNL A   1      38.355  30.898  30.818  1.00  0.00    -0.014 A 
ATOM     94  C   UNL A   1      38.903  32.187  30.693  1.00  0.00     0.009 A 
ATOM     95  C   UNL A   1      36.981  30.786  31.074  1.00  0.00     0.009 A 
ATOM     96  C   UNL A   1      38.108  33.326  30.855  1.00  0.00     0.001 A 
ATOM     97  C   UNL A   1      36.179  31.924  31.211  1.00  0.00     0.001 A 
ATOM     98  C   UNL A   1      36.744  33.192  31.108  1.00  0.00     0.000 A 
ENDBRANCH  80  93
ENDBRANCH  54  55
ENDBRANCH  47  49
ENDBRANCH  46  47
ENDBRANCH  45  46
ENDBRANCH  44  45
ENDBRANCH  43  44
ENDBRANCH  42  43
ENDBRANCH  41  42
ENDBRANCH   1  41
TORSDOF 24
ENDMDL
MODEL 3
REMARK VINA RESULT:      -8.4      9.369     16.281
REMARK SMILES COc1cc([C@@H]2CC(=O)Nc3c(C(=O)OCCOCCOCCOCCOC(=O)c4ccc(-c5c6nc(c(-c7ccccc7)c7ccc([nH]7)c(-c7ccccc7)c7nc(c(-c8ccccc8)c8ccc5[nH]8)C=C7)C=C6)cc4)cn(-c4ccc(F)cc4)c32)c(OC)c2c1OCO2
REMARK SMILES IDX 21 1 20 2 19 3 18 4 17 5 16 6 15 7 13 8 14 9 12 10 6 11 7 12
REMARK SMILES IDX 87 13 8 14 11 15 79 16 9 17 10 18 78 19 5 21 3 22 4 23 92 24
REMARK SMILES IDX 91 25 93 26 88 27 95 28 94 29 2 30 1 31 89 32 90 33 80 34
REMARK SMILES IDX 81 35 86 36 82 37 85 38 83 39 84 40 22 41 23 42 24 43 25 44
REMARK SMILES IDX 26 45 27 46 28 47 29 48 30 49 31 50 77 51 32 52 76 53 33 54
REMARK SMILES IDX 34 55 35 56 70 57 36 58 75 59 69 60 71 61 37 62 74 63 68 64
REMARK SMILES IDX 67 65 38 67 60 68 45 69 59 70 46 71 49 72 58 73 72 74 47 75
REMARK SMILES IDX 48 76 57 78 73 79 50 80 39 81 40 82 44 83 41 84 43 85 42 86
REMARK SMILES IDX 61 87 62 88 66 89 63 90 65 91 64 92 51 93 52 94 56 95 53 96
REMARK SMILES IDX 55 97 54 98
REMARK H PARENT 10 20 71 66 49 77
REMARK Flexibility Score: inf
ROOT
ATOM      1  O   UNL A   1      41.426  34.357  36.144  1.00  0.00    -0.377 OA
ENDROOT
BRANCH   1   2
ATOM      2  C   UNL A   1      41.952  33.877  34.918  1.00  0.00     0.188 C 
BRANCH   2   3
ATOM      3  C   UNL A   1      42.793  34.901  34.128  1.00  0.00     0.188 C 
BRANCH   3   4
ATOM      4  O   UNL A   1      42.152  35.332  32.938  1.00  0.00    -0.376 OA
BRANCH   4   5
ATOM      5  C   UNL A   1      41.396  34.440  32.148  1.00  0.00     0.202 C 
BRANCH   5   6
ATOM      6  C   UNL A   1      41.937  33.846  30.837  1.00  0.00     0.261 C 
BRANCH   6   7
ATOM      7  O   UNL A   1      42.072  34.727  29.722  1.00  0.00    -0.460 OA
BRANCH   7   8
ATOM      8  C   UNL A   1      43.195  35.490  29.671  1.00  0.00     0.341 C 
ATOM      9  O   UNL A   1      43.226  36.698  29.840  1.00  0.00    -0.246 OA
BRANCH   8  10
ATOM     10  C   UNL A   1      44.379  34.655  29.531  1.00  0.00     0.102 A 
ATOM     11  C   UNL A   1      46.852  32.791  27.566  1.00  0.00     0.082 C 
ATOM     12  C   UNL A   1      45.936  31.999  26.616  1.00  0.00     0.115 C 
ATOM     13  C   UNL A   1      46.031  33.408  28.652  1.00  0.00     0.055 A 
ATOM     14  C   UNL A   1      44.546  32.586  26.392  1.00  0.00     0.225 C 
ATOM     15  C   UNL A   1      44.711  33.752  28.497  1.00  0.00     0.078 A 
ATOM     16  N   UNL A   1      46.419  33.787  29.916  1.00  0.00    -0.317 N 
ATOM     17  O   UNL A   1      43.890  32.306  25.387  1.00  0.00    -0.275 OA
ATOM     18  N   UNL A   1      43.997  33.352  27.392  1.00  0.00    -0.324 N 
ATOM     19  C   UNL A   1      45.416  34.566  30.451  1.00  0.00     0.109 A 
ATOM     20  H   UNL A   1      43.055  33.625  27.314  1.00  0.00     0.170 HD
BRANCH  11  21
ATOM     21  C   UNL A   1      47.712  33.838  26.839  1.00  0.00     0.012 A 
ATOM     22  C   UNL A   1      47.794  36.126  25.940  1.00  0.00     0.165 A 
ATOM     23  C   UNL A   1      47.188  35.152  26.738  1.00  0.00     0.059 A 
ATOM     24  C   UNL A   1      48.972  35.791  25.300  1.00  0.00     0.211 A 
ATOM     25  C   UNL A   1      49.533  34.536  25.432  1.00  0.00     0.211 A 
ATOM     26  O   UNL A   1      49.724  36.602  24.503  1.00  0.00    -0.449 OA
ATOM     27  C   UNL A   1      48.940  33.541  26.195  1.00  0.00     0.168 A 
ATOM     28  O   UNL A   1      50.692  34.427  24.718  1.00  0.00    -0.449 OA
ATOM     29  C   UNL A   1      50.838  35.751  24.195  1.00  0.00     0.468 C 
BRANCH  22  30
ATOM     30  O   UNL A   1      47.145  37.325  25.892  1.00  0.00    -0.493 OA
ATOM     31  C   UNL A   1      46.318  37.609  27.016  1.00  0.00     0.278 C 
ENDBRANCH  22  30
BRANCH  27  32
ATOM     32  O   UNL A   1      49.439  32.290  26.381  1.00  0.00    -0.492 OA
ATOM     33  C   UNL A   1      50.548  32.074  27.237  1.00  0.00     0.278 C 
ENDBRANCH  27  32
ENDBRANCH  11  21
BRANCH  16  34
ATOM     34  C   UNL A   1      47.637  33.501  30.558  1.00  0.00     0.046 A 
ATOM     35  C   UNL A   1      47.741  32.349  31.340  1.00  0.00     0.029 A 
ATOM     36  C   UNL A   1      48.724  34.371  30.402  1.00  0.00     0.029 A 
ATOM     37  C   UNL A   1      48.927  32.088  32.020  1.00  0.00     0.041 A 
ATOM     38  C   UNL A   1      49.909  34.101  31.090  1.00  0.00     0.041 A 
ATOM     39  C   UNL A   1      49.997  32.969  31.898  1.00  0.00     0.123 A 
ATOM     40  F   UNL A   1      51.132  32.720  32.564  1.00  0.00    -0.207 F 
ENDBRANCH  16  34
ENDBRANCH   8  10
ENDBRANCH   7   8
ENDBRANCH   6   7
ENDBRANCH   5   6
ENDBRANCH   4   5
ENDBRANCH   3   4
ENDBRANCH   2   3
ENDBRANCH   1   2
BRANCH   1  41
ATOM     41  C   UNL A   1      40.125  34.946  36.148  1.00  0.00     0.188 C 
BRANCH  41  42
ATOM     42  C   UNL A   1      39.114  34.846  34.964  1.00  0.00     0.188 C 
BRANCH  42  43
ATOM     43  O   UNL A   1      38.336  33.656  34.902  1.00  0.00    -0.376 OA
BRANCH  43  44
ATOM     44  C   UNL A   1      38.337  32.832  33.752  1.00  0.00     0.202 C 
BRANCH  44  45
ATOM     45  C   UNL A   1      37.183  31.838  33.704  1.00  0.00     0.261 C 
BRANCH  45  46
ATOM     46  O   UNL A   1      37.472  30.727  32.875  1.00  0.00    -0.460 OA
BRANCH  46  47
ATOM     47  C   UNL A   1      36.805  30.717  31.705  1.00  0.00     0.338 C 
ATOM     48  O   UNL A   1      35.629  30.973  31.523  1.00  0.00    -0.246 OA
BRANCH  47  49
ATOM     49  C   UNL A   1      37.708  30.211  30.666  1.00  0.00     0.060 A 
ATOM     50  C   UNL A   1      37.990  28.852  30.784  1.00  0.00     0.016 A 
ATOM     51  C   UNL A   1      38.595  31.132  30.088  1.00  0.00     0.016 A 
ATOM     52  C   UNL A   1      39.309  28.497  30.724  1.00  0.00     0.010 A 
ATOM     53  C   UNL A   1      39.916  30.786  30.064  1.00  0.00     0.010 A 
ATOM     54  C   UNL A   1      40.248  29.510  30.503  1.00  0.00    -0.014 A 
BRANCH  54  55
ATOM     55  C   UNL A   1      41.621  29.181  30.760  1.00  0.00     0.031 A 
ATOM     56  C   UNL A   1      42.340  28.757  29.555  1.00  0.00     0.074 A 
ATOM     57  C   UNL A   1      42.175  29.316  31.975  1.00  0.00     0.049 A 
ATOM     58  N   UNL A   1      42.789  27.579  29.291  1.00  0.00    -0.248 NA
ATOM     59  C   UNL A   1      42.411  29.714  28.442  1.00  0.00     0.031 C 
ATOM     60  C   UNL A   1      41.648  30.013  33.149  1.00  0.00     0.029 A 
ATOM     61  N   UNL A   1      43.428  28.965  32.355  1.00  0.00    -0.354 N 
ATOM     62  C   UNL A   1      43.354  27.682  28.031  1.00  0.00     0.074 A 
ATOM     63  C   UNL A   1      42.930  28.947  27.487  1.00  0.00     0.031 C 
ATOM     64  C   UNL A   1      42.674  30.267  33.993  1.00  0.00     0.029 A 
ATOM     65  C   UNL A   1      43.885  29.657  33.461  1.00  0.00     0.049 A 
ATOM     66  H   UNL A   1      43.962  28.282  31.887  1.00  0.00     0.167 HD
ATOM     67  C   UNL A   1      44.336  26.838  27.624  1.00  0.00     0.031 A 
ATOM     68  C   UNL A   1      45.187  29.818  33.799  1.00  0.00     0.031 A 
ATOM     69  C   UNL A   1      44.434  25.672  28.461  1.00  0.00     0.049 A 
ATOM     70  C   UNL A   1      45.976  28.781  33.077  1.00  0.00     0.074 A 
ATOM     71  C   UNL A   1      43.556  24.664  28.814  1.00  0.00     0.029 A 
ATOM     72  N   UNL A   1      45.445  25.640  29.393  1.00  0.00    -0.354 N 
ATOM     73  N   UNL A   1      45.903  27.506  33.341  1.00  0.00    -0.248 NA
ATOM     74  C   UNL A   1      46.496  29.107  31.755  1.00  0.00     0.031 C 
ATOM     75  C   UNL A   1      43.831  24.402  30.187  1.00  0.00     0.029 A 
ATOM     76  C   UNL A   1      44.889  25.223  30.577  1.00  0.00     0.049 A 
ATOM     77  H   UNL A   1      46.389  25.874  29.240  1.00  0.00     0.167 HD
ATOM     78  C   UNL A   1      45.946  26.879  32.101  1.00  0.00     0.074 A 
ATOM     79  C   UNL A   1      46.417  27.905  31.173  1.00  0.00     0.031 C 
ATOM     80  C   UNL A   1      45.315  25.686  31.881  1.00  0.00     0.031 A 
BRANCH  67  81
ATOM     81  C   UNL A   1      45.447  27.284  26.722  1.00  0.00    -0.014 A 
ATOM     82  C   UNL A   1      45.723  26.534  25.570  1.00  0.00     0.009 A 
ATOM     83  C   UNL A   1      46.399  28.255  27.098  1.00  0.00     0.009 A 
ATOM     84  C   UNL A   1      46.916  26.713  24.862  1.00  0.00     0.001 A 
ATOM     85  C   UNL A   1      47.566  28.470  26.368  1.00  0.00     0.001 A 
ATOM     86  C   UNL A   1      47.836  27.678  25.263  1.00  0.00     0.000 A 
ENDBRANCH  67  81
BRANCH  68  87
ATOM     87  C   UNL A   1      45.801  31.016  34.418  1.00  0.00    -0.014 A 
ATOM     88  C   UNL A   1      46.883  30.892  35.302  1.00  0.00     0.009 A 
ATOM     89  C   UNL A   1      45.474  32.311  33.969  1.00  0.00     0.009 A 
ATOM     90  C   UNL A   1      47.622  32.018  35.697  1.00  0.00     0.001 A 
ATOM     91  C   UNL A   1      46.201  33.434  34.372  1.00  0.00     0.001 A 
ATOM     92  C   UNL A   1      47.285  33.285  35.227  1.00  0.00     0.000 A 
ENDBRANCH  68  87
BRANCH  80  93
ATOM     93  C   UNL A   1      44.759  24.935  33.067  1.00  0.00    -0.014 A 
ATOM     94  C   UNL A   1      43.601  25.342  33.753  1.00  0.00     0.009 A 
ATOM     95  C   UNL A   1      45.315  23.689  33.392  1.00  0.00     0.009 A 
ATOM     96  C   UNL A   1      43.040  24.544  34.755  1.00  0.00     0.001 A 
ATOM     97  C   UNL A   1      44.741  22.878  34.375  1.00  0.00     0.001 A 
ATOM     98  C   UNL A   1      43.608  23.309  35.061  1.00  0.00     0.000 A 
ENDBRANCH  80  93
ENDBRANCH  54  55
ENDBRANCH  47  49
ENDBRANCH  46  47
ENDBRANCH  45  46
ENDBRANCH  44  45
ENDBRANCH  43  44
ENDBRANCH  42  43
ENDBRANCH  41  42
ENDBRANCH   1  41
TORSDOF 24
ENDMDL
