MODEL 1
REMARK VINA RESULT:      -9.5      0.000      0.000
REMARK SMILES COc1cccc(S(=O)(=O)N[C@H](CC(C)C)C(=O)OCCOCCOCCOCCOC(=O)c2ccc(-c3c4nc(c(-c5ccccc5)c5ccc([nH]5)c(-c5ccccc5)c5nc(c(-c6ccccc6)c6ccc3[nH]6)C=C5)C=C4)cc2)c1
REMARK SMILES IDX 24 1 23 2 22 3 21 4 20 5 19 6 17 7 18 8 12 9 11 10 8 12 9 13
REMARK SMILES IDX 10 14 7 15 3 16 4 17 82 18 5 19 6 20 2 21 1 22 13 23 14 24
REMARK SMILES IDX 15 25 16 26 25 27 26 28 27 29 28 30 29 31 30 32 31 33 32 34
REMARK SMILES IDX 33 35 34 36 35 37 81 38 36 39 80 40 37 41 38 42 39 43 74 44
REMARK SMILES IDX 40 45 79 46 73 47 75 48 41 49 78 50 72 51 71 52 42 54 64 55
REMARK SMILES IDX 49 56 63 57 50 58 53 59 62 60 76 61 51 62 52 63 61 65 77 66
REMARK SMILES IDX 54 67 43 68 44 69 48 70 45 71 47 72 46 73 65 74 66 75 70 76
REMARK SMILES IDX 67 77 69 78 68 79 55 80 56 81 60 82 57 83 59 84 58 85
REMARK H PARENT 11 11 75 53 53 64
REMARK Flexibility Score: inf
ROOT
ATOM      1  C   UNL A   1      40.896  20.109  26.396  1.00  0.00     0.188 C 
ENDROOT
BRANCH   1   2
ATOM      2  C   UNL A   1      40.321  21.511  26.662  1.00  0.00     0.188 C 
BRANCH   2   3
ATOM      3  O   UNL A   1      39.036  21.877  26.171  1.00  0.00    -0.376 OA
BRANCH   3   4
ATOM      4  C   UNL A   1      38.565  23.205  26.323  1.00  0.00     0.202 C 
BRANCH   4   5
ATOM      5  C   UNL A   1      37.429  23.675  25.410  1.00  0.00     0.261 C 
BRANCH   5   6
ATOM      6  O   UNL A   1      36.591  22.644  24.859  1.00  0.00    -0.462 OA
BRANCH   6   7
ATOM      7  C   UNL A   1      36.072  22.872  23.612  1.00  0.00     0.324 C 
ATOM      8  O   UNL A   1      36.741  23.067  22.606  1.00  0.00    -0.250 OA
BRANCH   7   9
ATOM      9  C   UNL A   1      34.527  23.007  23.650  1.00  0.00     0.180 C 
BRANCH   9  10
ATOM     10  N   UNL A   1      34.262  24.302  22.966  1.00  0.00    -0.197 NA
ATOM     11  H   UNL A   1      34.246  25.013  23.698  1.00  0.00     0.142 HD
BRANCH  10  12
ATOM     12  S   UNL A   1      32.890  24.547  22.044  1.00  0.00     0.241 S 
ATOM     13  O   UNL A   1      32.087  23.341  22.120  1.00  0.00    -0.207 OA
ATOM     14  O   UNL A   1      33.349  25.086  20.791  1.00  0.00    -0.207 OA
BRANCH  12  15
ATOM     15  C   UNL A   1      32.050  25.858  22.891  1.00  0.00     0.086 A 
ATOM     16  C   UNL A   1      30.579  27.770  22.817  1.00  0.00     0.120 A 
ATOM     17  C   UNL A   1      30.935  28.066  24.136  1.00  0.00     0.046 A 
ATOM     18  C   UNL A   1      31.113  26.641  22.202  1.00  0.00     0.068 A 
ATOM     19  C   UNL A   1      31.845  27.265  24.832  1.00  0.00     0.005 A 
ATOM     20  C   UNL A   1      32.416  26.161  24.205  1.00  0.00     0.022 A 
BRANCH  16  21
ATOM     21  O   UNL A   1      29.731  28.670  22.232  1.00  0.00    -0.497 OA
ATOM     22  C   UNL A   1      29.648  29.959  22.834  1.00  0.00     0.278 C 
ENDBRANCH  16  21
ENDBRANCH  12  15
ENDBRANCH  10  12
ENDBRANCH   9  10
BRANCH   9  23
ATOM     23  C   UNL A   1      34.028  22.969  25.102  1.00  0.00     0.035 C 
BRANCH  23  24
ATOM     24  C   UNL A   1      33.106  21.812  25.528  1.00  0.00    -0.015 C 
ATOM     25  C   UNL A   1      33.524  21.214  26.871  1.00  0.00     0.007 C 
ATOM     26  C   UNL A   1      31.657  22.311  25.626  1.00  0.00     0.007 C 
ENDBRANCH  23  24
ENDBRANCH   9  23
ENDBRANCH   7   9
ENDBRANCH   6   7
ENDBRANCH   5   6
ENDBRANCH   4   5
ENDBRANCH   3   4
ENDBRANCH   2   3
ENDBRANCH   1   2
BRANCH   1  27
ATOM     27  O   UNL A   1      42.306  20.047  26.312  1.00  0.00    -0.377 OA
BRANCH  27  28
ATOM     28  C   UNL A   1      42.850  18.753  26.124  1.00  0.00     0.188 C 
BRANCH  28  29
ATOM     29  C   UNL A   1      44.073  18.695  25.203  1.00  0.00     0.188 C 
BRANCH  29  30
ATOM     30  O   UNL A   1      44.079  19.753  24.240  1.00  0.00    -0.376 OA
BRANCH  30  31
ATOM     31  C   UNL A   1      45.087  20.750  24.411  1.00  0.00     0.202 C 
BRANCH  31  32
ATOM     32  C   UNL A   1      44.658  22.156  23.961  1.00  0.00     0.261 C 
BRANCH  32  33
ATOM     33  O   UNL A   1      44.179  23.019  25.008  1.00  0.00    -0.460 OA
BRANCH  33  34
ATOM     34  C   UNL A   1      44.746  24.239  25.117  1.00  0.00     0.338 C 
ATOM     35  O   UNL A   1      45.704  24.665  24.498  1.00  0.00    -0.246 OA
BRANCH  34  36
ATOM     36  C   UNL A   1      43.878  25.076  25.970  1.00  0.00     0.060 A 
ATOM     37  C   UNL A   1      44.180  26.439  26.084  1.00  0.00     0.016 A 
ATOM     38  C   UNL A   1      42.790  24.530  26.657  1.00  0.00     0.016 A 
ATOM     39  C   UNL A   1      43.427  27.252  26.929  1.00  0.00     0.010 A 
ATOM     40  C   UNL A   1      42.050  25.341  27.523  1.00  0.00     0.010 A 
ATOM     41  C   UNL A   1      42.393  26.694  27.692  1.00  0.00    -0.014 A 
BRANCH  41  42
ATOM     42  C   UNL A   1      41.842  27.462  28.832  1.00  0.00     0.031 A 
ATOM     43  C   UNL A   1      42.560  27.375  30.153  1.00  0.00     0.074 A 
ATOM     44  C   UNL A   1      40.756  28.242  28.704  1.00  0.00     0.049 A 
ATOM     45  N   UNL A   1      42.281  27.959  31.290  1.00  0.00    -0.248 NA
ATOM     46  C   UNL A   1      43.757  26.518  30.191  1.00  0.00     0.031 C 
ATOM     47  C   UNL A   1      39.998  28.448  27.471  1.00  0.00     0.029 A 
ATOM     48  N   UNL A   1      40.104  29.008  29.635  1.00  0.00    -0.354 N 
ATOM     49  C   UNL A   1      43.268  27.542  32.175  1.00  0.00     0.074 A 
ATOM     50  C   UNL A   1      44.134  26.636  31.454  1.00  0.00     0.031 C 
ATOM     51  C   UNL A   1      38.975  29.285  27.727  1.00  0.00     0.029 A 
ATOM     52  C   UNL A   1      38.996  29.651  29.142  1.00  0.00     0.049 A 
ATOM     53  H   UNL A   1      40.401  29.090  30.570  1.00  0.00     0.167 HD
ATOM     54  C   UNL A   1      43.442  27.882  33.472  1.00  0.00     0.031 A 
ATOM     55  C   UNL A   1      38.097  30.435  29.768  1.00  0.00     0.031 A 
ATOM     56  C   UNL A   1      42.568  28.755  34.204  1.00  0.00     0.049 A 
ATOM     57  C   UNL A   1      38.259  30.728  31.236  1.00  0.00     0.074 A 
ATOM     58  C   UNL A   1      42.662  29.163  35.523  1.00  0.00     0.029 A 
ATOM     59  N   UNL A   1      41.429  29.344  33.680  1.00  0.00    -0.354 N 
ATOM     60  N   UNL A   1      39.213  30.353  32.054  1.00  0.00    -0.248 NA
ATOM     61  C   UNL A   1      37.220  31.558  31.865  1.00  0.00     0.031 C 
ATOM     62  C   UNL A   1      41.549  29.961  35.811  1.00  0.00     0.029 A 
ATOM     63  C   UNL A   1      40.793  30.089  34.657  1.00  0.00     0.049 A 
ATOM     64  H   UNL A   1      41.118  29.245  32.751  1.00  0.00     0.167 HD
ATOM     65  C   UNL A   1      38.903  30.921  33.284  1.00  0.00     0.074 A 
ATOM     66  C   UNL A   1      37.680  31.674  33.104  1.00  0.00     0.031 C 
ATOM     67  C   UNL A   1      39.575  30.831  34.459  1.00  0.00     0.031 A 
BRANCH  54  68
ATOM     68  C   UNL A   1      44.611  27.268  34.187  1.00  0.00    -0.014 A 
ATOM     69  C   UNL A   1      44.494  26.029  34.837  1.00  0.00     0.009 A 
ATOM     70  C   UNL A   1      45.843  27.936  34.208  1.00  0.00     0.009 A 
ATOM     71  C   UNL A   1      45.584  25.488  35.522  1.00  0.00     0.001 A 
ATOM     72  C   UNL A   1      46.937  27.382  34.873  1.00  0.00     0.001 A 
ATOM     73  C   UNL A   1      46.804  26.163  35.538  1.00  0.00     0.000 A 
ENDBRANCH  54  68
BRANCH  55  74
ATOM     74  C   UNL A   1      36.942  30.991  29.015  1.00  0.00    -0.014 A 
ATOM     75  C   UNL A   1      36.917  32.343  28.640  1.00  0.00     0.009 A 
ATOM     76  C   UNL A   1      35.848  30.176  28.690  1.00  0.00     0.009 A 
ATOM     77  C   UNL A   1      35.808  32.871  27.974  1.00  0.00     0.001 A 
ATOM     78  C   UNL A   1      34.751  30.701  28.002  1.00  0.00     0.001 A 
ATOM     79  C   UNL A   1      34.729  32.050  27.652  1.00  0.00     0.000 A 
ENDBRANCH  55  74
BRANCH  67  80
ATOM     80  C   UNL A   1      39.020  31.588  35.631  1.00  0.00    -0.014 A 
ATOM     81  C   UNL A   1      38.178  30.967  36.567  1.00  0.00     0.009 A 
ATOM     82  C   UNL A   1      39.390  32.928  35.830  1.00  0.00     0.009 A 
ATOM     83  C   UNL A   1      37.695  31.684  37.664  1.00  0.00     0.001 A 
ATOM     84  C   UNL A   1      38.926  33.633  36.941  1.00  0.00     0.001 A 
ATOM     85  C   UNL A   1      38.073  33.013  37.852  1.00  0.00     0.000 A 
ENDBRANCH  67  80
ENDBRANCH  41  42
ENDBRANCH  34  36
ENDBRANCH  33  34
ENDBRANCH  32  33
ENDBRANCH  31  32
ENDBRANCH  30  31
ENDBRANCH  29  30
ENDBRANCH  28  29
ENDBRANCH  27  28
ENDBRANCH   1  27
TORSDOF 26
ENDMDL
MODEL 2
REMARK VINA RESULT:      -9.3      0.711      5.697
REMARK SMILES COc1cccc(S(=O)(=O)N[C@H](CC(C)C)C(=O)OCCOCCOCCOCCOC(=O)c2ccc(-c3c4nc(c(-c5ccccc5)c5ccc([nH]5)c(-c5ccccc5)c5nc(c(-c6ccccc6)c6ccc3[nH]6)C=C5)C=C4)cc2)c1
REMARK SMILES IDX 24 1 23 2 22 3 21 4 20 5 19 6 17 7 18 8 12 9 11 10 8 12 9 13
REMARK SMILES IDX 10 14 7 15 3 16 4 17 82 18 5 19 6 20 2 21 1 22 13 23 14 24
REMARK SMILES IDX 15 25 16 26 25 27 26 28 27 29 28 30 29 31 30 32 31 33 32 34
REMARK SMILES IDX 33 35 34 36 35 37 81 38 36 39 80 40 37 41 38 42 39 43 74 44
REMARK SMILES IDX 40 45 79 46 73 47 75 48 41 49 78 50 72 51 71 52 42 54 64 55
REMARK SMILES IDX 49 56 63 57 50 58 53 59 62 60 76 61 51 62 52 63 61 65 77 66
REMARK SMILES IDX 54 67 43 68 44 69 48 70 45 71 47 72 46 73 65 74 66 75 70 76
REMARK SMILES IDX 67 77 69 78 68 79 55 80 56 81 60 82 57 83 59 84 58 85
REMARK H PARENT 11 11 75 53 53 64
REMARK Flexibility Score: inf
ROOT
ATOM      1  C   UNL A   1      40.766  20.359  26.289  1.00  0.00     0.188 C 
ENDROOT
BRANCH   1   2
ATOM      2  C   UNL A   1      40.179  21.680  26.819  1.00  0.00     0.188 C 
BRANCH   2   3
ATOM      3  O   UNL A   1      39.409  22.526  25.971  1.00  0.00    -0.376 OA
BRANCH   3   4
ATOM      4  C   UNL A   1      38.770  23.675  26.502  1.00  0.00     0.202 C 
BRANCH   4   5
ATOM      5  C   UNL A   1      37.318  23.943  26.094  1.00  0.00     0.261 C 
BRANCH   5   6
ATOM      6  O   UNL A   1      36.585  22.815  25.583  1.00  0.00    -0.462 OA
BRANCH   6   7
ATOM      7  C   UNL A   1      36.185  22.882  24.274  1.00  0.00     0.324 C 
ATOM      8  O   UNL A   1      36.941  22.831  23.312  1.00  0.00    -0.250 OA
BRANCH   7   9
ATOM      9  C   UNL A   1      34.668  23.186  24.153  1.00  0.00     0.180 C 
BRANCH   9  10
ATOM     10  N   UNL A   1      34.600  24.285  23.153  1.00  0.00    -0.197 NA
ATOM     11  H   UNL A   1      35.000  25.108  23.605  1.00  0.00     0.142 HD
BRANCH  10  12
ATOM     12  S   UNL A   1      33.150  24.778  22.483  1.00  0.00     0.241 S 
ATOM     13  O   UNL A   1      32.151  23.778  22.812  1.00  0.00    -0.207 OA
ATOM     14  O   UNL A   1      33.450  25.147  21.125  1.00  0.00    -0.207 OA
BRANCH  12  15
ATOM     15  C   UNL A   1      32.779  26.277  23.354  1.00  0.00     0.086 A 
ATOM     16  C   UNL A   1      31.276  28.119  23.767  1.00  0.00     0.120 A 
ATOM     17  C   UNL A   1      32.287  28.750  24.499  1.00  0.00     0.046 A 
ATOM     18  C   UNL A   1      31.512  26.861  23.220  1.00  0.00     0.068 A 
ATOM     19  C   UNL A   1      33.540  28.150  24.658  1.00  0.00     0.005 A 
ATOM     20  C   UNL A   1      33.794  26.912  24.074  1.00  0.00     0.022 A 
BRANCH  16  21
ATOM     21  O   UNL A   1      30.123  28.842  23.635  1.00  0.00    -0.497 OA
ATOM     22  C   UNL A   1      29.998  29.645  22.464  1.00  0.00     0.278 C 
ENDBRANCH  16  21
ENDBRANCH  12  15
ENDBRANCH  10  12
ENDBRANCH   9  10
BRANCH   9  23
ATOM     23  C   UNL A   1      34.095  23.569  25.524  1.00  0.00     0.035 C 
BRANCH  23  24
ATOM     24  C   UNL A   1      33.180  22.560  26.243  1.00  0.00    -0.015 C 
ATOM     25  C   UNL A   1      32.736  21.430  25.315  1.00  0.00     0.007 C 
ATOM     26  C   UNL A   1      33.912  21.963  27.452  1.00  0.00     0.007 C 
ENDBRANCH  23  24
ENDBRANCH   9  23
ENDBRANCH   7   9
ENDBRANCH   6   7
ENDBRANCH   5   6
ENDBRANCH   4   5
ENDBRANCH   3   4
ENDBRANCH   2   3
ENDBRANCH   1   2
BRANCH   1  27
ATOM     27  O   UNL A   1      42.126  20.139  26.605  1.00  0.00    -0.377 OA
BRANCH  27  28
ATOM     28  C   UNL A   1      42.603  18.827  26.370  1.00  0.00     0.188 C 
BRANCH  28  29
ATOM     29  C   UNL A   1      43.768  18.732  25.381  1.00  0.00     0.188 C 
BRANCH  29  30
ATOM     30  O   UNL A   1      43.769  19.807  24.436  1.00  0.00    -0.376 OA
BRANCH  30  31
ATOM     31  C   UNL A   1      44.825  20.758  24.570  1.00  0.00     0.202 C 
BRANCH  31  32
ATOM     32  C   UNL A   1      44.404  22.206  24.269  1.00  0.00     0.261 C 
BRANCH  32  33
ATOM     33  O   UNL A   1      44.167  23.032  25.423  1.00  0.00    -0.460 OA
BRANCH  33  34
ATOM     34  C   UNL A   1      44.613  24.306  25.378  1.00  0.00     0.338 C 
ATOM     35  O   UNL A   1      45.420  24.777  24.600  1.00  0.00    -0.246 OA
BRANCH  34  36
ATOM     36  C   UNL A   1      43.795  25.112  26.306  1.00  0.00     0.060 A 
ATOM     37  C   UNL A   1      44.068  26.482  26.408  1.00  0.00     0.016 A 
ATOM     38  C   UNL A   1      42.781  24.532  27.074  1.00  0.00     0.016 A 
ATOM     39  C   UNL A   1      43.364  27.268  27.319  1.00  0.00     0.010 A 
ATOM     40  C   UNL A   1      42.091  25.316  28.004  1.00  0.00     0.010 A 
ATOM     41  C   UNL A   1      42.411  26.676  28.157  1.00  0.00    -0.014 A 
BRANCH  41  42
ATOM     42  C   UNL A   1      41.934  27.420  29.346  1.00  0.00     0.031 A 
ATOM     43  C   UNL A   1      40.640  28.180  29.229  1.00  0.00     0.074 A 
ATOM     44  C   UNL A   1      42.605  27.404  30.510  1.00  0.00     0.049 A 
ATOM     45  N   UNL A   1      40.013  28.897  30.126  1.00  0.00    -0.248 NA
ATOM     46  C   UNL A   1      39.961  28.118  27.924  1.00  0.00     0.031 C 
ATOM     47  C   UNL A   1      43.843  26.672  30.768  1.00  0.00     0.029 A 
ATOM     48  N   UNL A   1      42.328  28.030  31.698  1.00  0.00    -0.354 N 
ATOM     49  C   UNL A   1      38.867  29.366  29.495  1.00  0.00     0.074 A 
ATOM     50  C   UNL A   1      38.898  28.878  28.134  1.00  0.00     0.031 C 
ATOM     51  C   UNL A   1      44.223  26.897  32.038  1.00  0.00     0.029 A 
ATOM     52  C   UNL A   1      43.270  27.806  32.672  1.00  0.00     0.049 A 
ATOM     53  H   UNL A   1      41.529  28.588  31.840  1.00  0.00     0.167 HD
ATOM     54  C   UNL A   1      37.874  30.131  30.001  1.00  0.00     0.031 A 
ATOM     55  C   UNL A   1      43.354  28.292  33.925  1.00  0.00     0.031 A 
ATOM     56  C   UNL A   1      37.851  30.646  31.342  1.00  0.00     0.049 A 
ATOM     57  C   UNL A   1      42.282  29.218  34.438  1.00  0.00     0.074 A 
ATOM     58  C   UNL A   1      36.886  31.430  31.949  1.00  0.00     0.029 A 
ATOM     59  N   UNL A   1      38.849  30.437  32.278  1.00  0.00    -0.354 N 
ATOM     60  N   UNL A   1      41.189  29.629  33.842  1.00  0.00    -0.248 NA
ATOM     61  C   UNL A   1      42.457  29.742  35.802  1.00  0.00     0.031 C 
ATOM     62  C   UNL A   1      37.326  31.737  33.241  1.00  0.00     0.029 A 
ATOM     63  C   UNL A   1      38.539  31.102  33.452  1.00  0.00     0.049 A 
ATOM     64  H   UNL A   1      39.659  29.898  32.131  1.00  0.00     0.167 HD
ATOM     65  C   UNL A   1      40.534  30.437  34.765  1.00  0.00     0.074 A 
ATOM     66  C   UNL A   1      41.347  30.450  35.963  1.00  0.00     0.031 C 
ATOM     67  C   UNL A   1      39.362  31.105  34.633  1.00  0.00     0.031 A 
BRANCH  54  68
ATOM     68  C   UNL A   1      36.747  30.487  29.073  1.00  0.00    -0.014 A 
ATOM     69  C   UNL A   1      36.585  31.798  28.599  1.00  0.00     0.009 A 
ATOM     70  C   UNL A   1      35.841  29.496  28.669  1.00  0.00     0.009 A 
ATOM     71  C   UNL A   1      35.514  32.116  27.761  1.00  0.00     0.001 A 
ATOM     72  C   UNL A   1      34.785  29.812  27.813  1.00  0.00     0.001 A 
ATOM     73  C   UNL A   1      34.617  31.123  27.367  1.00  0.00     0.000 A 
ENDBRANCH  54  68
BRANCH  55  74
ATOM     74  C   UNL A   1      44.508  27.929  34.788  1.00  0.00    -0.014 A 
ATOM     75  C   UNL A   1      45.688  28.689  34.760  1.00  0.00     0.009 A 
ATOM     76  C   UNL A   1      44.444  26.805  35.625  1.00  0.00     0.009 A 
ATOM     77  C   UNL A   1      46.787  28.315  35.538  1.00  0.00     0.001 A 
ATOM     78  C   UNL A   1      45.536  26.449  36.420  1.00  0.00     0.001 A 
ATOM     79  C   UNL A   1      46.709  27.200  36.369  1.00  0.00     0.000 A 
ENDBRANCH  55  74
BRANCH  67  80
ATOM     80  C   UNL A   1      38.872  31.881  35.822  1.00  0.00    -0.014 A 
ATOM     81  C   UNL A   1      39.158  33.247  35.969  1.00  0.00     0.009 A 
ATOM     82  C   UNL A   1      38.068  31.247  36.782  1.00  0.00     0.009 A 
ATOM     83  C   UNL A   1      38.671  33.955  37.069  1.00  0.00     0.001 A 
ATOM     84  C   UNL A   1      37.562  31.963  37.867  1.00  0.00     0.001 A 
ATOM     85  C   UNL A   1      37.869  33.314  38.013  1.00  0.00     0.000 A 
ENDBRANCH  67  80
ENDBRANCH  41  42
ENDBRANCH  34  36
ENDBRANCH  33  34
ENDBRANCH  32  33
ENDBRANCH  31  32
ENDBRANCH  30  31
ENDBRANCH  29  30
ENDBRANCH  28  29
ENDBRANCH  27  28
ENDBRANCH   1  27
TORSDOF 26
ENDMDL
MODEL 3
REMARK VINA RESULT:      -8.8      2.183      8.884
REMARK SMILES COc1cccc(S(=O)(=O)N[C@H](CC(C)C)C(=O)OCCOCCOCCOCCOC(=O)c2ccc(-c3c4nc(c(-c5ccccc5)c5ccc([nH]5)c(-c5ccccc5)c5nc(c(-c6ccccc6)c6ccc3[nH]6)C=C5)C=C4)cc2)c1
REMARK SMILES IDX 24 1 23 2 22 3 21 4 20 5 19 6 17 7 18 8 12 9 11 10 8 12 9 13
REMARK SMILES IDX 10 14 7 15 3 16 4 17 82 18 5 19 6 20 2 21 1 22 13 23 14 24
REMARK SMILES IDX 15 25 16 26 25 27 26 28 27 29 28 30 29 31 30 32 31 33 32 34
REMARK SMILES IDX 33 35 34 36 35 37 81 38 36 39 80 40 37 41 38 42 39 43 74 44
REMARK SMILES IDX 40 45 79 46 73 47 75 48 41 49 78 50 72 51 71 52 42 54 64 55
REMARK SMILES IDX 49 56 63 57 50 58 53 59 62 60 76 61 51 62 52 63 61 65 77 66
REMARK SMILES IDX 54 67 43 68 44 69 48 70 45 71 47 72 46 73 65 74 66 75 70 76
REMARK SMILES IDX 67 77 69 78 68 79 55 80 56 81 60 82 57 83 59 84 58 85
REMARK H PARENT 11 11 75 53 53 64
REMARK Flexibility Score: inf
ROOT
ATOM      1  C   UNL A   1      32.853  26.101  26.309  1.00  0.00     0.188 C 
ENDROOT
BRANCH   1   2
ATOM      2  C   UNL A   1      31.364  25.715  26.249  1.00  0.00     0.188 C 
BRANCH   2   3
ATOM      3  O   UNL A   1      30.882  24.563  26.931  1.00  0.00    -0.376 OA
BRANCH   3   4
ATOM      4  C   UNL A   1      31.448  23.290  26.670  1.00  0.00     0.202 C 
BRANCH   4   5
ATOM      5  C   UNL A   1      31.017  22.559  25.395  1.00  0.00     0.261 C 
BRANCH   5   6
ATOM      6  O   UNL A   1      31.785  22.841  24.212  1.00  0.00    -0.462 OA
BRANCH   6   7
ATOM      7  C   UNL A   1      33.007  22.231  24.111  1.00  0.00     0.324 C 
ATOM      8  O   UNL A   1      33.235  21.072  24.434  1.00  0.00    -0.250 OA
BRANCH   7   9
ATOM      9  C   UNL A   1      34.113  23.229  23.678  1.00  0.00     0.180 C 
BRANCH   9  10
ATOM     10  N   UNL A   1      35.214  22.990  24.649  1.00  0.00    -0.197 NA
ATOM     11  H   UNL A   1      35.547  23.910  24.937  1.00  0.00     0.142 HD
BRANCH  10  12
ATOM     12  S   UNL A   1      36.574  22.108  24.241  1.00  0.00     0.241 S 
ATOM     13  O   UNL A   1      36.969  22.504  22.902  1.00  0.00    -0.207 OA
ATOM     14  O   UNL A   1      36.274  20.742  24.580  1.00  0.00    -0.207 OA
BRANCH  12  15
ATOM     15  C   UNL A   1      37.795  22.670  25.395  1.00  0.00     0.086 A 
ATOM     16  C   UNL A   1      39.614  22.169  26.901  1.00  0.00     0.120 A 
ATOM     17  C   UNL A   1      39.535  23.476  27.394  1.00  0.00     0.046 A 
ATOM     18  C   UNL A   1      38.762  21.775  25.873  1.00  0.00     0.068 A 
ATOM     19  C   UNL A   1      38.591  24.376  26.893  1.00  0.00     0.005 A 
ATOM     20  C   UNL A   1      37.707  23.971  25.896  1.00  0.00     0.022 A 
BRANCH  16  21
ATOM     21  O   UNL A   1      40.537  21.374  27.522  1.00  0.00    -0.497 OA
ATOM     22  C   UNL A   1      41.642  20.938  26.735  1.00  0.00     0.278 C 
ENDBRANCH  16  21
ENDBRANCH  12  15
ENDBRANCH  10  12
ENDBRANCH   9  10
BRANCH   9  23
ATOM     23  C   UNL A   1      33.571  24.665  23.710  1.00  0.00     0.035 C 
BRANCH  23  24
ATOM     24  C   UNL A   1      33.590  25.484  22.406  1.00  0.00    -0.015 C 
ATOM     25  C   UNL A   1      32.376  25.185  21.527  1.00  0.00     0.007 C 
ATOM     26  C   UNL A   1      33.619  26.983  22.734  1.00  0.00     0.007 C 
ENDBRANCH  23  24
ENDBRANCH   9  23
ENDBRANCH   7   9
ENDBRANCH   6   7
ENDBRANCH   5   6
ENDBRANCH   4   5
ENDBRANCH   3   4
ENDBRANCH   2   3
ENDBRANCH   1   2
BRANCH   1  27
ATOM     27  O   UNL A   1      33.116  27.488  26.232  1.00  0.00    -0.377 OA
BRANCH  27  28
ATOM     28  C   UNL A   1      32.012  28.333  26.498  1.00  0.00     0.188 C 
BRANCH  28  29
ATOM     29  C   UNL A   1      32.167  29.773  26.000  1.00  0.00     0.188 C 
BRANCH  29  30
ATOM     30  O   UNL A   1      31.789  30.735  26.989  1.00  0.00    -0.376 OA
BRANCH  30  31
ATOM     31  C   UNL A   1      31.414  32.023  26.501  1.00  0.00     0.202 C 
BRANCH  31  32
ATOM     32  C   UNL A   1      32.078  33.192  27.245  1.00  0.00     0.261 C 
BRANCH  32  33
ATOM     33  O   UNL A   1      33.220  32.843  28.047  1.00  0.00    -0.460 OA
BRANCH  33  34
ATOM     34  C   UNL A   1      34.289  33.668  28.001  1.00  0.00     0.338 C 
ATOM     35  O   UNL A   1      34.279  34.882  27.908  1.00  0.00    -0.246 OA
BRANCH  34  36
ATOM     36  C   UNL A   1      35.497  32.874  28.300  1.00  0.00     0.060 A 
ATOM     37  C   UNL A   1      35.356  31.489  28.455  1.00  0.00     0.016 A 
ATOM     38  C   UNL A   1      36.749  33.479  28.438  1.00  0.00     0.016 A 
ATOM     39  C   UNL A   1      36.458  30.710  28.801  1.00  0.00     0.010 A 
ATOM     40  C   UNL A   1      37.850  32.701  28.810  1.00  0.00     0.010 A 
ATOM     41  C   UNL A   1      37.697  31.322  29.032  1.00  0.00    -0.014 A 
BRANCH  41  42
ATOM     42  C   UNL A   1      38.756  30.562  29.737  1.00  0.00     0.031 A 
ATOM     43  C   UNL A   1      38.905  30.771  31.220  1.00  0.00     0.074 A 
ATOM     44  C   UNL A   1      39.548  29.687  29.095  1.00  0.00     0.049 A 
ATOM     45  N   UNL A   1      39.746  30.219  32.057  1.00  0.00    -0.248 NA
ATOM     46  C   UNL A   1      37.975  31.729  31.842  1.00  0.00     0.031 C 
ATOM     47  C   UNL A   1      39.477  29.360  27.672  1.00  0.00     0.029 A 
ATOM     48  N   UNL A   1      40.574  28.911  29.570  1.00  0.00    -0.354 N 
ATOM     49  C   UNL A   1      39.444  30.760  33.301  1.00  0.00     0.074 A 
ATOM     50  C   UNL A   1      38.364  31.702  33.106  1.00  0.00     0.031 C 
ATOM     51  C   UNL A   1      40.427  28.451  27.389  1.00  0.00     0.029 A 
ATOM     52  C   UNL A   1      41.186  28.153  28.602  1.00  0.00     0.049 A 
ATOM     53  H   UNL A   1      40.847  28.899  30.516  1.00  0.00     0.167 HD
ATOM     54  C   UNL A   1      40.010  30.496  34.500  1.00  0.00     0.031 A 
ATOM     55  C   UNL A   1      42.244  27.325  28.689  1.00  0.00     0.031 A 
ATOM     56  C   UNL A   1      41.103  29.586  34.696  1.00  0.00     0.049 A 
ATOM     57  C   UNL A   1      42.918  27.115  30.020  1.00  0.00     0.074 A 
ATOM     58  C   UNL A   1      41.744  29.249  35.875  1.00  0.00     0.029 A 
ATOM     59  N   UNL A   1      41.725  28.878  33.682  1.00  0.00    -0.354 N 
ATOM     60  N   UNL A   1      42.604  27.608  31.194  1.00  0.00    -0.248 NA
ATOM     61  C   UNL A   1      44.092  26.229  30.036  1.00  0.00     0.031 C 
ATOM     62  C   UNL A   1      42.790  28.372  35.565  1.00  0.00     0.029 A 
ATOM     63  C   UNL A   1      42.764  28.126  34.202  1.00  0.00     0.049 A 
ATOM     64  H   UNL A   1      41.468  28.906  32.732  1.00  0.00     0.167 HD
ATOM     65  C   UNL A   1      43.522  27.073  32.089  1.00  0.00     0.074 A 
ATOM     66  C   UNL A   1      44.399  26.210  31.326  1.00  0.00     0.031 C 
ATOM     67  C   UNL A   1      43.628  27.275  33.426  1.00  0.00     0.031 A 
BRANCH  54  68
ATOM     68  C   UNL A   1      39.470  31.241  35.687  1.00  0.00    -0.014 A 
ATOM     69  C   UNL A   1      38.247  30.881  36.275  1.00  0.00     0.009 A 
ATOM     70  C   UNL A   1      40.196  32.314  36.224  1.00  0.00     0.009 A 
ATOM     71  C   UNL A   1      37.746  31.604  37.359  1.00  0.00     0.001 A 
ATOM     72  C   UNL A   1      39.704  33.021  37.322  1.00  0.00     0.001 A 
ATOM     73  C   UNL A   1      38.476  32.672  37.882  1.00  0.00     0.000 A 
ENDBRANCH  54  68
BRANCH  55  74
ATOM     74  C   UNL A   1      42.753  26.638  27.474  1.00  0.00    -0.014 A 
ATOM     75  C   UNL A   1      43.675  27.272  26.627  1.00  0.00     0.009 A 
ATOM     76  C   UNL A   1      42.299  25.353  27.142  1.00  0.00     0.009 A 
ATOM     77  C   UNL A   1      44.114  26.641  25.460  1.00  0.00     0.001 A 
ATOM     78  C   UNL A   1      42.759  24.714  25.988  1.00  0.00     0.001 A 
ATOM     79  C   UNL A   1      43.659  25.362  25.144  1.00  0.00     0.000 A 
ENDBRANCH  55  74
BRANCH  67  80
ATOM     80  C   UNL A   1      44.708  26.528  34.153  1.00  0.00    -0.014 A 
ATOM     81  C   UNL A   1      45.941  27.132  34.447  1.00  0.00     0.009 A 
ATOM     82  C   UNL A   1      44.468  25.218  34.598  1.00  0.00     0.009 A 
ATOM     83  C   UNL A   1      46.921  26.427  35.148  1.00  0.00     0.001 A 
ATOM     84  C   UNL A   1      45.441  24.525  35.320  1.00  0.00     0.001 A 
ATOM     85  C   UNL A   1      46.669  25.128  35.588  1.00  0.00     0.000 A 
ENDBRANCH  67  80
ENDBRANCH  41  42
ENDBRANCH  34  36
ENDBRANCH  33  34
ENDBRANCH  32  33
ENDBRANCH  31  32
ENDBRANCH  30  31
ENDBRANCH  29  30
ENDBRANCH  28  29
ENDBRANCH  27  28
ENDBRANCH   1  27
TORSDOF 26
ENDMDL
