MODEL 1
REMARK VINA RESULT:      -9.4      0.000      0.000
REMARK SMILES CS(=O)(=O)c1ccc(C2=NN(c3ccc(C(=O)OCCOCCOCCOCCOC(=O)c4ccc(-c5c6nc(c(-c7ccccc7)c7ccc([nH]7)c(-c7ccccc7)c7nc(c(-c8ccccc8)c8ccc5[nH]8)C=C7)C=C6)cc4)cc3)[C@H](c3ccc(Cl)cc3)C2)cc1
REMARK SMILES IDX 23 1 22 2 21 3 20 4 19 5 18 6 16 7 17 8 15 9 12 10 13 11
REMARK SMILES IDX 82 12 14 13 81 14 11 15 9 16 10 17 91 18 83 19 8 20 5 21
REMARK SMILES IDX 6 22 93 23 7 24 92 25 2 26 1 27 3 28 4 29 84 30 85 31 90 32
REMARK SMILES IDX 86 33 89 34 87 35 88 36 24 37 25 38 26 39 27 40 28 41 29 42
REMARK SMILES IDX 30 43 31 44 32 45 33 46 34 47 80 48 35 49 79 50 36 51 37 52
REMARK SMILES IDX 38 53 73 54 39 55 78 56 72 57 74 58 40 59 77 60 71 61 70 62
REMARK SMILES IDX 41 64 63 65 48 66 62 67 49 68 52 69 61 70 75 71 50 72 51 73
REMARK SMILES IDX 60 75 76 76 53 77 42 78 43 79 47 80 44 81 46 82 45 83 64 84
REMARK SMILES IDX 65 85 69 86 66 87 68 88 67 89 54 90 55 91 59 92 56 93 58 94
REMARK SMILES IDX 57 95
REMARK H PARENT 74 63 52 74
REMARK Flexibility Score: inf
ROOT
ATOM      1  C   UNL A   1      34.701  22.674  25.112  1.00  0.00     0.188 C 
ENDROOT
BRANCH   1   2
ATOM      2  C   UNL A   1      34.112  24.018  24.642  1.00  0.00     0.188 C 
BRANCH   2   3
ATOM      3  O   UNL A   1      34.105  24.162  23.232  1.00  0.00    -0.376 OA
BRANCH   3   4
ATOM      4  C   UNL A   1      32.937  24.589  22.557  1.00  0.00     0.202 C 
BRANCH   4   5
ATOM      5  C   UNL A   1      32.568  26.075  22.409  1.00  0.00     0.261 C 
BRANCH   5   6
ATOM      6  O   UNL A   1      32.722  26.899  23.564  1.00  0.00    -0.460 OA
BRANCH   6   7
ATOM      7  C   UNL A   1      32.936  28.217  23.373  1.00  0.00     0.338 C 
ATOM      8  O   UNL A   1      32.707  28.852  22.359  1.00  0.00    -0.246 OA
BRANCH   7   9
ATOM      9  C   UNL A   1      33.341  28.810  24.675  1.00  0.00     0.060 A 
ATOM     10  C   UNL A   1      34.105  30.037  27.081  1.00  0.00     0.060 A 
ATOM     11  C   UNL A   1      32.897  30.385  26.463  1.00  0.00     0.029 A 
ATOM     12  C   UNL A   1      34.848  28.973  26.555  1.00  0.00     0.029 A 
ATOM     13  C   UNL A   1      32.519  29.780  25.259  1.00  0.00     0.018 A 
ATOM     14  C   UNL A   1      34.488  28.375  25.348  1.00  0.00     0.018 A 
BRANCH  10  15
ATOM     15  N   UNL A   1      34.666  30.823  28.095  1.00  0.00    -0.257 N 
ATOM     16  C   UNL A   1      34.689  32.690  29.129  1.00  0.00     0.071 C 
ATOM     17  N   UNL A   1      33.897  31.740  28.740  1.00  0.00    -0.176 NA
ATOM     18  C   UNL A   1      36.115  32.590  28.664  1.00  0.00     0.091 C 
ATOM     19  C   UNL A   1      36.077  31.238  27.938  1.00  0.00     0.144 C 
BRANCH  16  20
ATOM     20  C   UNL A   1      34.244  33.791  30.002  1.00  0.00    -0.002 A 
ATOM     21  C   UNL A   1      33.328  35.905  31.574  1.00  0.00     0.067 A 
ATOM     22  C   UNL A   1      33.009  35.871  30.215  1.00  0.00     0.021 A 
ATOM     23  C   UNL A   1      34.098  34.886  32.150  1.00  0.00     0.021 A 
ATOM     24  C   UNL A   1      33.478  34.815  29.430  1.00  0.00     0.011 A 
ATOM     25  C   UNL A   1      34.555  33.822  31.364  1.00  0.00     0.011 A 
BRANCH  21  26
ATOM     26  S   UNL A   1      32.775  37.231  32.624  1.00  0.00     0.175 S 
ATOM     27  C   UNL A   1      33.850  37.263  34.032  1.00  0.00     0.163 C 
ATOM     28  O   UNL A   1      31.449  36.865  33.078  1.00  0.00    -0.224 OA
ATOM     29  O   UNL A   1      33.006  38.461  31.889  1.00  0.00    -0.224 OA
ENDBRANCH  21  26
ENDBRANCH  16  20
BRANCH  19  30
ATOM     30  C   UNL A   1      37.025  30.135  28.407  1.00  0.00    -0.023 A 
ATOM     31  C   UNL A   1      36.958  29.520  29.665  1.00  0.00     0.007 A 
ATOM     32  C   UNL A   1      37.990  29.650  27.497  1.00  0.00     0.007 A 
ATOM     33  C   UNL A   1      37.801  28.447  29.987  1.00  0.00     0.021 A 
ATOM     34  C   UNL A   1      38.791  28.544  27.794  1.00  0.00     0.021 A 
ATOM     35  C   UNL A   1      38.693  27.948  29.043  1.00  0.00     0.041 A 
ATOM     36  Cl  UNL A   1      39.667  26.581  29.417  1.00  0.00    -0.084 Cl
ENDBRANCH  19  30
ENDBRANCH  10  15
ENDBRANCH   7   9
ENDBRANCH   6   7
ENDBRANCH   5   6
ENDBRANCH   4   5
ENDBRANCH   3   4
ENDBRANCH   2   3
ENDBRANCH   1   2
BRANCH   1  37
ATOM     37  O   UNL A   1      36.069  22.452  24.803  1.00  0.00    -0.377 OA
BRANCH  37  38
ATOM     38  C   UNL A   1      37.039  23.430  25.178  1.00  0.00     0.188 C 
BRANCH  38  39
ATOM     39  C   UNL A   1      38.293  23.102  26.031  1.00  0.00     0.188 C 
BRANCH  39  40
ATOM     40  O   UNL A   1      38.690  21.743  26.029  1.00  0.00    -0.376 OA
BRANCH  40  41
ATOM     41  C   UNL A   1      39.947  21.402  26.584  1.00  0.00     0.202 C 
BRANCH  41  42
ATOM     42  C   UNL A   1      40.663  20.190  25.975  1.00  0.00     0.261 C 
BRANCH  42  43
ATOM     43  O   UNL A   1      42.008  19.971  26.423  1.00  0.00    -0.460 OA
BRANCH  43  44
ATOM     44  C   UNL A   1      42.993  20.409  25.616  1.00  0.00     0.338 C 
ATOM     45  O   UNL A   1      43.448  19.845  24.630  1.00  0.00    -0.246 OA
BRANCH  44  46
ATOM     46  C   UNL A   1      43.331  21.789  26.008  1.00  0.00     0.060 A 
ATOM     47  C   UNL A   1      43.380  22.779  25.020  1.00  0.00     0.016 A 
ATOM     48  C   UNL A   1      43.619  22.099  27.340  1.00  0.00     0.016 A 
ATOM     49  C   UNL A   1      43.784  24.071  25.349  1.00  0.00     0.010 A 
ATOM     50  C   UNL A   1      44.040  23.390  27.667  1.00  0.00     0.010 A 
ATOM     51  C   UNL A   1      44.174  24.365  26.662  1.00  0.00    -0.014 A 
BRANCH  51  52
ATOM     52  C   UNL A   1      44.939  25.607  26.922  1.00  0.00     0.031 A 
ATOM     53  C   UNL A   1      44.274  26.697  27.721  1.00  0.00     0.074 A 
ATOM     54  C   UNL A   1      46.214  25.747  26.516  1.00  0.00     0.049 A 
ATOM     55  N   UNL A   1      44.741  27.862  28.090  1.00  0.00    -0.248 NA
ATOM     56  C   UNL A   1      42.894  26.436  28.163  1.00  0.00     0.031 C 
ATOM     57  C   UNL A   1      46.986  24.747  25.782  1.00  0.00     0.029 A 
ATOM     58  N   UNL A   1      47.082  26.797  26.676  1.00  0.00    -0.354 N 
ATOM     59  C   UNL A   1      43.712  28.472  28.798  1.00  0.00     0.074 A 
ATOM     60  C   UNL A   1      42.584  27.567  28.774  1.00  0.00     0.031 C 
ATOM     61  C   UNL A   1      48.218  25.233  25.555  1.00  0.00     0.029 A 
ATOM     62  C   UNL A   1      48.310  26.587  26.099  1.00  0.00     0.049 A 
ATOM     63  H   UNL A   1      46.849  27.622  27.160  1.00  0.00     0.167 HD
ATOM     64  C   UNL A   1      43.706  29.674  29.419  1.00  0.00     0.031 A 
ATOM     65  C   UNL A   1      49.379  27.402  26.008  1.00  0.00     0.031 A 
ATOM     66  C   UNL A   1      44.821  30.582  29.429  1.00  0.00     0.049 A 
ATOM     67  C   UNL A   1      49.320  28.769  26.641  1.00  0.00     0.074 A 
ATOM     68  C   UNL A   1      44.919  31.821  30.039  1.00  0.00     0.029 A 
ATOM     69  N   UNL A   1      46.030  30.351  28.792  1.00  0.00    -0.354 N 
ATOM     70  N   UNL A   1      48.351  29.325  27.328  1.00  0.00    -0.248 NA
ATOM     71  C   UNL A   1      50.515  29.614  26.498  1.00  0.00     0.031 C 
ATOM     72  C   UNL A   1      46.164  32.367  29.714  1.00  0.00     0.029 A 
ATOM     73  C   UNL A   1      46.871  31.437  28.970  1.00  0.00     0.049 A 
ATOM     74  H   UNL A   1      46.258  29.536  28.288  1.00  0.00     0.167 HD
ATOM     75  C   UNL A   1      48.833  30.566  27.731  1.00  0.00     0.074 A 
ATOM     76  C   UNL A   1      50.185  30.673  27.223  1.00  0.00     0.031 C 
ATOM     77  C   UNL A   1      48.215  31.529  28.459  1.00  0.00     0.031 A 
BRANCH  64  78
ATOM     78  C   UNL A   1      42.433  30.093  30.103  1.00  0.00    -0.014 A 
ATOM     79  C   UNL A   1      42.088  29.611  31.377  1.00  0.00     0.009 A 
ATOM     80  C   UNL A   1      41.572  31.002  29.468  1.00  0.00     0.009 A 
ATOM     81  C   UNL A   1      40.892  30.002  31.983  1.00  0.00     0.001 A 
ATOM     82  C   UNL A   1      40.394  31.419  30.091  1.00  0.00     0.001 A 
ATOM     83  C   UNL A   1      40.050  30.910  31.343  1.00  0.00     0.000 A 
ENDBRANCH  64  78
BRANCH  65  84
ATOM     84  C   UNL A   1      50.597  26.961  25.277  1.00  0.00    -0.014 A 
ATOM     85  C   UNL A   1      51.572  26.173  25.910  1.00  0.00     0.009 A 
ATOM     86  C   UNL A   1      50.807  27.354  23.946  1.00  0.00     0.009 A 
ATOM     87  C   UNL A   1      52.743  25.817  25.236  1.00  0.00     0.001 A 
ATOM     88  C   UNL A   1      51.962  26.968  23.264  1.00  0.00     0.001 A 
ATOM     89  C   UNL A   1      52.935  26.210  23.913  1.00  0.00     0.000 A 
ENDBRANCH  65  84
BRANCH  77  90
ATOM     90  C   UNL A   1      49.015  32.758  28.800  1.00  0.00    -0.014 A 
ATOM     91  C   UNL A   1      48.994  33.903  27.989  1.00  0.00     0.009 A 
ATOM     92  C   UNL A   1      49.783  32.776  29.976  1.00  0.00     0.009 A 
ATOM     93  C   UNL A   1      49.764  35.020  28.323  1.00  0.00     0.001 A 
ATOM     94  C   UNL A   1      50.522  33.906  30.327  1.00  0.00     0.001 A 
ATOM     95  C   UNL A   1      50.524  35.022  29.493  1.00  0.00     0.000 A 
ENDBRANCH  77  90
ENDBRANCH  51  52
ENDBRANCH  44  46
ENDBRANCH  43  44
ENDBRANCH  42  43
ENDBRANCH  41  42
ENDBRANCH  40  41
ENDBRANCH  39  40
ENDBRANCH  38  39
ENDBRANCH  37  38
ENDBRANCH   1  37
TORSDOF 24
ENDMDL
MODEL 2
REMARK VINA RESULT:      -9.0      2.424      3.463
REMARK SMILES CS(=O)(=O)c1ccc(C2=NN(c3ccc(C(=O)OCCOCCOCCOCCOC(=O)c4ccc(-c5c6nc(c(-c7ccccc7)c7ccc([nH]7)c(-c7ccccc7)c7nc(c(-c8ccccc8)c8ccc5[nH]8)C=C7)C=C6)cc4)cc3)[C@H](c3ccc(Cl)cc3)C2)cc1
REMARK SMILES IDX 23 1 22 2 21 3 20 4 19 5 18 6 16 7 17 8 15 9 12 10 13 11
REMARK SMILES IDX 82 12 14 13 81 14 11 15 9 16 10 17 91 18 83 19 8 20 5 21
REMARK SMILES IDX 6 22 93 23 7 24 92 25 2 26 1 27 3 28 4 29 84 30 85 31 90 32
REMARK SMILES IDX 86 33 89 34 87 35 88 36 24 37 25 38 26 39 27 40 28 41 29 42
REMARK SMILES IDX 30 43 31 44 32 45 33 46 34 47 80 48 35 49 79 50 36 51 37 52
REMARK SMILES IDX 38 53 73 54 39 55 78 56 72 57 74 58 40 59 77 60 71 61 70 62
REMARK SMILES IDX 41 64 63 65 48 66 62 67 49 68 52 69 61 70 75 71 50 72 51 73
REMARK SMILES IDX 60 75 76 76 53 77 42 78 43 79 47 80 44 81 46 82 45 83 64 84
REMARK SMILES IDX 65 85 69 86 66 87 68 88 67 89 54 90 55 91 59 92 56 93 58 94
REMARK SMILES IDX 57 95
REMARK H PARENT 74 63 52 74
REMARK Flexibility Score: inf
ROOT
ATOM      1  C   UNL A   1      35.741  22.651  25.249  1.00  0.00     0.188 C 
ENDROOT
BRANCH   1   2
ATOM      2  C   UNL A   1      35.234  23.521  24.082  1.00  0.00     0.188 C 
BRANCH   2   3
ATOM      3  O   UNL A   1      34.353  22.830  23.213  1.00  0.00    -0.376 OA
BRANCH   3   4
ATOM      4  C   UNL A   1      33.011  23.252  23.062  1.00  0.00     0.202 C 
BRANCH   4   5
ATOM      5  C   UNL A   1      32.298  24.121  24.112  1.00  0.00     0.261 C 
BRANCH   5   6
ATOM      6  O   UNL A   1      33.064  25.157  24.725  1.00  0.00    -0.460 OA
BRANCH   6   7
ATOM      7  C   UNL A   1      33.230  26.307  24.040  1.00  0.00     0.338 C 
ATOM      8  O   UNL A   1      33.046  26.477  22.847  1.00  0.00    -0.246 OA
BRANCH   7   9
ATOM      9  C   UNL A   1      33.511  27.389  25.019  1.00  0.00     0.060 A 
ATOM     10  C   UNL A   1      34.151  29.442  26.824  1.00  0.00     0.060 A 
ATOM     11  C   UNL A   1      34.198  29.674  25.444  1.00  0.00     0.029 A 
ATOM     12  C   UNL A   1      33.646  28.218  27.284  1.00  0.00     0.029 A 
ATOM     13  C   UNL A   1      33.887  28.651  24.543  1.00  0.00     0.018 A 
ATOM     14  C   UNL A   1      33.349  27.186  26.394  1.00  0.00     0.018 A 
BRANCH  10  15
ATOM     15  N   UNL A   1      34.746  30.318  27.740  1.00  0.00    -0.257 N 
ATOM     16  C   UNL A   1      34.727  32.236  28.676  1.00  0.00     0.071 C 
ATOM     17  N   UNL A   1      33.974  31.215  28.411  1.00  0.00    -0.176 NA
ATOM     18  C   UNL A   1      36.106  32.210  28.080  1.00  0.00     0.091 C 
ATOM     19  C   UNL A   1      36.101  30.820  27.428  1.00  0.00     0.144 C 
BRANCH  16  20
ATOM     20  C   UNL A   1      34.285  33.351  29.534  1.00  0.00    -0.002 A 
ATOM     21  C   UNL A   1      33.529  35.430  31.233  1.00  0.00     0.067 A 
ATOM     22  C   UNL A   1      34.326  34.396  31.726  1.00  0.00     0.021 A 
ATOM     23  C   UNL A   1      33.113  35.432  29.894  1.00  0.00     0.021 A 
ATOM     24  C   UNL A   1      34.695  33.352  30.874  1.00  0.00     0.011 A 
ATOM     25  C   UNL A   1      33.495  34.392  29.039  1.00  0.00     0.011 A 
BRANCH  21  26
ATOM     26  S   UNL A   1      33.012  36.779  32.271  1.00  0.00     0.175 S 
ATOM     27  C   UNL A   1      31.440  36.336  32.957  1.00  0.00     0.163 C 
ATOM     28  O   UNL A   1      32.818  37.916  31.396  1.00  0.00    -0.224 OA
ATOM     29  O   UNL A   1      33.954  36.832  33.375  1.00  0.00    -0.224 OA
ENDBRANCH  21  26
ENDBRANCH  16  20
BRANCH  19  30
ATOM     30  C   UNL A   1      37.167  29.813  27.855  1.00  0.00    -0.023 A 
ATOM     31  C   UNL A   1      38.281  29.466  27.077  1.00  0.00     0.007 A 
ATOM     32  C   UNL A   1      37.069  29.239  29.141  1.00  0.00     0.007 A 
ATOM     33  C   UNL A   1      39.268  28.606  27.577  1.00  0.00     0.021 A 
ATOM     34  C   UNL A   1      38.079  28.428  29.664  1.00  0.00     0.021 A 
ATOM     35  C   UNL A   1      39.177  28.113  28.875  1.00  0.00     0.041 A 
ATOM     36  Cl  UNL A   1      40.431  27.123  29.511  1.00  0.00    -0.084 Cl
ENDBRANCH  19  30
ENDBRANCH  10  15
ENDBRANCH   7   9
ENDBRANCH   6   7
ENDBRANCH   5   6
ENDBRANCH   4   5
ENDBRANCH   3   4
ENDBRANCH   2   3
ENDBRANCH   1   2
BRANCH   1  37
ATOM     37  O   UNL A   1      37.113  22.797  25.584  1.00  0.00    -0.377 OA
BRANCH  37  38
ATOM     38  C   UNL A   1      38.044  21.794  25.179  1.00  0.00     0.188 C 
BRANCH  38  39
ATOM     39  C   UNL A   1      39.087  21.163  26.138  1.00  0.00     0.188 C 
BRANCH  39  40
ATOM     40  O   UNL A   1      40.440  21.465  25.847  1.00  0.00    -0.376 OA
BRANCH  40  41
ATOM     41  C   UNL A   1      41.279  21.901  26.901  1.00  0.00     0.202 C 
BRANCH  41  42
ATOM     42  C   UNL A   1      42.147  23.136  26.624  1.00  0.00     0.261 C 
BRANCH  42  43
ATOM     43  O   UNL A   1      43.308  23.279  27.454  1.00  0.00    -0.460 OA
BRANCH  43  44
ATOM     44  C   UNL A   1      44.502  23.267  26.831  1.00  0.00     0.338 C 
ATOM     45  O   UNL A   1      45.041  22.316  26.281  1.00  0.00    -0.246 OA
BRANCH  44  46
ATOM     46  C   UNL A   1      44.997  24.653  26.756  1.00  0.00     0.060 A 
ATOM     47  C   UNL A   1      45.029  25.294  25.512  1.00  0.00     0.016 A 
ATOM     48  C   UNL A   1      45.448  25.309  27.905  1.00  0.00     0.016 A 
ATOM     49  C   UNL A   1      45.575  26.570  25.401  1.00  0.00     0.010 A 
ATOM     50  C   UNL A   1      46.011  26.582  27.790  1.00  0.00     0.010 A 
ATOM     51  C   UNL A   1      46.123  27.194  26.529  1.00  0.00    -0.014 A 
BRANCH  51  52
ATOM     52  C   UNL A   1      47.016  28.361  26.340  1.00  0.00     0.031 A 
ATOM     53  C   UNL A   1      46.417  29.739  26.446  1.00  0.00     0.074 A 
ATOM     54  C   UNL A   1      48.338  28.212  26.141  1.00  0.00     0.049 A 
ATOM     55  N   UNL A   1      46.992  30.908  26.335  1.00  0.00    -0.248 NA
ATOM     56  C   UNL A   1      44.969  29.804  26.712  1.00  0.00     0.031 C 
ATOM     57  C   UNL A   1      49.047  26.937  26.071  1.00  0.00     0.029 A 
ATOM     58  N   UNL A   1      49.318  29.157  25.967  1.00  0.00    -0.354 N 
ATOM     59  C   UNL A   1      45.979  31.843  26.511  1.00  0.00     0.074 A 
ATOM     60  C   UNL A   1      44.748  31.109  26.696  1.00  0.00     0.031 C 
ATOM     61  C   UNL A   1      50.354  27.179  25.869  1.00  0.00     0.029 A 
ATOM     62  C   UNL A   1      50.567  28.622  25.764  1.00  0.00     0.049 A 
ATOM     63  H   UNL A   1      49.144  30.125  25.987  1.00  0.00     0.167 HD
ATOM     64  C   UNL A   1      46.064  33.194  26.524  1.00  0.00     0.031 A 
ATOM     65  C   UNL A   1      51.741  29.230  25.508  1.00  0.00     0.031 A 
ATOM     66  C   UNL A   1      47.284  33.927  26.324  1.00  0.00     0.049 A 
ATOM     67  C   UNL A   1      51.796  30.735  25.450  1.00  0.00     0.074 A 
ATOM     68  C   UNL A   1      47.479  35.298  26.329  1.00  0.00     0.029 A 
ATOM     69  N   UNL A   1      48.519  33.348  26.074  1.00  0.00    -0.354 N 
ATOM     70  N   UNL A   1      50.837  31.609  25.641  1.00  0.00    -0.248 NA
ATOM     71  C   UNL A   1      53.105  31.337  25.156  1.00  0.00     0.031 C 
ATOM     72  C   UNL A   1      48.817  35.548  26.017  1.00  0.00     0.029 A 
ATOM     73  C   UNL A   1      49.474  34.334  25.895  1.00  0.00     0.049 A 
ATOM     74  H   UNL A   1      48.691  32.379  26.031  1.00  0.00     0.167 HD
ATOM     75  C   UNL A   1      51.433  32.860  25.530  1.00  0.00     0.074 A 
ATOM     76  C   UNL A   1      52.840  32.630  25.269  1.00  0.00     0.031 C 
ATOM     77  C   UNL A   1      50.870  34.090  25.637  1.00  0.00     0.031 A 
BRANCH  64  78
ATOM     78  C   UNL A   1      44.787  33.966  26.721  1.00  0.00    -0.014 A 
ATOM     79  C   UNL A   1      44.320  34.301  28.002  1.00  0.00     0.009 A 
ATOM     80  C   UNL A   1      44.049  34.381  25.601  1.00  0.00     0.009 A 
ATOM     81  C   UNL A   1      43.122  35.003  28.158  1.00  0.00     0.001 A 
ATOM     82  C   UNL A   1      42.871  35.113  25.759  1.00  0.00     0.001 A 
ATOM     83  C   UNL A   1      42.403  35.414  27.037  1.00  0.00     0.000 A 
ENDBRANCH  64  78
BRANCH  65  84
ATOM     84  C   UNL A   1      52.966  28.420  25.271  1.00  0.00    -0.014 A 
ATOM     85  C   UNL A   1      53.818  28.073  26.331  1.00  0.00     0.009 A 
ATOM     86  C   UNL A   1      53.308  28.017  23.971  1.00  0.00     0.009 A 
ATOM     87  C   UNL A   1      54.999  27.367  26.091  1.00  0.00     0.001 A 
ATOM     88  C   UNL A   1      54.473  27.282  23.737  1.00  0.00     0.001 A 
ATOM     89  C   UNL A   1      55.323  26.969  24.795  1.00  0.00     0.000 A 
ENDBRANCH  65  84
BRANCH  77  90
ATOM     90  C   UNL A   1      51.786  35.281  25.532  1.00  0.00    -0.014 A 
ATOM     91  C   UNL A   1      51.988  35.953  24.317  1.00  0.00     0.009 A 
ATOM     92  C   UNL A   1      52.436  35.754  26.683  1.00  0.00     0.009 A 
ATOM     93  C   UNL A   1      52.860  37.043  24.248  1.00  0.00     0.001 A 
ATOM     94  C   UNL A   1      53.277  36.865  26.620  1.00  0.00     0.001 A 
ATOM     95  C   UNL A   1      53.500  37.500  25.400  1.00  0.00     0.000 A 
ENDBRANCH  77  90
ENDBRANCH  51  52
ENDBRANCH  44  46
ENDBRANCH  43  44
ENDBRANCH  42  43
ENDBRANCH  41  42
ENDBRANCH  40  41
ENDBRANCH  39  40
ENDBRANCH  38  39
ENDBRANCH  37  38
ENDBRANCH   1  37
TORSDOF 24
ENDMDL
MODEL 3
REMARK VINA RESULT:      -8.8      8.329     14.297
REMARK SMILES CS(=O)(=O)c1ccc(C2=NN(c3ccc(C(=O)OCCOCCOCCOCCOC(=O)c4ccc(-c5c6nc(c(-c7ccccc7)c7ccc([nH]7)c(-c7ccccc7)c7nc(c(-c8ccccc8)c8ccc5[nH]8)C=C7)C=C6)cc4)cc3)[C@H](c3ccc(Cl)cc3)C2)cc1
REMARK SMILES IDX 23 1 22 2 21 3 20 4 19 5 18 6 16 7 17 8 15 9 12 10 13 11
REMARK SMILES IDX 82 12 14 13 81 14 11 15 9 16 10 17 91 18 83 19 8 20 5 21
REMARK SMILES IDX 6 22 93 23 7 24 92 25 2 26 1 27 3 28 4 29 84 30 85 31 90 32
REMARK SMILES IDX 86 33 89 34 87 35 88 36 24 37 25 38 26 39 27 40 28 41 29 42
REMARK SMILES IDX 30 43 31 44 32 45 33 46 34 47 80 48 35 49 79 50 36 51 37 52
REMARK SMILES IDX 38 53 73 54 39 55 78 56 72 57 74 58 40 59 77 60 71 61 70 62
REMARK SMILES IDX 41 64 63 65 48 66 62 67 49 68 52 69 61 70 75 71 50 72 51 73
REMARK SMILES IDX 60 75 76 76 53 77 42 78 43 79 47 80 44 81 46 82 45 83 64 84
REMARK SMILES IDX 65 85 69 86 66 87 68 88 67 89 54 90 55 91 59 92 56 93 58 94
REMARK SMILES IDX 57 95
REMARK H PARENT 74 63 52 74
REMARK Flexibility Score: inf
ROOT
ATOM      1  C   UNL A   1      40.830  29.739  35.275  1.00  0.00     0.188 C 
ENDROOT
BRANCH   1   2
ATOM      2  C   UNL A   1      41.814  28.781  35.974  1.00  0.00     0.188 C 
BRANCH   2   3
ATOM      3  O   UNL A   1      42.621  28.051  35.065  1.00  0.00    -0.376 OA
BRANCH   3   4
ATOM      4  C   UNL A   1      42.793  26.655  35.214  1.00  0.00     0.202 C 
BRANCH   4   5
ATOM      5  C   UNL A   1      43.557  25.804  34.186  1.00  0.00     0.261 C 
BRANCH   5   6
ATOM      6  O   UNL A   1      43.539  24.390  34.376  1.00  0.00    -0.460 OA
BRANCH   6   7
ATOM      7  C   UNL A   1      44.562  23.673  33.865  1.00  0.00     0.338 C 
ATOM      8  O   UNL A   1      45.122  23.861  32.799  1.00  0.00    -0.246 OA
BRANCH   7   9
ATOM      9  C   UNL A   1      45.015  22.713  34.905  1.00  0.00     0.060 A 
ATOM     10  C   UNL A   1      45.971  20.961  36.880  1.00  0.00     0.060 A 
ATOM     11  C   UNL A   1      45.788  22.319  37.169  1.00  0.00     0.029 A 
ATOM     12  C   UNL A   1      45.538  20.472  35.641  1.00  0.00     0.029 A 
ATOM     13  C   UNL A   1      45.319  23.195  36.184  1.00  0.00     0.018 A 
ATOM     14  C   UNL A   1      45.084  21.339  34.647  1.00  0.00     0.018 A 
BRANCH  10  15
ATOM     15  N   UNL A   1      46.720  20.125  37.716  1.00  0.00    -0.257 N 
ATOM     16  C   UNL A   1      46.957  19.245  39.646  1.00  0.00     0.071 C 
ATOM     17  N   UNL A   1      46.095  19.415  38.693  1.00  0.00    -0.176 NA
ATOM     18  C   UNL A   1      48.270  19.956  39.481  1.00  0.00     0.091 C 
ATOM     19  C   UNL A   1      48.083  20.567  38.085  1.00  0.00     0.144 C 
BRANCH  16  20
ATOM     20  C   UNL A   1      46.694  18.383  40.814  1.00  0.00    -0.002 A 
ATOM     21  C   UNL A   1      46.263  16.673  42.975  1.00  0.00     0.067 A 
ATOM     22  C   UNL A   1      46.782  16.159  41.785  1.00  0.00     0.021 A 
ATOM     23  C   UNL A   1      45.964  18.038  43.090  1.00  0.00     0.021 A 
ATOM     24  C   UNL A   1      46.988  17.018  40.702  1.00  0.00     0.011 A 
ATOM     25  C   UNL A   1      46.185  18.898  42.008  1.00  0.00     0.011 A 
BRANCH  21  26
ATOM     26  S   UNL A   1      45.963  15.629  44.384  1.00  0.00     0.175 S 
ATOM     27  C   UNL A   1      44.567  14.612  43.991  1.00  0.00     0.163 C 
ATOM     28  O   UNL A   1      45.587  16.509  45.471  1.00  0.00    -0.224 OA
ATOM     29  O   UNL A   1      47.111  14.747  44.493  1.00  0.00    -0.224 OA
ENDBRANCH  21  26
ENDBRANCH  16  20
BRANCH  19  30
ATOM     30  C   UNL A   1      49.087  20.205  36.993  1.00  0.00    -0.023 A 
ATOM     31  C   UNL A   1      48.982  20.618  35.657  1.00  0.00     0.007 A 
ATOM     32  C   UNL A   1      50.234  19.464  37.355  1.00  0.00     0.007 A 
ATOM     33  C   UNL A   1      49.994  20.327  34.733  1.00  0.00     0.021 A 
ATOM     34  C   UNL A   1      51.270  19.223  36.450  1.00  0.00     0.021 A 
ATOM     35  C   UNL A   1      51.144  19.656  35.138  1.00  0.00     0.041 A 
ATOM     36  Cl  UNL A   1      52.418  19.373  34.018  1.00  0.00    -0.084 Cl
ENDBRANCH  19  30
ENDBRANCH  10  15
ENDBRANCH   7   9
ENDBRANCH   6   7
ENDBRANCH   5   6
ENDBRANCH   4   5
ENDBRANCH   3   4
ENDBRANCH   2   3
ENDBRANCH   1   2
BRANCH   1  37
ATOM     37  O   UNL A   1      39.615  29.996  35.966  1.00  0.00    -0.377 OA
BRANCH  37  38
ATOM     38  C   UNL A   1      38.647  30.864  35.380  1.00  0.00     0.188 C 
BRANCH  38  39
ATOM     39  C   UNL A   1      38.784  31.453  33.951  1.00  0.00     0.188 C 
BRANCH  39  40
ATOM     40  O   UNL A   1      37.990  32.596  33.687  1.00  0.00    -0.376 OA
BRANCH  40  41
ATOM     41  C   UNL A   1      36.597  32.526  33.931  1.00  0.00     0.202 C 
BRANCH  41  42
ATOM     42  C   UNL A   1      35.676  32.693  32.715  1.00  0.00     0.261 C 
BRANCH  42  43
ATOM     43  O   UNL A   1      35.408  31.497  31.969  1.00  0.00    -0.460 OA
BRANCH  43  44
ATOM     44  C   UNL A   1      35.505  31.586  30.628  1.00  0.00     0.338 C 
ATOM     45  O   UNL A   1      34.896  32.348  29.891  1.00  0.00    -0.246 OA
BRANCH  44  46
ATOM     46  C   UNL A   1      36.616  30.722  30.189  1.00  0.00     0.060 A 
ATOM     47  C   UNL A   1      37.223  29.874  31.123  1.00  0.00     0.016 A 
ATOM     48  C   UNL A   1      37.070  30.766  28.868  1.00  0.00     0.016 A 
ATOM     49  C   UNL A   1      38.332  29.116  30.755  1.00  0.00     0.010 A 
ATOM     50  C   UNL A   1      38.191  30.017  28.504  1.00  0.00     0.010 A 
ATOM     51  C   UNL A   1      38.857  29.231  29.462  1.00  0.00    -0.014 A 
BRANCH  51  52
ATOM     52  C   UNL A   1      40.222  28.722  29.193  1.00  0.00     0.031 A 
ATOM     53  C   UNL A   1      41.382  29.663  29.388  1.00  0.00     0.074 A 
ATOM     54  C   UNL A   1      40.441  27.442  28.844  1.00  0.00     0.049 A 
ATOM     55  N   UNL A   1      42.663  29.449  29.233  1.00  0.00    -0.248 NA
ATOM     56  C   UNL A   1      41.050  31.032  29.817  1.00  0.00     0.031 C 
ATOM     57  C   UNL A   1      39.410  26.421  28.673  1.00  0.00     0.029 A 
ATOM     58  N   UNL A   1      41.616  26.787  28.577  1.00  0.00    -0.354 N 
ATOM     59  C   UNL A   1      43.285  30.654  29.537  1.00  0.00     0.074 A 
ATOM     60  C   UNL A   1      42.241  31.606  29.847  1.00  0.00     0.031 C 
ATOM     61  C   UNL A   1      40.001  25.263  28.329  1.00  0.00     0.029 A 
ATOM     62  C   UNL A   1      41.445  25.471  28.225  1.00  0.00     0.049 A 
ATOM     63  H   UNL A   1      42.500  27.218  28.632  1.00  0.00     0.167 HD
ATOM     64  C   UNL A   1      44.607  30.945  29.562  1.00  0.00     0.031 A 
ATOM     65  C   UNL A   1      42.349  24.546  27.848  1.00  0.00     0.031 A 
ATOM     66  C   UNL A   1      45.645  30.005  29.239  1.00  0.00     0.049 A 
ATOM     67  C   UNL A   1      43.810  24.916  27.809  1.00  0.00     0.074 A 
ATOM     68  C   UNL A   1      47.016  30.197  29.244  1.00  0.00     0.029 A 
ATOM     69  N   UNL A   1      45.425  28.695  28.842  1.00  0.00    -0.354 N 
ATOM     70  N   UNL A   1      44.387  26.051  28.121  1.00  0.00    -0.248 NA
ATOM     71  C   UNL A   1      44.745  23.865  27.380  1.00  0.00     0.031 C 
ATOM     72  C   UNL A   1      47.621  29.024  28.787  1.00  0.00     0.029 A 
ATOM     73  C   UNL A   1      46.634  28.075  28.573  1.00  0.00     0.049 A 
ATOM     74  H   UNL A   1      44.541  28.268  28.763  1.00  0.00     0.167 HD
ATOM     75  C   UNL A   1      45.753  25.839  27.964  1.00  0.00     0.074 A 
ATOM     76  C   UNL A   1      45.916  24.463  27.543  1.00  0.00     0.031 C 
ATOM     77  C   UNL A   1      46.781  26.704  28.155  1.00  0.00     0.031 A 
BRANCH  64  78
ATOM     78  C   UNL A   1      44.998  32.354  29.915  1.00  0.00    -0.014 A 
ATOM     79  C   UNL A   1      45.059  33.367  28.944  1.00  0.00     0.009 A 
ATOM     80  C   UNL A   1      45.293  32.678  31.249  1.00  0.00     0.009 A 
ATOM     81  C   UNL A   1      45.442  34.663  29.295  1.00  0.00     0.001 A 
ATOM     82  C   UNL A   1      45.641  33.982  31.604  1.00  0.00     0.001 A 
ATOM     83  C   UNL A   1      45.727  34.971  30.625  1.00  0.00     0.000 A 
ENDBRANCH  64  78
BRANCH  65  84
ATOM     84  C   UNL A   1      41.906  23.180  27.461  1.00  0.00    -0.014 A 
ATOM     85  C   UNL A   1      41.604  22.871  26.126  1.00  0.00     0.009 A 
ATOM     86  C   UNL A   1      41.750  22.183  28.437  1.00  0.00     0.009 A 
ATOM     87  C   UNL A   1      41.127  21.603  25.782  1.00  0.00     0.001 A 
ATOM     88  C   UNL A   1      41.306  20.906  28.085  1.00  0.00     0.001 A 
ATOM     89  C   UNL A   1      40.983  20.622  26.760  1.00  0.00     0.000 A 
ENDBRANCH  65  84
BRANCH  77  90
ATOM     90  C   UNL A   1      48.177  26.171  27.967  1.00  0.00    -0.014 A 
ATOM     91  C   UNL A   1      48.900  25.602  29.026  1.00  0.00     0.009 A 
ATOM     92  C   UNL A   1      48.765  26.215  26.692  1.00  0.00     0.009 A 
ATOM     93  C   UNL A   1      50.201  25.135  28.823  1.00  0.00     0.001 A 
ATOM     94  C   UNL A   1      50.049  25.713  26.484  1.00  0.00     0.001 A 
ATOM     95  C   UNL A   1      50.772  25.187  27.552  1.00  0.00     0.000 A 
ENDBRANCH  77  90
ENDBRANCH  51  52
ENDBRANCH  44  46
ENDBRANCH  43  44
ENDBRANCH  42  43
ENDBRANCH  41  42
ENDBRANCH  40  41
ENDBRANCH  39  40
ENDBRANCH  38  39
ENDBRANCH  37  38
ENDBRANCH   1  37
TORSDOF 24
ENDMDL
