MODEL 1
REMARK VINA RESULT:     -10.2      0.000      0.000
REMARK SMILES Cc1noc(-c2cc(=O)n(CC(=O)OCCOCCOCCOCCOC(=O)c3ccc(-c4c5nc(c(-c6ccccc6)c6ccc([nH]6)c(-c6ccccc6)c6nc(c(-c7ccccc7)c7ccc4[nH]7)C=C6)C=C5)cc3)c3ccccc23)n1
REMARK SMILES IDX 20 1 19 2 18 3 17 4 16 5 15 6 14 7 12 8 13 9 11 10 10 11
REMARK SMILES IDX 6 12 7 13 82 14 8 15 77 16 81 17 9 18 78 19 80 20 79 21 5 22
REMARK SMILES IDX 1 23 2 24 3 25 83 26 4 27 21 28 22 29 23 30 24 31 25 32
REMARK SMILES IDX 26 33 27 34 28 35 29 36 30 37 76 38 31 39 75 40 32 41 33 42
REMARK SMILES IDX 34 43 69 44 35 45 74 46 68 47 70 48 36 49 73 50 67 51 66 52
REMARK SMILES IDX 37 54 59 55 44 56 58 57 45 58 48 59 57 60 71 61 46 62 47 63
REMARK SMILES IDX 56 65 72 66 49 67 38 68 39 69 43 70 40 71 42 72 41 73 60 74
REMARK SMILES IDX 61 75 65 76 62 77 64 78 63 79 50 80 51 81 55 82 52 83 54 84
REMARK SMILES IDX 53 85
REMARK H PARENT 70 53 48 64
REMARK Flexibility Score: inf
ROOT
ATOM      1  O   UNL A   1      40.073  21.519  26.838  1.00  0.00    -0.377 OA
ENDROOT
BRANCH   1   2
ATOM      2  C   UNL A   1      39.144  22.347  26.174  1.00  0.00     0.188 C 
BRANCH   2   3
ATOM      3  C   UNL A   1      37.918  21.689  25.540  1.00  0.00     0.188 C 
BRANCH   3   4
ATOM      4  O   UNL A   1      37.161  22.404  24.584  1.00  0.00    -0.376 OA
BRANCH   4   5
ATOM      5  C   UNL A   1      36.235  23.383  25.041  1.00  0.00     0.202 C 
BRANCH   5   6
ATOM      6  C   UNL A   1      35.415  23.109  26.320  1.00  0.00     0.261 C 
BRANCH   6   7
ATOM      7  O   UNL A   1      34.452  22.023  26.239  1.00  0.00    -0.462 OA
BRANCH   7   8
ATOM      8  C   UNL A   1      33.265  22.211  26.871  1.00  0.00     0.326 C 
ATOM      9  O   UNL A   1      33.166  22.371  28.088  1.00  0.00    -0.250 OA
BRANCH   8  10
ATOM     10  C   UNL A   1      32.008  22.313  25.973  1.00  0.00     0.248 C 
BRANCH  10  11
ATOM     11  N   UNL A   1      31.532  23.549  25.329  1.00  0.00    -0.297 N 
ATOM     12  C   UNL A   1      30.609  26.069  24.337  1.00  0.00     0.055 A 
ATOM     13  C   UNL A   1      30.241  25.628  25.548  1.00  0.00     0.086 A 
ATOM     14  C   UNL A   1      31.505  25.222  23.525  1.00  0.00     0.011 A 
ATOM     15  C   UNL A   1      30.652  24.313  26.084  1.00  0.00     0.252 A 
ATOM     16  C   UNL A   1      32.021  24.021  24.059  1.00  0.00     0.053 A 
ATOM     17  C   UNL A   1      31.878  25.636  22.229  1.00  0.00     0.011 A 
ATOM     18  O   UNL A   1      30.227  23.976  27.187  1.00  0.00    -0.269 OA
ATOM     19  C   UNL A   1      32.971  23.319  23.293  1.00  0.00     0.027 A 
ATOM     20  C   UNL A   1      32.775  24.894  21.469  1.00  0.00     0.001 A 
ATOM     21  C   UNL A   1      33.331  23.743  22.007  1.00  0.00     0.002 A 
BRANCH  12  22
ATOM     22  C   UNL A   1      30.123  27.359  23.949  1.00  0.00     0.258 A 
ATOM     23  C   UNL A   1      27.935  29.709  22.463  1.00  0.00     0.093 C 
ATOM     24  C   UNL A   1      29.024  28.975  23.134  1.00  0.00     0.169 A 
ATOM     25  N   UNL A   1      30.081  29.583  23.676  1.00  0.00    -0.062 NA
ATOM     26  N   UNL A   1      29.019  27.612  23.263  1.00  0.00    -0.192 NA
ATOM     27  O   UNL A   1      30.809  28.529  24.223  1.00  0.00    -0.334 OA
ENDBRANCH  12  22
ENDBRANCH  10  11
ENDBRANCH   8  10
ENDBRANCH   7   8
ENDBRANCH   6   7
ENDBRANCH   5   6
ENDBRANCH   4   5
ENDBRANCH   3   4
ENDBRANCH   2   3
ENDBRANCH   1   2
BRANCH   1  28
ATOM     28  C   UNL A   1      40.414  20.261  26.285  1.00  0.00     0.188 C 
BRANCH  28  29
ATOM     29  C   UNL A   1      41.894  19.873  26.280  1.00  0.00     0.188 C 
BRANCH  29  30
ATOM     30  O   UNL A   1      42.700  20.331  25.192  1.00  0.00    -0.376 OA
BRANCH  30  31
ATOM     31  C   UNL A   1      43.971  20.928  25.457  1.00  0.00     0.202 C 
BRANCH  31  32
ATOM     32  C   UNL A   1      43.935  22.199  26.291  1.00  0.00     0.261 C 
BRANCH  32  33
ATOM     33  O   UNL A   1      43.062  23.143  25.659  1.00  0.00    -0.460 OA
BRANCH  33  34
ATOM     34  C   UNL A   1      43.575  24.376  25.470  1.00  0.00     0.338 C 
ATOM     35  O   UNL A   1      44.329  24.737  24.582  1.00  0.00    -0.246 OA
BRANCH  34  36
ATOM     36  C   UNL A   1      42.896  25.301  26.398  1.00  0.00     0.060 A 
ATOM     37  C   UNL A   1      41.776  24.908  27.140  1.00  0.00     0.016 A 
ATOM     38  C   UNL A   1      43.393  26.606  26.494  1.00  0.00     0.016 A 
ATOM     39  C   UNL A   1      41.189  25.812  28.022  1.00  0.00     0.010 A 
ATOM     40  C   UNL A   1      42.806  27.509  27.374  1.00  0.00     0.010 A 
ATOM     41  C   UNL A   1      41.729  27.101  28.171  1.00  0.00    -0.014 A 
BRANCH  41  42
ATOM     42  C   UNL A   1      41.335  27.934  29.325  1.00  0.00     0.031 A 
ATOM     43  C   UNL A   1      40.193  28.891  29.259  1.00  0.00     0.074 A 
ATOM     44  C   UNL A   1      42.092  27.827  30.433  1.00  0.00     0.049 A 
ATOM     45  N   UNL A   1      39.717  29.653  30.208  1.00  0.00    -0.248 NA
ATOM     46  C   UNL A   1      39.495  29.018  27.971  1.00  0.00     0.031 C 
ATOM     47  C   UNL A   1      43.251  26.939  30.568  1.00  0.00     0.029 A 
ATOM     48  N   UNL A   1      42.010  28.453  31.647  1.00  0.00    -0.354 N 
ATOM     49  C   UNL A   1      38.653  30.340  29.643  1.00  0.00     0.074 A 
ATOM     50  C   UNL A   1      38.579  29.937  28.254  1.00  0.00     0.031 C 
ATOM     51  C   UNL A   1      43.751  27.054  31.804  1.00  0.00     0.029 A 
ATOM     52  C   UNL A   1      42.977  28.051  32.535  1.00  0.00     0.049 A 
ATOM     53  H   UNL A   1      41.325  29.127  31.862  1.00  0.00     0.167 HD
ATOM     54  C   UNL A   1      37.814  31.215  30.247  1.00  0.00     0.031 A 
ATOM     55  C   UNL A   1      43.217  28.439  33.802  1.00  0.00     0.031 A 
ATOM     56  C   UNL A   1      37.934  31.619  31.626  1.00  0.00     0.049 A 
ATOM     57  C   UNL A   1      42.295  29.442  34.429  1.00  0.00     0.074 A 
ATOM     58  C   UNL A   1      37.111  32.471  32.343  1.00  0.00     0.029 A 
ATOM     59  N   UNL A   1      38.942  31.216  32.490  1.00  0.00    -0.354 N 
ATOM     60  N   UNL A   1      41.239  30.021  33.912  1.00  0.00    -0.248 NA
ATOM     61  C   UNL A   1      42.581  29.834  35.815  1.00  0.00     0.031 C 
ATOM     62  C   UNL A   1      37.666  32.645  33.612  1.00  0.00     0.029 A 
ATOM     63  C   UNL A   1      38.784  31.832  33.721  1.00  0.00     0.049 A 
ATOM     64  H   UNL A   1      39.663  30.585  32.262  1.00  0.00     0.167 HD
ATOM     65  C   UNL A   1      40.720  30.830  34.912  1.00  0.00     0.074 A 
ATOM     66  C   UNL A   1      41.567  30.649  36.074  1.00  0.00     0.031 C 
ATOM     67  C   UNL A   1      39.640  31.647  34.868  1.00  0.00     0.031 A 
BRANCH  54  68
ATOM     68  C   UNL A   1      36.686  31.799  29.439  1.00  0.00    -0.014 A 
ATOM     69  C   UNL A   1      35.505  31.062  29.246  1.00  0.00     0.009 A 
ATOM     70  C   UNL A   1      36.837  33.020  28.764  1.00  0.00     0.009 A 
ATOM     71  C   UNL A   1      34.513  31.521  28.378  1.00  0.00     0.001 A 
ATOM     72  C   UNL A   1      35.828  33.493  27.920  1.00  0.00     0.001 A 
ATOM     73  C   UNL A   1      34.674  32.738  27.718  1.00  0.00     0.000 A 
ENDBRANCH  54  68
BRANCH  55  74
ATOM     74  C   UNL A   1      44.346  27.823  34.546  1.00  0.00    -0.014 A 
ATOM     75  C   UNL A   1      44.135  26.704  35.371  1.00  0.00     0.009 A 
ATOM     76  C   UNL A   1      45.622  28.403  34.510  1.00  0.00     0.009 A 
ATOM     77  C   UNL A   1      45.166  26.203  36.168  1.00  0.00     0.001 A 
ATOM     78  C   UNL A   1      46.662  27.876  35.282  1.00  0.00     0.001 A 
ATOM     79  C   UNL A   1      46.430  26.786  36.118  1.00  0.00     0.000 A 
ENDBRANCH  55  74
BRANCH  67  80
ATOM     80  C   UNL A   1      39.291  32.417  36.113  1.00  0.00    -0.014 A 
ATOM     81  C   UNL A   1      38.316  31.916  36.991  1.00  0.00     0.009 A 
ATOM     82  C   UNL A   1      39.835  33.688  36.356  1.00  0.00     0.009 A 
ATOM     83  C   UNL A   1      37.872  32.682  38.070  1.00  0.00     0.001 A 
ATOM     84  C   UNL A   1      39.415  34.436  37.457  1.00  0.00     0.001 A 
ATOM     85  C   UNL A   1      38.424  33.940  38.304  1.00  0.00     0.000 A 
ENDBRANCH  67  80
ENDBRANCH  41  42
ENDBRANCH  34  36
ENDBRANCH  33  34
ENDBRANCH  32  33
ENDBRANCH  31  32
ENDBRANCH  30  31
ENDBRANCH  29  30
ENDBRANCH  28  29
ENDBRANCH   1  28
TORSDOF 22
ENDMDL
MODEL 2
REMARK VINA RESULT:      -9.7      2.067      4.093
REMARK SMILES Cc1noc(-c2cc(=O)n(CC(=O)OCCOCCOCCOCCOC(=O)c3ccc(-c4c5nc(c(-c6ccccc6)c6ccc([nH]6)c(-c6ccccc6)c6nc(c(-c7ccccc7)c7ccc4[nH]7)C=C6)C=C5)cc3)c3ccccc23)n1
REMARK SMILES IDX 20 1 19 2 18 3 17 4 16 5 15 6 14 7 12 8 13 9 11 10 10 11
REMARK SMILES IDX 6 12 7 13 82 14 8 15 77 16 81 17 9 18 78 19 80 20 79 21 5 22
REMARK SMILES IDX 1 23 2 24 3 25 83 26 4 27 21 28 22 29 23 30 24 31 25 32
REMARK SMILES IDX 26 33 27 34 28 35 29 36 30 37 76 38 31 39 75 40 32 41 33 42
REMARK SMILES IDX 34 43 69 44 35 45 74 46 68 47 70 48 36 49 73 50 67 51 66 52
REMARK SMILES IDX 37 54 59 55 44 56 58 57 45 58 48 59 57 60 71 61 46 62 47 63
REMARK SMILES IDX 56 65 72 66 49 67 38 68 39 69 43 70 40 71 42 72 41 73 60 74
REMARK SMILES IDX 61 75 65 76 62 77 64 78 63 79 50 80 51 81 55 82 52 83 54 84
REMARK SMILES IDX 53 85
REMARK H PARENT 70 53 48 64
REMARK Flexibility Score: inf
ROOT
ATOM      1  O   UNL A   1      39.596  21.108  26.689  1.00  0.00    -0.377 OA
ENDROOT
BRANCH   1   2
ATOM      2  C   UNL A   1      38.611  21.756  25.914  1.00  0.00     0.188 C 
BRANCH   2   3
ATOM      3  C   UNL A   1      38.418  23.260  26.109  1.00  0.00     0.188 C 
BRANCH   3   4
ATOM      4  O   UNL A   1      37.639  23.988  25.181  1.00  0.00    -0.376 OA
BRANCH   4   5
ATOM      5  C   UNL A   1      36.358  23.483  24.821  1.00  0.00     0.202 C 
BRANCH   5   6
ATOM      6  C   UNL A   1      35.692  23.974  23.518  1.00  0.00     0.261 C 
BRANCH   6   7
ATOM      7  O   UNL A   1      34.702  25.029  23.666  1.00  0.00    -0.462 OA
BRANCH   7   8
ATOM      8  C   UNL A   1      33.647  25.000  22.811  1.00  0.00     0.326 C 
ATOM      9  O   UNL A   1      33.641  25.581  21.726  1.00  0.00    -0.250 OA
BRANCH   8  10
ATOM     10  C   UNL A   1      32.448  24.110  23.218  1.00  0.00     0.248 C 
BRANCH  10  11
ATOM     11  N   UNL A   1      32.560  22.757  23.789  1.00  0.00    -0.297 N 
ATOM     12  C   UNL A   1      32.910  20.054  24.659  1.00  0.00     0.055 A 
ATOM     13  C   UNL A   1      32.695  20.341  23.368  1.00  0.00     0.086 A 
ATOM     14  C   UNL A   1      32.964  21.169  25.625  1.00  0.00     0.011 A 
ATOM     15  C   UNL A   1      32.460  21.715  22.878  1.00  0.00     0.252 A 
ATOM     16  C   UNL A   1      32.874  22.503  25.172  1.00  0.00     0.053 A 
ATOM     17  C   UNL A   1      33.147  20.900  26.998  1.00  0.00     0.011 A 
ATOM     18  O   UNL A   1      32.226  21.874  21.682  1.00  0.00    -0.269 OA
ATOM     19  C   UNL A   1      33.061  23.530  26.118  1.00  0.00     0.027 A 
ATOM     20  C   UNL A   1      33.272  21.933  27.921  1.00  0.00     0.001 A 
ATOM     21  C   UNL A   1      33.241  23.247  27.479  1.00  0.00     0.002 A 
BRANCH  12  22
ATOM     22  C   UNL A   1      33.111  18.674  24.986  1.00  0.00     0.258 A 
ATOM     23  C   UNL A   1      34.806  15.572  25.141  1.00  0.00     0.093 C 
ATOM     24  C   UNL A   1      33.866  16.708  25.199  1.00  0.00     0.169 A 
ATOM     25  N   UNL A   1      32.654  16.617  25.749  1.00  0.00    -0.062 NA
ATOM     26  N   UNL A   1      34.179  17.945  24.704  1.00  0.00    -0.192 NA
ATOM     27  O   UNL A   1      32.149  17.909  25.622  1.00  0.00    -0.334 OA
ENDBRANCH  12  22
ENDBRANCH  10  11
ENDBRANCH   8  10
ENDBRANCH   7   8
ENDBRANCH   6   7
ENDBRANCH   5   6
ENDBRANCH   4   5
ENDBRANCH   3   4
ENDBRANCH   2   3
ENDBRANCH   1   2
BRANCH   1  28
ATOM     28  C   UNL A   1      40.403  20.103  26.103  1.00  0.00     0.188 C 
BRANCH  28  29
ATOM     29  C   UNL A   1      41.893  20.108  26.447  1.00  0.00     0.188 C 
BRANCH  29  30
ATOM     30  O   UNL A   1      42.825  19.887  25.385  1.00  0.00    -0.376 OA
BRANCH  30  31
ATOM     31  C   UNL A   1      43.907  20.800  25.194  1.00  0.00     0.202 C 
BRANCH  31  32
ATOM     32  C   UNL A   1      43.835  22.081  26.010  1.00  0.00     0.261 C 
BRANCH  32  33
ATOM     33  O   UNL A   1      43.193  23.093  25.225  1.00  0.00    -0.460 OA
BRANCH  33  34
ATOM     34  C   UNL A   1      43.805  24.296  25.214  1.00  0.00     0.338 C 
ATOM     35  O   UNL A   1      44.683  24.674  24.457  1.00  0.00    -0.246 OA
BRANCH  34  36
ATOM     36  C   UNL A   1      43.079  25.187  26.140  1.00  0.00     0.060 A 
ATOM     37  C   UNL A   1      41.984  24.736  26.886  1.00  0.00     0.016 A 
ATOM     38  C   UNL A   1      43.504  26.517  26.230  1.00  0.00     0.016 A 
ATOM     39  C   UNL A   1      41.350  25.611  27.767  1.00  0.00     0.010 A 
ATOM     40  C   UNL A   1      42.871  27.391  27.108  1.00  0.00     0.010 A 
ATOM     41  C   UNL A   1      41.820  26.927  27.909  1.00  0.00    -0.014 A 
BRANCH  41  42
ATOM     42  C   UNL A   1      41.385  27.742  29.062  1.00  0.00     0.031 A 
ATOM     43  C   UNL A   1      40.238  28.692  28.973  1.00  0.00     0.074 A 
ATOM     44  C   UNL A   1      42.108  27.626  30.192  1.00  0.00     0.049 A 
ATOM     45  N   UNL A   1      39.727  29.438  29.917  1.00  0.00    -0.248 NA
ATOM     46  C   UNL A   1      39.579  28.831  27.665  1.00  0.00     0.031 C 
ATOM     47  C   UNL A   1      43.269  26.744  30.350  1.00  0.00     0.029 A 
ATOM     48  N   UNL A   1      41.983  28.236  31.410  1.00  0.00    -0.354 N 
ATOM     49  C   UNL A   1      38.676  30.125  29.328  1.00  0.00     0.074 A 
ATOM     50  C   UNL A   1      38.648  29.740  27.932  1.00  0.00     0.031 C 
ATOM     51  C   UNL A   1      43.730  26.847  31.603  1.00  0.00     0.029 A 
ATOM     52  C   UNL A   1      42.926  27.828  32.322  1.00  0.00     0.049 A 
ATOM     53  H   UNL A   1      41.287  28.902  31.613  1.00  0.00     0.167 HD
ATOM     54  C   UNL A   1      37.812  30.986  29.917  1.00  0.00     0.031 A 
ATOM     55  C   UNL A   1      43.123  28.201  33.601  1.00  0.00     0.031 A 
ATOM     56  C   UNL A   1      37.887  31.372  31.305  1.00  0.00     0.049 A 
ATOM     57  C   UNL A   1      42.176  29.190  34.212  1.00  0.00     0.074 A 
ATOM     58  C   UNL A   1      37.036  32.208  32.006  1.00  0.00     0.029 A 
ATOM     59  N   UNL A   1      38.871  30.965  32.194  1.00  0.00    -0.354 N 
ATOM     60  N   UNL A   1      41.132  29.768  33.670  1.00  0.00    -0.248 NA
ATOM     61  C   UNL A   1      42.416  29.565  35.611  1.00  0.00     0.031 C 
ATOM     62  C   UNL A   1      37.550  32.370  33.295  1.00  0.00     0.029 A 
ATOM     63  C   UNL A   1      38.670  31.564  33.427  1.00  0.00     0.049 A 
ATOM     64  H   UNL A   1      39.603  30.342  31.980  1.00  0.00     0.167 HD
ATOM     65  C   UNL A   1      40.576  30.560  34.665  1.00  0.00     0.074 A 
ATOM     66  C   UNL A   1      41.388  30.369  35.849  1.00  0.00     0.031 C 
ATOM     67  C   UNL A   1      39.492  31.369  34.598  1.00  0.00     0.031 A 
BRANCH  54  68
ATOM     68  C   UNL A   1      36.705  31.572  29.083  1.00  0.00    -0.014 A 
ATOM     69  C   UNL A   1      36.763  32.919  28.685  1.00  0.00     0.009 A 
ATOM     70  C   UNL A   1      35.546  30.834  28.798  1.00  0.00     0.009 A 
ATOM     71  C   UNL A   1      35.678  33.519  28.043  1.00  0.00     0.001 A 
ATOM     72  C   UNL A   1      34.474  31.428  28.126  1.00  0.00     0.001 A 
ATOM     73  C   UNL A   1      34.535  32.771  27.762  1.00  0.00     0.000 A 
ENDBRANCH  54  68
BRANCH  55  74
ATOM     74  C   UNL A   1      44.234  27.583  34.372  1.00  0.00    -0.014 A 
ATOM     75  C   UNL A   1      44.047  26.364  35.046  1.00  0.00     0.009 A 
ATOM     76  C   UNL A   1      45.458  28.253  34.516  1.00  0.00     0.009 A 
ATOM     77  C   UNL A   1      45.046  25.847  35.872  1.00  0.00     0.001 A 
ATOM     78  C   UNL A   1      46.470  27.714  35.315  1.00  0.00     0.001 A 
ATOM     79  C   UNL A   1      46.259  26.519  36.002  1.00  0.00     0.000 A 
ENDBRANCH  55  74
BRANCH  67  80
ATOM     80  C   UNL A   1      39.098  32.121  35.841  1.00  0.00    -0.014 A 
ATOM     81  C   UNL A   1      38.166  31.558  36.729  1.00  0.00     0.009 A 
ATOM     82  C   UNL A   1      39.555  33.427  36.074  1.00  0.00     0.009 A 
ATOM     83  C   UNL A   1      37.678  32.297  37.807  1.00  0.00     0.001 A 
ATOM     84  C   UNL A   1      39.091  34.151  37.174  1.00  0.00     0.001 A 
ATOM     85  C   UNL A   1      38.143  33.592  38.030  1.00  0.00     0.000 A 
ENDBRANCH  67  80
ENDBRANCH  41  42
ENDBRANCH  34  36
ENDBRANCH  33  34
ENDBRANCH  32  33
ENDBRANCH  31  32
ENDBRANCH  30  31
ENDBRANCH  29  30
ENDBRANCH  28  29
ENDBRANCH   1  28
TORSDOF 22
ENDMDL
MODEL 3
REMARK VINA RESULT:      -9.7      0.420      5.641
REMARK SMILES Cc1noc(-c2cc(=O)n(CC(=O)OCCOCCOCCOCCOC(=O)c3ccc(-c4c5nc(c(-c6ccccc6)c6ccc([nH]6)c(-c6ccccc6)c6nc(c(-c7ccccc7)c7ccc4[nH]7)C=C6)C=C5)cc3)c3ccccc23)n1
REMARK SMILES IDX 20 1 19 2 18 3 17 4 16 5 15 6 14 7 12 8 13 9 11 10 10 11
REMARK SMILES IDX 6 12 7 13 82 14 8 15 77 16 81 17 9 18 78 19 80 20 79 21 5 22
REMARK SMILES IDX 1 23 2 24 3 25 83 26 4 27 21 28 22 29 23 30 24 31 25 32
REMARK SMILES IDX 26 33 27 34 28 35 29 36 30 37 76 38 31 39 75 40 32 41 33 42
REMARK SMILES IDX 34 43 69 44 35 45 74 46 68 47 70 48 36 49 73 50 67 51 66 52
REMARK SMILES IDX 37 54 59 55 44 56 58 57 45 58 48 59 57 60 71 61 46 62 47 63
REMARK SMILES IDX 56 65 72 66 49 67 38 68 39 69 43 70 40 71 42 72 41 73 60 74
REMARK SMILES IDX 61 75 65 76 62 77 64 78 63 79 50 80 51 81 55 82 52 83 54 84
REMARK SMILES IDX 53 85
REMARK H PARENT 70 53 48 64
REMARK Flexibility Score: inf
ROOT
ATOM      1  O   UNL A   1      39.700  21.699  26.874  1.00  0.00    -0.377 OA
ENDROOT
BRANCH   1   2
ATOM      2  C   UNL A   1      38.833  22.562  26.170  1.00  0.00     0.188 C 
BRANCH   2   3
ATOM      3  C   UNL A   1      37.706  21.935  25.349  1.00  0.00     0.188 C 
BRANCH   3   4
ATOM      4  O   UNL A   1      37.022  22.720  24.393  1.00  0.00    -0.376 OA
BRANCH   4   5
ATOM      5  C   UNL A   1      36.041  23.646  24.845  1.00  0.00     0.202 C 
BRANCH   5   6
ATOM      6  C   UNL A   1      35.304  23.376  26.174  1.00  0.00     0.261 C 
BRANCH   6   7
ATOM      7  O   UNL A   1      34.568  22.124  26.252  1.00  0.00    -0.462 OA
BRANCH   7   8
ATOM      8  C   UNL A   1      33.347  22.170  26.846  1.00  0.00     0.326 C 
ATOM      9  O   UNL A   1      33.192  22.199  28.067  1.00  0.00    -0.250 OA
BRANCH   8  10
ATOM     10  C   UNL A   1      32.122  22.279  25.907  1.00  0.00     0.248 C 
BRANCH  10  11
ATOM     11  N   UNL A   1      31.648  23.526  25.283  1.00  0.00    -0.297 N 
ATOM     12  C   UNL A   1      30.747  26.069  24.329  1.00  0.00     0.055 A 
ATOM     13  C   UNL A   1      30.434  25.643  25.561  1.00  0.00     0.086 A 
ATOM     14  C   UNL A   1      31.571  25.191  23.474  1.00  0.00     0.011 A 
ATOM     15  C   UNL A   1      30.834  24.319  26.081  1.00  0.00     0.252 A 
ATOM     16  C   UNL A   1      32.080  23.978  23.985  1.00  0.00     0.053 A 
ATOM     17  C   UNL A   1      31.884  25.589  22.157  1.00  0.00     0.011 A 
ATOM     18  O   UNL A   1      30.461  23.999  27.207  1.00  0.00    -0.269 OA
ATOM     19  C   UNL A   1      32.965  23.244  23.172  1.00  0.00     0.027 A 
ATOM     20  C   UNL A   1      32.716  24.817  21.353  1.00  0.00     0.001 A 
ATOM     21  C   UNL A   1      33.265  23.652  21.866  1.00  0.00     0.002 A 
BRANCH  12  22
ATOM     22  C   UNL A   1      30.280  27.371  23.961  1.00  0.00     0.258 A 
ATOM     23  C   UNL A   1      28.207  29.768  22.388  1.00  0.00     0.093 C 
ATOM     24  C   UNL A   1      29.238  29.013  23.125  1.00  0.00     0.169 A 
ATOM     25  N   UNL A   1      30.226  29.606  23.799  1.00  0.00    -0.062 NA
ATOM     26  N   UNL A   1      29.243  27.646  23.184  1.00  0.00    -0.192 NA
ATOM     27  O   UNL A   1      30.915  28.533  24.360  1.00  0.00    -0.334 OA
ENDBRANCH  12  22
ENDBRANCH  10  11
ENDBRANCH   8  10
ENDBRANCH   7   8
ENDBRANCH   6   7
ENDBRANCH   5   6
ENDBRANCH   4   5
ENDBRANCH   3   4
ENDBRANCH   2   3
ENDBRANCH   1   2
BRANCH   1  28
ATOM     28  C   UNL A   1      40.104  20.476  26.287  1.00  0.00     0.188 C 
BRANCH  28  29
ATOM     29  C   UNL A   1      41.568  20.066  26.453  1.00  0.00     0.188 C 
BRANCH  29  30
ATOM     30  O   UNL A   1      42.483  20.424  25.414  1.00  0.00    -0.376 OA
BRANCH  30  31
ATOM     31  C   UNL A   1      43.803  20.853  25.754  1.00  0.00     0.202 C 
BRANCH  31  32
ATOM     32  C   UNL A   1      43.889  22.171  26.507  1.00  0.00     0.261 C 
BRANCH  32  33
ATOM     33  O   UNL A   1      42.949  23.091  25.939  1.00  0.00    -0.460 OA
BRANCH  33  34
ATOM     34  C   UNL A   1      43.433  24.317  25.654  1.00  0.00     0.338 C 
ATOM     35  O   UNL A   1      44.087  24.648  24.680  1.00  0.00    -0.246 OA
BRANCH  34  36
ATOM     36  C   UNL A   1      42.851  25.273  26.616  1.00  0.00     0.060 A 
ATOM     37  C   UNL A   1      41.725  24.952  27.383  1.00  0.00     0.016 A 
ATOM     38  C   UNL A   1      43.448  26.535  26.720  1.00  0.00     0.016 A 
ATOM     39  C   UNL A   1      41.232  25.881  28.296  1.00  0.00     0.010 A 
ATOM     40  C   UNL A   1      42.955  27.464  27.631  1.00  0.00     0.010 A 
ATOM     41  C   UNL A   1      41.872  27.122  28.451  1.00  0.00    -0.014 A 
BRANCH  41  42
ATOM     42  C   UNL A   1      41.574  27.961  29.629  1.00  0.00     0.031 A 
ATOM     43  C   UNL A   1      42.354  27.853  30.896  1.00  0.00     0.074 A 
ATOM     44  C   UNL A   1      40.526  28.799  29.524  1.00  0.00     0.049 A 
ATOM     45  N   UNL A   1      42.223  28.555  31.992  1.00  0.00    -0.248 NA
ATOM     46  C   UNL A   1      43.410  26.832  30.952  1.00  0.00     0.031 C 
ATOM     47  C   UNL A   1      39.688  28.939  28.330  1.00  0.00     0.029 A 
ATOM     48  N   UNL A   1      39.985  29.685  30.417  1.00  0.00    -0.354 N 
ATOM     49  C   UNL A   1      43.188  28.076  32.865  1.00  0.00     0.074 A 
ATOM     50  C   UNL A   1      43.871  26.993  32.188  1.00  0.00     0.031 C 
ATOM     51  C   UNL A   1      38.760  29.878  28.552  1.00  0.00     0.029 A 
ATOM     52  C   UNL A   1      38.911  30.377  29.914  1.00  0.00     0.049 A 
ATOM     53  H   UNL A   1      40.332  29.814  31.329  1.00  0.00     0.167 HD
ATOM     54  C   UNL A   1      43.476  28.520  34.111  1.00  0.00     0.031 A 
ATOM     55  C   UNL A   1      38.129  31.313  30.485  1.00  0.00     0.031 A 
ATOM     56  C   UNL A   1      42.756  29.583  34.769  1.00  0.00     0.049 A 
ATOM     57  C   UNL A   1      38.447  31.754  31.883  1.00  0.00     0.074 A 
ATOM     58  C   UNL A   1      42.995  30.133  36.016  1.00  0.00     0.029 A 
ATOM     59  N   UNL A   1      41.654  30.243  34.245  1.00  0.00    -0.354 N 
ATOM     60  N   UNL A   1      39.417  31.355  32.668  1.00  0.00    -0.248 NA
ATOM     61  C   UNL A   1      37.580  32.784  32.469  1.00  0.00     0.031 C 
ATOM     62  C   UNL A   1      41.990  31.067  36.279  1.00  0.00     0.029 A 
ATOM     63  C   UNL A   1      41.177  31.168  35.160  1.00  0.00     0.049 A 
ATOM     64  H   UNL A   1      41.267  30.079  33.354  1.00  0.00     0.167 HD
ATOM     65  C   UNL A   1      39.294  32.097  33.834  1.00  0.00     0.074 A 
ATOM     66  C   UNL A   1      38.166  32.986  33.643  1.00  0.00     0.031 C 
ATOM     67  C   UNL A   1      40.048  32.043  34.958  1.00  0.00     0.031 A 
BRANCH  54  68
ATOM     68  C   UNL A   1      44.615  27.878  34.855  1.00  0.00    -0.014 A 
ATOM     69  C   UNL A   1      45.929  28.341  34.666  1.00  0.00     0.009 A 
ATOM     70  C   UNL A   1      44.410  26.735  35.644  1.00  0.00     0.009 A 
ATOM     71  C   UNL A   1      47.011  27.662  35.228  1.00  0.00     0.001 A 
ATOM     72  C   UNL A   1      45.493  26.076  36.233  1.00  0.00     0.001 A 
ATOM     73  C   UNL A   1      46.792  26.531  36.014  1.00  0.00     0.000 A 
ENDBRANCH  54  68
BRANCH  55  74
ATOM     74  C   UNL A   1      37.021  31.911  29.695  1.00  0.00    -0.014 A 
ATOM     75  C   UNL A   1      35.760  31.292  29.647  1.00  0.00     0.009 A 
ATOM     76  C   UNL A   1      37.242  33.052  28.911  1.00  0.00     0.009 A 
ATOM     77  C   UNL A   1      34.758  31.781  28.807  1.00  0.00     0.001 A 
ATOM     78  C   UNL A   1      36.225  33.561  28.099  1.00  0.00     0.001 A 
ATOM     79  C   UNL A   1      34.990  32.918  28.037  1.00  0.00     0.000 A 
ENDBRANCH  55  74
BRANCH  67  80
ATOM     80  C   UNL A   1      39.694  32.974  36.086  1.00  0.00    -0.014 A 
ATOM     81  C   UNL A   1      38.721  32.593  37.025  1.00  0.00     0.009 A 
ATOM     82  C   UNL A   1      40.232  34.268  36.153  1.00  0.00     0.009 A 
ATOM     83  C   UNL A   1      38.272  33.497  37.988  1.00  0.00     0.001 A 
ATOM     84  C   UNL A   1      39.808  35.158  37.142  1.00  0.00     0.001 A 
ATOM     85  C   UNL A   1      38.819  34.778  38.048  1.00  0.00     0.000 A 
ENDBRANCH  67  80
ENDBRANCH  41  42
ENDBRANCH  34  36
ENDBRANCH  33  34
ENDBRANCH  32  33
ENDBRANCH  31  32
ENDBRANCH  30  31
ENDBRANCH  29  30
ENDBRANCH  28  29
ENDBRANCH   1  28
TORSDOF 22
ENDMDL
