MODEL 1
REMARK VINA RESULT:      -9.9      0.000      0.000
REMARK SMILES NS(=O)(=O)c1ccc(N2N=C(C(=O)OCCOCCOCCOCCOC(=O)c3ccc(-c4c5nc(c(-c6ccccc6)c6ccc([nH]6)c(-c6ccccc6)c6nc(c(-c7ccccc7)c7ccc4[nH]7)C=C6)C=C5)cc3)C[C@H]2c2ccco2)cc1
REMARK SMILES IDX 19 1 18 2 17 3 16 4 15 5 14 6 12 7 13 8 11 9 9 10 10 11
REMARK SMILES IDX 78 12 77 13 8 14 5 15 6 16 85 17 7 18 84 19 2 20 3 21 4 22
REMARK SMILES IDX 1 23 79 26 80 27 83 28 81 29 82 30 20 31 21 32 22 33 23 34
REMARK SMILES IDX 24 35 25 36 26 37 27 38 28 39 29 40 30 41 76 42 31 43 75 44
REMARK SMILES IDX 32 45 33 46 34 47 69 48 35 49 74 50 68 51 70 52 36 53 73 54
REMARK SMILES IDX 67 55 66 56 37 58 59 59 44 60 58 61 45 62 48 63 57 64 71 65
REMARK SMILES IDX 46 66 47 67 56 69 72 70 49 71 38 72 39 73 43 74 40 75 42 76
REMARK SMILES IDX 41 77 60 78 61 79 65 80 62 81 64 82 63 83 50 84 51 85 55 86
REMARK SMILES IDX 52 87 54 88 53 89
REMARK H PARENT 1 24 1 25 70 57 48 68
REMARK Flexibility Score: inf
ROOT
ATOM      1  C   UNL A   1      33.045  36.122  28.995  1.00  0.00     0.188 C 
ENDROOT
BRANCH   1   2
ATOM      2  C   UNL A   1      34.410  35.685  28.435  1.00  0.00     0.188 C 
BRANCH   2   3
ATOM      3  O   UNL A   1      34.315  34.534  27.611  1.00  0.00    -0.376 OA
BRANCH   3   4
ATOM      4  C   UNL A   1      34.571  33.250  28.151  1.00  0.00     0.202 C 
BRANCH   4   5
ATOM      5  C   UNL A   1      33.473  32.175  28.250  1.00  0.00     0.261 C 
BRANCH   5   6
ATOM      6  O   UNL A   1      33.344  31.308  27.124  1.00  0.00    -0.459 OA
BRANCH   6   7
ATOM      7  C   UNL A   1      34.153  30.239  27.059  1.00  0.00     0.354 C 
ATOM      8  O   UNL A   1      35.344  30.187  27.289  1.00  0.00    -0.245 OA
BRANCH   7   9
ATOM      9  C   UNL A   1      33.281  29.034  26.803  1.00  0.00     0.148 C 
ATOM     10  N   UNL A   1      32.671  27.018  26.547  1.00  0.00    -0.254 N 
ATOM     11  N   UNL A   1      33.756  27.827  26.748  1.00  0.00    -0.169 NA
ATOM     12  C   UNL A   1      31.482  27.792  26.124  1.00  0.00     0.180 C 
ATOM     13  C   UNL A   1      31.789  29.162  26.746  1.00  0.00     0.101 C 
BRANCH  10  14
ATOM     14  C   UNL A   1      32.903  25.707  26.147  1.00  0.00     0.060 A 
ATOM     15  C   UNL A   1      33.412  23.060  25.357  1.00  0.00     0.082 A 
ATOM     16  C   UNL A   1      34.187  24.099  24.837  1.00  0.00     0.024 A 
ATOM     17  C   UNL A   1      32.355  23.332  26.225  1.00  0.00     0.024 A 
ATOM     18  C   UNL A   1      33.935  25.415  25.243  1.00  0.00     0.029 A 
ATOM     19  C   UNL A   1      32.097  24.652  26.596  1.00  0.00     0.029 A 
BRANCH  15  20
ATOM     20  S   UNL A   1      33.725  21.390  24.866  1.00  0.00     0.238 S 
ATOM     21  O   UNL A   1      33.088  20.488  25.800  1.00  0.00    -0.207 OA
ATOM     22  O   UNL A   1      35.107  21.253  24.476  1.00  0.00    -0.207 OA
BRANCH  20  23
ATOM     23  N   UNL A   1      32.837  21.277  23.444  1.00  0.00    -0.225 NA
ATOM     24  H   UNL A   1      32.853  22.175  22.961  1.00  0.00     0.137 HD
ATOM     25  H   UNL A   1      31.874  21.026  23.664  1.00  0.00     0.137 HD
ENDBRANCH  20  23
ENDBRANCH  15  20
ENDBRANCH  10  14
BRANCH  12  26
ATOM     26  C   UNL A   1      31.235  27.911  24.642  1.00  0.00     0.128 A 
ATOM     27  C   UNL A   1      31.319  28.966  23.754  1.00  0.00     0.048 A 
ATOM     28  O   UNL A   1      30.826  26.789  23.976  1.00  0.00    -0.467 OA
ATOM     29  C   UNL A   1      30.907  28.467  22.494  1.00  0.00     0.042 A 
ATOM     30  C   UNL A   1      30.636  27.133  22.680  1.00  0.00     0.195 A 
ENDBRANCH  12  26
ENDBRANCH   7   9
ENDBRANCH   6   7
ENDBRANCH   5   6
ENDBRANCH   4   5
ENDBRANCH   3   4
ENDBRANCH   2   3
ENDBRANCH   1   2
BRANCH   1  31
ATOM     31  O   UNL A   1      32.603  35.393  30.133  1.00  0.00    -0.377 OA
BRANCH  31  32
ATOM     32  C   UNL A   1      32.526  36.062  31.395  1.00  0.00     0.188 C 
BRANCH  32  33
ATOM     33  C   UNL A   1      33.348  35.628  32.636  1.00  0.00     0.188 C 
BRANCH  33  34
ATOM     34  O   UNL A   1      34.748  35.550  32.423  1.00  0.00    -0.376 OA
BRANCH  34  35
ATOM     35  C   UNL A   1      35.576  35.195  33.517  1.00  0.00     0.202 C 
BRANCH  35  36
ATOM     36  C   UNL A   1      36.593  34.075  33.267  1.00  0.00     0.261 C 
BRANCH  36  37
ATOM     37  O   UNL A   1      36.093  32.735  33.405  1.00  0.00    -0.460 OA
BRANCH  37  38
ATOM     38  C   UNL A   1      35.538  32.169  32.312  1.00  0.00     0.338 C 
ATOM     39  O   UNL A   1      34.432  32.377  31.853  1.00  0.00    -0.246 OA
BRANCH  38  40
ATOM     40  C   UNL A   1      36.583  31.365  31.647  1.00  0.00     0.060 A 
ATOM     41  C   UNL A   1      37.495  30.649  32.434  1.00  0.00     0.016 A 
ATOM     42  C   UNL A   1      36.663  31.324  30.254  1.00  0.00     0.016 A 
ATOM     43  C   UNL A   1      38.523  29.927  31.825  1.00  0.00     0.010 A 
ATOM     44  C   UNL A   1      37.702  30.614  29.646  1.00  0.00     0.010 A 
ATOM     45  C   UNL A   1      38.659  29.946  30.431  1.00  0.00    -0.014 A 
BRANCH  45  46
ATOM     46  C   UNL A   1      39.912  29.457  29.804  1.00  0.00     0.031 A 
ATOM     47  C   UNL A   1      41.067  30.415  29.684  1.00  0.00     0.074 A 
ATOM     48  C   UNL A   1      40.035  28.192  29.367  1.00  0.00     0.049 A 
ATOM     49  N   UNL A   1      42.240  30.237  29.133  1.00  0.00    -0.248 NA
ATOM     50  C   UNL A   1      40.867  31.755  30.262  1.00  0.00     0.031 C 
ATOM     51  C   UNL A   1      39.012  27.153  29.470  1.00  0.00     0.029 A 
ATOM     52  N   UNL A   1      41.087  27.571  28.739  1.00  0.00    -0.354 N 
ATOM     53  C   UNL A   1      42.912  31.444  29.288  1.00  0.00     0.074 A 
ATOM     54  C   UNL A   1      42.007  32.355  29.953  1.00  0.00     0.031 C 
ATOM     55  C   UNL A   1      39.486  26.022  28.917  1.00  0.00     0.029 A 
ATOM     56  C   UNL A   1      40.827  26.268  28.390  1.00  0.00     0.049 A 
ATOM     57  H   UNL A   1      41.945  28.017  28.557  1.00  0.00     0.167 HD
ATOM     58  C   UNL A   1      44.173  31.766  28.916  1.00  0.00     0.031 A 
ATOM     59  C   UNL A   1      41.579  25.387  27.701  1.00  0.00     0.031 A 
ATOM     60  C   UNL A   1      45.069  30.869  28.239  1.00  0.00     0.049 A 
ATOM     61  C   UNL A   1      42.945  25.798  27.216  1.00  0.00     0.074 A 
ATOM     62  C   UNL A   1      46.371  31.097  27.830  1.00  0.00     0.029 A 
ATOM     63  N   UNL A   1      44.752  29.572  27.865  1.00  0.00    -0.354 N 
ATOM     64  N   UNL A   1      43.580  26.932  27.389  1.00  0.00    -0.248 NA
ATOM     65  C   UNL A   1      43.702  24.800  26.445  1.00  0.00     0.031 C 
ATOM     66  C   UNL A   1      46.819  29.961  27.148  1.00  0.00     0.029 A 
ATOM     67  C   UNL A   1      45.822  28.999  27.200  1.00  0.00     0.049 A 
ATOM     68  H   UNL A   1      43.893  29.126  28.045  1.00  0.00     0.167 HD
ATOM     69  C   UNL A   1      44.820  26.772  26.782  1.00  0.00     0.074 A 
ATOM     70  C   UNL A   1      44.854  25.426  26.249  1.00  0.00     0.031 C 
ATOM     71  C   UNL A   1      45.843  27.657  26.678  1.00  0.00     0.031 A 
BRANCH  58  72
ATOM     72  C   UNL A   1      44.640  33.168  29.199  1.00  0.00    -0.014 A 
ATOM     73  C   UNL A   1      45.502  33.452  30.271  1.00  0.00     0.009 A 
ATOM     74  C   UNL A   1      44.230  34.218  28.363  1.00  0.00     0.009 A 
ATOM     75  C   UNL A   1      45.912  34.763  30.521  1.00  0.00     0.001 A 
ATOM     76  C   UNL A   1      44.667  35.523  28.595  1.00  0.00     0.001 A 
ATOM     77  C   UNL A   1      45.500  35.796  29.679  1.00  0.00     0.000 A 
ENDBRANCH  58  72
BRANCH  59  78
ATOM     78  C   UNL A   1      41.053  24.026  27.402  1.00  0.00    -0.014 A 
ATOM     79  C   UNL A   1      39.997  23.849  26.495  1.00  0.00     0.009 A 
ATOM     80  C   UNL A   1      41.584  22.900  28.050  1.00  0.00     0.009 A 
ATOM     81  C   UNL A   1      39.463  22.577  26.268  1.00  0.00     0.001 A 
ATOM     82  C   UNL A   1      41.071  21.626  27.797  1.00  0.00     0.001 A 
ATOM     83  C   UNL A   1      40.004  21.467  26.915  1.00  0.00     0.000 A 
ENDBRANCH  59  78
BRANCH  71  84
ATOM     84  C   UNL A   1      47.105  27.186  26.005  1.00  0.00    -0.014 A 
ATOM     85  C   UNL A   1      47.360  27.454  24.651  1.00  0.00     0.009 A 
ATOM     86  C   UNL A   1      48.076  26.505  26.756  1.00  0.00     0.009 A 
ATOM     87  C   UNL A   1      48.547  27.016  24.057  1.00  0.00     0.001 A 
ATOM     88  C   UNL A   1      49.275  26.099  26.168  1.00  0.00     0.001 A 
ATOM     89  C   UNL A   1      49.504  26.346  24.817  1.00  0.00     0.000 A 
ENDBRANCH  71  84
ENDBRANCH  45  46
ENDBRANCH  38  40
ENDBRANCH  37  38
ENDBRANCH  36  37
ENDBRANCH  35  36
ENDBRANCH  34  35
ENDBRANCH  33  34
ENDBRANCH  32  33
ENDBRANCH  31  32
ENDBRANCH   1  31
TORSDOF 24
ENDMDL
MODEL 2
REMARK VINA RESULT:      -8.6      3.401      3.940
REMARK SMILES NS(=O)(=O)c1ccc(N2N=C(C(=O)OCCOCCOCCOCCOC(=O)c3ccc(-c4c5nc(c(-c6ccccc6)c6ccc([nH]6)c(-c6ccccc6)c6nc(c(-c7ccccc7)c7ccc4[nH]7)C=C6)C=C5)cc3)C[C@H]2c2ccco2)cc1
REMARK SMILES IDX 19 1 18 2 17 3 16 4 15 5 14 6 12 7 13 8 11 9 9 10 10 11
REMARK SMILES IDX 78 12 77 13 8 14 5 15 6 16 85 17 7 18 84 19 2 20 3 21 4 22
REMARK SMILES IDX 1 23 79 26 80 27 83 28 81 29 82 30 20 31 21 32 22 33 23 34
REMARK SMILES IDX 24 35 25 36 26 37 27 38 28 39 29 40 30 41 76 42 31 43 75 44
REMARK SMILES IDX 32 45 33 46 34 47 69 48 35 49 74 50 68 51 70 52 36 53 73 54
REMARK SMILES IDX 67 55 66 56 37 58 59 59 44 60 58 61 45 62 48 63 57 64 71 65
REMARK SMILES IDX 46 66 47 67 56 69 72 70 49 71 38 72 39 73 43 74 40 75 42 76
REMARK SMILES IDX 41 77 60 78 61 79 65 80 62 81 64 82 63 83 50 84 51 85 55 86
REMARK SMILES IDX 52 87 54 88 53 89
REMARK H PARENT 1 24 1 25 70 57 48 68
REMARK Flexibility Score: inf
ROOT
ATOM      1  C   UNL A   1      33.096  35.915  29.019  1.00  0.00     0.188 C 
ENDROOT
BRANCH   1   2
ATOM      2  C   UNL A   1      34.360  35.370  28.330  1.00  0.00     0.188 C 
BRANCH   2   3
ATOM      3  O   UNL A   1      34.098  34.212  27.553  1.00  0.00    -0.376 OA
BRANCH   3   4
ATOM      4  C   UNL A   1      34.785  33.004  27.823  1.00  0.00     0.202 C 
BRANCH   4   5
ATOM      5  C   UNL A   1      34.040  31.710  28.201  1.00  0.00     0.261 C 
BRANCH   5   6
ATOM      6  O   UNL A   1      33.707  30.841  27.119  1.00  0.00    -0.459 OA
BRANCH   6   7
ATOM      7  C   UNL A   1      34.416  29.709  26.982  1.00  0.00     0.354 C 
ATOM      8  O   UNL A   1      35.610  29.552  27.135  1.00  0.00    -0.245 OA
BRANCH   7   9
ATOM      9  C   UNL A   1      33.429  28.590  26.760  1.00  0.00     0.148 C 
ATOM     10  N   UNL A   1      32.638  26.642  26.467  1.00  0.00    -0.254 N 
ATOM     11  N   UNL A   1      33.800  27.356  26.591  1.00  0.00    -0.169 NA
ATOM     12  C   UNL A   1      31.478  27.526  26.215  1.00  0.00     0.180 C 
ATOM     13  C   UNL A   1      31.955  28.830  26.870  1.00  0.00     0.101 C 
BRANCH  10  14
ATOM     14  C   UNL A   1      32.723  25.344  25.977  1.00  0.00     0.060 A 
ATOM     15  C   UNL A   1      32.851  22.723  24.974  1.00  0.00     0.082 A 
ATOM     16  C   UNL A   1      32.009  23.013  26.050  1.00  0.00     0.024 A 
ATOM     17  C   UNL A   1      33.666  23.714  24.428  1.00  0.00     0.024 A 
ATOM     18  C   UNL A   1      31.943  24.324  26.538  1.00  0.00     0.029 A 
ATOM     19  C   UNL A   1      33.611  25.009  24.945  1.00  0.00     0.029 A 
BRANCH  15  20
ATOM     20  S   UNL A   1      32.939  21.077  24.336  1.00  0.00     0.238 S 
ATOM     21  O   UNL A   1      34.244  20.520  24.619  1.00  0.00    -0.207 OA
ATOM     22  O   UNL A   1      32.349  21.037  23.020  1.00  0.00    -0.207 OA
BRANCH  20  23
ATOM     23  N   UNL A   1      31.866  20.260  25.340  1.00  0.00    -0.225 NA
ATOM     24  H   UNL A   1      31.708  20.808  26.185  1.00  0.00     0.137 HD
ATOM     25  H   UNL A   1      32.259  19.354  25.591  1.00  0.00     0.137 HD
ENDBRANCH  20  23
ENDBRANCH  15  20
ENDBRANCH  10  14
BRANCH  12  26
ATOM     26  C   UNL A   1      31.089  27.750  24.776  1.00  0.00     0.128 A 
ATOM     27  C   UNL A   1      30.463  26.958  23.834  1.00  0.00     0.048 A 
ATOM     28  O   UNL A   1      31.406  28.957  24.215  1.00  0.00    -0.467 OA
ATOM     29  C   UNL A   1      30.427  27.708  22.633  1.00  0.00     0.042 A 
ATOM     30  C   UNL A   1      30.998  28.924  22.924  1.00  0.00     0.195 A 
ENDBRANCH  12  26
ENDBRANCH   7   9
ENDBRANCH   6   7
ENDBRANCH   5   6
ENDBRANCH   4   5
ENDBRANCH   3   4
ENDBRANCH   2   3
ENDBRANCH   1   2
BRANCH   1  31
ATOM     31  O   UNL A   1      32.684  35.193  30.172  1.00  0.00    -0.377 OA
BRANCH  31  32
ATOM     32  C   UNL A   1      32.609  35.878  31.426  1.00  0.00     0.188 C 
BRANCH  32  33
ATOM     33  C   UNL A   1      33.172  35.293  32.746  1.00  0.00     0.188 C 
BRANCH  33  34
ATOM     34  O   UNL A   1      34.578  35.106  32.762  1.00  0.00    -0.376 OA
BRANCH  34  35
ATOM     35  C   UNL A   1      35.175  34.594  33.941  1.00  0.00     0.202 C 
BRANCH  35  36
ATOM     36  C   UNL A   1      36.224  33.492  33.750  1.00  0.00     0.261 C 
BRANCH  36  37
ATOM     37  O   UNL A   1      35.870  32.445  32.833  1.00  0.00    -0.460 OA
BRANCH  37  38
ATOM     38  C   UNL A   1      36.272  32.588  31.551  1.00  0.00     0.338 C 
ATOM     39  O   UNL A   1      35.866  33.392  30.734  1.00  0.00    -0.246 OA
BRANCH  38  40
ATOM     40  C   UNL A   1      37.436  31.702  31.347  1.00  0.00     0.060 A 
ATOM     41  C   UNL A   1      37.467  30.458  31.991  1.00  0.00     0.016 A 
ATOM     42  C   UNL A   1      38.493  32.104  30.528  1.00  0.00     0.016 A 
ATOM     43  C   UNL A   1      38.583  29.631  31.854  1.00  0.00     0.010 A 
ATOM     44  C   UNL A   1      39.616  31.282  30.405  1.00  0.00     0.010 A 
ATOM     45  C   UNL A   1      39.682  30.060  31.100  1.00  0.00    -0.014 A 
BRANCH  45  46
ATOM     46  C   UNL A   1      40.977  29.345  31.209  1.00  0.00     0.031 A 
ATOM     47  C   UNL A   1      41.886  29.692  32.358  1.00  0.00     0.074 A 
ATOM     48  C   UNL A   1      41.336  28.397  30.326  1.00  0.00     0.049 A 
ATOM     49  N   UNL A   1      43.082  29.243  32.636  1.00  0.00    -0.248 NA
ATOM     50  C   UNL A   1      41.374  30.684  33.319  1.00  0.00     0.031 C 
ATOM     51  C   UNL A   1      40.528  27.933  29.201  1.00  0.00     0.029 A 
ATOM     52  N   UNL A   1      42.491  27.659  30.241  1.00  0.00    -0.354 N 
ATOM     53  C   UNL A   1      43.470  29.905  33.795  1.00  0.00     0.074 A 
ATOM     54  C   UNL A   1      42.398  30.809  34.149  1.00  0.00     0.031 C 
ATOM     55  C   UNL A   1      41.216  26.989  28.533  1.00  0.00     0.029 A 
ATOM     56  C   UNL A   1      42.524  26.812  29.160  1.00  0.00     0.049 A 
ATOM     57  H   UNL A   1      43.225  27.730  30.893  1.00  0.00     0.167 HD
ATOM     58  C   UNL A   1      44.613  29.769  34.508  1.00  0.00     0.031 A 
ATOM     59  C   UNL A   1      43.509  26.006  28.717  1.00  0.00     0.031 A 
ATOM     60  C   UNL A   1      45.687  28.884  34.149  1.00  0.00     0.049 A 
ATOM     61  C   UNL A   1      44.809  25.940  29.476  1.00  0.00     0.074 A 
ATOM     62  C   UNL A   1      46.882  28.666  34.811  1.00  0.00     0.029 A 
ATOM     63  N   UNL A   1      45.699  28.075  33.023  1.00  0.00    -0.354 N 
ATOM     64  N   UNL A   1      45.156  26.550  30.584  1.00  0.00    -0.248 NA
ATOM     65  C   UNL A   1      45.855  25.064  28.924  1.00  0.00     0.031 C 
ATOM     66  C   UNL A   1      47.646  27.775  34.051  1.00  0.00     0.029 A 
ATOM     67  C   UNL A   1      46.895  27.381  32.955  1.00  0.00     0.049 A 
ATOM     68  H   UNL A   1      44.966  28.006  32.369  1.00  0.00     0.167 HD
ATOM     69  C   UNL A   1      46.440  26.106  30.879  1.00  0.00     0.074 A 
ATOM     70  C   UNL A   1      46.806  25.164  29.842  1.00  0.00     0.031 C 
ATOM     71  C   UNL A   1      47.244  26.444  31.918  1.00  0.00     0.031 A 
BRANCH  58  72
ATOM     72  C   UNL A   1      44.773  30.633  35.728  1.00  0.00    -0.014 A 
ATOM     73  C   UNL A   1      44.266  30.242  36.977  1.00  0.00     0.009 A 
ATOM     74  C   UNL A   1      45.467  31.850  35.630  1.00  0.00     0.009 A 
ATOM     75  C   UNL A   1      44.417  31.067  38.093  1.00  0.00     0.001 A 
ATOM     76  C   UNL A   1      45.645  32.659  36.753  1.00  0.00     0.001 A 
ATOM     77  C   UNL A   1      45.111  32.271  37.982  1.00  0.00     0.000 A 
ENDBRANCH  58  72
BRANCH  59  78
ATOM     78  C   UNL A   1      43.322  25.206  27.476  1.00  0.00    -0.014 A 
ATOM     79  C   UNL A   1      42.744  23.928  27.526  1.00  0.00     0.009 A 
ATOM     80  C   UNL A   1      43.755  25.704  26.237  1.00  0.00     0.009 A 
ATOM     81  C   UNL A   1      42.631  23.155  26.367  1.00  0.00     0.001 A 
ATOM     82  C   UNL A   1      43.612  24.942  25.075  1.00  0.00     0.001 A 
ATOM     83  C   UNL A   1      43.061  23.665  25.142  1.00  0.00     0.000 A 
ENDBRANCH  59  78
BRANCH  71  84
ATOM     84  C   UNL A   1      48.580  25.757  32.015  1.00  0.00    -0.014 A 
ATOM     85  C   UNL A   1      49.614  26.026  31.105  1.00  0.00     0.009 A 
ATOM     86  C   UNL A   1      48.821  24.861  33.069  1.00  0.00     0.009 A 
ATOM     87  C   UNL A   1      50.848  25.383  31.229  1.00  0.00     0.001 A 
ATOM     88  C   UNL A   1      50.066  24.246  33.210  1.00  0.00     0.001 A 
ATOM     89  C   UNL A   1      51.075  24.500  32.284  1.00  0.00     0.000 A 
ENDBRANCH  71  84
ENDBRANCH  45  46
ENDBRANCH  38  40
ENDBRANCH  37  38
ENDBRANCH  36  37
ENDBRANCH  35  36
ENDBRANCH  34  35
ENDBRANCH  33  34
ENDBRANCH  32  33
ENDBRANCH  31  32
ENDBRANCH   1  31
TORSDOF 24
ENDMDL
MODEL 3
REMARK VINA RESULT:      -8.0      4.824     10.671
REMARK SMILES NS(=O)(=O)c1ccc(N2N=C(C(=O)OCCOCCOCCOCCOC(=O)c3ccc(-c4c5nc(c(-c6ccccc6)c6ccc([nH]6)c(-c6ccccc6)c6nc(c(-c7ccccc7)c7ccc4[nH]7)C=C6)C=C5)cc3)C[C@H]2c2ccco2)cc1
REMARK SMILES IDX 19 1 18 2 17 3 16 4 15 5 14 6 12 7 13 8 11 9 9 10 10 11
REMARK SMILES IDX 78 12 77 13 8 14 5 15 6 16 85 17 7 18 84 19 2 20 3 21 4 22
REMARK SMILES IDX 1 23 79 26 80 27 83 28 81 29 82 30 20 31 21 32 22 33 23 34
REMARK SMILES IDX 24 35 25 36 26 37 27 38 28 39 29 40 30 41 76 42 31 43 75 44
REMARK SMILES IDX 32 45 33 46 34 47 69 48 35 49 74 50 68 51 70 52 36 53 73 54
REMARK SMILES IDX 67 55 66 56 37 58 59 59 44 60 58 61 45 62 48 63 57 64 71 65
REMARK SMILES IDX 46 66 47 67 56 69 72 70 49 71 38 72 39 73 43 74 40 75 42 76
REMARK SMILES IDX 41 77 60 78 61 79 65 80 62 81 64 82 63 83 50 84 51 85 55 86
REMARK SMILES IDX 52 87 54 88 53 89
REMARK H PARENT 1 24 1 25 70 57 48 68
REMARK Flexibility Score: inf
ROOT
ATOM      1  C   UNL A   1      42.314  28.816  30.230  1.00  0.00     0.188 C 
ENDROOT
BRANCH   1   2
ATOM      2  C   UNL A   1      42.224  29.011  31.755  1.00  0.00     0.188 C 
BRANCH   2   3
ATOM      3  O   UNL A   1      41.541  27.947  32.398  1.00  0.00    -0.376 OA
BRANCH   3   4
ATOM      4  C   UNL A   1      40.282  28.174  33.004  1.00  0.00     0.202 C 
BRANCH   4   5
ATOM      5  C   UNL A   1      38.961  27.956  32.243  1.00  0.00     0.261 C 
BRANCH   5   6
ATOM      6  O   UNL A   1      38.532  29.034  31.412  1.00  0.00    -0.459 OA
BRANCH   6   7
ATOM      7  C   UNL A   1      38.145  28.746  30.159  1.00  0.00     0.354 C 
ATOM      8  O   UNL A   1      38.211  27.679  29.584  1.00  0.00    -0.245 OA
BRANCH   7   9
ATOM      9  C   UNL A   1      37.440  29.965  29.619  1.00  0.00     0.148 C 
ATOM     10  N   UNL A   1      36.453  31.842  29.545  1.00  0.00    -0.254 N 
ATOM     11  N   UNL A   1      36.973  30.900  30.390  1.00  0.00    -0.169 NA
ATOM     12  C   UNL A   1      36.289  31.314  28.171  1.00  0.00     0.180 C 
ATOM     13  C   UNL A   1      37.374  30.227  28.146  1.00  0.00     0.101 C 
BRANCH  10  14
ATOM     14  C   UNL A   1      35.617  32.812  30.087  1.00  0.00     0.060 A 
ATOM     15  C   UNL A   1      33.962  34.783  31.213  1.00  0.00     0.082 A 
ATOM     16  C   UNL A   1      34.399  33.714  31.999  1.00  0.00     0.024 A 
ATOM     17  C   UNL A   1      34.300  34.852  29.862  1.00  0.00     0.024 A 
ATOM     18  C   UNL A   1      35.232  32.740  31.434  1.00  0.00     0.029 A 
ATOM     19  C   UNL A   1      35.106  33.857  29.306  1.00  0.00     0.029 A 
BRANCH  15  20
ATOM     20  S   UNL A   1      32.921  36.029  31.912  1.00  0.00     0.238 S 
ATOM     21  O   UNL A   1      32.274  36.766  30.849  1.00  0.00    -0.207 OA
ATOM     22  O   UNL A   1      33.611  36.681  32.998  1.00  0.00    -0.207 OA
BRANCH  20  23
ATOM     23  N   UNL A   1      31.713  35.106  32.629  1.00  0.00    -0.225 NA
ATOM     24  H   UNL A   1      31.723  34.167  32.232  1.00  0.00     0.137 HD
ATOM     25  H   UNL A   1      30.806  35.540  32.455  1.00  0.00     0.137 HD
ENDBRANCH  20  23
ENDBRANCH  15  20
ENDBRANCH  10  14
BRANCH  12  26
ATOM     26  C   UNL A   1      34.940  30.745  27.814  1.00  0.00     0.128 A 
ATOM     27  C   UNL A   1      33.698  31.317  27.618  1.00  0.00     0.048 A 
ATOM     28  O   UNL A   1      34.846  29.390  27.651  1.00  0.00    -0.467 OA
ATOM     29  C   UNL A   1      32.800  30.253  27.356  1.00  0.00     0.042 A 
ATOM     30  C   UNL A   1      33.553  29.103  27.369  1.00  0.00     0.195 A 
ENDBRANCH  12  26
ENDBRANCH   7   9
ENDBRANCH   6   7
ENDBRANCH   5   6
ENDBRANCH   4   5
ENDBRANCH   3   4
ENDBRANCH   2   3
ENDBRANCH   1   2
BRANCH   1  31
ATOM     31  O   UNL A   1      41.351  27.926  29.683  1.00  0.00    -0.377 OA
BRANCH  31  32
ATOM     32  C   UNL A   1      41.601  27.339  28.402  1.00  0.00     0.188 C 
BRANCH  32  33
ATOM     33  C   UNL A   1      42.815  26.419  28.115  1.00  0.00     0.188 C 
BRANCH  33  34
ATOM     34  O   UNL A   1      42.703  25.106  28.638  1.00  0.00    -0.376 OA
BRANCH  34  35
ATOM     35  C   UNL A   1      42.096  24.110  27.832  1.00  0.00     0.202 C 
BRANCH  35  36
ATOM     36  C   UNL A   1      43.040  23.095  27.176  1.00  0.00     0.261 C 
BRANCH  36  37
ATOM     37  O   UNL A   1      44.313  22.921  27.817  1.00  0.00    -0.460 OA
BRANCH  37  38
ATOM     38  C   UNL A   1      45.412  23.016  27.038  1.00  0.00     0.338 C 
ATOM     39  O   UNL A   1      45.941  22.130  26.394  1.00  0.00    -0.246 OA
BRANCH  38  40
ATOM     40  C   UNL A   1      45.779  24.444  26.955  1.00  0.00     0.060 A 
ATOM     41  C   UNL A   1      45.538  25.140  25.763  1.00  0.00     0.016 A 
ATOM     42  C   UNL A   1      46.364  25.087  28.047  1.00  0.00     0.016 A 
ATOM     43  C   UNL A   1      45.928  26.476  25.647  1.00  0.00     0.010 A 
ATOM     44  C   UNL A   1      46.768  26.419  27.924  1.00  0.00     0.010 A 
ATOM     45  C   UNL A   1      46.588  27.106  26.709  1.00  0.00    -0.014 A 
BRANCH  45  46
ATOM     46  C   UNL A   1      47.281  28.399  26.486  1.00  0.00     0.031 A 
ATOM     47  C   UNL A   1      48.759  28.373  26.202  1.00  0.00     0.074 A 
ATOM     48  C   UNL A   1      46.619  29.569  26.515  1.00  0.00     0.049 A 
ATOM     49  N   UNL A   1      49.589  29.368  26.024  1.00  0.00    -0.248 NA
ATOM     50  C   UNL A   1      49.383  27.042  26.111  1.00  0.00     0.031 C 
ATOM     51  C   UNL A   1      45.182  29.728  26.729  1.00  0.00     0.029 A 
ATOM     52  N   UNL A   1      47.084  30.852  26.368  1.00  0.00    -0.354 N 
ATOM     53  C   UNL A   1      50.832  28.785  25.811  1.00  0.00     0.074 A 
ATOM     54  C   UNL A   1      50.655  27.353  25.915  1.00  0.00     0.031 C 
ATOM     55  C   UNL A   1      44.883  31.039  26.704  1.00  0.00     0.029 A 
ATOM     56  C   UNL A   1      46.110  31.810  26.512  1.00  0.00     0.049 A 
ATOM     57  H   UNL A   1      48.026  31.066  26.177  1.00  0.00     0.167 HD
ATOM     58  C   UNL A   1      52.016  29.384  25.545  1.00  0.00     0.031 A 
ATOM     59  C   UNL A   1      46.206  33.154  26.511  1.00  0.00     0.031 A 
ATOM     60  C   UNL A   1      52.199  30.807  25.458  1.00  0.00     0.049 A 
ATOM     61  C   UNL A   1      47.551  33.800  26.306  1.00  0.00     0.074 A 
ATOM     62  C   UNL A   1      53.356  31.513  25.183  1.00  0.00     0.029 A 
ATOM     63  N   UNL A   1      51.195  31.743  25.653  1.00  0.00    -0.354 N 
ATOM     64  N   UNL A   1      48.716  33.240  26.081  1.00  0.00    -0.248 NA
ATOM     65  C   UNL A   1      47.593  35.270  26.347  1.00  0.00     0.031 C 
ATOM     66  C   UNL A   1      53.068  32.877  25.278  1.00  0.00     0.029 A 
ATOM     67  C   UNL A   1      51.714  33.021  25.537  1.00  0.00     0.049 A 
ATOM     68  H   UNL A   1      50.253  31.530  25.846  1.00  0.00     0.167 HD
ATOM     69  C   UNL A   1      49.617  34.286  25.919  1.00  0.00     0.074 A 
ATOM     70  C   UNL A   1      48.864  35.514  26.056  1.00  0.00     0.031 C 
ATOM     71  C   UNL A   1      50.951  34.235  25.673  1.00  0.00     0.031 A 
BRANCH  58  72
ATOM     72  C   UNL A   1      53.217  28.495  25.372  1.00  0.00    -0.014 A 
ATOM     73  C   UNL A   1      54.273  28.499  26.297  1.00  0.00     0.009 A 
ATOM     74  C   UNL A   1      53.280  27.620  24.275  1.00  0.00     0.009 A 
ATOM     75  C   UNL A   1      55.383  27.673  26.108  1.00  0.00     0.001 A 
ATOM     76  C   UNL A   1      54.375  26.772  24.105  1.00  0.00     0.001 A 
ATOM     77  C   UNL A   1      55.430  26.807  25.016  1.00  0.00     0.000 A 
ENDBRANCH  58  72
BRANCH  59  78
ATOM     78  C   UNL A   1      44.996  33.992  26.737  1.00  0.00    -0.014 A 
ATOM     79  C   UNL A   1      44.168  34.359  25.665  1.00  0.00     0.009 A 
ATOM     80  C   UNL A   1      44.684  34.459  28.023  1.00  0.00     0.009 A 
ATOM     81  C   UNL A   1      43.072  35.200  25.872  1.00  0.00     0.001 A 
ATOM     82  C   UNL A   1      43.569  35.274  28.233  1.00  0.00     0.001 A 
ATOM     83  C   UNL A   1      42.770  35.653  27.156  1.00  0.00     0.000 A 
ENDBRANCH  59  78
BRANCH  71  84
ATOM     84  C   UNL A   1      51.674  35.542  25.488  1.00  0.00    -0.014 A 
ATOM     85  C   UNL A   1      51.842  36.117  24.219  1.00  0.00     0.009 A 
ATOM     86  C   UNL A   1      52.151  36.233  26.613  1.00  0.00     0.009 A 
ATOM     87  C   UNL A   1      52.507  37.338  24.079  1.00  0.00     0.001 A 
ATOM     88  C   UNL A   1      52.784  37.469  26.474  1.00  0.00     0.001 A 
ATOM     89  C   UNL A   1      52.970  38.016  25.206  1.00  0.00     0.000 A 
ENDBRANCH  71  84
ENDBRANCH  45  46
ENDBRANCH  38  40
ENDBRANCH  37  38
ENDBRANCH  36  37
ENDBRANCH  35  36
ENDBRANCH  34  35
ENDBRANCH  33  34
ENDBRANCH  32  33
ENDBRANCH  31  32
ENDBRANCH   1  31
TORSDOF 24
ENDMDL
