MODEL 1
REMARK VINA RESULT:      -8.8      0.000      0.000
REMARK SMILES CC[NH2+][C@@]1(C(=O)OCCOCCOCCOCCOC(=O)c2ccc(-c3c4nc(c(-c5ccccc5)c5ccc([nH]5)c(-c5ccccc5)c5nc(c(-c6ccccc6)c6ccc3[nH]6)C=C5)C=C4)cc2)CCC[C@H]1CCN1C(=O)CCC1=O
REMARK SMILES IDX 12 1 11 2 10 3 9 4 8 5 7 6 5 7 6 8 4 9 70 10 73 11 71 12
REMARK SMILES IDX 72 13 3 14 2 17 1 18 74 19 75 20 76 21 77 22 81 23 78 24
REMARK SMILES IDX 79 25 80 26 82 27 13 28 14 29 15 30 16 31 17 32 18 33 19 34
REMARK SMILES IDX 20 35 21 36 22 37 23 38 69 39 24 40 68 41 25 42 26 43 27 44
REMARK SMILES IDX 62 45 28 46 67 47 61 48 63 49 29 50 66 51 60 52 59 53 30 55
REMARK SMILES IDX 52 56 37 57 51 58 38 59 41 60 50 61 64 62 39 63 40 64 49 66
REMARK SMILES IDX 65 67 42 68 31 69 32 70 36 71 33 72 35 73 34 74 53 75 54 76
REMARK SMILES IDX 58 77 55 78 57 79 56 80 43 81 44 82 48 83 45 84 47 85 46 86
REMARK H PARENT 3 15 3 16 63 54 41 65
REMARK Flexibility Score: inf
ROOT
ATOM      1  C   UNL A   1      38.022  21.207  25.056  1.00  0.00     0.188 C 
ENDROOT
BRANCH   1   2
ATOM      2  C   UNL A   1      37.326  19.844  25.035  1.00  0.00     0.188 C 
BRANCH   2   3
ATOM      3  O   UNL A   1      35.920  19.950  24.975  1.00  0.00    -0.376 OA
BRANCH   3   4
ATOM      4  C   UNL A   1      35.382  21.256  24.930  1.00  0.00     0.202 C 
BRANCH   4   5
ATOM      5  C   UNL A   1      34.123  21.608  25.756  1.00  0.00     0.261 C 
BRANCH   5   6
ATOM      6  O   UNL A   1      34.033  22.928  26.330  1.00  0.00    -0.459 OA
BRANCH   6   7
ATOM      7  C   UNL A   1      32.787  23.371  26.631  1.00  0.00     0.368 C 
ATOM      8  O   UNL A   1      32.191  23.014  27.647  1.00  0.00    -0.245 OA
BRANCH   7   9
ATOM      9  C   UNL A   1      32.157  24.378  25.562  1.00  0.00     0.197 C 
ATOM     10  C   UNL A   1      33.399  25.054  24.945  1.00  0.00     0.081 C 
ATOM     11  C   UNL A   1      31.354  25.625  26.097  1.00  0.00     0.064 C 
ATOM     12  C   UNL A   1      33.788  26.089  25.995  1.00  0.00     0.008 C 
ATOM     13  C   UNL A   1      32.466  26.624  26.531  1.00  0.00     0.011 C 
BRANCH   9  14
ATOM     14  N   UNL A   1      31.365  23.494  24.698  1.00  0.00    -0.332 N 
ATOM     15  H   UNL A   1      30.535  23.226  25.228  1.00  0.00     0.347 HD
ATOM     16  H   UNL A   1      31.216  24.050  23.856  1.00  0.00     0.347 HD
BRANCH  14  17
ATOM     17  C   UNL A   1      31.955  22.271  24.196  1.00  0.00     0.257 C 
ATOM     18  C   UNL A   1      31.942  22.279  22.668  1.00  0.00     0.071 C 
ENDBRANCH  14  17
ENDBRANCH   9  14
BRANCH  11  19
ATOM     19  C   UNL A   1      30.402  26.409  25.131  1.00  0.00     0.033 C 
BRANCH  19  20
ATOM     20  C   UNL A   1      30.825  27.701  24.412  1.00  0.00     0.129 C 
BRANCH  20  21
ATOM     21  N   UNL A   1      31.763  27.622  23.309  1.00  0.00    -0.283 N 
ATOM     22  C   UNL A   1      32.906  28.365  23.238  1.00  0.00     0.229 C 
ATOM     23  C   UNL A   1      31.778  26.574  22.433  1.00  0.00     0.229 C 
ATOM     24  O   UNL A   1      33.226  29.288  23.972  1.00  0.00    -0.274 OA
ATOM     25  C   UNL A   1      33.775  27.833  22.135  1.00  0.00     0.110 C 
ATOM     26  C   UNL A   1      33.052  26.596  21.647  1.00  0.00     0.110 C 
ATOM     27  O   UNL A   1      30.920  25.710  22.316  1.00  0.00    -0.274 OA
ENDBRANCH  20  21
ENDBRANCH  19  20
ENDBRANCH  11  19
ENDBRANCH   7   9
ENDBRANCH   6   7
ENDBRANCH   5   6
ENDBRANCH   4   5
ENDBRANCH   3   4
ENDBRANCH   2   3
ENDBRANCH   1   2
BRANCH   1  28
ATOM     28  O   UNL A   1      39.159  21.449  25.880  1.00  0.00    -0.377 OA
BRANCH  28  29
ATOM     29  C   UNL A   1      40.088  20.404  26.145  1.00  0.00     0.188 C 
BRANCH  29  30
ATOM     30  C   UNL A   1      41.588  20.736  26.261  1.00  0.00     0.188 C 
BRANCH  30  31
ATOM     31  O   UNL A   1      42.019  21.838  25.486  1.00  0.00    -0.376 OA
BRANCH  31  32
ATOM     32  C   UNL A   1      43.413  22.038  25.314  1.00  0.00     0.202 C 
BRANCH  32  33
ATOM     33  C   UNL A   1      43.912  23.410  24.827  1.00  0.00     0.261 C 
BRANCH  33  34
ATOM     34  O   UNL A   1      44.978  24.003  25.580  1.00  0.00    -0.460 OA
BRANCH  34  35
ATOM     35  C   UNL A   1      45.187  25.324  25.424  1.00  0.00     0.338 C 
ATOM     36  O   UNL A   1      45.833  25.880  24.550  1.00  0.00    -0.246 OA
BRANCH  35  37
ATOM     37  C   UNL A   1      44.311  26.012  26.384  1.00  0.00     0.060 A 
ATOM     38  C   UNL A   1      44.200  27.405  26.308  1.00  0.00     0.016 A 
ATOM     39  C   UNL A   1      43.598  25.285  27.342  1.00  0.00     0.016 A 
ATOM     40  C   UNL A   1      43.408  28.085  27.224  1.00  0.00     0.010 A 
ATOM     41  C   UNL A   1      42.826  25.970  28.279  1.00  0.00     0.010 A 
ATOM     42  C   UNL A   1      42.768  27.374  28.247  1.00  0.00    -0.014 A 
BRANCH  42  43
ATOM     43  C   UNL A   1      42.265  28.136  29.409  1.00  0.00     0.031 A 
ATOM     44  C   UNL A   1      40.894  28.746  29.306  1.00  0.00     0.074 A 
ATOM     45  C   UNL A   1      42.963  28.195  30.554  1.00  0.00     0.049 A 
ATOM     46  N   UNL A   1      40.208  29.401  30.204  1.00  0.00    -0.248 NA
ATOM     47  C   UNL A   1      40.201  28.586  28.015  1.00  0.00     0.031 C 
ATOM     48  C   UNL A   1      44.272  27.584  30.782  1.00  0.00     0.029 A 
ATOM     49  N   UNL A   1      42.652  28.787  31.750  1.00  0.00    -0.354 N 
ATOM     50  C   UNL A   1      39.007  29.734  29.586  1.00  0.00     0.074 A 
ATOM     51  C   UNL A   1      39.072  29.242  28.229  1.00  0.00     0.031 C 
ATOM     52  C   UNL A   1      44.650  27.830  32.048  1.00  0.00     0.029 A 
ATOM     53  C   UNL A   1      43.625  28.639  32.706  1.00  0.00     0.049 A 
ATOM     54  H   UNL A   1      41.810  29.273  31.909  1.00  0.00     0.167 HD
ATOM     55  C   UNL A   1      37.942  30.384  30.108  1.00  0.00     0.031 A 
ATOM     56  C   UNL A   1      43.682  29.115  33.963  1.00  0.00     0.031 A 
ATOM     57  C   UNL A   1      37.894  30.887  31.453  1.00  0.00     0.049 A 
ATOM     58  C   UNL A   1      42.517  29.913  34.492  1.00  0.00     0.074 A 
ATOM     59  C   UNL A   1      36.867  31.564  32.085  1.00  0.00     0.029 A 
ATOM     60  N   UNL A   1      38.928  30.776  32.371  1.00  0.00    -0.354 N 
ATOM     61  N   UNL A   1      41.381  30.208  33.907  1.00  0.00    -0.248 NA
ATOM     62  C   UNL A   1      42.642  30.432  35.861  1.00  0.00     0.031 C 
ATOM     63  C   UNL A   1      37.305  31.920  33.364  1.00  0.00     0.029 A 
ATOM     64  C   UNL A   1      38.576  31.398  33.555  1.00  0.00     0.049 A 
ATOM     65  H   UNL A   1      39.785  30.321  32.204  1.00  0.00     0.167 HD
ATOM     66  C   UNL A   1      40.643  30.920  34.846  1.00  0.00     0.074 A 
ATOM     67  C   UNL A   1      41.455  30.990  36.044  1.00  0.00     0.031 C 
ATOM     68  C   UNL A   1      39.405  31.463  34.732  1.00  0.00     0.031 A 
BRANCH  55  69
ATOM     69  C   UNL A   1      36.770  30.630  29.197  1.00  0.00    -0.014 A 
ATOM     70  C   UNL A   1      35.861  29.609  28.874  1.00  0.00     0.009 A 
ATOM     71  C   UNL A   1      36.566  31.912  28.663  1.00  0.00     0.009 A 
ATOM     72  C   UNL A   1      34.796  29.859  28.005  1.00  0.00     0.001 A 
ATOM     73  C   UNL A   1      35.482  32.167  27.822  1.00  0.00     0.001 A 
ATOM     74  C   UNL A   1      34.604  31.139  27.485  1.00  0.00     0.000 A 
ENDBRANCH  55  69
BRANCH  56  75
ATOM     75  C   UNL A   1      44.884  28.872  34.804  1.00  0.00    -0.014 A 
ATOM     76  C   UNL A   1      45.985  29.741  34.764  1.00  0.00     0.009 A 
ATOM     77  C   UNL A   1      44.945  27.744  35.639  1.00  0.00     0.009 A 
ATOM     78  C   UNL A   1      47.129  29.472  35.519  1.00  0.00     0.001 A 
ATOM     79  C   UNL A   1      46.077  27.495  36.418  1.00  0.00     0.001 A 
ATOM     80  C   UNL A   1      47.172  28.352  36.349  1.00  0.00     0.000 A 
ENDBRANCH  56  75
BRANCH  68  81
ATOM     81  C   UNL A   1      38.841  32.146  35.949  1.00  0.00    -0.014 A 
ATOM     82  C   UNL A   1      39.048  33.514  36.187  1.00  0.00     0.009 A 
ATOM     83  C   UNL A   1      38.068  31.407  36.859  1.00  0.00     0.009 A 
ATOM     84  C   UNL A   1      38.533  34.115  37.336  1.00  0.00     0.001 A 
ATOM     85  C   UNL A   1      37.522  32.020  37.987  1.00  0.00     0.001 A 
ATOM     86  C   UNL A   1      37.767  33.370  38.233  1.00  0.00     0.000 A 
ENDBRANCH  68  81
ENDBRANCH  42  43
ENDBRANCH  35  37
ENDBRANCH  34  35
ENDBRANCH  33  34
ENDBRANCH  32  33
ENDBRANCH  31  32
ENDBRANCH  30  31
ENDBRANCH  29  30
ENDBRANCH  28  29
ENDBRANCH   1  28
TORSDOF 25
ENDMDL
MODEL 2
REMARK VINA RESULT:      -8.7      6.555     11.351
REMARK SMILES CC[NH2+][C@@]1(C(=O)OCCOCCOCCOCCOC(=O)c2ccc(-c3c4nc(c(-c5ccccc5)c5ccc([nH]5)c(-c5ccccc5)c5nc(c(-c6ccccc6)c6ccc3[nH]6)C=C5)C=C4)cc2)CCC[C@H]1CCN1C(=O)CCC1=O
REMARK SMILES IDX 12 1 11 2 10 3 9 4 8 5 7 6 5 7 6 8 4 9 70 10 73 11 71 12
REMARK SMILES IDX 72 13 3 14 2 17 1 18 74 19 75 20 76 21 77 22 81 23 78 24
REMARK SMILES IDX 79 25 80 26 82 27 13 28 14 29 15 30 16 31 17 32 18 33 19 34
REMARK SMILES IDX 20 35 21 36 22 37 23 38 69 39 24 40 68 41 25 42 26 43 27 44
REMARK SMILES IDX 62 45 28 46 67 47 61 48 63 49 29 50 66 51 60 52 59 53 30 55
REMARK SMILES IDX 52 56 37 57 51 58 38 59 41 60 50 61 64 62 39 63 40 64 49 66
REMARK SMILES IDX 65 67 42 68 31 69 32 70 36 71 33 72 35 73 34 74 53 75 54 76
REMARK SMILES IDX 58 77 55 78 57 79 56 80 43 81 44 82 48 83 45 84 47 85 46 86
REMARK H PARENT 3 15 3 16 63 54 41 65
REMARK Flexibility Score: inf
ROOT
ATOM      1  C   UNL A   1      38.507  20.987  26.045  1.00  0.00     0.188 C 
ENDROOT
BRANCH   1   2
ATOM      2  C   UNL A   1      38.006  21.936  24.954  1.00  0.00     0.188 C 
BRANCH   2   3
ATOM      3  O   UNL A   1      36.784  21.517  24.385  1.00  0.00    -0.376 OA
BRANCH   3   4
ATOM      4  C   UNL A   1      35.614  21.762  25.140  1.00  0.00     0.202 C 
BRANCH   4   5
ATOM      5  C   UNL A   1      34.220  21.534  24.511  1.00  0.00     0.261 C 
BRANCH   5   6
ATOM      6  O   UNL A   1      33.651  22.594  23.716  1.00  0.00    -0.459 OA
BRANCH   6   7
ATOM      7  C   UNL A   1      32.431  23.047  24.100  1.00  0.00     0.368 C 
ATOM      8  O   UNL A   1      31.550  22.293  24.512  1.00  0.00    -0.245 OA
BRANCH   7   9
ATOM      9  C   UNL A   1      32.230  24.627  23.963  1.00  0.00     0.197 C 
ATOM     10  C   UNL A   1      33.549  25.197  24.526  1.00  0.00     0.081 C 
ATOM     11  C   UNL A   1      31.164  25.324  24.891  1.00  0.00     0.064 C 
ATOM     12  C   UNL A   1      33.352  25.096  26.036  1.00  0.00     0.008 C 
ATOM     13  C   UNL A   1      31.885  25.435  26.267  1.00  0.00     0.011 C 
BRANCH   9  14
ATOM     14  N   UNL A   1      31.970  24.806  22.529  1.00  0.00    -0.332 N 
ATOM     15  H   UNL A   1      31.862  23.874  22.128  1.00  0.00     0.347 HD
ATOM     16  H   UNL A   1      31.153  25.417  22.508  1.00  0.00     0.347 HD
BRANCH  14  17
ATOM     17  C   UNL A   1      32.937  25.506  21.711  1.00  0.00     0.257 C 
ATOM     18  C   UNL A   1      32.430  25.597  20.273  1.00  0.00     0.071 C 
ENDBRANCH  14  17
ENDBRANCH   9  14
BRANCH  11  19
ATOM     19  C   UNL A   1      30.649  26.762  24.540  1.00  0.00     0.033 C 
BRANCH  19  20
ATOM     20  C   UNL A   1      29.432  27.013  23.634  1.00  0.00     0.129 C 
BRANCH  20  21
ATOM     21  N   UNL A   1      29.210  28.344  23.102  1.00  0.00    -0.283 N 
ATOM     22  C   UNL A   1      30.171  29.067  22.457  1.00  0.00     0.229 C 
ATOM     23  C   UNL A   1      27.959  28.849  22.889  1.00  0.00     0.229 C 
ATOM     24  O   UNL A   1      31.359  28.793  22.369  1.00  0.00    -0.274 OA
ATOM     25  C   UNL A   1      29.536  30.254  21.791  1.00  0.00     0.110 C 
ATOM     26  C   UNL A   1      28.052  30.068  22.023  1.00  0.00     0.110 C 
ATOM     27  O   UNL A   1      26.904  28.378  23.291  1.00  0.00    -0.274 OA
ENDBRANCH  20  21
ENDBRANCH  19  20
ENDBRANCH  11  19
ENDBRANCH   7   9
ENDBRANCH   6   7
ENDBRANCH   5   6
ENDBRANCH   4   5
ENDBRANCH   3   4
ENDBRANCH   2   3
ENDBRANCH   1   2
BRANCH   1  28
ATOM     28  O   UNL A   1      39.381  19.903  25.744  1.00  0.00    -0.377 OA
BRANCH  28  29
ATOM     29  C   UNL A   1      40.759  19.973  26.093  1.00  0.00     0.188 C 
BRANCH  29  30
ATOM     30  C   UNL A   1      41.157  20.326  27.539  1.00  0.00     0.188 C 
BRANCH  30  31
ATOM     31  O   UNL A   1      40.726  21.597  27.985  1.00  0.00    -0.376 OA
BRANCH  31  32
ATOM     32  C   UNL A   1      41.513  22.731  27.654  1.00  0.00     0.202 C 
BRANCH  32  33
ATOM     33  C   UNL A   1      41.158  23.537  26.392  1.00  0.00     0.261 C 
BRANCH  33  34
ATOM     34  O   UNL A   1      42.256  24.129  25.685  1.00  0.00    -0.460 OA
BRANCH  34  35
ATOM     35  C   UNL A   1      43.198  23.301  25.196  1.00  0.00     0.338 C 
ATOM     36  O   UNL A   1      43.043  22.177  24.743  1.00  0.00    -0.246 OA
BRANCH  35  37
ATOM     37  C   UNL A   1      44.443  24.078  25.102  1.00  0.00     0.060 A 
ATOM     38  C   UNL A   1      45.641  23.395  24.868  1.00  0.00     0.016 A 
ATOM     39  C   UNL A   1      44.422  25.470  25.231  1.00  0.00     0.016 A 
ATOM     40  C   UNL A   1      46.837  24.099  24.809  1.00  0.00     0.010 A 
ATOM     41  C   UNL A   1      45.626  26.173  25.202  1.00  0.00     0.010 A 
ATOM     42  C   UNL A   1      46.838  25.480  25.035  1.00  0.00    -0.014 A 
BRANCH  42  43
ATOM     43  C   UNL A   1      48.128  26.130  25.350  1.00  0.00     0.031 A 
ATOM     44  C   UNL A   1      48.655  25.995  26.753  1.00  0.00     0.074 A 
ATOM     45  C   UNL A   1      48.853  26.731  24.394  1.00  0.00     0.049 A 
ATOM     46  N   UNL A   1      49.784  26.416  27.259  1.00  0.00    -0.248 NA
ATOM     47  C   UNL A   1      47.793  25.281  27.711  1.00  0.00     0.031 C 
ATOM     48  C   UNL A   1      48.466  26.859  22.990  1.00  0.00     0.029 A 
ATOM     49  N   UNL A   1      50.084  27.330  24.463  1.00  0.00    -0.354 N 
ATOM     50  C   UNL A   1      49.764  26.021  28.592  1.00  0.00     0.074 A 
ATOM     51  C   UNL A   1      48.500  25.361  28.826  1.00  0.00     0.031 C 
ATOM     52  C   UNL A   1      49.446  27.496  22.327  1.00  0.00     0.029 A 
ATOM     53  C   UNL A   1      50.512  27.844  23.264  1.00  0.00     0.049 A 
ATOM     54  H   UNL A   1      50.610  27.387  25.293  1.00  0.00     0.167 HD
ATOM     55  C   UNL A   1      50.721  26.187  29.534  1.00  0.00     0.031 A 
ATOM     56  C   UNL A   1      51.633  28.527  22.968  1.00  0.00     0.031 A 
ATOM     57  C   UNL A   1      51.967  26.862  29.297  1.00  0.00     0.049 A 
ATOM     58  C   UNL A   1      52.643  28.775  24.059  1.00  0.00     0.074 A 
ATOM     59  C   UNL A   1      53.007  27.089  30.180  1.00  0.00     0.029 A 
ATOM     60  N   UNL A   1      52.336  27.428  28.086  1.00  0.00    -0.354 N 
ATOM     61  N   UNL A   1      52.625  28.384  25.311  1.00  0.00    -0.248 NA
ATOM     62  C   UNL A   1      53.836  29.549  23.688  1.00  0.00     0.031 C 
ATOM     63  C   UNL A   1      53.976  27.851  29.521  1.00  0.00     0.029 A 
ATOM     64  C   UNL A   1      53.574  28.032  28.206  1.00  0.00     0.049 A 
ATOM     65  H   UNL A   1      51.796  27.403  27.263  1.00  0.00     0.167 HD
ATOM     66  C   UNL A   1      53.814  28.837  25.869  1.00  0.00     0.074 A 
ATOM     67  C   UNL A   1      54.538  29.512  24.810  1.00  0.00     0.031 C 
ATOM     68  C   UNL A   1      54.272  28.705  27.139  1.00  0.00     0.031 A 
BRANCH  55  69
ATOM     69  C   UNL A   1      50.423  25.673  30.916  1.00  0.00    -0.014 A 
ATOM     70  C   UNL A   1      49.604  26.386  31.808  1.00  0.00     0.009 A 
ATOM     71  C   UNL A   1      50.963  24.444  31.329  1.00  0.00     0.009 A 
ATOM     72  C   UNL A   1      49.366  25.898  33.095  1.00  0.00     0.001 A 
ATOM     73  C   UNL A   1      50.695  23.943  32.603  1.00  0.00     0.001 A 
ATOM     74  C   UNL A   1      49.906  24.674  33.489  1.00  0.00     0.000 A 
ENDBRANCH  55  69
BRANCH  56  75
ATOM     75  C   UNL A   1      51.854  29.043  21.591  1.00  0.00    -0.014 A 
ATOM     76  C   UNL A   1      51.332  30.281  21.188  1.00  0.00     0.009 A 
ATOM     77  C   UNL A   1      52.576  28.280  20.659  1.00  0.00     0.009 A 
ATOM     78  C   UNL A   1      51.502  30.730  19.876  1.00  0.00     0.001 A 
ATOM     79  C   UNL A   1      52.773  28.745  19.357  1.00  0.00     0.001 A 
ATOM     80  C   UNL A   1      52.226  29.964  18.963  1.00  0.00     0.000 A 
ENDBRANCH  56  75
BRANCH  68  81
ATOM     81  C   UNL A   1      55.635  29.269  27.440  1.00  0.00    -0.014 A 
ATOM     82  C   UNL A   1      56.766  28.445  27.543  1.00  0.00     0.009 A 
ATOM     83  C   UNL A   1      55.788  30.656  27.596  1.00  0.00     0.009 A 
ATOM     84  C   UNL A   1      58.013  28.993  27.845  1.00  0.00     0.001 A 
ATOM     85  C   UNL A   1      57.043  31.205  27.860  1.00  0.00     0.001 A 
ATOM     86  C   UNL A   1      58.152  30.373  27.999  1.00  0.00     0.000 A 
ENDBRANCH  68  81
ENDBRANCH  42  43
ENDBRANCH  35  37
ENDBRANCH  34  35
ENDBRANCH  33  34
ENDBRANCH  32  33
ENDBRANCH  31  32
ENDBRANCH  30  31
ENDBRANCH  29  30
ENDBRANCH  28  29
ENDBRANCH   1  28
TORSDOF 25
ENDMDL
MODEL 3
REMARK VINA RESULT:      -8.6      4.800     10.772
REMARK SMILES CC[NH2+][C@@]1(C(=O)OCCOCCOCCOCCOC(=O)c2ccc(-c3c4nc(c(-c5ccccc5)c5ccc([nH]5)c(-c5ccccc5)c5nc(c(-c6ccccc6)c6ccc3[nH]6)C=C5)C=C4)cc2)CCC[C@H]1CCN1C(=O)CCC1=O
REMARK SMILES IDX 12 1 11 2 10 3 9 4 8 5 7 6 5 7 6 8 4 9 70 10 73 11 71 12
REMARK SMILES IDX 72 13 3 14 2 17 1 18 74 19 75 20 76 21 77 22 81 23 78 24
REMARK SMILES IDX 79 25 80 26 82 27 13 28 14 29 15 30 16 31 17 32 18 33 19 34
REMARK SMILES IDX 20 35 21 36 22 37 23 38 69 39 24 40 68 41 25 42 26 43 27 44
REMARK SMILES IDX 62 45 28 46 67 47 61 48 63 49 29 50 66 51 60 52 59 53 30 55
REMARK SMILES IDX 52 56 37 57 51 58 38 59 41 60 50 61 64 62 39 63 40 64 49 66
REMARK SMILES IDX 65 67 42 68 31 69 32 70 36 71 33 72 35 73 34 74 53 75 54 76
REMARK SMILES IDX 58 77 55 78 57 79 56 80 43 81 44 82 48 83 45 84 47 85 46 86
REMARK H PARENT 3 15 3 16 63 54 41 65
REMARK Flexibility Score: inf
ROOT
ATOM      1  C   UNL A   1      34.998  31.761  28.863  1.00  0.00     0.188 C 
ENDROOT
BRANCH   1   2
ATOM      2  C   UNL A   1      35.808  30.801  27.987  1.00  0.00     0.188 C 
BRANCH   2   3
ATOM      3  O   UNL A   1      36.755  30.058  28.723  1.00  0.00    -0.376 OA
BRANCH   3   4
ATOM      4  C   UNL A   1      38.110  30.201  28.344  1.00  0.00     0.202 C 
BRANCH   4   5
ATOM      5  C   UNL A   1      39.211  29.398  29.074  1.00  0.00     0.261 C 
BRANCH   5   6
ATOM      6  O   UNL A   1      40.242  28.779  28.278  1.00  0.00    -0.459 OA
BRANCH   6   7
ATOM      7  C   UNL A   1      40.580  27.508  28.611  1.00  0.00     0.368 C 
ATOM      8  O   UNL A   1      40.036  26.905  29.534  1.00  0.00    -0.245 OA
BRANCH   7   9
ATOM      9  C   UNL A   1      41.740  26.869  27.717  1.00  0.00     0.197 C 
ATOM     10  C   UNL A   1      41.031  26.579  26.378  1.00  0.00     0.081 C 
ATOM     11  C   UNL A   1      42.275  25.437  28.106  1.00  0.00     0.064 C 
ATOM     12  C   UNL A   1      40.262  25.293  26.664  1.00  0.00     0.008 C 
ATOM     13  C   UNL A   1      41.183  24.472  27.556  1.00  0.00     0.011 C 
BRANCH   9  14
ATOM     14  N   UNL A   1      42.779  27.907  27.726  1.00  0.00    -0.332 N 
ATOM     15  H   UNL A   1      42.467  28.633  28.371  1.00  0.00     0.347 HD
ATOM     16  H   UNL A   1      43.625  27.397  27.978  1.00  0.00     0.347 HD
BRANCH  14  17
ATOM     17  C   UNL A   1      43.136  28.568  26.490  1.00  0.00     0.257 C 
ATOM     18  C   UNL A   1      44.375  27.907  25.888  1.00  0.00     0.071 C 
ENDBRANCH  14  17
ENDBRANCH   9  14
BRANCH  11  19
ATOM     19  C   UNL A   1      43.644  24.936  27.532  1.00  0.00     0.033 C 
BRANCH  19  20
ATOM     20  C   UNL A   1      44.002  23.445  27.415  1.00  0.00     0.129 C 
BRANCH  20  21
ATOM     21  N   UNL A   1      44.555  22.947  26.170  1.00  0.00    -0.283 N 
ATOM     22  C   UNL A   1      43.792  22.609  25.090  1.00  0.00     0.229 C 
ATOM     23  C   UNL A   1      45.872  23.096  25.841  1.00  0.00     0.229 C 
ATOM     24  O   UNL A   1      42.574  22.520  25.052  1.00  0.00    -0.274 OA
ATOM     25  C   UNL A   1      44.682  22.416  23.895  1.00  0.00     0.110 C 
ATOM     26  C   UNL A   1      46.060  22.810  24.383  1.00  0.00     0.110 C 
ATOM     27  O   UNL A   1      46.775  23.450  26.587  1.00  0.00    -0.274 OA
ENDBRANCH  20  21
ENDBRANCH  19  20
ENDBRANCH  11  19
ENDBRANCH   7   9
ENDBRANCH   6   7
ENDBRANCH   5   6
ENDBRANCH   4   5
ENDBRANCH   3   4
ENDBRANCH   2   3
ENDBRANCH   1   2
BRANCH   1  28
ATOM     28  O   UNL A   1      34.871  33.141  28.533  1.00  0.00    -0.377 OA
BRANCH  28  29
ATOM     29  C   UNL A   1      35.011  34.136  29.541  1.00  0.00     0.188 C 
BRANCH  29  30
ATOM     30  C   UNL A   1      34.815  33.750  31.019  1.00  0.00     0.188 C 
BRANCH  30  31
ATOM     31  O   UNL A   1      35.883  34.103  31.877  1.00  0.00    -0.376 OA
BRANCH  31  32
ATOM     32  C   UNL A   1      35.574  34.544  33.190  1.00  0.00     0.202 C 
BRANCH  32  33
ATOM     33  C   UNL A   1      35.625  33.529  34.346  1.00  0.00     0.261 C 
BRANCH  33  34
ATOM     34  O   UNL A   1      36.703  32.584  34.316  1.00  0.00    -0.460 OA
BRANCH  34  35
ATOM     35  C   UNL A   1      37.902  32.997  34.769  1.00  0.00     0.338 C 
ATOM     36  O   UNL A   1      38.129  33.829  35.633  1.00  0.00    -0.246 OA
BRANCH  35  37
ATOM     37  C   UNL A   1      38.911  32.102  34.181  1.00  0.00     0.060 A 
ATOM     38  C   UNL A   1      40.237  32.216  34.613  1.00  0.00     0.016 A 
ATOM     39  C   UNL A   1      38.546  31.153  33.223  1.00  0.00     0.016 A 
ATOM     40  C   UNL A   1      41.217  31.409  34.051  1.00  0.00     0.010 A 
ATOM     41  C   UNL A   1      39.535  30.363  32.638  1.00  0.00     0.010 A 
ATOM     42  C   UNL A   1      40.878  30.524  33.021  1.00  0.00    -0.014 A 
BRANCH  42  43
ATOM     43  C   UNL A   1      41.970  29.976  32.191  1.00  0.00     0.031 A 
ATOM     44  C   UNL A   1      42.504  30.837  31.078  1.00  0.00     0.074 A 
ATOM     45  C   UNL A   1      42.536  28.794  32.481  1.00  0.00     0.049 A 
ATOM     46  N   UNL A   1      43.495  30.611  30.256  1.00  0.00    -0.248 NA
ATOM     47  C   UNL A   1      41.833  32.133  30.873  1.00  0.00     0.031 C 
ATOM     48  C   UNL A   1      42.139  27.910  33.577  1.00  0.00     0.029 A 
ATOM     49  N   UNL A   1      43.585  28.145  31.884  1.00  0.00    -0.354 N 
ATOM     50  C   UNL A   1      43.561  31.732  29.437  1.00  0.00     0.074 A 
ATOM     51  C   UNL A   1      42.492  32.619  29.835  1.00  0.00     0.031 C 
ATOM     52  C   UNL A   1      42.942  26.832  33.576  1.00  0.00     0.029 A 
ATOM     53  C   UNL A   1      43.886  26.938  32.465  1.00  0.00     0.049 A 
ATOM     54  H   UNL A   1      44.076  28.509  31.113  1.00  0.00     0.167 HD
ATOM     55  C   UNL A   1      44.443  32.002  28.446  1.00  0.00     0.031 A 
ATOM     56  C   UNL A   1      44.811  26.021  32.124  1.00  0.00     0.031 A 
ATOM     57  C   UNL A   1      45.491  31.104  28.045  1.00  0.00     0.049 A 
ATOM     58  C   UNL A   1      45.724  26.307  30.959  1.00  0.00     0.074 A 
ATOM     59  C   UNL A   1      46.438  31.274  27.052  1.00  0.00     0.029 A 
ATOM     60  N   UNL A   1      45.721  29.860  28.613  1.00  0.00    -0.354 N 
ATOM     61  N   UNL A   1      45.791  27.376  30.201  1.00  0.00    -0.248 NA
ATOM     62  C   UNL A   1      46.697  25.262  30.614  1.00  0.00     0.031 C 
ATOM     63  C   UNL A   1      47.200  30.104  26.975  1.00  0.00     0.029 A 
ATOM     64  C   UNL A   1      46.776  29.237  27.972  1.00  0.00     0.049 A 
ATOM     65  H   UNL A   1      45.209  29.478  29.362  1.00  0.00     0.167 HD
ATOM     66  C   UNL A   1      46.832  27.146  29.310  1.00  0.00     0.074 A 
ATOM     67  C   UNL A   1      47.379  25.845  29.639  1.00  0.00     0.031 C 
ATOM     68  C   UNL A   1      47.298  27.938  28.312  1.00  0.00     0.031 A 
BRANCH  55  69
ATOM     69  C   UNL A   1      44.268  33.296  27.701  1.00  0.00    -0.014 A 
ATOM     70  C   UNL A   1      43.709  33.335  26.412  1.00  0.00     0.009 A 
ATOM     71  C   UNL A   1      44.657  34.501  28.306  1.00  0.00     0.009 A 
ATOM     72  C   UNL A   1      43.583  34.550  25.733  1.00  0.00     0.001 A 
ATOM     73  C   UNL A   1      44.498  35.716  27.638  1.00  0.00     0.001 A 
ATOM     74  C   UNL A   1      43.971  35.739  26.349  1.00  0.00     0.000 A 
ENDBRANCH  55  69
BRANCH  56  75
ATOM     75  C   UNL A   1      44.911  24.742  32.876  1.00  0.00    -0.014 A 
ATOM     76  C   UNL A   1      43.862  23.810  32.864  1.00  0.00     0.009 A 
ATOM     77  C   UNL A   1      46.058  24.458  33.635  1.00  0.00     0.009 A 
ATOM     78  C   UNL A   1      43.948  22.636  33.618  1.00  0.00     0.001 A 
ATOM     79  C   UNL A   1      46.155  23.269  34.361  1.00  0.00     0.001 A 
ATOM     80  C   UNL A   1      45.096  22.365  34.361  1.00  0.00     0.000 A 
ENDBRANCH  56  75
BRANCH  68  81
ATOM     81  C   UNL A   1      48.482  27.432  27.532  1.00  0.00    -0.014 A 
ATOM     82  C   UNL A   1      48.326  26.590  26.420  1.00  0.00     0.009 A 
ATOM     83  C   UNL A   1      49.776  27.829  27.907  1.00  0.00     0.009 A 
ATOM     84  C   UNL A   1      49.444  26.118  25.730  1.00  0.00     0.001 A 
ATOM     85  C   UNL A   1      50.889  27.386  27.192  1.00  0.00     0.001 A 
ATOM     86  C   UNL A   1      50.724  26.520  26.113  1.00  0.00     0.000 A 
ENDBRANCH  68  81
ENDBRANCH  42  43
ENDBRANCH  35  37
ENDBRANCH  34  35
ENDBRANCH  33  34
ENDBRANCH  32  33
ENDBRANCH  31  32
ENDBRANCH  30  31
ENDBRANCH  29  30
ENDBRANCH  28  29
ENDBRANCH   1  28
TORSDOF 25
ENDMDL
