MODEL 1
REMARK VINA RESULT:      -8.8      0.000      0.000
REMARK SMILES CCC[NH2+][C@]1(C(=O)OCCOCCOCCOCCOC(=O)c2ccc(-c3c4nc(c(-c5ccccc5)c5ccc([nH]5)c(-c5ccccc5)c5nc(c(-c6ccccc6)c6ccc3[nH]6)C=C5)C=C4)cc2)CC[C@H](n2nc(C)c(CC)c2C)C1
REMARK SMILES IDX 13 1 12 2 11 3 10 4 9 5 8 6 6 7 7 8 5 9 71 10 83 11 72 12
REMARK SMILES IDX 73 13 4 14 3 17 2 18 1 19 74 20 75 21 81 22 76 23 78 24
REMARK SMILES IDX 82 25 77 26 79 27 80 28 14 29 15 30 16 31 17 32 18 33 19 34
REMARK SMILES IDX 20 35 21 36 22 37 23 38 24 39 70 40 25 41 69 42 26 43 27 44
REMARK SMILES IDX 28 45 63 46 29 47 68 48 62 49 64 50 30 51 67 52 61 53 60 54
REMARK SMILES IDX 31 56 53 57 38 58 52 59 39 60 42 61 51 62 65 63 40 64 41 65
REMARK SMILES IDX 50 67 66 68 43 69 32 70 33 71 37 72 34 73 36 74 35 75 54 76
REMARK SMILES IDX 55 77 59 78 56 79 58 80 57 81 44 82 45 83 49 84 46 85 48 86
REMARK SMILES IDX 47 87
REMARK H PARENT 4 15 4 16 64 55 42 66
REMARK Flexibility Score: inf
ROOT
ATOM      1  C   UNL A   1      33.524  20.984  24.463  1.00  0.00     0.188 C 
ENDROOT
BRANCH   1   2
ATOM      2  C   UNL A   1      34.255  20.446  25.701  1.00  0.00     0.188 C 
BRANCH   2   3
ATOM      3  O   UNL A   1      33.729  20.619  27.011  1.00  0.00    -0.376 OA
BRANCH   3   4
ATOM      4  C   UNL A   1      33.981  21.818  27.724  1.00  0.00     0.202 C 
BRANCH   4   5
ATOM      5  C   UNL A   1      32.992  22.995  27.607  1.00  0.00     0.261 C 
BRANCH   5   6
ATOM      6  O   UNL A   1      31.907  22.830  26.668  1.00  0.00    -0.459 OA
BRANCH   6   7
ATOM      7  C   UNL A   1      30.941  23.778  26.716  1.00  0.00     0.368 C 
ATOM      8  O   UNL A   1      29.987  23.716  27.493  1.00  0.00    -0.245 OA
BRANCH   7   9
ATOM      9  C   UNL A   1      31.104  24.960  25.721  1.00  0.00     0.196 C 
ATOM     10  C   UNL A   1      32.313  24.779  24.803  1.00  0.00     0.083 C 
ATOM     11  C   UNL A   1      29.980  24.761  24.660  1.00  0.00     0.108 C 
ATOM     12  C   UNL A   1      31.959  25.624  23.572  1.00  0.00     0.034 C 
ATOM     13  C   UNL A   1      30.403  25.587  23.451  1.00  0.00     0.115 C 
BRANCH   9  14
ATOM     14  N   UNL A   1      30.994  26.347  26.266  1.00  0.00    -0.332 N 
ATOM     15  H   UNL A   1      30.841  26.970  25.473  1.00  0.00     0.347 HD
ATOM     16  H   UNL A   1      30.238  26.284  26.946  1.00  0.00     0.347 HD
BRANCH  14  17
ATOM     17  C   UNL A   1      32.116  26.897  27.034  1.00  0.00     0.261 C 
BRANCH  17  18
ATOM     18  C   UNL A   1      32.506  28.310  26.536  1.00  0.00     0.058 C 
ATOM     19  C   UNL A   1      31.419  29.086  25.809  1.00  0.00     0.010 C 
ENDBRANCH  17  18
ENDBRANCH  14  17
ENDBRANCH   9  14
BRANCH  13  20
ATOM     20  N   UNL A   1      29.812  26.906  23.236  1.00  0.00    -0.266 N 
ATOM     21  N   UNL A   1      30.646  27.791  22.645  1.00  0.00    -0.178 NA
ATOM     22  C   UNL A   1      28.552  27.445  23.440  1.00  0.00     0.039 A 
ATOM     23  C   UNL A   1      29.918  28.884  22.432  1.00  0.00     0.063 A 
ATOM     24  C   UNL A   1      28.601  28.737  22.921  1.00  0.00    -0.004 A 
ATOM     25  C   UNL A   1      27.342  26.811  24.035  1.00  0.00     0.066 C 
ATOM     26  C   UNL A   1      30.532  30.044  21.742  1.00  0.00     0.069 C 
BRANCH  24  27
ATOM     27  C   UNL A   1      27.491  29.738  22.861  1.00  0.00     0.036 C 
ATOM     28  C   UNL A   1      27.723  30.924  23.782  1.00  0.00     0.009 C 
ENDBRANCH  24  27
ENDBRANCH  13  20
ENDBRANCH   7   9
ENDBRANCH   6   7
ENDBRANCH   5   6
ENDBRANCH   4   5
ENDBRANCH   3   4
ENDBRANCH   2   3
ENDBRANCH   1   2
BRANCH   1  29
ATOM     29  O   UNL A   1      34.186  22.007  23.747  1.00  0.00    -0.377 OA
BRANCH  29  30
ATOM     30  C   UNL A   1      35.216  22.678  24.446  1.00  0.00     0.188 C 
BRANCH  30  31
ATOM     31  C   UNL A   1      36.639  22.434  23.917  1.00  0.00     0.188 C 
BRANCH  31  32
ATOM     32  O   UNL A   1      37.473  21.768  24.851  1.00  0.00    -0.376 OA
BRANCH  32  33
ATOM     33  C   UNL A   1      37.541  20.353  24.891  1.00  0.00     0.202 C 
BRANCH  33  34
ATOM     34  C   UNL A   1      38.855  19.586  25.144  1.00  0.00     0.261 C 
BRANCH  34  35
ATOM     35  O   UNL A   1      39.695  20.023  26.218  1.00  0.00    -0.460 OA
BRANCH  35  36
ATOM     36  C   UNL A   1      41.024  19.916  26.045  1.00  0.00     0.338 C 
ATOM     37  O   UNL A   1      41.611  19.044  25.417  1.00  0.00    -0.246 OA
BRANCH  36  38
ATOM     38  C   UNL A   1      41.670  21.143  26.559  1.00  0.00     0.060 A 
ATOM     39  C   UNL A   1      41.765  21.300  27.947  1.00  0.00     0.016 A 
ATOM     40  C   UNL A   1      42.158  22.137  25.704  1.00  0.00     0.016 A 
ATOM     41  C   UNL A   1      42.283  22.474  28.487  1.00  0.00     0.010 A 
ATOM     42  C   UNL A   1      42.654  23.331  26.248  1.00  0.00     0.010 A 
ATOM     43  C   UNL A   1      42.669  23.521  27.641  1.00  0.00    -0.014 A 
BRANCH  43  44
ATOM     44  C   UNL A   1      42.852  24.869  28.236  1.00  0.00     0.031 A 
ATOM     45  C   UNL A   1      44.248  25.300  28.606  1.00  0.00     0.074 A 
ATOM     46  C   UNL A   1      41.829  25.734  28.344  1.00  0.00     0.049 A 
ATOM     47  N   UNL A   1      44.668  26.453  29.064  1.00  0.00    -0.248 NA
ATOM     48  C   UNL A   1      45.312  24.300  28.427  1.00  0.00     0.031 C 
ATOM     49  C   UNL A   1      40.445  25.462  27.963  1.00  0.00     0.029 A 
ATOM     50  N   UNL A   1      41.808  27.030  28.796  1.00  0.00    -0.354 N 
ATOM     51  C   UNL A   1      46.041  26.313  29.228  1.00  0.00     0.074 A 
ATOM     52  C   UNL A   1      46.378  24.957  28.857  1.00  0.00     0.031 C 
ATOM     53  C   UNL A   1      39.707  26.563  28.191  1.00  0.00     0.029 A 
ATOM     54  C   UNL A   1      40.561  27.605  28.761  1.00  0.00     0.049 A 
ATOM     55  H   UNL A   1      42.610  27.503  29.115  1.00  0.00     0.167 HD
ATOM     56  C   UNL A   1      46.946  27.233  29.639  1.00  0.00     0.031 A 
ATOM     57  C   UNL A   1      40.155  28.828  29.152  1.00  0.00     0.031 A 
ATOM     58  C   UNL A   1      46.612  28.577  30.027  1.00  0.00     0.049 A 
ATOM     59  C   UNL A   1      41.167  29.805  29.694  1.00  0.00     0.074 A 
ATOM     60  C   UNL A   1      47.457  29.586  30.456  1.00  0.00     0.029 A 
ATOM     61  N   UNL A   1      45.327  29.097  30.042  1.00  0.00    -0.354 N 
ATOM     62  N   UNL A   1      42.466  29.668  29.822  1.00  0.00    -0.248 NA
ATOM     63  C   UNL A   1      40.655  31.111  30.132  1.00  0.00     0.031 C 
ATOM     64  C   UNL A   1      46.675  30.694  30.795  1.00  0.00     0.029 A 
ATOM     65  C   UNL A   1      45.352  30.402  30.505  1.00  0.00     0.049 A 
ATOM     66  H   UNL A   1      44.516  28.611  29.765  1.00  0.00     0.167 HD
ATOM     67  C   UNL A   1      42.928  30.881  30.321  1.00  0.00     0.074 A 
ATOM     68  C   UNL A   1      41.773  31.745  30.454  1.00  0.00     0.031 C 
ATOM     69  C   UNL A   1      44.194  31.250  30.638  1.00  0.00     0.031 A 
BRANCH  56  70
ATOM     70  C   UNL A   1      48.382  26.794  29.736  1.00  0.00    -0.014 A 
ATOM     71  C   UNL A   1      48.893  26.197  30.900  1.00  0.00     0.009 A 
ATOM     72  C   UNL A   1      49.232  26.960  28.631  1.00  0.00     0.009 A 
ATOM     73  C   UNL A   1      50.233  25.810  30.967  1.00  0.00     0.001 A 
ATOM     74  C   UNL A   1      50.563  26.542  28.690  1.00  0.00     0.001 A 
ATOM     75  C   UNL A   1      51.064  25.977  29.860  1.00  0.00     0.000 A 
ENDBRANCH  56  70
BRANCH  57  76
ATOM     76  C   UNL A   1      38.717  29.202  29.070  1.00  0.00    -0.014 A 
ATOM     77  C   UNL A   1      37.870  29.063  30.180  1.00  0.00     0.009 A 
ATOM     78  C   UNL A   1      38.177  29.670  27.862  1.00  0.00     0.009 A 
ATOM     79  C   UNL A   1      36.508  29.357  30.072  1.00  0.00     0.001 A 
ATOM     80  C   UNL A   1      36.822  29.995  27.766  1.00  0.00     0.001 A 
ATOM     81  C   UNL A   1      35.987  29.825  28.868  1.00  0.00     0.000 A 
ENDBRANCH  57  76
BRANCH  69  82
ATOM     82  C   UNL A   1      44.404  32.663  31.116  1.00  0.00    -0.014 A 
ATOM     83  C   UNL A   1      43.773  33.151  32.270  1.00  0.00     0.009 A 
ATOM     84  C   UNL A   1      45.271  33.510  30.408  1.00  0.00     0.009 A 
ATOM     85  C   UNL A   1      43.967  34.474  32.676  1.00  0.00     0.001 A 
ATOM     86  C   UNL A   1      45.492  34.820  30.836  1.00  0.00     0.001 A 
ATOM     87  C   UNL A   1      44.829  35.305  31.962  1.00  0.00     0.000 A 
ENDBRANCH  69  82
ENDBRANCH  43  44
ENDBRANCH  36  38
ENDBRANCH  35  36
ENDBRANCH  34  35
ENDBRANCH  33  34
ENDBRANCH  32  33
ENDBRANCH  31  32
ENDBRANCH  30  31
ENDBRANCH  29  30
ENDBRANCH   1  29
TORSDOF 25
ENDMDL
MODEL 2
REMARK VINA RESULT:      -8.6      3.397      8.859
REMARK SMILES CCC[NH2+][C@]1(C(=O)OCCOCCOCCOCCOC(=O)c2ccc(-c3c4nc(c(-c5ccccc5)c5ccc([nH]5)c(-c5ccccc5)c5nc(c(-c6ccccc6)c6ccc3[nH]6)C=C5)C=C4)cc2)CC[C@H](n2nc(C)c(CC)c2C)C1
REMARK SMILES IDX 13 1 12 2 11 3 10 4 9 5 8 6 6 7 7 8 5 9 71 10 83 11 72 12
REMARK SMILES IDX 73 13 4 14 3 17 2 18 1 19 74 20 75 21 81 22 76 23 78 24
REMARK SMILES IDX 82 25 77 26 79 27 80 28 14 29 15 30 16 31 17 32 18 33 19 34
REMARK SMILES IDX 20 35 21 36 22 37 23 38 24 39 70 40 25 41 69 42 26 43 27 44
REMARK SMILES IDX 28 45 63 46 29 47 68 48 62 49 64 50 30 51 67 52 61 53 60 54
REMARK SMILES IDX 31 56 53 57 38 58 52 59 39 60 42 61 51 62 65 63 40 64 41 65
REMARK SMILES IDX 50 67 66 68 43 69 32 70 33 71 37 72 34 73 36 74 35 75 54 76
REMARK SMILES IDX 55 77 59 78 56 79 58 80 57 81 44 82 45 83 49 84 46 85 48 86
REMARK SMILES IDX 47 87
REMARK H PARENT 4 15 4 16 64 55 42 66
REMARK Flexibility Score: inf
ROOT
ATOM      1  C   UNL A   1      33.139  28.868  23.675  1.00  0.00     0.188 C 
ENDROOT
BRANCH   1   2
ATOM      2  C   UNL A   1      33.842  27.697  24.375  1.00  0.00     0.188 C 
BRANCH   2   3
ATOM      3  O   UNL A   1      33.665  27.445  25.764  1.00  0.00    -0.376 OA
BRANCH   3   4
ATOM      4  C   UNL A   1      32.697  28.174  26.500  1.00  0.00     0.202 C 
BRANCH   4   5
ATOM      5  C   UNL A   1      31.344  27.515  26.837  1.00  0.00     0.261 C 
BRANCH   5   6
ATOM      6  O   UNL A   1      31.254  26.089  26.626  1.00  0.00    -0.459 OA
BRANCH   6   7
ATOM      7  C   UNL A   1      30.796  25.704  25.411  1.00  0.00     0.368 C 
ATOM      8  O   UNL A   1      30.061  26.413  24.722  1.00  0.00    -0.245 OA
BRANCH   7   9
ATOM      9  C   UNL A   1      31.254  24.299  24.931  1.00  0.00     0.196 C 
ATOM     10  C   UNL A   1      30.581  23.890  23.620  1.00  0.00     0.083 C 
ATOM     11  C   UNL A   1      32.702  24.503  24.390  1.00  0.00     0.108 C 
ATOM     12  C   UNL A   1      31.560  22.874  23.017  1.00  0.00     0.034 C 
ATOM     13  C   UNL A   1      32.983  23.299  23.499  1.00  0.00     0.115 C 
BRANCH   9  14
ATOM     14  N   UNL A   1      31.281  23.195  25.937  1.00  0.00    -0.332 N 
ATOM     15  H   UNL A   1      30.326  23.073  26.274  1.00  0.00     0.347 HD
ATOM     16  H   UNL A   1      31.687  22.409  25.430  1.00  0.00     0.347 HD
BRANCH  14  17
ATOM     17  C   UNL A   1      32.139  23.334  27.118  1.00  0.00     0.261 C 
BRANCH  17  18
ATOM     18  C   UNL A   1      32.877  22.013  27.442  1.00  0.00     0.058 C 
ATOM     19  C   UNL A   1      34.310  22.151  27.933  1.00  0.00     0.010 C 
ENDBRANCH  17  18
ENDBRANCH  14  17
ENDBRANCH   9  14
BRANCH  13  20
ATOM     20  N   UNL A   1      33.770  22.184  24.021  1.00  0.00    -0.266 N 
ATOM     21  N   UNL A   1      33.094  21.014  24.078  1.00  0.00    -0.178 NA
ATOM     22  C   UNL A   1      35.090  22.032  24.412  1.00  0.00     0.039 A 
ATOM     23  C   UNL A   1      33.982  20.103  24.467  1.00  0.00     0.063 A 
ATOM     24  C   UNL A   1      35.248  20.680  24.707  1.00  0.00    -0.004 A 
ATOM     25  C   UNL A   1      36.176  23.052  24.475  1.00  0.00     0.066 C 
ATOM     26  C   UNL A   1      33.566  18.685  24.582  1.00  0.00     0.069 C 
BRANCH  24  27
ATOM     27  C   UNL A   1      36.497  19.984  25.147  1.00  0.00     0.036 C 
ATOM     28  C   UNL A   1      37.758  20.712  24.708  1.00  0.00     0.009 C 
ENDBRANCH  24  27
ENDBRANCH  13  20
ENDBRANCH   7   9
ENDBRANCH   6   7
ENDBRANCH   5   6
ENDBRANCH   4   5
ENDBRANCH   3   4
ENDBRANCH   2   3
ENDBRANCH   1   2
BRANCH   1  29
ATOM     29  O   UNL A   1      32.012  28.535  22.889  1.00  0.00    -0.377 OA
BRANCH  29  30
ATOM     30  C   UNL A   1      30.994  29.515  22.828  1.00  0.00     0.188 C 
BRANCH  30  31
ATOM     31  C   UNL A   1      30.223  29.745  24.139  1.00  0.00     0.188 C 
BRANCH  31  32
ATOM     32  O   UNL A   1      30.563  30.965  24.779  1.00  0.00    -0.376 OA
BRANCH  32  33
ATOM     33  C   UNL A   1      31.334  30.975  25.967  1.00  0.00     0.202 C 
BRANCH  33  34
ATOM     34  C   UNL A   1      31.645  32.267  26.750  1.00  0.00     0.261 C 
BRANCH  34  35
ATOM     35  O   UNL A   1      32.899  32.356  27.435  1.00  0.00    -0.460 OA
BRANCH  35  36
ATOM     36  C   UNL A   1      33.190  33.518  28.045  1.00  0.00     0.338 C 
ATOM     37  O   UNL A   1      32.454  34.492  28.148  1.00  0.00    -0.246 OA
BRANCH  36  38
ATOM     38  C   UNL A   1      34.474  33.371  28.764  1.00  0.00     0.060 A 
ATOM     39  C   UNL A   1      35.650  33.361  28.005  1.00  0.00     0.016 A 
ATOM     40  C   UNL A   1      34.531  33.222  30.153  1.00  0.00     0.016 A 
ATOM     41  C   UNL A   1      36.879  33.137  28.620  1.00  0.00     0.010 A 
ATOM     42  C   UNL A   1      35.766  32.968  30.768  1.00  0.00     0.010 A 
ATOM     43  C   UNL A   1      36.936  32.873  29.994  1.00  0.00    -0.014 A 
BRANCH  43  44
ATOM     44  C   UNL A   1      38.179  32.274  30.540  1.00  0.00     0.031 A 
ATOM     45  C   UNL A   1      38.643  30.957  29.976  1.00  0.00     0.074 A 
ATOM     46  C   UNL A   1      38.941  32.930  31.433  1.00  0.00     0.049 A 
ATOM     47  N   UNL A   1      39.733  30.279  30.233  1.00  0.00    -0.248 NA
ATOM     48  C   UNL A   1      37.763  30.323  28.981  1.00  0.00     0.031 C 
ATOM     49  C   UNL A   1      38.638  34.239  32.008  1.00  0.00     0.029 A 
ATOM     50  N   UNL A   1      40.143  32.582  31.998  1.00  0.00    -0.354 N 
ATOM     51  C   UNL A   1      39.667  29.143  29.435  1.00  0.00     0.074 A 
ATOM     52  C   UNL A   1      38.415  29.203  28.713  1.00  0.00     0.031 C 
ATOM     53  C   UNL A   1      39.632  34.587  32.843  1.00  0.00     0.029 A 
ATOM     54  C   UNL A   1      40.626  33.515  32.882  1.00  0.00     0.049 A 
ATOM     55  H   UNL A   1      40.614  31.743  31.790  1.00  0.00     0.167 HD
ATOM     56  C   UNL A   1      40.569  28.143  29.303  1.00  0.00     0.031 A 
ATOM     57  C   UNL A   1      41.739  33.500  33.641  1.00  0.00     0.031 A 
ATOM     58  C   UNL A   1      41.807  28.070  30.033  1.00  0.00     0.049 A 
ATOM     59  C   UNL A   1      42.684  32.331  33.546  1.00  0.00     0.074 A 
ATOM     60  C   UNL A   1      42.790  27.099  29.968  1.00  0.00     0.029 A 
ATOM     61  N   UNL A   1      42.226  29.002  30.969  1.00  0.00    -0.354 N 
ATOM     62  N   UNL A   1      42.621  31.274  32.769  1.00  0.00    -0.248 NA
ATOM     63  C   UNL A   1      43.863  32.362  34.423  1.00  0.00     0.031 C 
ATOM     64  C   UNL A   1      43.771  27.408  30.915  1.00  0.00     0.029 A 
ATOM     65  C   UNL A   1      43.438  28.611  31.514  1.00  0.00     0.049 A 
ATOM     66  H   UNL A   1      41.734  29.821  31.212  1.00  0.00     0.167 HD
ATOM     67  C   UNL A   1      43.768  30.535  33.041  1.00  0.00     0.074 A 
ATOM     68  C   UNL A   1      44.515  31.274  34.038  1.00  0.00     0.031 C 
ATOM     69  C   UNL A   1      44.168  29.353  32.511  1.00  0.00     0.031 A 
BRANCH  56  70
ATOM     70  C   UNL A   1      40.224  27.019  28.364  1.00  0.00    -0.014 A 
ATOM     71  C   UNL A   1      39.427  25.937  28.772  1.00  0.00     0.009 A 
ATOM     72  C   UNL A   1      40.685  27.059  27.038  1.00  0.00     0.009 A 
ATOM     73  C   UNL A   1      39.130  24.902  27.883  1.00  0.00     0.001 A 
ATOM     74  C   UNL A   1      40.360  26.038  26.143  1.00  0.00     0.001 A 
ATOM     75  C   UNL A   1      39.592  24.956  26.569  1.00  0.00     0.000 A 
ENDBRANCH  56  70
BRANCH  57  76
ATOM     76  C   UNL A   1      42.019  34.620  34.581  1.00  0.00    -0.014 A 
ATOM     77  C   UNL A   1      42.728  35.755  34.161  1.00  0.00     0.009 A 
ATOM     78  C   UNL A   1      41.602  34.539  35.919  1.00  0.00     0.009 A 
ATOM     79  C   UNL A   1      43.040  36.770  35.070  1.00  0.00     0.001 A 
ATOM     80  C   UNL A   1      41.886  35.571  36.817  1.00  0.00     0.001 A 
ATOM     81  C   UNL A   1      42.616  36.679  36.394  1.00  0.00     0.000 A 
ENDBRANCH  57  76
BRANCH  69  82
ATOM     82  C   UNL A   1      45.497  28.807  32.964  1.00  0.00    -0.014 A 
ATOM     83  C   UNL A   1      45.609  27.988  34.098  1.00  0.00     0.009 A 
ATOM     84  C   UNL A   1      46.654  29.101  32.224  1.00  0.00     0.009 A 
ATOM     85  C   UNL A   1      46.858  27.516  34.509  1.00  0.00     0.001 A 
ATOM     86  C   UNL A   1      47.896  28.598  32.616  1.00  0.00     0.001 A 
ATOM     87  C   UNL A   1      47.998  27.818  33.765  1.00  0.00     0.000 A 
ENDBRANCH  69  82
ENDBRANCH  43  44
ENDBRANCH  36  38
ENDBRANCH  35  36
ENDBRANCH  34  35
ENDBRANCH  33  34
ENDBRANCH  32  33
ENDBRANCH  31  32
ENDBRANCH  30  31
ENDBRANCH  29  30
ENDBRANCH   1  29
TORSDOF 25
ENDMDL
MODEL 3
REMARK VINA RESULT:      -8.5      4.483      8.867
REMARK SMILES CCC[NH2+][C@]1(C(=O)OCCOCCOCCOCCOC(=O)c2ccc(-c3c4nc(c(-c5ccccc5)c5ccc([nH]5)c(-c5ccccc5)c5nc(c(-c6ccccc6)c6ccc3[nH]6)C=C5)C=C4)cc2)CC[C@H](n2nc(C)c(CC)c2C)C1
REMARK SMILES IDX 13 1 12 2 11 3 10 4 9 5 8 6 6 7 7 8 5 9 71 10 83 11 72 12
REMARK SMILES IDX 73 13 4 14 3 17 2 18 1 19 74 20 75 21 81 22 76 23 78 24
REMARK SMILES IDX 82 25 77 26 79 27 80 28 14 29 15 30 16 31 17 32 18 33 19 34
REMARK SMILES IDX 20 35 21 36 22 37 23 38 24 39 70 40 25 41 69 42 26 43 27 44
REMARK SMILES IDX 28 45 63 46 29 47 68 48 62 49 64 50 30 51 67 52 61 53 60 54
REMARK SMILES IDX 31 56 53 57 38 58 52 59 39 60 42 61 51 62 65 63 40 64 41 65
REMARK SMILES IDX 50 67 66 68 43 69 32 70 33 71 37 72 34 73 36 74 35 75 54 76
REMARK SMILES IDX 55 77 59 78 56 79 58 80 57 81 44 82 45 83 49 84 46 85 48 86
REMARK SMILES IDX 47 87
REMARK H PARENT 4 15 4 16 64 55 42 66
REMARK Flexibility Score: inf
ROOT
ATOM      1  C   UNL A   1      33.538  34.631  28.427  1.00  0.00     0.188 C 
ENDROOT
BRANCH   1   2
ATOM      2  C   UNL A   1      33.015  33.332  27.799  1.00  0.00     0.188 C 
BRANCH   2   3
ATOM      3  O   UNL A   1      31.710  33.247  27.238  1.00  0.00    -0.376 OA
BRANCH   3   4
ATOM      4  C   UNL A   1      31.323  32.094  26.510  1.00  0.00     0.202 C 
BRANCH   4   5
ATOM      5  C   UNL A   1      32.076  30.767  26.734  1.00  0.00     0.261 C 
BRANCH   5   6
ATOM      6  O   UNL A   1      31.826  29.717  25.774  1.00  0.00    -0.459 OA
BRANCH   6   7
ATOM      7  C   UNL A   1      31.854  28.455  26.265  1.00  0.00     0.368 C 
ATOM      8  O   UNL A   1      31.573  28.190  27.434  1.00  0.00    -0.245 OA
BRANCH   7   9
ATOM      9  C   UNL A   1      32.268  27.347  25.256  1.00  0.00     0.196 C 
ATOM     10  C   UNL A   1      33.014  27.916  24.049  1.00  0.00     0.083 C 
ATOM     11  C   UNL A   1      33.460  26.604  25.931  1.00  0.00     0.108 C 
ATOM     12  C   UNL A   1      33.844  26.727  23.548  1.00  0.00     0.034 C 
ATOM     13  C   UNL A   1      34.176  25.865  24.807  1.00  0.00     0.115 C 
BRANCH   9  14
ATOM     14  N   UNL A   1      31.239  26.334  24.877  1.00  0.00    -0.332 N 
ATOM     15  H   UNL A   1      30.505  26.827  24.368  1.00  0.00     0.347 HD
ATOM     16  H   UNL A   1      31.763  25.635  24.352  1.00  0.00     0.347 HD
BRANCH  14  17
ATOM     17  C   UNL A   1      30.582  25.560  25.935  1.00  0.00     0.261 C 
BRANCH  17  18
ATOM     18  C   UNL A   1      30.655  24.039  25.656  1.00  0.00     0.058 C 
ATOM     19  C   UNL A   1      30.742  23.139  26.879  1.00  0.00     0.010 C 
ENDBRANCH  17  18
ENDBRANCH  14  17
ENDBRANCH   9  14
BRANCH  13  20
ATOM     20  N   UNL A   1      33.927  24.438  24.609  1.00  0.00    -0.266 N 
ATOM     21  N   UNL A   1      33.176  24.159  23.519  1.00  0.00    -0.178 NA
ATOM     22  C   UNL A   1      34.346  23.286  25.252  1.00  0.00     0.039 A 
ATOM     23  C   UNL A   1      33.144  22.831  23.436  1.00  0.00     0.063 A 
ATOM     24  C   UNL A   1      33.846  22.225  24.501  1.00  0.00    -0.004 A 
ATOM     25  C   UNL A   1      35.200  23.143  26.466  1.00  0.00     0.066 C 
ATOM     26  C   UNL A   1      32.432  22.191  22.304  1.00  0.00     0.069 C 
BRANCH  24  27
ATOM     27  C   UNL A   1      34.040  20.762  24.748  1.00  0.00     0.036 C 
ATOM     28  C   UNL A   1      33.121  20.226  25.834  1.00  0.00     0.009 C 
ENDBRANCH  24  27
ENDBRANCH  13  20
ENDBRANCH   7   9
ENDBRANCH   6   7
ENDBRANCH   5   6
ENDBRANCH   4   5
ENDBRANCH   3   4
ENDBRANCH   2   3
ENDBRANCH   1   2
BRANCH   1  29
ATOM     29  O   UNL A   1      32.607  35.369  29.193  1.00  0.00    -0.377 OA
BRANCH  29  30
ATOM     30  C   UNL A   1      33.033  35.734  30.492  1.00  0.00     0.188 C 
BRANCH  30  31
ATOM     31  C   UNL A   1      34.069  34.796  31.132  1.00  0.00     0.188 C 
BRANCH  31  32
ATOM     32  O   UNL A   1      33.552  34.062  32.231  1.00  0.00    -0.376 OA
BRANCH  32  33
ATOM     33  C   UNL A   1      34.380  33.702  33.323  1.00  0.00     0.202 C 
BRANCH  33  34
ATOM     34  C   UNL A   1      35.504  32.652  33.210  1.00  0.00     0.261 C 
BRANCH  34  35
ATOM     35  O   UNL A   1      36.847  33.071  33.473  1.00  0.00    -0.460 OA
BRANCH  35  36
ATOM     36  C   UNL A   1      37.481  32.497  34.511  1.00  0.00     0.338 C 
ATOM     37  O   UNL A   1      37.085  32.441  35.669  1.00  0.00    -0.246 OA
BRANCH  36  38
ATOM     38  C   UNL A   1      38.650  31.748  34.000  1.00  0.00     0.060 A 
ATOM     39  C   UNL A   1      39.922  32.164  34.410  1.00  0.00     0.016 A 
ATOM     40  C   UNL A   1      38.512  30.673  33.116  1.00  0.00     0.016 A 
ATOM     41  C   UNL A   1      41.061  31.554  33.890  1.00  0.00     0.010 A 
ATOM     42  C   UNL A   1      39.659  30.076  32.573  1.00  0.00     0.010 A 
ATOM     43  C   UNL A   1      40.936  30.552  32.920  1.00  0.00    -0.014 A 
BRANCH  43  44
ATOM     44  C   UNL A   1      42.137  30.196  32.125  1.00  0.00     0.031 A 
ATOM     45  C   UNL A   1      42.845  28.904  32.442  1.00  0.00     0.074 A 
ATOM     46  C   UNL A   1      42.529  30.938  31.074  1.00  0.00     0.049 A 
ATOM     47  N   UNL A   1      43.862  28.342  31.838  1.00  0.00    -0.248 NA
ATOM     48  C   UNL A   1      42.330  28.139  33.589  1.00  0.00     0.031 C 
ATOM     49  C   UNL A   1      41.893  32.174  30.624  1.00  0.00     0.029 A 
ATOM     50  N   UNL A   1      43.556  30.743  30.185  1.00  0.00    -0.354 N 
ATOM     51  C   UNL A   1      44.106  27.163  32.531  1.00  0.00     0.074 A 
ATOM     52  C   UNL A   1      43.159  27.107  33.622  1.00  0.00     0.031 C 
ATOM     53  C   UNL A   1      42.541  32.625  29.537  1.00  0.00     0.029 A 
ATOM     54  C   UNL A   1      43.653  31.726  29.232  1.00  0.00     0.049 A 
ATOM     55  H   UNL A   1      44.166  29.970  30.226  1.00  0.00     0.167 HD
ATOM     56  C   UNL A   1      45.029  26.205  32.280  1.00  0.00     0.031 A 
ATOM     57  C   UNL A   1      44.544  31.887  28.234  1.00  0.00     0.031 A 
ATOM     58  C   UNL A   1      45.985  26.266  31.207  1.00  0.00     0.049 A 
ATOM     59  C   UNL A   1      45.621  30.852  28.030  1.00  0.00     0.074 A 
ATOM     60  C   UNL A   1      46.960  25.344  30.868  1.00  0.00     0.029 A 
ATOM     61  N   UNL A   1      46.094  27.313  30.307  1.00  0.00    -0.354 N 
ATOM     62  N   UNL A   1      45.827  29.730  28.679  1.00  0.00    -0.248 NA
ATOM     63  C   UNL A   1      46.579  31.102  26.944  1.00  0.00     0.031 C 
ATOM     64  C   UNL A   1      47.702  25.866  29.803  1.00  0.00     0.029 A 
ATOM     65  C   UNL A   1      47.141  27.077  29.431  1.00  0.00     0.049 A 
ATOM     66  H   UNL A   1      45.513  28.109  30.291  1.00  0.00     0.167 HD
ATOM     67  C   UNL A   1      46.914  29.126  28.057  1.00  0.00     0.074 A 
ATOM     68  C   UNL A   1      47.311  29.998  26.970  1.00  0.00     0.031 C 
ATOM     69  C   UNL A   1      47.529  27.955  28.357  1.00  0.00     0.031 A 
BRANCH  56  70
ATOM     70  C   UNL A   1      45.076  25.028  33.217  1.00  0.00    -0.014 A 
ATOM     71  C   UNL A   1      44.321  23.868  32.980  1.00  0.00     0.009 A 
ATOM     72  C   UNL A   1      45.913  25.073  34.343  1.00  0.00     0.009 A 
ATOM     73  C   UNL A   1      44.375  22.795  33.872  1.00  0.00     0.001 A 
ATOM     74  C   UNL A   1      45.990  23.986  35.215  1.00  0.00     0.001 A 
ATOM     75  C   UNL A   1      45.213  22.852  34.984  1.00  0.00     0.000 A 
ENDBRANCH  56  70
BRANCH  57  76
ATOM     76  C   UNL A   1      44.477  33.087  27.356  1.00  0.00    -0.014 A 
ATOM     77  C   UNL A   1      44.921  34.339  27.809  1.00  0.00     0.009 A 
ATOM     78  C   UNL A   1      43.934  32.988  26.066  1.00  0.00     0.009 A 
ATOM     79  C   UNL A   1      44.794  35.470  26.998  1.00  0.00     0.001 A 
ATOM     80  C   UNL A   1      43.838  34.114  25.245  1.00  0.00     0.001 A 
ATOM     81  C   UNL A   1      44.257  35.356  25.718  1.00  0.00     0.000 A 
ENDBRANCH  57  76
BRANCH  69  82
ATOM     82  C   UNL A   1      48.665  27.523  27.467  1.00  0.00    -0.014 A 
ATOM     83  C   UNL A   1      48.440  26.823  26.272  1.00  0.00     0.009 A 
ATOM     84  C   UNL A   1      49.984  27.849  27.823  1.00  0.00     0.009 A 
ATOM     85  C   UNL A   1      49.515  26.414  25.479  1.00  0.00     0.001 A 
ATOM     86  C   UNL A   1      51.054  27.472  27.010  1.00  0.00     0.001 A 
ATOM     87  C   UNL A   1      50.819  26.743  25.846  1.00  0.00     0.000 A 
ENDBRANCH  69  82
ENDBRANCH  43  44
ENDBRANCH  36  38
ENDBRANCH  35  36
ENDBRANCH  34  35
ENDBRANCH  33  34
ENDBRANCH  32  33
ENDBRANCH  31  32
ENDBRANCH  30  31
ENDBRANCH  29  30
ENDBRANCH   1  29
TORSDOF 25
ENDMDL
