MODEL 1
REMARK VINA RESULT:      -8.7      0.000      0.000
REMARK SMILES CCCCCNC(=O)Oc1cccc(-c2ccc([C@@H](C)C(=O)OCCOCCOCCOCCOC(=O)c3ccc(-c4c5nc(c(-c6ccccc6)c6ccc([nH]6)c(-c6ccccc6)c6nc(c(-c7ccccc7)c7ccc4[nH]7)C=C6)C=C5)cc3)cc2F)c1
REMARK SMILES IDX 26 1 25 2 24 3 23 4 21 5 22 6 19 7 20 8 18 9 15 10 16 11
REMARK SMILES IDX 87 12 17 13 86 14 88 15 14 16 10 17 11 18 89 19 12 20 13 21
REMARK SMILES IDX 9 22 7 23 6 24 8 26 5 27 4 28 3 29 2 30 1 31 27 32 28 33
REMARK SMILES IDX 29 34 30 35 31 36 32 37 33 38 34 39 35 40 36 41 37 42 38 43
REMARK SMILES IDX 39 44 85 45 40 46 84 47 41 48 42 49 43 50 78 51 44 52 83 53
REMARK SMILES IDX 77 54 79 55 45 56 82 57 76 58 75 59 46 61 68 62 53 63 67 64
REMARK SMILES IDX 54 65 57 66 66 67 80 68 55 69 56 70 65 72 81 73 58 74 47 75
REMARK SMILES IDX 48 76 52 77 49 78 51 79 50 80 69 81 70 82 74 83 71 84 73 85
REMARK SMILES IDX 72 86 59 87 60 88 64 89 61 90 63 91 62 92
REMARK H PARENT 6 25 79 60 57 71
REMARK Flexibility Score: inf
ROOT
ATOM      1  O   UNL A   1      40.622  29.930  29.265  1.00  0.00    -0.376 OA
ENDROOT
BRANCH   1   2
ATOM      2  C   UNL A   1      39.850  30.873  29.992  1.00  0.00     0.202 C 
BRANCH   2   3
ATOM      3  C   UNL A   1      38.322  30.957  29.810  1.00  0.00     0.261 C 
BRANCH   3   4
ATOM      4  O   UNL A   1      37.732  32.275  29.817  1.00  0.00    -0.463 OA
BRANCH   4   5
ATOM      5  C   UNL A   1      36.385  32.329  29.692  1.00  0.00     0.313 C 
ATOM      6  O   UNL A   1      35.618  32.340  30.654  1.00  0.00    -0.252 OA
BRANCH   5   7
ATOM      7  C   UNL A   1      35.842  32.341  28.262  1.00  0.00     0.126 C 
ATOM      8  C   UNL A   1      35.280  33.729  27.975  1.00  0.00     0.025 C 
BRANCH   7   9
ATOM      9  C   UNL A   1      34.902  31.243  27.757  1.00  0.00    -0.031 A 
ATOM     10  C   UNL A   1      33.053  29.284  26.744  1.00  0.00     0.018 A 
ATOM     11  C   UNL A   1      34.389  28.958  27.047  1.00  0.00     0.012 A 
ATOM     12  C   UNL A   1      32.666  30.608  26.968  1.00  0.00     0.131 A 
ATOM     13  C   UNL A   1      35.297  29.917  27.546  1.00  0.00     0.005 A 
ATOM     14  C   UNL A   1      33.557  31.564  27.476  1.00  0.00     0.044 A 
ATOM     15  F   UNL A   1      31.408  30.998  26.707  1.00  0.00    -0.206 F 
BRANCH  10  16
ATOM     16  C   UNL A   1      32.102  28.257  26.258  1.00  0.00    -0.012 A 
ATOM     17  C   UNL A   1      30.543  27.370  24.604  1.00  0.00     0.133 A 
ATOM     18  C   UNL A   1      30.276  26.264  25.406  1.00  0.00     0.047 A 
ATOM     19  C   UNL A   1      31.434  28.370  25.022  1.00  0.00     0.056 A 
ATOM     20  C   UNL A   1      30.920  26.142  26.633  1.00  0.00     0.004 A 
ATOM     21  C   UNL A   1      31.822  27.128  27.052  1.00  0.00     0.009 A 
BRANCH  17  22
ATOM     22  O   UNL A   1      29.784  27.490  23.423  1.00  0.00    -0.410 OA
BRANCH  22  23
ATOM     23  C   UNL A   1      30.421  28.015  22.310  1.00  0.00     0.412 C 
ATOM     24  N   UNL A   1      31.325  27.168  21.730  1.00  0.00    -0.321 N 
ATOM     25  H   UNL A   1      31.699  27.451  20.865  1.00  0.00     0.167 HD
ATOM     26  O   UNL A   1      30.241  29.135  21.846  1.00  0.00    -0.224 OA
BRANCH  24  27
ATOM     27  C   UNL A   1      31.795  25.899  22.250  1.00  0.00     0.119 C 
BRANCH  27  28
ATOM     28  C   UNL A   1      33.309  25.733  22.127  1.00  0.00     0.021 C 
BRANCH  28  29
ATOM     29  C   UNL A   1      33.891  24.479  22.793  1.00  0.00     0.002 C 
BRANCH  29  30
ATOM     30  C   UNL A   1      33.579  24.302  24.282  1.00  0.00    -0.003 C 
ATOM     31  C   UNL A   1      34.323  25.273  25.184  1.00  0.00     0.004 C 
ENDBRANCH  29  30
ENDBRANCH  28  29
ENDBRANCH  27  28
ENDBRANCH  24  27
ENDBRANCH  22  23
ENDBRANCH  17  22
ENDBRANCH  10  16
ENDBRANCH   7   9
ENDBRANCH   5   7
ENDBRANCH   4   5
ENDBRANCH   3   4
ENDBRANCH   2   3
ENDBRANCH   1   2
BRANCH   1  32
ATOM     32  C   UNL A   1      40.009  29.055  28.328  1.00  0.00     0.188 C 
BRANCH  32  33
ATOM     33  C   UNL A   1      40.820  27.969  27.609  1.00  0.00     0.188 C 
BRANCH  33  34
ATOM     34  O   UNL A   1      41.059  26.800  28.364  1.00  0.00    -0.377 OA
BRANCH  34  35
ATOM     35  C   UNL A   1      40.208  25.694  28.105  1.00  0.00     0.188 C 
BRANCH  35  36
ATOM     36  C   UNL A   1      40.162  25.162  26.660  1.00  0.00     0.188 C 
BRANCH  36  37
ATOM     37  O   UNL A   1      39.647  23.840  26.540  1.00  0.00    -0.376 OA
BRANCH  37  38
ATOM     38  C   UNL A   1      40.179  22.830  27.387  1.00  0.00     0.202 C 
BRANCH  38  39
ATOM     39  C   UNL A   1      41.342  21.987  26.846  1.00  0.00     0.261 C 
BRANCH  39  40
ATOM     40  O   UNL A   1      42.622  22.633  26.817  1.00  0.00    -0.460 OA
BRANCH  40  41
ATOM     41  C   UNL A   1      43.177  23.008  27.988  1.00  0.00     0.338 C 
ATOM     42  O   UNL A   1      43.358  22.323  28.971  1.00  0.00    -0.246 OA
BRANCH  41  43
ATOM     43  C   UNL A   1      43.750  24.361  27.787  1.00  0.00     0.060 A 
ATOM     44  C   UNL A   1      43.885  24.848  26.481  1.00  0.00     0.016 A 
ATOM     45  C   UNL A   1      44.155  25.142  28.873  1.00  0.00     0.016 A 
ATOM     46  C   UNL A   1      44.466  26.097  26.253  1.00  0.00     0.010 A 
ATOM     47  C   UNL A   1      44.760  26.383  28.644  1.00  0.00     0.010 A 
ATOM     48  C   UNL A   1      44.952  26.849  27.331  1.00  0.00    -0.014 A 
BRANCH  48  49
ATOM     49  C   UNL A   1      45.842  28.009  27.076  1.00  0.00     0.031 A 
ATOM     50  C   UNL A   1      47.309  27.750  26.861  1.00  0.00     0.074 A 
ATOM     51  C   UNL A   1      45.363  29.264  27.000  1.00  0.00     0.049 A 
ATOM     52  N   UNL A   1      48.283  28.599  26.656  1.00  0.00    -0.248 NA
ATOM     53  C   UNL A   1      47.732  26.340  26.877  1.00  0.00     0.031 C 
ATOM     54  C   UNL A   1      43.959  29.647  27.126  1.00  0.00     0.029 A 
ATOM     55  N   UNL A   1      46.021  30.454  26.798  1.00  0.00    -0.354 N 
ATOM     56  C   UNL A   1      49.432  27.828  26.526  1.00  0.00     0.074 A 
ATOM     57  C   UNL A   1      49.040  26.448  26.707  1.00  0.00     0.031 C 
ATOM     58  C   UNL A   1      43.860  30.983  27.003  1.00  0.00     0.029 A 
ATOM     59  C   UNL A   1      45.197  31.551  26.829  1.00  0.00     0.049 A 
ATOM     60  H   UNL A   1      46.992  30.512  26.646  1.00  0.00     0.167 HD
ATOM     61  C   UNL A   1      50.701  28.230  26.274  1.00  0.00     0.031 A 
ATOM     62  C   UNL A   1      45.490  32.863  26.747  1.00  0.00     0.031 A 
ATOM     63  C   UNL A   1      51.098  29.603  26.119  1.00  0.00     0.049 A 
ATOM     64  C   UNL A   1      46.926  33.293  26.574  1.00  0.00     0.074 A 
ATOM     65  C   UNL A   1      52.360  30.112  25.863  1.00  0.00     0.029 A 
ATOM     66  N   UNL A   1      50.241  30.688  26.216  1.00  0.00    -0.354 N 
ATOM     67  N   UNL A   1      48.002  32.555  26.439  1.00  0.00    -0.248 NA
ATOM     68  C   UNL A   1      47.184  34.741  26.537  1.00  0.00     0.031 C 
ATOM     69  C   UNL A   1      52.277  31.507  25.868  1.00  0.00     0.029 A 
ATOM     70  C   UNL A   1      50.951  31.866  26.054  1.00  0.00     0.049 A 
ATOM     71  H   UNL A   1      49.271  30.629  26.376  1.00  0.00     0.167 HD
ATOM     72  C   UNL A   1      49.055  33.447  26.264  1.00  0.00     0.074 A 
ATOM     73  C   UNL A   1      48.487  34.777  26.299  1.00  0.00     0.031 C 
ATOM     74  C   UNL A   1      50.375  33.185  26.088  1.00  0.00     0.031 A 
BRANCH  61  75
ATOM     75  C   UNL A   1      51.759  27.164  26.193  1.00  0.00    -0.014 A 
ATOM     76  C   UNL A   1      52.440  26.721  27.337  1.00  0.00     0.009 A 
ATOM     77  C   UNL A   1      52.060  26.576  24.953  1.00  0.00     0.009 A 
ATOM     78  C   UNL A   1      53.425  25.735  27.237  1.00  0.00     0.001 A 
ATOM     79  C   UNL A   1      53.022  25.570  24.861  1.00  0.00     0.001 A 
ATOM     80  C   UNL A   1      53.711  25.157  26.000  1.00  0.00     0.000 A 
ENDBRANCH  61  75
BRANCH  62  81
ATOM     81  C   UNL A   1      44.411  33.882  26.851  1.00  0.00    -0.014 A 
ATOM     82  C   UNL A   1      43.774  34.372  25.700  1.00  0.00     0.009 A 
ATOM     83  C   UNL A   1      44.035  34.396  28.102  1.00  0.00     0.009 A 
ATOM     84  C   UNL A   1      42.804  35.374  25.799  1.00  0.00     0.001 A 
ATOM     85  C   UNL A   1      43.042  35.374  28.200  1.00  0.00     0.001 A 
ATOM     86  C   UNL A   1      42.436  35.870  27.048  1.00  0.00     0.000 A 
ENDBRANCH  62  81
BRANCH  74  87
ATOM     87  C   UNL A   1      51.292  34.358  25.869  1.00  0.00    -0.014 A 
ATOM     88  C   UNL A   1      51.446  34.946  24.605  1.00  0.00     0.009 A 
ATOM     89  C   UNL A   1      51.976  34.914  26.963  1.00  0.00     0.009 A 
ATOM     90  C   UNL A   1      52.296  36.042  24.433  1.00  0.00     0.001 A 
ATOM     91  C   UNL A   1      52.797  36.029  26.795  1.00  0.00     0.001 A 
ATOM     92  C   UNL A   1      52.966  36.586  25.529  1.00  0.00     0.000 A 
ENDBRANCH  74  87
ENDBRANCH  48  49
ENDBRANCH  41  43
ENDBRANCH  40  41
ENDBRANCH  39  40
ENDBRANCH  38  39
ENDBRANCH  37  38
ENDBRANCH  36  37
ENDBRANCH  35  36
ENDBRANCH  34  35
ENDBRANCH  33  34
ENDBRANCH  32  33
ENDBRANCH   1  32
TORSDOF 28
ENDMDL
MODEL 2
REMARK VINA RESULT:      -8.2      1.112      2.188
REMARK SMILES CCCCCNC(=O)Oc1cccc(-c2ccc([C@@H](C)C(=O)OCCOCCOCCOCCOC(=O)c3ccc(-c4c5nc(c(-c6ccccc6)c6ccc([nH]6)c(-c6ccccc6)c6nc(c(-c7ccccc7)c7ccc4[nH]7)C=C6)C=C5)cc3)cc2F)c1
REMARK SMILES IDX 26 1 25 2 24 3 23 4 21 5 22 6 19 7 20 8 18 9 15 10 16 11
REMARK SMILES IDX 87 12 17 13 86 14 88 15 14 16 10 17 11 18 89 19 12 20 13 21
REMARK SMILES IDX 9 22 7 23 6 24 8 26 5 27 4 28 3 29 2 30 1 31 27 32 28 33
REMARK SMILES IDX 29 34 30 35 31 36 32 37 33 38 34 39 35 40 36 41 37 42 38 43
REMARK SMILES IDX 39 44 85 45 40 46 84 47 41 48 42 49 43 50 78 51 44 52 83 53
REMARK SMILES IDX 77 54 79 55 45 56 82 57 76 58 75 59 46 61 68 62 53 63 67 64
REMARK SMILES IDX 54 65 57 66 66 67 80 68 55 69 56 70 65 72 81 73 58 74 47 75
REMARK SMILES IDX 48 76 52 77 49 78 51 79 50 80 69 81 70 82 74 83 71 84 73 85
REMARK SMILES IDX 72 86 59 87 60 88 64 89 61 90 63 91 62 92
REMARK H PARENT 6 25 79 60 57 71
REMARK Flexibility Score: inf
ROOT
ATOM      1  O   UNL A   1      41.451  29.888  29.486  1.00  0.00    -0.376 OA
ENDROOT
BRANCH   1   2
ATOM      2  C   UNL A   1      40.721  30.822  30.268  1.00  0.00     0.202 C 
BRANCH   2   3
ATOM      3  C   UNL A   1      39.180  30.845  30.243  1.00  0.00     0.261 C 
BRANCH   3   4
ATOM      4  O   UNL A   1      38.533  32.033  30.747  1.00  0.00    -0.463 OA
BRANCH   4   5
ATOM      5  C   UNL A   1      37.187  32.083  30.617  1.00  0.00     0.313 C 
ATOM      6  O   UNL A   1      36.411  31.887  31.551  1.00  0.00    -0.252 OA
BRANCH   5   7
ATOM      7  C   UNL A   1      36.657  32.369  29.210  1.00  0.00     0.126 C 
ATOM      8  C   UNL A   1      35.937  33.713  29.235  1.00  0.00     0.025 C 
BRANCH   7   9
ATOM      9  C   UNL A   1      35.857  31.322  28.432  1.00  0.00    -0.031 A 
ATOM     10  C   UNL A   1      34.280  29.461  26.903  1.00  0.00     0.018 A 
ATOM     11  C   UNL A   1      35.551  29.122  27.406  1.00  0.00     0.012 A 
ATOM     12  C   UNL A   1      33.818  30.749  27.191  1.00  0.00     0.131 A 
ATOM     13  C   UNL A   1      36.325  30.031  28.158  1.00  0.00     0.005 A 
ATOM     14  C   UNL A   1      34.574  31.654  27.949  1.00  0.00     0.044 A 
ATOM     15  F   UNL A   1      32.614  31.150  26.750  1.00  0.00    -0.206 F 
BRANCH  10  16
ATOM     16  C   UNL A   1      33.464  28.482  26.149  1.00  0.00    -0.012 A 
ATOM     17  C   UNL A   1      31.635  27.904  24.640  1.00  0.00     0.133 A 
ATOM     18  C   UNL A   1      31.930  26.548  24.756  1.00  0.00     0.047 A 
ATOM     19  C   UNL A   1      32.378  28.869  25.337  1.00  0.00     0.056 A 
ATOM     20  C   UNL A   1      32.992  26.150  25.560  1.00  0.00     0.004 A 
ATOM     21  C   UNL A   1      33.749  27.107  26.248  1.00  0.00     0.009 A 
BRANCH  17  22
ATOM     22  O   UNL A   1      30.486  28.238  23.896  1.00  0.00    -0.410 OA
BRANCH  22  23
ATOM     23  C   UNL A   1      30.611  28.270  22.516  1.00  0.00     0.412 C 
ATOM     24  N   UNL A   1      30.505  29.522  21.973  1.00  0.00    -0.321 N 
ATOM     25  H   UNL A   1      30.718  29.603  21.016  1.00  0.00     0.167 HD
ATOM     26  O   UNL A   1      30.789  27.298  21.792  1.00  0.00    -0.224 OA
BRANCH  24  27
ATOM     27  C   UNL A   1      30.111  30.740  22.652  1.00  0.00     0.119 C 
BRANCH  27  28
ATOM     28  C   UNL A   1      28.951  31.454  21.960  1.00  0.00     0.021 C 
BRANCH  28  29
ATOM     29  C   UNL A   1      27.563  30.844  22.199  1.00  0.00     0.002 C 
BRANCH  29  30
ATOM     30  C   UNL A   1      27.402  30.025  23.484  1.00  0.00    -0.003 C 
ATOM     31  C   UNL A   1      26.865  28.622  23.252  1.00  0.00     0.004 C 
ENDBRANCH  29  30
ENDBRANCH  28  29
ENDBRANCH  27  28
ENDBRANCH  24  27
ENDBRANCH  22  23
ENDBRANCH  17  22
ENDBRANCH  10  16
ENDBRANCH   7   9
ENDBRANCH   5   7
ENDBRANCH   4   5
ENDBRANCH   3   4
ENDBRANCH   2   3
ENDBRANCH   1   2
BRANCH   1  32
ATOM     32  C   UNL A   1      40.799  29.095  28.503  1.00  0.00     0.188 C 
BRANCH  32  33
ATOM     33  C   UNL A   1      41.193  27.628  28.280  1.00  0.00     0.188 C 
BRANCH  33  34
ATOM     34  O   UNL A   1      40.492  26.692  29.071  1.00  0.00    -0.377 OA
BRANCH  34  35
ATOM     35  C   UNL A   1      40.041  25.519  28.413  1.00  0.00     0.188 C 
BRANCH  35  36
ATOM     36  C   UNL A   1      40.338  25.396  26.906  1.00  0.00     0.188 C 
BRANCH  36  37
ATOM     37  O   UNL A   1      39.983  24.139  26.340  1.00  0.00    -0.376 OA
BRANCH  37  38
ATOM     38  C   UNL A   1      40.150  22.971  27.133  1.00  0.00     0.202 C 
BRANCH  38  39
ATOM     39  C   UNL A   1      41.300  22.021  26.768  1.00  0.00     0.261 C 
BRANCH  39  40
ATOM     40  O   UNL A   1      42.613  22.596  26.778  1.00  0.00    -0.460 OA
BRANCH  40  41
ATOM     41  C   UNL A   1      43.131  22.990  27.960  1.00  0.00     0.338 C 
ATOM     42  O   UNL A   1      43.267  22.325  28.963  1.00  0.00    -0.246 OA
BRANCH  41  43
ATOM     43  C   UNL A   1      43.729  24.332  27.751  1.00  0.00     0.060 A 
ATOM     44  C   UNL A   1      43.928  24.782  26.439  1.00  0.00     0.016 A 
ATOM     45  C   UNL A   1      44.094  25.137  28.833  1.00  0.00     0.016 A 
ATOM     46  C   UNL A   1      44.533  26.019  26.206  1.00  0.00     0.010 A 
ATOM     47  C   UNL A   1      44.724  26.364  28.600  1.00  0.00     0.010 A 
ATOM     48  C   UNL A   1      44.980  26.793  27.285  1.00  0.00    -0.014 A 
BRANCH  48  49
ATOM     49  C   UNL A   1      45.894  27.937  27.041  1.00  0.00     0.031 A 
ATOM     50  C   UNL A   1      47.360  27.651  26.850  1.00  0.00     0.074 A 
ATOM     51  C   UNL A   1      45.439  29.200  26.953  1.00  0.00     0.049 A 
ATOM     52  N   UNL A   1      48.352  28.482  26.659  1.00  0.00    -0.248 NA
ATOM     53  C   UNL A   1      47.758  26.234  26.877  1.00  0.00     0.031 C 
ATOM     54  C   UNL A   1      44.040  29.608  27.056  1.00  0.00     0.029 A 
ATOM     55  N   UNL A   1      46.122  30.377  26.759  1.00  0.00    -0.354 N 
ATOM     56  C   UNL A   1      49.488  27.690  26.549  1.00  0.00     0.074 A 
ATOM     57  C   UNL A   1      49.070  26.318  26.728  1.00  0.00     0.031 C 
ATOM     58  C   UNL A   1      43.967  30.945  26.927  1.00  0.00     0.029 A 
ATOM     59  C   UNL A   1      45.317  31.489  26.773  1.00  0.00     0.049 A 
ATOM     60  H   UNL A   1      47.095  30.418  26.622  1.00  0.00     0.167 HD
ATOM     61  C   UNL A   1      50.768  28.069  26.316  1.00  0.00     0.031 A 
ATOM     62  C   UNL A   1      45.634  32.796  26.691  1.00  0.00     0.031 A 
ATOM     63  C   UNL A   1      51.192  29.434  26.163  1.00  0.00     0.049 A 
ATOM     64  C   UNL A   1      47.080  33.198  26.540  1.00  0.00     0.074 A 
ATOM     65  C   UNL A   1      52.467  29.919  25.926  1.00  0.00     0.029 A 
ATOM     66  N   UNL A   1      50.353  30.535  26.243  1.00  0.00    -0.354 N 
ATOM     67  N   UNL A   1      48.145  32.442  26.424  1.00  0.00    -0.248 NA
ATOM     68  C   UNL A   1      47.364  34.642  26.503  1.00  0.00     0.031 C 
ATOM     69  C   UNL A   1      52.409  31.316  25.925  1.00  0.00     0.029 A 
ATOM     70  C   UNL A   1      51.086  31.698  26.089  1.00  0.00     0.049 A 
ATOM     71  H   UNL A   1      49.380  30.493  26.388  1.00  0.00     0.167 HD
ATOM     72  C   UNL A   1      49.216  33.314  26.264  1.00  0.00     0.074 A 
ATOM     73  C   UNL A   1      48.672  34.654  26.285  1.00  0.00     0.031 C 
ATOM     74  C   UNL A   1      50.533  33.028  26.110  1.00  0.00     0.031 A 
BRANCH  61  75
ATOM     75  C   UNL A   1      51.808  26.984  26.255  1.00  0.00    -0.014 A 
ATOM     76  C   UNL A   1      52.090  26.306  25.059  1.00  0.00     0.009 A 
ATOM     77  C   UNL A   1      52.537  26.654  27.410  1.00  0.00     0.009 A 
ATOM     78  C   UNL A   1      53.056  25.296  25.028  1.00  0.00     0.001 A 
ATOM     79  C   UNL A   1      53.522  25.667  27.369  1.00  0.00     0.001 A 
ATOM     80  C   UNL A   1      53.773  24.982  26.182  1.00  0.00     0.000 A 
ENDBRANCH  61  75
BRANCH  62  81
ATOM     81  C   UNL A   1      44.572  33.833  26.775  1.00  0.00    -0.014 A 
ATOM     82  C   UNL A   1      44.219  34.400  28.010  1.00  0.00     0.009 A 
ATOM     83  C   UNL A   1      43.879  34.239  25.623  1.00  0.00     0.009 A 
ATOM     84  C   UNL A   1      43.178  35.329  28.092  1.00  0.00     0.001 A 
ATOM     85  C   UNL A   1      42.861  35.192  25.704  1.00  0.00     0.001 A 
ATOM     86  C   UNL A   1      42.504  35.728  26.940  1.00  0.00     0.000 A 
ENDBRANCH  62  81
BRANCH  74  87
ATOM     87  C   UNL A   1      51.475  34.184  25.902  1.00  0.00    -0.014 A 
ATOM     88  C   UNL A   1      52.152  34.783  26.974  1.00  0.00     0.009 A 
ATOM     89  C   UNL A   1      51.723  34.648  24.600  1.00  0.00     0.009 A 
ATOM     90  C   UNL A   1      53.030  35.848  26.751  1.00  0.00     0.001 A 
ATOM     91  C   UNL A   1      52.625  35.688  24.375  1.00  0.00     0.001 A 
ATOM     92  C   UNL A   1      53.270  36.295  25.451  1.00  0.00     0.000 A 
ENDBRANCH  74  87
ENDBRANCH  48  49
ENDBRANCH  41  43
ENDBRANCH  40  41
ENDBRANCH  39  40
ENDBRANCH  38  39
ENDBRANCH  37  38
ENDBRANCH  36  37
ENDBRANCH  35  36
ENDBRANCH  34  35
ENDBRANCH  33  34
ENDBRANCH  32  33
ENDBRANCH   1  32
TORSDOF 28
ENDMDL
MODEL 3
REMARK VINA RESULT:      -8.1      5.278     11.968
REMARK SMILES CCCCCNC(=O)Oc1cccc(-c2ccc([C@@H](C)C(=O)OCCOCCOCCOCCOC(=O)c3ccc(-c4c5nc(c(-c6ccccc6)c6ccc([nH]6)c(-c6ccccc6)c6nc(c(-c7ccccc7)c7ccc4[nH]7)C=C6)C=C5)cc3)cc2F)c1
REMARK SMILES IDX 26 1 25 2 24 3 23 4 21 5 22 6 19 7 20 8 18 9 15 10 16 11
REMARK SMILES IDX 87 12 17 13 86 14 88 15 14 16 10 17 11 18 89 19 12 20 13 21
REMARK SMILES IDX 9 22 7 23 6 24 8 26 5 27 4 28 3 29 2 30 1 31 27 32 28 33
REMARK SMILES IDX 29 34 30 35 31 36 32 37 33 38 34 39 35 40 36 41 37 42 38 43
REMARK SMILES IDX 39 44 85 45 40 46 84 47 41 48 42 49 43 50 78 51 44 52 83 53
REMARK SMILES IDX 77 54 79 55 45 56 82 57 76 58 75 59 46 61 68 62 53 63 67 64
REMARK SMILES IDX 54 65 57 66 66 67 80 68 55 69 56 70 65 72 81 73 58 74 47 75
REMARK SMILES IDX 48 76 52 77 49 78 51 79 50 80 69 81 70 82 74 83 71 84 73 85
REMARK SMILES IDX 72 86 59 87 60 88 64 89 61 90 63 91 62 92
REMARK H PARENT 6 25 79 60 57 71
REMARK Flexibility Score: inf
ROOT
ATOM      1  O   UNL A   1      47.079  25.313  26.585  1.00  0.00    -0.376 OA
ENDROOT
BRANCH   1   2
ATOM      2  C   UNL A   1      46.980  26.571  27.235  1.00  0.00     0.202 C 
BRANCH   2   3
ATOM      3  C   UNL A   1      47.300  27.878  26.485  1.00  0.00     0.261 C 
BRANCH   3   4
ATOM      4  O   UNL A   1      46.452  29.015  26.755  1.00  0.00    -0.463 OA
BRANCH   4   5
ATOM      5  C   UNL A   1      45.198  28.962  26.249  1.00  0.00     0.313 C 
ATOM      6  O   UNL A   1      44.905  28.321  25.241  1.00  0.00    -0.252 OA
BRANCH   5   7
ATOM      7  C   UNL A   1      44.139  29.785  26.986  1.00  0.00     0.126 C 
ATOM      8  C   UNL A   1      42.764  29.323  26.517  1.00  0.00     0.025 C 
BRANCH   7   9
ATOM      9  C   UNL A   1      44.221  31.311  27.054  1.00  0.00    -0.031 A 
ATOM     10  C   UNL A   1      44.306  34.189  27.054  1.00  0.00     0.018 A 
ATOM     11  C   UNL A   1      44.358  33.443  28.248  1.00  0.00     0.012 A 
ATOM     12  C   UNL A   1      44.219  33.459  25.865  1.00  0.00     0.131 A 
ATOM     13  C   UNL A   1      44.319  32.032  28.250  1.00  0.00     0.005 A 
ATOM     14  C   UNL A   1      44.193  32.057  25.857  1.00  0.00     0.044 A 
ATOM     15  F   UNL A   1      44.167  34.095  24.683  1.00  0.00    -0.206 F 
BRANCH  10  16
ATOM     16  C   UNL A   1      44.387  35.667  27.066  1.00  0.00    -0.012 A 
ATOM     17  C   UNL A   1      43.385  37.885  26.889  1.00  0.00     0.133 A 
ATOM     18  C   UNL A   1      44.624  38.492  27.076  1.00  0.00     0.047 A 
ATOM     19  C   UNL A   1      43.258  36.489  26.867  1.00  0.00     0.056 A 
ATOM     20  C   UNL A   1      45.750  37.696  27.263  1.00  0.00     0.004 A 
ATOM     21  C   UNL A   1      45.630  36.301  27.258  1.00  0.00     0.009 A 
BRANCH  17  22
ATOM     22  O   UNL A   1      42.302  38.740  26.601  1.00  0.00    -0.410 OA
BRANCH  22  23
ATOM     23  C   UNL A   1      42.573  40.095  26.500  1.00  0.00     0.412 C 
ATOM     24  N   UNL A   1      42.424  40.785  27.672  1.00  0.00    -0.321 N 
ATOM     25  H   UNL A   1      42.733  41.720  27.673  1.00  0.00     0.167 HD
ATOM     26  O   UNL A   1      42.909  40.683  25.478  1.00  0.00    -0.224 OA
BRANCH  24  27
ATOM     27  C   UNL A   1      41.859  40.292  28.913  1.00  0.00     0.119 C 
BRANCH  27  28
ATOM     28  C   UNL A   1      42.070  41.253  30.082  1.00  0.00     0.021 C 
BRANCH  28  29
ATOM     29  C   UNL A   1      42.595  40.613  31.375  1.00  0.00     0.002 C 
BRANCH  29  30
ATOM     30  C   UNL A   1      43.305  41.555  32.351  1.00  0.00    -0.003 C 
ATOM     31  C   UNL A   1      42.532  42.832  32.642  1.00  0.00     0.004 C 
ENDBRANCH  29  30
ENDBRANCH  28  29
ENDBRANCH  27  28
ENDBRANCH  24  27
ENDBRANCH  22  23
ENDBRANCH  17  22
ENDBRANCH  10  16
ENDBRANCH   7   9
ENDBRANCH   5   7
ENDBRANCH   4   5
ENDBRANCH   3   4
ENDBRANCH   2   3
ENDBRANCH   1   2
BRANCH   1  32
ATOM     32  C   UNL A   1      46.814  25.189  25.194  1.00  0.00     0.188 C 
BRANCH  32  33
ATOM     33  C   UNL A   1      46.378  23.848  24.587  1.00  0.00     0.188 C 
BRANCH  33  34
ATOM     34  O   UNL A   1      46.299  22.773  25.499  1.00  0.00    -0.377 OA
BRANCH  34  35
ATOM     35  C   UNL A   1      45.048  22.578  26.140  1.00  0.00     0.188 C 
BRANCH  35  36
ATOM     36  C   UNL A   1      44.089  21.545  25.518  1.00  0.00     0.188 C 
BRANCH  36  37
ATOM     37  O   UNL A   1      43.288  20.846  26.464  1.00  0.00    -0.376 OA
BRANCH  37  38
ATOM     38  C   UNL A   1      42.116  20.189  26.000  1.00  0.00     0.202 C 
BRANCH  38  39
ATOM     39  C   UNL A   1      40.759  20.783  26.404  1.00  0.00     0.261 C 
BRANCH  39  40
ATOM     40  O   UNL A   1      40.688  22.214  26.434  1.00  0.00    -0.460 OA
BRANCH  40  41
ATOM     41  C   UNL A   1      39.480  22.800  26.297  1.00  0.00     0.338 C 
ATOM     42  O   UNL A   1      38.448  22.283  25.929  1.00  0.00    -0.246 OA
BRANCH  41  43
ATOM     43  C   UNL A   1      39.577  24.151  26.902  1.00  0.00     0.060 A 
ATOM     44  C   UNL A   1      40.277  25.149  26.213  1.00  0.00     0.016 A 
ATOM     45  C   UNL A   1      38.987  24.432  28.137  1.00  0.00     0.016 A 
ATOM     46  C   UNL A   1      40.428  26.417  26.777  1.00  0.00     0.010 A 
ATOM     47  C   UNL A   1      39.161  25.694  28.714  1.00  0.00     0.010 A 
ATOM     48  C   UNL A   1      39.914  26.681  28.053  1.00  0.00    -0.014 A 
BRANCH  48  49
ATOM     49  C   UNL A   1      40.340  27.903  28.779  1.00  0.00     0.031 A 
ATOM     50  C   UNL A   1      39.373  29.053  28.872  1.00  0.00     0.074 A 
ATOM     51  C   UNL A   1      41.543  27.989  29.376  1.00  0.00     0.049 A 
ATOM     52  N   UNL A   1      39.528  30.230  29.421  1.00  0.00    -0.248 NA
ATOM     53  C   UNL A   1      38.048  28.842  28.264  1.00  0.00     0.031 C 
ATOM     54  C   UNL A   1      42.548  26.929  29.416  1.00  0.00     0.029 A 
ATOM     55  N   UNL A   1      42.120  29.029  30.064  1.00  0.00    -0.354 N 
ATOM     56  C   UNL A   1      38.327  30.900  29.219  1.00  0.00     0.074 A 
ATOM     57  C   UNL A   1      37.466  30.012  28.470  1.00  0.00     0.031 C 
ATOM     58  C   UNL A   1      43.623  27.375  30.091  1.00  0.00     0.029 A 
ATOM     59  C   UNL A   1      43.396  28.763  30.496  1.00  0.00     0.049 A 
ATOM     60  H   UNL A   1      41.661  29.883  30.231  1.00  0.00     0.167 HD
ATOM     61  C   UNL A   1      37.969  32.142  29.624  1.00  0.00     0.031 A 
ATOM     62  C   UNL A   1      44.285  29.555  31.125  1.00  0.00     0.031 A 
ATOM     63  C   UNL A   1      38.832  33.037  30.346  1.00  0.00     0.049 A 
ATOM     64  C   UNL A   1      43.901  30.972  31.471  1.00  0.00     0.074 A 
ATOM     65  C   UNL A   1      38.561  34.317  30.799  1.00  0.00     0.029 A 
ATOM     66  N   UNL A   1      40.138  32.750  30.712  1.00  0.00    -0.354 N 
ATOM     67  N   UNL A   1      42.759  31.590  31.287  1.00  0.00    -0.248 NA
ATOM     68  C   UNL A   1      44.933  31.799  32.117  1.00  0.00     0.031 C 
ATOM     69  C   UNL A   1      39.724  34.828  31.383  1.00  0.00     0.029 A 
ATOM     70  C   UNL A   1      40.696  33.839  31.359  1.00  0.00     0.049 A 
ATOM     71  H   UNL A   1      40.599  31.898  30.537  1.00  0.00     0.167 HD
ATOM     72  C   UNL A   1      42.924  32.862  31.827  1.00  0.00     0.074 A 
ATOM     73  C   UNL A   1      44.270  32.922  32.355  1.00  0.00     0.031 C 
ATOM     74  C   UNL A   1      42.037  33.887  31.883  1.00  0.00     0.031 A 
BRANCH  61  75
ATOM     75  C   UNL A   1      36.592  32.618  29.252  1.00  0.00    -0.014 A 
ATOM     76  C   UNL A   1      35.451  31.852  29.537  1.00  0.00     0.009 A 
ATOM     77  C   UNL A   1      36.433  33.867  28.630  1.00  0.00     0.009 A 
ATOM     78  C   UNL A   1      34.181  32.311  29.175  1.00  0.00     0.001 A 
ATOM     79  C   UNL A   1      35.161  34.337  28.299  1.00  0.00     0.001 A 
ATOM     80  C   UNL A   1      34.038  33.555  28.562  1.00  0.00     0.000 A 
ENDBRANCH  61  75
BRANCH  62  81
ATOM     81  C   UNL A   1      45.643  29.045  31.456  1.00  0.00    -0.014 A 
ATOM     82  C   UNL A   1      46.678  29.098  30.509  1.00  0.00     0.009 A 
ATOM     83  C   UNL A   1      45.903  28.470  32.710  1.00  0.00     0.009 A 
ATOM     84  C   UNL A   1      47.935  28.560  30.802  1.00  0.00     0.001 A 
ATOM     85  C   UNL A   1      47.169  27.964  33.012  1.00  0.00     0.001 A 
ATOM     86  C   UNL A   1      48.181  27.999  32.054  1.00  0.00     0.000 A 
ENDBRANCH  62  81
BRANCH  74  87
ATOM     87  C   UNL A   1      42.474  35.146  32.581  1.00  0.00    -0.014 A 
ATOM     88  C   UNL A   1      42.068  35.440  33.892  1.00  0.00     0.009 A 
ATOM     89  C   UNL A   1      43.349  36.030  31.929  1.00  0.00     0.009 A 
ATOM     90  C   UNL A   1      42.499  36.612  34.520  1.00  0.00     0.001 A 
ATOM     91  C   UNL A   1      43.806  37.182  32.570  1.00  0.00     0.001 A 
ATOM     92  C   UNL A   1      43.372  37.478  33.861  1.00  0.00     0.000 A 
ENDBRANCH  74  87
ENDBRANCH  48  49
ENDBRANCH  41  43
ENDBRANCH  40  41
ENDBRANCH  39  40
ENDBRANCH  38  39
ENDBRANCH  37  38
ENDBRANCH  36  37
ENDBRANCH  35  36
ENDBRANCH  34  35
ENDBRANCH  33  34
ENDBRANCH  32  33
ENDBRANCH   1  32
TORSDOF 28
ENDMDL
