MODEL 1
REMARK VINA RESULT:      -8.6      0.000      0.000
REMARK SMILES CC[C@@H](C)[C@@H](NC(=O)C(F)(F)F)C(=O)OCCOCCOCCOCCOC(=O)c1ccc(-c2c3nc(c(-c4ccccc4)c4ccc([nH]4)c(-c4ccccc4)c4nc(c(-c5ccccc5)c5ccc2[nH]5)C=C4)C=C3)cc1
REMARK SMILES IDX 21 1 20 2 19 3 18 4 17 5 16 6 15 7 13 8 14 9 5 10 3 11 4 12
REMARK SMILES IDX 2 13 1 14 6 15 7 16 8 18 9 19 10 20 11 21 12 22 22 23 23 24
REMARK SMILES IDX 24 25 25 26 26 27 27 28 28 29 29 30 30 31 31 32 77 33 32 34
REMARK SMILES IDX 76 35 33 36 34 37 35 38 70 39 36 40 75 41 69 42 71 43 37 44
REMARK SMILES IDX 74 45 68 46 67 47 38 49 60 50 45 51 59 52 46 53 49 54 58 55
REMARK SMILES IDX 72 56 47 57 48 58 57 60 73 61 50 62 39 63 40 64 44 65 41 66
REMARK SMILES IDX 43 67 42 68 61 69 62 70 66 71 63 72 65 73 64 74 51 75 52 76
REMARK SMILES IDX 56 77 53 78 55 79 54 80
REMARK H PARENT 6 17 71 48 49 59
REMARK Flexibility Score: inf
ROOT
ATOM      1  O   UNL A   1      34.808  35.421  28.570  1.00  0.00    -0.377 OA
ENDROOT
BRANCH   1   2
ATOM      2  C   UNL A   1      35.115  34.044  28.699  1.00  0.00     0.188 C 
BRANCH   2   3
ATOM      3  C   UNL A   1      34.120  33.101  28.030  1.00  0.00     0.188 C 
BRANCH   3   4
ATOM      4  O   UNL A   1      34.690  32.030  27.300  1.00  0.00    -0.376 OA
BRANCH   4   5
ATOM      5  C   UNL A   1      34.835  30.765  27.950  1.00  0.00     0.202 C 
BRANCH   5   6
ATOM      6  C   UNL A   1      34.775  29.451  27.159  1.00  0.00     0.261 C 
BRANCH   6   7
ATOM      7  O   UNL A   1      33.441  28.995  26.788  1.00  0.00    -0.462 OA
BRANCH   7   8
ATOM      8  C   UNL A   1      33.223  28.820  25.457  1.00  0.00     0.329 C 
ATOM      9  O   UNL A   1      32.998  29.743  24.676  1.00  0.00    -0.250 OA
BRANCH   8  10
ATOM     10  C   UNL A   1      33.015  27.357  25.002  1.00  0.00     0.195 C 
BRANCH  10  11
ATOM     11  C   UNL A   1      33.225  26.102  25.912  1.00  0.00     0.019 C 
ATOM     12  C   UNL A   1      34.317  25.176  25.362  1.00  0.00     0.010 C 
BRANCH  11  13
ATOM     13  C   UNL A   1      31.883  25.307  26.014  1.00  0.00     0.002 C 
ATOM     14  C   UNL A   1      31.891  23.872  25.497  1.00  0.00     0.004 C 
ENDBRANCH  11  13
ENDBRANCH  10  11
BRANCH  10  15
ATOM     15  N   UNL A   1      31.867  27.216  24.075  1.00  0.00    -0.335 N 
ATOM     16  C   UNL A   1      31.765  26.872  22.750  1.00  0.00     0.326 C 
ATOM     17  H   UNL A   1      30.999  27.410  24.495  1.00  0.00     0.164 HD
ATOM     18  O   UNL A   1      30.690  27.164  22.208  1.00  0.00    -0.265 OA
BRANCH  16  19
ATOM     19  C   UNL A   1      32.871  26.103  22.000  1.00  0.00     0.471 C 
ATOM     20  F   UNL A   1      34.105  26.644  22.188  1.00  0.00    -0.162 F 
ATOM     21  F   UNL A   1      32.948  24.800  22.391  1.00  0.00    -0.162 F 
ATOM     22  F   UNL A   1      32.676  26.067  20.652  1.00  0.00    -0.162 F 
ENDBRANCH  16  19
ENDBRANCH  10  15
ENDBRANCH   8  10
ENDBRANCH   7   8
ENDBRANCH   6   7
ENDBRANCH   5   6
ENDBRANCH   4   5
ENDBRANCH   3   4
ENDBRANCH   2   3
ENDBRANCH   1   2
BRANCH   1  23
ATOM     23  C   UNL A   1      33.502  35.896  28.894  1.00  0.00     0.188 C 
BRANCH  23  24
ATOM     24  C   UNL A   1      32.932  35.578  30.274  1.00  0.00     0.188 C 
BRANCH  24  25
ATOM     25  O   UNL A   1      33.461  36.307  31.385  1.00  0.00    -0.376 OA
BRANCH  25  26
ATOM     26  C   UNL A   1      33.707  35.614  32.605  1.00  0.00     0.202 C 
BRANCH  26  27
ATOM     27  C   UNL A   1      35.181  35.359  32.926  1.00  0.00     0.261 C 
BRANCH  27  28
ATOM     28  O   UNL A   1      35.718  34.248  32.190  1.00  0.00    -0.460 OA
BRANCH  28  29
ATOM     29  C   UNL A   1      35.987  33.148  32.933  1.00  0.00     0.338 C 
ATOM     30  O   UNL A   1      35.535  32.858  34.025  1.00  0.00    -0.246 OA
BRANCH  29  31
ATOM     31  C   UNL A   1      36.857  32.238  32.167  1.00  0.00     0.060 A 
ATOM     32  C   UNL A   1      37.786  31.461  32.869  1.00  0.00     0.016 A 
ATOM     33  C   UNL A   1      36.838  32.239  30.770  1.00  0.00     0.016 A 
ATOM     34  C   UNL A   1      38.743  30.725  32.175  1.00  0.00     0.010 A 
ATOM     35  C   UNL A   1      37.806  31.512  30.075  1.00  0.00     0.010 A 
ATOM     36  C   UNL A   1      38.788  30.791  30.777  1.00  0.00    -0.014 A 
BRANCH  36  37
ATOM     37  C   UNL A   1      39.971  30.273  30.056  1.00  0.00     0.031 A 
ATOM     38  C   UNL A   1      41.153  31.184  29.871  1.00  0.00     0.074 A 
ATOM     39  C   UNL A   1      39.997  29.017  29.583  1.00  0.00     0.049 A 
ATOM     40  N   UNL A   1      42.268  30.976  29.222  1.00  0.00    -0.248 NA
ATOM     41  C   UNL A   1      41.061  32.513  30.502  1.00  0.00     0.031 C 
ATOM     42  C   UNL A   1      38.932  28.029  29.744  1.00  0.00     0.029 A 
ATOM     43  N   UNL A   1      40.961  28.363  28.859  1.00  0.00    -0.354 N 
ATOM     44  C   UNL A   1      43.006  32.145  29.359  1.00  0.00     0.074 A 
ATOM     45  C   UNL A   1      42.202  33.069  30.128  1.00  0.00     0.031 C 
ATOM     46  C   UNL A   1      39.295  26.895  29.119  1.00  0.00     0.029 A 
ATOM     47  C   UNL A   1      40.599  27.092  28.490  1.00  0.00     0.049 A 
ATOM     48  H   UNL A   1      41.828  28.767  28.625  1.00  0.00     0.167 HD
ATOM     49  C   UNL A   1      44.245  32.424  28.889  1.00  0.00     0.031 A 
ATOM     50  C   UNL A   1      41.241  26.201  27.711  1.00  0.00     0.031 A 
ATOM     51  C   UNL A   1      45.033  31.510  28.107  1.00  0.00     0.049 A 
ATOM     52  C   UNL A   1      42.582  26.563  27.132  1.00  0.00     0.074 A 
ATOM     53  C   UNL A   1      46.300  31.692  27.583  1.00  0.00     0.029 A 
ATOM     54  N   UNL A   1      44.618  30.243  27.729  1.00  0.00    -0.354 N 
ATOM     55  N   UNL A   1      43.278  27.664  27.280  1.00  0.00    -0.248 NA
ATOM     56  C   UNL A   1      43.229  25.553  26.281  1.00  0.00     0.031 C 
ATOM     57  C   UNL A   1      46.632  30.552  26.844  1.00  0.00     0.029 A 
ATOM     58  C   UNL A   1      45.595  29.639  26.957  1.00  0.00     0.049 A 
ATOM     59  H   UNL A   1      43.757  29.832  27.973  1.00  0.00     0.167 HD
ATOM     60  C   UNL A   1      44.455  27.470  26.566  1.00  0.00     0.074 A 
ATOM     61  C   UNL A   1      44.383  26.140  25.996  1.00  0.00     0.031 C 
ATOM     62  C   UNL A   1      45.502  28.314  26.399  1.00  0.00     0.031 A 
BRANCH  49  63
ATOM     63  C   UNL A   1      44.801  33.789  29.183  1.00  0.00    -0.014 A 
ATOM     64  C   UNL A   1      44.560  34.875  28.327  1.00  0.00     0.009 A 
ATOM     65  C   UNL A   1      45.566  33.993  30.343  1.00  0.00     0.009 A 
ATOM     66  C   UNL A   1      45.104  36.131  28.608  1.00  0.00     0.001 A 
ATOM     67  C   UNL A   1      46.085  35.256  30.635  1.00  0.00     0.001 A 
ATOM     68  C   UNL A   1      45.863  36.321  29.763  1.00  0.00     0.000 A 
ENDBRANCH  49  63
BRANCH  50  69
ATOM     69  C   UNL A   1      40.612  24.888  27.412  1.00  0.00    -0.014 A 
ATOM     70  C   UNL A   1      41.093  23.712  28.004  1.00  0.00     0.009 A 
ATOM     71  C   UNL A   1      39.529  24.807  26.521  1.00  0.00     0.009 A 
ATOM     72  C   UNL A   1      40.517  22.477  27.693  1.00  0.00     0.001 A 
ATOM     73  C   UNL A   1      38.937  23.576  26.234  1.00  0.00     0.001 A 
ATOM     74  C   UNL A   1      39.437  22.411  26.813  1.00  0.00     0.000 A 
ENDBRANCH  50  69
BRANCH  62  75
ATOM     75  C   UNL A   1      46.669  27.811  25.596  1.00  0.00    -0.014 A 
ATOM     76  C   UNL A   1      47.779  27.216  26.214  1.00  0.00     0.009 A 
ATOM     77  C   UNL A   1      46.632  27.894  24.195  1.00  0.00     0.009 A 
ATOM     78  C   UNL A   1      48.845  26.744  25.447  1.00  0.00     0.001 A 
ATOM     79  C   UNL A   1      47.686  27.395  23.429  1.00  0.00     0.001 A 
ATOM     80  C   UNL A   1      48.795  26.828  24.055  1.00  0.00     0.000 A 
ENDBRANCH  62  75
ENDBRANCH  36  37
ENDBRANCH  29  31
ENDBRANCH  28  29
ENDBRANCH  27  28
ENDBRANCH  26  27
ENDBRANCH  25  26
ENDBRANCH  24  25
ENDBRANCH  23  24
ENDBRANCH   1  23
TORSDOF 24
ENDMDL
MODEL 2
REMARK VINA RESULT:      -8.5      3.758      6.712
REMARK SMILES CC[C@@H](C)[C@@H](NC(=O)C(F)(F)F)C(=O)OCCOCCOCCOCCOC(=O)c1ccc(-c2c3nc(c(-c4ccccc4)c4ccc([nH]4)c(-c4ccccc4)c4nc(c(-c5ccccc5)c5ccc2[nH]5)C=C4)C=C3)cc1
REMARK SMILES IDX 21 1 20 2 19 3 18 4 17 5 16 6 15 7 13 8 14 9 5 10 3 11 4 12
REMARK SMILES IDX 2 13 1 14 6 15 7 16 8 18 9 19 10 20 11 21 12 22 22 23 23 24
REMARK SMILES IDX 24 25 25 26 26 27 27 28 28 29 29 30 30 31 31 32 77 33 32 34
REMARK SMILES IDX 76 35 33 36 34 37 35 38 70 39 36 40 75 41 69 42 71 43 37 44
REMARK SMILES IDX 74 45 68 46 67 47 38 49 60 50 45 51 59 52 46 53 49 54 58 55
REMARK SMILES IDX 72 56 47 57 48 58 57 60 73 61 50 62 39 63 40 64 44 65 41 66
REMARK SMILES IDX 43 67 42 68 61 69 62 70 66 71 63 72 65 73 64 74 51 75 52 76
REMARK SMILES IDX 56 77 53 78 55 79 54 80
REMARK H PARENT 6 17 71 48 49 59
REMARK Flexibility Score: inf
ROOT
ATOM      1  O   UNL A   1      31.233  28.952  23.032  1.00  0.00    -0.377 OA
ENDROOT
BRANCH   1   2
ATOM      2  C   UNL A   1      30.320  28.007  22.506  1.00  0.00     0.188 C 
BRANCH   2   3
ATOM      3  C   UNL A   1      29.325  27.446  23.518  1.00  0.00     0.188 C 
BRANCH   3   4
ATOM      4  O   UNL A   1      29.552  26.105  23.917  1.00  0.00    -0.376 OA
BRANCH   4   5
ATOM      5  C   UNL A   1      30.346  25.868  25.082  1.00  0.00     0.202 C 
BRANCH   5   6
ATOM      6  C   UNL A   1      30.994  24.500  25.339  1.00  0.00     0.261 C 
BRANCH   6   7
ATOM      7  O   UNL A   1      32.412  24.401  25.018  1.00  0.00    -0.462 OA
BRANCH   7   8
ATOM      8  C   UNL A   1      32.722  23.657  23.923  1.00  0.00     0.329 C 
ATOM      9  O   UNL A   1      32.184  23.800  22.826  1.00  0.00    -0.250 OA
BRANCH   8  10
ATOM     10  C   UNL A   1      33.619  22.424  24.187  1.00  0.00     0.195 C 
BRANCH  10  11
ATOM     11  C   UNL A   1      33.099  20.954  24.315  1.00  0.00     0.019 C 
ATOM     12  C   UNL A   1      31.981  20.834  25.358  1.00  0.00     0.010 C 
BRANCH  11  13
ATOM     13  C   UNL A   1      34.284  20.022  24.724  1.00  0.00     0.002 C 
ATOM     14  C   UNL A   1      34.120  18.532  24.437  1.00  0.00     0.004 C 
ENDBRANCH  11  13
ENDBRANCH  10  11
BRANCH  10  15
ATOM     15  N   UNL A   1      34.923  22.520  23.489  1.00  0.00    -0.335 N 
ATOM     16  C   UNL A   1      36.098  23.169  23.776  1.00  0.00     0.326 C 
ATOM     17  H   UNL A   1      34.953  22.014  22.646  1.00  0.00     0.164 HD
ATOM     18  O   UNL A   1      36.879  23.299  22.823  1.00  0.00    -0.265 OA
BRANCH  16  19
ATOM     19  C   UNL A   1      36.467  23.637  25.198  1.00  0.00     0.471 C 
ATOM     20  F   UNL A   1      35.696  24.673  25.626  1.00  0.00    -0.162 F 
ATOM     21  F   UNL A   1      36.335  22.641  26.118  1.00  0.00    -0.162 F 
ATOM     22  F   UNL A   1      37.759  24.059  25.303  1.00  0.00    -0.162 F 
ENDBRANCH  16  19
ENDBRANCH  10  15
ENDBRANCH   8  10
ENDBRANCH   7   8
ENDBRANCH   6   7
ENDBRANCH   5   6
ENDBRANCH   4   5
ENDBRANCH   3   4
ENDBRANCH   2   3
ENDBRANCH   1   2
BRANCH   1  23
ATOM     23  C   UNL A   1      31.217  29.265  24.424  1.00  0.00     0.188 C 
BRANCH  23  24
ATOM     24  C   UNL A   1      32.528  29.665  25.096  1.00  0.00     0.188 C 
BRANCH  24  25
ATOM     25  O   UNL A   1      32.453  30.595  26.179  1.00  0.00    -0.376 OA
BRANCH  25  26
ATOM     26  C   UNL A   1      31.266  31.366  26.340  1.00  0.00     0.202 C 
BRANCH  26  27
ATOM     27  C   UNL A   1      31.444  32.696  27.073  1.00  0.00     0.261 C 
BRANCH  27  28
ATOM     28  O   UNL A   1      32.760  33.246  26.898  1.00  0.00    -0.460 OA
BRANCH  28  29
ATOM     29  C   UNL A   1      33.349  33.691  28.034  1.00  0.00     0.338 C 
ATOM     30  O   UNL A   1      32.911  34.499  28.832  1.00  0.00    -0.246 OA
BRANCH  29  31
ATOM     31  C   UNL A   1      34.605  32.954  28.259  1.00  0.00     0.060 A 
ATOM     32  C   UNL A   1      34.535  31.568  28.452  1.00  0.00     0.016 A 
ATOM     33  C   UNL A   1      35.818  33.633  28.396  1.00  0.00     0.016 A 
ATOM     34  C   UNL A   1      35.670  30.863  28.843  1.00  0.00     0.010 A 
ATOM     35  C   UNL A   1      36.952  32.927  28.800  1.00  0.00     0.010 A 
ATOM     36  C   UNL A   1      36.869  31.550  29.069  1.00  0.00    -0.014 A 
BRANCH  36  37
ATOM     37  C   UNL A   1      37.980  30.873  29.773  1.00  0.00     0.031 A 
ATOM     38  C   UNL A   1      38.205  31.188  31.226  1.00  0.00     0.074 A 
ATOM     39  C   UNL A   1      38.767  29.991  29.136  1.00  0.00     0.049 A 
ATOM     40  N   UNL A   1      39.148  30.772  32.030  1.00  0.00    -0.248 NA
ATOM     41  C   UNL A   1      37.235  32.102  31.856  1.00  0.00     0.031 C 
ATOM     42  C   UNL A   1      38.614  29.571  27.744  1.00  0.00     0.029 A 
ATOM     43  N   UNL A   1      39.861  29.297  29.583  1.00  0.00    -0.354 N 
ATOM     44  C   UNL A   1      38.892  31.375  33.255  1.00  0.00     0.074 A 
ATOM     45  C   UNL A   1      37.722  32.208  33.083  1.00  0.00     0.031 C 
ATOM     46  C   UNL A   1      39.594  28.700  27.445  1.00  0.00     0.029 A 
ATOM     47  C   UNL A   1      40.457  28.532  28.613  1.00  0.00     0.049 A 
ATOM     48  H   UNL A   1      40.189  29.345  30.510  1.00  0.00     0.167 HD
ATOM     49  C   UNL A   1      39.567  31.244  34.420  1.00  0.00     0.031 A 
ATOM     50  C   UNL A   1      41.585  27.799  28.659  1.00  0.00     0.031 A 
ATOM     51  C   UNL A   1      40.742  30.431  34.582  1.00  0.00     0.049 A 
ATOM     52  C   UNL A   1      42.366  27.732  29.944  1.00  0.00     0.074 A 
ATOM     53  C   UNL A   1      41.502  30.227  35.720  1.00  0.00     0.029 A 
ATOM     54  N   UNL A   1      41.331  29.694  33.567  1.00  0.00    -0.354 N 
ATOM     55  N   UNL A   1      42.107  28.293  31.100  1.00  0.00    -0.248 NA
ATOM     56  C   UNL A   1      43.595  26.924  29.930  1.00  0.00     0.031 C 
ATOM     57  C   UNL A   1      42.581  29.406  35.380  1.00  0.00     0.029 A 
ATOM     58  C   UNL A   1      42.460  29.053  34.045  1.00  0.00     0.049 A 
ATOM     59  H   UNL A   1      40.996  29.635  32.642  1.00  0.00     0.167 HD
ATOM     60  C   UNL A   1      43.122  27.885  31.958  1.00  0.00     0.074 A 
ATOM     61  C   UNL A   1      43.993  27.018  31.191  1.00  0.00     0.031 C 
ATOM     62  C   UNL A   1      43.314  28.196  33.263  1.00  0.00     0.031 A 
BRANCH  49  63
ATOM     63  C   UNL A   1      39.065  32.031  35.598  1.00  0.00    -0.014 A 
ATOM     64  C   UNL A   1      38.164  31.473  36.518  1.00  0.00     0.009 A 
ATOM     65  C   UNL A   1      39.514  33.346  35.799  1.00  0.00     0.009 A 
ATOM     66  C   UNL A   1      37.694  32.229  37.595  1.00  0.00     0.001 A 
ATOM     67  C   UNL A   1      39.064  34.089  36.891  1.00  0.00     0.001 A 
ATOM     68  C   UNL A   1      38.146  33.534  37.783  1.00  0.00     0.000 A 
ENDBRANCH  49  63
BRANCH  50  69
ATOM     69  C   UNL A   1      42.059  27.088  27.443  1.00  0.00    -0.014 A 
ATOM     70  C   UNL A   1      42.911  27.722  26.528  1.00  0.00     0.009 A 
ATOM     71  C   UNL A   1      41.652  25.768  27.189  1.00  0.00     0.009 A 
ATOM     72  C   UNL A   1      43.326  27.058  25.371  1.00  0.00     0.001 A 
ATOM     73  C   UNL A   1      42.092  25.097  26.047  1.00  0.00     0.001 A 
ATOM     74  C   UNL A   1      42.921  25.746  25.134  1.00  0.00     0.000 A 
ENDBRANCH  50  69
BRANCH  62  75
ATOM     75  C   UNL A   1      44.493  27.568  33.953  1.00  0.00    -0.014 A 
ATOM     76  C   UNL A   1      44.394  26.313  34.572  1.00  0.00     0.009 A 
ATOM     77  C   UNL A   1      45.733  28.225  33.940  1.00  0.00     0.009 A 
ATOM     78  C   UNL A   1      45.506  25.743  35.193  1.00  0.00     0.001 A 
ATOM     79  C   UNL A   1      46.851  27.641  34.537  1.00  0.00     0.001 A 
ATOM     80  C   UNL A   1      46.735  26.405  35.171  1.00  0.00     0.000 A 
ENDBRANCH  62  75
ENDBRANCH  36  37
ENDBRANCH  29  31
ENDBRANCH  28  29
ENDBRANCH  27  28
ENDBRANCH  26  27
ENDBRANCH  25  26
ENDBRANCH  24  25
ENDBRANCH  23  24
ENDBRANCH   1  23
TORSDOF 24
ENDMDL
MODEL 3
REMARK VINA RESULT:      -8.2      1.355      2.150
REMARK SMILES CC[C@@H](C)[C@@H](NC(=O)C(F)(F)F)C(=O)OCCOCCOCCOCCOC(=O)c1ccc(-c2c3nc(c(-c4ccccc4)c4ccc([nH]4)c(-c4ccccc4)c4nc(c(-c5ccccc5)c5ccc2[nH]5)C=C4)C=C3)cc1
REMARK SMILES IDX 21 1 20 2 19 3 18 4 17 5 16 6 15 7 13 8 14 9 5 10 3 11 4 12
REMARK SMILES IDX 2 13 1 14 6 15 7 16 8 18 9 19 10 20 11 21 12 22 22 23 23 24
REMARK SMILES IDX 24 25 25 26 26 27 27 28 28 29 29 30 30 31 31 32 77 33 32 34
REMARK SMILES IDX 76 35 33 36 34 37 35 38 70 39 36 40 75 41 69 42 71 43 37 44
REMARK SMILES IDX 74 45 68 46 67 47 38 49 60 50 45 51 59 52 46 53 49 54 58 55
REMARK SMILES IDX 72 56 47 57 48 58 57 60 73 61 50 62 39 63 40 64 44 65 41 66
REMARK SMILES IDX 43 67 42 68 61 69 62 70 66 71 63 72 65 73 64 74 51 75 52 76
REMARK SMILES IDX 56 77 53 78 55 79 54 80
REMARK H PARENT 6 17 71 48 49 59
REMARK Flexibility Score: inf
ROOT
ATOM      1  O   UNL A   1      34.924  32.706  29.164  1.00  0.00    -0.377 OA
ENDROOT
BRANCH   1   2
ATOM      2  C   UNL A   1      34.063  32.284  28.122  1.00  0.00     0.188 C 
BRANCH   2   3
ATOM      3  C   UNL A   1      34.464  30.975  27.450  1.00  0.00     0.188 C 
BRANCH   3   4
ATOM      4  O   UNL A   1      33.442  29.998  27.360  1.00  0.00    -0.376 OA
BRANCH   4   5
ATOM      5  C   UNL A   1      33.802  28.674  26.956  1.00  0.00     0.202 C 
BRANCH   5   6
ATOM      6  C   UNL A   1      32.883  27.839  26.053  1.00  0.00     0.261 C 
BRANCH   6   7
ATOM      7  O   UNL A   1      32.868  26.406  26.317  1.00  0.00    -0.462 OA
BRANCH   7   8
ATOM      8  C   UNL A   1      31.683  25.776  26.102  1.00  0.00     0.329 C 
ATOM      9  O   UNL A   1      31.172  24.991  26.901  1.00  0.00    -0.250 OA
BRANCH   8  10
ATOM     10  C   UNL A   1      31.115  25.894  24.669  1.00  0.00     0.195 C 
BRANCH  10  11
ATOM     11  C   UNL A   1      30.020  26.920  24.226  1.00  0.00     0.019 C 
ATOM     12  C   UNL A   1      28.641  26.262  24.098  1.00  0.00     0.010 C 
BRANCH  11  13
ATOM     13  C   UNL A   1      30.421  27.540  22.848  1.00  0.00     0.002 C 
ATOM     14  C   UNL A   1      29.835  28.908  22.511  1.00  0.00     0.004 C 
ENDBRANCH  11  13
ENDBRANCH  10  11
BRANCH  10  15
ATOM     15  N   UNL A   1      32.151  25.668  23.634  1.00  0.00    -0.335 N 
ATOM     16  C   UNL A   1      32.849  24.558  23.228  1.00  0.00     0.326 C 
ATOM     17  H   UNL A   1      32.389  26.482  23.134  1.00  0.00     0.164 HD
ATOM     18  O   UNL A   1      33.867  24.786  22.559  1.00  0.00    -0.265 OA
BRANCH  16  19
ATOM     19  C   UNL A   1      32.367  23.120  23.509  1.00  0.00     0.471 C 
ATOM     20  F   UNL A   1      33.342  22.193  23.310  1.00  0.00    -0.162 F 
ATOM     21  F   UNL A   1      31.930  22.965  24.790  1.00  0.00    -0.162 F 
ATOM     22  F   UNL A   1      31.321  22.744  22.720  1.00  0.00    -0.162 F 
ENDBRANCH  16  19
ENDBRANCH  10  15
ENDBRANCH   8  10
ENDBRANCH   7   8
ENDBRANCH   6   7
ENDBRANCH   5   6
ENDBRANCH   4   5
ENDBRANCH   3   4
ENDBRANCH   2   3
ENDBRANCH   1   2
BRANCH   1  23
ATOM     23  C   UNL A   1      34.976  34.082  29.537  1.00  0.00     0.188 C 
BRANCH  23  24
ATOM     24  C   UNL A   1      33.754  34.700  30.212  1.00  0.00     0.188 C 
BRANCH  24  25
ATOM     25  O   UNL A   1      33.945  35.289  31.500  1.00  0.00    -0.376 OA
BRANCH  25  26
ATOM     26  C   UNL A   1      33.568  34.547  32.657  1.00  0.00     0.202 C 
BRANCH  26  27
ATOM     27  C   UNL A   1      34.719  34.149  33.582  1.00  0.00     0.261 C 
BRANCH  27  28
ATOM     28  O   UNL A   1      35.827  33.581  32.864  1.00  0.00    -0.460 OA
BRANCH  28  29
ATOM     29  C   UNL A   1      36.631  32.776  33.598  1.00  0.00     0.338 C 
ATOM     30  O   UNL A   1      36.672  32.670  34.810  1.00  0.00    -0.246 OA
BRANCH  29  31
ATOM     31  C   UNL A   1      37.415  31.912  32.699  1.00  0.00     0.060 A 
ATOM     32  C   UNL A   1      38.272  30.964  33.271  1.00  0.00     0.016 A 
ATOM     33  C   UNL A   1      37.396  32.114  31.317  1.00  0.00     0.016 A 
ATOM     34  C   UNL A   1      39.160  30.254  32.466  1.00  0.00     0.010 A 
ATOM     35  C   UNL A   1      38.294  31.412  30.512  1.00  0.00     0.010 A 
ATOM     36  C   UNL A   1      39.209  30.514  31.091  1.00  0.00    -0.014 A 
BRANCH  36  37
ATOM     37  C   UNL A   1      40.341  30.003  30.288  1.00  0.00     0.031 A 
ATOM     38  C   UNL A   1      41.537  30.892  30.090  1.00  0.00     0.074 A 
ATOM     39  C   UNL A   1      40.308  28.772  29.753  1.00  0.00     0.049 A 
ATOM     40  N   UNL A   1      42.614  30.688  29.376  1.00  0.00    -0.248 NA
ATOM     41  C   UNL A   1      41.514  32.189  30.788  1.00  0.00     0.031 C 
ATOM     42  C   UNL A   1      39.225  27.805  29.918  1.00  0.00     0.029 A 
ATOM     43  N   UNL A   1      41.218  28.131  28.951  1.00  0.00    -0.354 N 
ATOM     44  C   UNL A   1      43.390  31.829  29.533  1.00  0.00     0.074 A 
ATOM     45  C   UNL A   1      42.651  32.733  30.386  1.00  0.00     0.031 C 
ATOM     46  C   UNL A   1      39.525  26.695  29.222  1.00  0.00     0.029 A 
ATOM     47  C   UNL A   1      40.803  26.890  28.539  1.00  0.00     0.049 A 
ATOM     48  H   UNL A   1      42.083  28.524  28.695  1.00  0.00     0.167 HD
ATOM     49  C   UNL A   1      44.612  32.099  29.017  1.00  0.00     0.031 A 
ATOM     50  C   UNL A   1      41.381  26.023  27.687  1.00  0.00     0.031 A 
ATOM     51  C   UNL A   1      45.335  31.206  28.153  1.00  0.00     0.049 A 
ATOM     52  C   UNL A   1      42.702  26.378  27.060  1.00  0.00     0.074 A 
ATOM     53  C   UNL A   1      46.581  31.381  27.576  1.00  0.00     0.029 A 
ATOM     54  N   UNL A   1      44.867  29.970  27.735  1.00  0.00    -0.354 N 
ATOM     55  N   UNL A   1      43.435  27.452  27.227  1.00  0.00    -0.248 NA
ATOM     56  C   UNL A   1      43.278  25.396  26.130  1.00  0.00     0.031 C 
ATOM     57  C   UNL A   1      46.844  30.271  26.767  1.00  0.00     0.029 A 
ATOM     58  C   UNL A   1      45.789  29.381  26.887  1.00  0.00     0.049 A 
ATOM     59  H   UNL A   1      44.007  29.570  28.001  1.00  0.00     0.167 HD
ATOM     60  C   UNL A   1      44.570  27.264  26.447  1.00  0.00     0.074 A 
ATOM     61  C   UNL A   1      44.433  25.966  25.817  1.00  0.00     0.031 C 
ATOM     62  C   UNL A   1      45.631  28.089  26.270  1.00  0.00     0.031 A 
BRANCH  49  63
ATOM     63  C   UNL A   1      45.220  33.432  29.349  1.00  0.00    -0.014 A 
ATOM     64  C   UNL A   1      46.048  33.598  30.472  1.00  0.00     0.009 A 
ATOM     65  C   UNL A   1      44.973  34.536  28.518  1.00  0.00     0.009 A 
ATOM     66  C   UNL A   1      46.586  34.852  30.774  1.00  0.00     0.001 A 
ATOM     67  C   UNL A   1      45.536  35.781  28.808  1.00  0.00     0.001 A 
ATOM     68  C   UNL A   1      46.333  35.941  29.941  1.00  0.00     0.000 A 
ENDBRANCH  49  63
BRANCH  50  69
ATOM     69  C   UNL A   1      40.701  24.743  27.355  1.00  0.00    -0.014 A 
ATOM     70  C   UNL A   1      39.533  24.732  26.580  1.00  0.00     0.009 A 
ATOM     71  C   UNL A   1      41.218  23.524  27.823  1.00  0.00     0.009 A 
ATOM     72  C   UNL A   1      38.883  23.527  26.300  1.00  0.00     0.001 A 
ATOM     73  C   UNL A   1      40.581  22.320  27.518  1.00  0.00     0.001 A 
ATOM     74  C   UNL A   1      39.410  22.323  26.763  1.00  0.00     0.000 A 
ENDBRANCH  50  69
BRANCH  62  75
ATOM     75  C   UNL A   1      46.743  27.596  25.386  1.00  0.00    -0.014 A 
ATOM     76  C   UNL A   1      47.744  26.745  25.877  1.00  0.00     0.009 A 
ATOM     77  C   UNL A   1      46.761  27.957  24.030  1.00  0.00     0.009 A 
ATOM     78  C   UNL A   1      48.759  26.289  25.034  1.00  0.00     0.001 A 
ATOM     79  C   UNL A   1      47.760  27.477  23.182  1.00  0.00     0.001 A 
ATOM     80  C   UNL A   1      48.763  26.651  23.687  1.00  0.00     0.000 A 
ENDBRANCH  62  75
ENDBRANCH  36  37
ENDBRANCH  29  31
ENDBRANCH  28  29
ENDBRANCH  27  28
ENDBRANCH  26  27
ENDBRANCH  25  26
ENDBRANCH  24  25
ENDBRANCH  23  24
ENDBRANCH   1  23
TORSDOF 24
ENDMDL
