MODEL 1
REMARK VINA RESULT:      -9.1      0.000      0.000
REMARK SMILES CC1(C)S[C@@H](c2ccsc2)[NH2+][C@@H]1C(=O)OCCOCCOCCOCCOC(=O)c1ccc(-c2c3nc(c(-c4ccccc4)c4ccc([nH]4)c(-c4ccccc4)c4nc(c(-c5ccccc5)c5ccc2[nH]5)C=C4)C=C3)cc1
REMARK SMILES IDX 22 1 21 2 20 3 19 4 18 5 17 6 16 7 15 8 13 9 14 10 12 11
REMARK SMILES IDX 1 12 2 13 3 14 4 15 5 16 11 17 6 20 7 21 10 22 8 23 9 24
REMARK SMILES IDX 23 25 24 26 25 27 26 28 27 29 28 30 29 31 30 32 31 33 77 34
REMARK SMILES IDX 32 35 76 36 33 37 34 38 35 39 70 40 36 41 75 42 69 43 71 44
REMARK SMILES IDX 37 45 74 46 68 47 67 48 38 50 60 51 45 52 59 53 46 54 49 55
REMARK SMILES IDX 58 56 72 57 47 58 48 59 57 61 73 62 50 63 39 64 40 65 44 66
REMARK SMILES IDX 41 67 43 68 42 69 61 70 62 71 66 72 63 73 65 74 64 75 51 76
REMARK SMILES IDX 52 77 56 78 53 79 55 80 54 81
REMARK H PARENT 11 18 11 19 71 49 49 60
REMARK Flexibility Score: inf
ROOT
ATOM      1  C   UNL A   1      36.162  23.041  25.172  1.00  0.00     0.188 C 
ENDROOT
BRANCH   1   2
ATOM      2  O   UNL A   1      34.830  22.908  25.662  1.00  0.00    -0.377 OA
BRANCH   2   3
ATOM      3  C   UNL A   1      34.632  22.864  27.060  1.00  0.00     0.188 C 
BRANCH   3   4
ATOM      4  C   UNL A   1      33.263  22.298  27.492  1.00  0.00     0.188 C 
BRANCH   4   5
ATOM      5  O   UNL A   1      32.219  23.263  27.489  1.00  0.00    -0.376 OA
BRANCH   5   6
ATOM      6  C   UNL A   1      31.166  23.173  26.539  1.00  0.00     0.202 C 
BRANCH   6   7
ATOM      7  C   UNL A   1      30.693  24.428  25.791  1.00  0.00     0.261 C 
BRANCH   7   8
ATOM      8  O   UNL A   1      30.825  25.638  26.539  1.00  0.00    -0.459 OA
BRANCH   8   9
ATOM      9  C   UNL A   1      31.444  26.683  25.928  1.00  0.00     0.366 C 
ATOM     10  O   UNL A   1      32.136  27.508  26.503  1.00  0.00    -0.245 OA
BRANCH   9  11
ATOM     11  C   UNL A   1      31.150  26.599  24.411  1.00  0.00     0.310 C 
ATOM     12  C   UNL A   1      31.984  26.292  22.027  1.00  0.00     0.030 C 
ATOM     13  C   UNL A   1      32.325  26.815  23.440  1.00  0.00     0.079 C 
ATOM     14  C   UNL A   1      33.636  26.148  23.864  1.00  0.00     0.030 C 
ATOM     15  S   UNL A   1      32.400  28.636  23.343  1.00  0.00    -0.081 SA
ATOM     16  C   UNL A   1      30.737  28.867  24.050  1.00  0.00     0.275 C 
ATOM     17  N   UNL A   1      30.077  27.563  24.094  1.00  0.00    -0.319 N 
ATOM     18  H   UNL A   1      29.655  27.345  23.190  1.00  0.00     0.348 HD
ATOM     19  H   UNL A   1      29.324  27.537  24.781  1.00  0.00     0.348 HD
BRANCH  16  20
ATOM     20  C   UNL A   1      29.841  29.775  23.269  1.00  0.00     0.031 A 
ATOM     21  C   UNL A   1      29.375  29.560  21.925  1.00  0.00     0.022 A 
ATOM     22  C   UNL A   1      29.269  30.920  23.799  1.00  0.00     0.075 A 
ATOM     23  C   UNL A   1      28.520  30.548  21.494  1.00  0.00     0.065 A 
ATOM     24  S   UNL A   1      28.248  31.729  22.695  1.00  0.00    -0.152 S 
ENDBRANCH  16  20
ENDBRANCH   9  11
ENDBRANCH   8   9
ENDBRANCH   7   8
ENDBRANCH   6   7
ENDBRANCH   5   6
ENDBRANCH   4   5
ENDBRANCH   3   4
ENDBRANCH   2   3
ENDBRANCH   1   2
BRANCH   1  25
ATOM     25  C   UNL A   1      37.339  23.543  26.051  1.00  0.00     0.188 C 
BRANCH  25  26
ATOM     26  O   UNL A   1      38.522  22.761  25.995  1.00  0.00    -0.376 OA
BRANCH  26  27
ATOM     27  C   UNL A   1      38.462  21.476  25.403  1.00  0.00     0.202 C 
BRANCH  27  28
ATOM     28  C   UNL A   1      39.251  20.361  26.106  1.00  0.00     0.261 C 
BRANCH  28  29
ATOM     29  O   UNL A   1      40.371  19.838  25.377  1.00  0.00    -0.460 OA
BRANCH  29  30
ATOM     30  C   UNL A   1      41.492  19.582  26.082  1.00  0.00     0.338 C 
ATOM     31  O   UNL A   1      42.062  18.509  26.198  1.00  0.00    -0.246 OA
BRANCH  30  32
ATOM     32  C   UNL A   1      42.043  20.873  26.539  1.00  0.00     0.060 A 
ATOM     33  C   UNL A   1      41.997  21.185  27.905  1.00  0.00     0.016 A 
ATOM     34  C   UNL A   1      42.622  21.758  25.627  1.00  0.00     0.016 A 
ATOM     35  C   UNL A   1      42.494  22.406  28.357  1.00  0.00     0.010 A 
ATOM     36  C   UNL A   1      43.094  22.992  26.077  1.00  0.00     0.010 A 
ATOM     37  C   UNL A   1      42.995  23.335  27.438  1.00  0.00    -0.014 A 
BRANCH  37  38
ATOM     38  C   UNL A   1      43.193  24.741  27.862  1.00  0.00     0.031 A 
ATOM     39  C   UNL A   1      44.603  25.217  28.084  1.00  0.00     0.074 A 
ATOM     40  C   UNL A   1      42.160  25.587  28.014  1.00  0.00     0.049 A 
ATOM     41  N   UNL A   1      45.034  26.387  28.480  1.00  0.00    -0.248 NA
ATOM     42  C   UNL A   1      45.672  24.237  27.824  1.00  0.00     0.031 C 
ATOM     43  C   UNL A   1      40.755  25.262  27.778  1.00  0.00     0.029 A 
ATOM     44  N   UNL A   1      42.143  26.900  28.410  1.00  0.00    -0.354 N 
ATOM     45  C   UNL A   1      46.418  26.280  28.526  1.00  0.00     0.074 A 
ATOM     46  C   UNL A   1      46.754  24.925  28.149  1.00  0.00     0.031 C 
ATOM     47  C   UNL A   1      40.010  26.351  28.041  1.00  0.00     0.029 A 
ATOM     48  C   UNL A   1      40.881  27.432  28.497  1.00  0.00     0.049 A 
ATOM     49  H   UNL A   1      42.960  27.413  28.613  1.00  0.00     0.167 HD
ATOM     50  C   UNL A   1      47.331  27.226  28.847  1.00  0.00     0.031 A 
ATOM     51  C   UNL A   1      40.478  28.648  28.917  1.00  0.00     0.031 A 
ATOM     52  C   UNL A   1      46.996  28.568  29.241  1.00  0.00     0.049 A 
ATOM     53  C   UNL A   1      41.509  29.656  29.357  1.00  0.00     0.074 A 
ATOM     54  C   UNL A   1      47.847  29.604  29.579  1.00  0.00     0.029 A 
ATOM     55  N   UNL A   1      45.703  29.053  29.361  1.00  0.00    -0.354 N 
ATOM     56  N   UNL A   1      42.817  29.554  29.374  1.00  0.00    -0.248 NA
ATOM     57  C   UNL A   1      41.004  30.954  29.829  1.00  0.00     0.031 C 
ATOM     58  C   UNL A   1      47.067  30.698  29.968  1.00  0.00     0.029 A 
ATOM     59  C   UNL A   1      45.732  30.366  29.799  1.00  0.00     0.049 A 
ATOM     60  H   UNL A   1      44.886  28.540  29.165  1.00  0.00     0.167 HD
ATOM     61  C   UNL A   1      43.289  30.782  29.822  1.00  0.00     0.074 A 
ATOM     62  C   UNL A   1      42.128  31.618  30.050  1.00  0.00     0.031 C 
ATOM     63  C   UNL A   1      44.569  31.185  30.023  1.00  0.00     0.031 A 
BRANCH  50  64
ATOM     64  C   UNL A   1      48.779  26.823  28.826  1.00  0.00    -0.014 A 
ATOM     65  C   UNL A   1      49.414  26.304  29.966  1.00  0.00     0.009 A 
ATOM     66  C   UNL A   1      49.516  26.947  27.637  1.00  0.00     0.009 A 
ATOM     67  C   UNL A   1      50.764  25.950  29.925  1.00  0.00     0.001 A 
ATOM     68  C   UNL A   1      50.856  26.562  27.591  1.00  0.00     0.001 A 
ATOM     69  C   UNL A   1      51.483  26.074  28.736  1.00  0.00     0.000 A 
ENDBRANCH  50  64
BRANCH  51  70
ATOM     70  C   UNL A   1      39.029  28.981  28.967  1.00  0.00    -0.014 A 
ATOM     71  C   UNL A   1      38.382  29.546  27.859  1.00  0.00     0.009 A 
ATOM     72  C   UNL A   1      38.292  28.765  30.143  1.00  0.00     0.009 A 
ATOM     73  C   UNL A   1      37.037  29.916  27.935  1.00  0.00     0.001 A 
ATOM     74  C   UNL A   1      36.938  29.104  30.205  1.00  0.00     0.001 A 
ATOM     75  C   UNL A   1      36.315  29.689  29.106  1.00  0.00     0.000 A 
ENDBRANCH  51  70
BRANCH  63  76
ATOM     76  C   UNL A   1      44.785  32.607  30.468  1.00  0.00    -0.014 A 
ATOM     77  C   UNL A   1      44.718  32.974  31.821  1.00  0.00     0.009 A 
ATOM     78  C   UNL A   1      45.098  33.590  29.515  1.00  0.00     0.009 A 
ATOM     79  C   UNL A   1      44.917  34.303  32.205  1.00  0.00     0.001 A 
ATOM     80  C   UNL A   1      45.332  34.910  29.904  1.00  0.00     0.001 A 
ATOM     81  C   UNL A   1      45.229  35.267  31.246  1.00  0.00     0.000 A 
ENDBRANCH  63  76
ENDBRANCH  37  38
ENDBRANCH  30  32
ENDBRANCH  29  30
ENDBRANCH  28  29
ENDBRANCH  27  28
ENDBRANCH  26  27
ENDBRANCH  25  26
ENDBRANCH   1  25
TORSDOF 21
ENDMDL
MODEL 2
REMARK VINA RESULT:      -9.0      0.720      5.935
REMARK SMILES CC1(C)S[C@@H](c2ccsc2)[NH2+][C@@H]1C(=O)OCCOCCOCCOCCOC(=O)c1ccc(-c2c3nc(c(-c4ccccc4)c4ccc([nH]4)c(-c4ccccc4)c4nc(c(-c5ccccc5)c5ccc2[nH]5)C=C4)C=C3)cc1
REMARK SMILES IDX 22 1 21 2 20 3 19 4 18 5 17 6 16 7 15 8 13 9 14 10 12 11
REMARK SMILES IDX 1 12 2 13 3 14 4 15 5 16 11 17 6 20 7 21 10 22 8 23 9 24
REMARK SMILES IDX 23 25 24 26 25 27 26 28 27 29 28 30 29 31 30 32 31 33 77 34
REMARK SMILES IDX 32 35 76 36 33 37 34 38 35 39 70 40 36 41 75 42 69 43 71 44
REMARK SMILES IDX 37 45 74 46 68 47 67 48 38 50 60 51 45 52 59 53 46 54 49 55
REMARK SMILES IDX 58 56 72 57 47 58 48 59 57 61 73 62 50 63 39 64 40 65 44 66
REMARK SMILES IDX 41 67 43 68 42 69 61 70 62 71 66 72 63 73 65 74 64 75 51 76
REMARK SMILES IDX 52 77 56 78 53 79 55 80 54 81
REMARK H PARENT 11 18 11 19 71 49 49 60
REMARK Flexibility Score: inf
ROOT
ATOM      1  C   UNL A   1      36.517  22.687  24.792  1.00  0.00     0.188 C 
ENDROOT
BRANCH   1   2
ATOM      2  O   UNL A   1      35.161  22.601  25.223  1.00  0.00    -0.377 OA
BRANCH   2   3
ATOM      3  C   UNL A   1      34.906  22.386  26.596  1.00  0.00     0.188 C 
BRANCH   3   4
ATOM      4  C   UNL A   1      33.470  21.917  26.912  1.00  0.00     0.188 C 
BRANCH   4   5
ATOM      5  O   UNL A   1      32.584  22.977  27.244  1.00  0.00    -0.376 OA
BRANCH   5   6
ATOM      6  C   UNL A   1      31.240  22.957  26.782  1.00  0.00     0.202 C 
BRANCH   6   7
ATOM      7  C   UNL A   1      30.607  24.229  26.197  1.00  0.00     0.261 C 
BRANCH   7   8
ATOM      8  O   UNL A   1      31.121  25.443  26.746  1.00  0.00    -0.459 OA
BRANCH   8   9
ATOM      9  C   UNL A   1      31.898  26.211  25.938  1.00  0.00     0.366 C 
ATOM     10  O   UNL A   1      32.882  26.830  26.310  1.00  0.00    -0.245 OA
BRANCH   9  11
ATOM     11  C   UNL A   1      31.339  26.117  24.498  1.00  0.00     0.310 C 
ATOM     12  C   UNL A   1      31.738  25.802  22.005  1.00  0.00     0.030 C 
ATOM     13  C   UNL A   1      32.321  26.336  23.333  1.00  0.00     0.079 C 
ATOM     14  C   UNL A   1      33.692  25.681  23.519  1.00  0.00     0.030 C 
ATOM     15  S   UNL A   1      32.362  28.157  23.215  1.00  0.00    -0.081 SA
ATOM     16  C   UNL A   1      30.850  28.379  24.206  1.00  0.00     0.275 C 
ATOM     17  N   UNL A   1      30.218  27.070  24.372  1.00  0.00    -0.319 N 
ATOM     18  H   UNL A   1      29.645  26.844  23.560  1.00  0.00     0.348 HD
ATOM     19  H   UNL A   1      29.600  27.043  25.183  1.00  0.00     0.348 HD
BRANCH  16  20
ATOM     20  C   UNL A   1      29.821  29.276  23.593  1.00  0.00     0.031 A 
ATOM     21  C   UNL A   1      28.685  28.860  22.816  1.00  0.00     0.022 A 
ATOM     22  C   UNL A   1      29.796  30.648  23.784  1.00  0.00     0.075 A 
ATOM     23  C   UNL A   1      27.889  29.913  22.430  1.00  0.00     0.065 A 
ATOM     24  S   UNL A   1      28.477  31.407  23.010  1.00  0.00    -0.152 S 
ENDBRANCH  16  20
ENDBRANCH   9  11
ENDBRANCH   8   9
ENDBRANCH   7   8
ENDBRANCH   6   7
ENDBRANCH   5   6
ENDBRANCH   4   5
ENDBRANCH   3   4
ENDBRANCH   2   3
ENDBRANCH   1   2
BRANCH   1  25
ATOM     25  C   UNL A   1      37.698  22.947  25.766  1.00  0.00     0.188 C 
BRANCH  25  26
ATOM     26  O   UNL A   1      38.789  22.046  25.660  1.00  0.00    -0.376 OA
BRANCH  26  27
ATOM     27  C   UNL A   1      38.539  20.721  25.227  1.00  0.00     0.202 C 
BRANCH  27  28
ATOM     28  C   UNL A   1      39.398  19.619  25.865  1.00  0.00     0.261 C 
BRANCH  28  29
ATOM     29  O   UNL A   1      40.684  19.409  25.265  1.00  0.00    -0.460 OA
BRANCH  29  30
ATOM     30  C   UNL A   1      41.755  19.464  26.084  1.00  0.00     0.338 C 
ATOM     31  O   UNL A   1      42.597  18.596  26.257  1.00  0.00    -0.246 OA
BRANCH  30  32
ATOM     32  C   UNL A   1      41.860  20.843  26.598  1.00  0.00     0.060 A 
ATOM     33  C   UNL A   1      42.237  21.868  25.719  1.00  0.00     0.016 A 
ATOM     34  C   UNL A   1      41.564  21.127  27.932  1.00  0.00     0.016 A 
ATOM     35  C   UNL A   1      42.360  23.175  26.184  1.00  0.00     0.010 A 
ATOM     36  C   UNL A   1      41.715  22.431  28.405  1.00  0.00     0.010 A 
ATOM     37  C   UNL A   1      42.152  23.452  27.541  1.00  0.00    -0.014 A 
BRANCH  37  38
ATOM     38  C   UNL A   1      42.616  24.744  28.097  1.00  0.00     0.031 A 
ATOM     39  C   UNL A   1      41.594  25.828  28.305  1.00  0.00     0.074 A 
ATOM     40  C   UNL A   1      43.899  24.946  28.444  1.00  0.00     0.049 A 
ATOM     41  N   UNL A   1      41.753  27.048  28.751  1.00  0.00    -0.248 NA
ATOM     42  C   UNL A   1      40.202  25.489  27.961  1.00  0.00     0.031 C 
ATOM     43  C   UNL A   1      44.971  23.959  28.343  1.00  0.00     0.029 A 
ATOM     44  N   UNL A   1      44.511  26.063  28.953  1.00  0.00    -0.354 N 
ATOM     45  C   UNL A   1      40.487  27.621  28.731  1.00  0.00     0.074 A 
ATOM     46  C   UNL A   1      39.578  26.630  28.201  1.00  0.00     0.031 C 
ATOM     47  C   UNL A   1      46.116  24.519  28.771  1.00  0.00     0.029 A 
ATOM     48  C   UNL A   1      45.862  25.910  29.142  1.00  0.00     0.049 A 
ATOM     49  H   UNL A   1      44.028  26.895  29.163  1.00  0.00     0.167 HD
ATOM     50  C   UNL A   1      40.113  28.860  29.125  1.00  0.00     0.031 A 
ATOM     51  C   UNL A   1      46.789  26.801  29.547  1.00  0.00     0.031 A 
ATOM     52  C   UNL A   1      41.020  29.853  29.634  1.00  0.00     0.049 A 
ATOM     53  C   UNL A   1      46.360  28.205  29.894  1.00  0.00     0.074 A 
ATOM     54  C   UNL A   1      40.739  31.136  30.067  1.00  0.00     0.029 A 
ATOM     55  N   UNL A   1      42.388  29.675  29.765  1.00  0.00    -0.354 N 
ATOM     56  N   UNL A   1      45.158  28.731  29.896  1.00  0.00    -0.248 NA
ATOM     57  C   UNL A   1      47.422  29.136  30.305  1.00  0.00     0.031 C 
ATOM     58  C   UNL A   1      41.947  31.757  30.399  1.00  0.00     0.029 A 
ATOM     59  C   UNL A   1      42.970  30.836  30.244  1.00  0.00     0.049 A 
ATOM     60  H   UNL A   1      42.874  28.845  29.550  1.00  0.00     0.167 HD
ATOM     61  C   UNL A   1      45.315  30.038  30.340  1.00  0.00     0.074 A 
ATOM     62  C   UNL A   1      46.726  30.221  30.613  1.00  0.00     0.031 C 
ATOM     63  C   UNL A   1      44.376  31.003  30.510  1.00  0.00     0.031 A 
BRANCH  50  64
ATOM     64  C   UNL A   1      38.661  29.222  28.976  1.00  0.00    -0.014 A 
ATOM     65  C   UNL A   1      38.134  29.660  27.750  1.00  0.00     0.009 A 
ATOM     66  C   UNL A   1      37.800  29.103  30.080  1.00  0.00     0.009 A 
ATOM     67  C   UNL A   1      36.785  30.004  27.642  1.00  0.00     0.001 A 
ATOM     68  C   UNL A   1      36.446  29.416  29.959  1.00  0.00     0.001 A 
ATOM     69  C   UNL A   1      35.941  29.876  28.745  1.00  0.00     0.000 A 
ENDBRANCH  50  64
BRANCH  51  70
ATOM     70  C   UNL A   1      48.221  26.409  29.629  1.00  0.00    -0.014 A 
ATOM     71  C   UNL A   1      48.763  25.911  30.823  1.00  0.00     0.009 A 
ATOM     72  C   UNL A   1      49.064  26.564  28.517  1.00  0.00     0.009 A 
ATOM     73  C   UNL A   1      50.124  25.605  30.912  1.00  0.00     0.001 A 
ATOM     74  C   UNL A   1      50.417  26.225  28.598  1.00  0.00     0.001 A 
ATOM     75  C   UNL A   1      50.948  25.757  29.797  1.00  0.00     0.000 A 
ENDBRANCH  51  70
BRANCH  63  76
ATOM     76  C   UNL A   1      44.835  32.326  31.062  1.00  0.00    -0.014 A 
ATOM     77  C   UNL A   1      45.243  33.374  30.222  1.00  0.00     0.009 A 
ATOM     78  C   UNL A   1      44.822  32.538  32.450  1.00  0.00     0.009 A 
ATOM     79  C   UNL A   1      45.670  34.589  30.762  1.00  0.00     0.001 A 
ATOM     80  C   UNL A   1      45.215  33.765  32.986  1.00  0.00     0.001 A 
ATOM     81  C   UNL A   1      45.650  34.785  32.143  1.00  0.00     0.000 A 
ENDBRANCH  63  76
ENDBRANCH  37  38
ENDBRANCH  30  32
ENDBRANCH  29  30
ENDBRANCH  28  29
ENDBRANCH  27  28
ENDBRANCH  26  27
ENDBRANCH  25  26
ENDBRANCH   1  25
TORSDOF 21
ENDMDL
MODEL 3
REMARK VINA RESULT:      -8.4      3.328      8.340
REMARK SMILES CC1(C)S[C@@H](c2ccsc2)[NH2+][C@@H]1C(=O)OCCOCCOCCOCCOC(=O)c1ccc(-c2c3nc(c(-c4ccccc4)c4ccc([nH]4)c(-c4ccccc4)c4nc(c(-c5ccccc5)c5ccc2[nH]5)C=C4)C=C3)cc1
REMARK SMILES IDX 22 1 21 2 20 3 19 4 18 5 17 6 16 7 15 8 13 9 14 10 12 11
REMARK SMILES IDX 1 12 2 13 3 14 4 15 5 16 11 17 6 20 7 21 10 22 8 23 9 24
REMARK SMILES IDX 23 25 24 26 25 27 26 28 27 29 28 30 29 31 30 32 31 33 77 34
REMARK SMILES IDX 32 35 76 36 33 37 34 38 35 39 70 40 36 41 75 42 69 43 71 44
REMARK SMILES IDX 37 45 74 46 68 47 67 48 38 50 60 51 45 52 59 53 46 54 49 55
REMARK SMILES IDX 58 56 72 57 47 58 48 59 57 61 73 62 50 63 39 64 40 65 44 66
REMARK SMILES IDX 41 67 43 68 42 69 61 70 62 71 66 72 63 73 65 74 64 75 51 76
REMARK SMILES IDX 52 77 56 78 53 79 55 80 54 81
REMARK H PARENT 11 18 11 19 71 49 49 60
REMARK Flexibility Score: inf
ROOT
ATOM      1  C   UNL A   1      33.949  34.495  29.749  1.00  0.00     0.188 C 
ENDROOT
BRANCH   1   2
ATOM      2  O   UNL A   1      33.589  34.013  28.457  1.00  0.00    -0.377 OA
BRANCH   2   3
ATOM      3  C   UNL A   1      34.121  32.775  28.032  1.00  0.00     0.188 C 
BRANCH   3   4
ATOM      4  C   UNL A   1      34.742  31.926  29.161  1.00  0.00     0.188 C 
BRANCH   4   5
ATOM      5  O   UNL A   1      35.216  30.659  28.727  1.00  0.00    -0.376 OA
BRANCH   5   6
ATOM      6  C   UNL A   1      34.925  30.197  27.414  1.00  0.00     0.202 C 
BRANCH   6   7
ATOM      7  C   UNL A   1      33.619  29.439  27.136  1.00  0.00     0.261 C 
BRANCH   7   8
ATOM      8  O   UNL A   1      33.778  28.287  26.307  1.00  0.00    -0.459 OA
BRANCH   8   9
ATOM      9  C   UNL A   1      33.243  28.339  25.058  1.00  0.00     0.366 C 
ATOM     10  O   UNL A   1      33.869  28.623  24.050  1.00  0.00    -0.245 OA
BRANCH   9  11
ATOM     11  C   UNL A   1      31.751  27.941  25.155  1.00  0.00     0.310 C 
ATOM     12  C   UNL A   1      29.923  26.192  24.879  1.00  0.00     0.030 C 
ATOM     13  C   UNL A   1      31.287  26.705  24.363  1.00  0.00     0.079 C 
ATOM     14  C   UNL A   1      32.257  25.521  24.398  1.00  0.00     0.030 C 
ATOM     15  S   UNL A   1      31.010  27.406  22.701  1.00  0.00    -0.081 SA
ATOM     16  C   UNL A   1      30.992  29.129  23.295  1.00  0.00     0.275 C 
ATOM     17  N   UNL A   1      30.934  29.105  24.757  1.00  0.00    -0.319 N 
ATOM     18  H   UNL A   1      29.971  28.993  25.075  1.00  0.00     0.348 HD
ATOM     19  H   UNL A   1      31.278  29.973  25.168  1.00  0.00     0.348 HD
BRANCH  16  20
ATOM     20  C   UNL A   1      29.826  29.943  22.833  1.00  0.00     0.031 A 
ATOM     21  C   UNL A   1      29.041  30.839  23.640  1.00  0.00     0.022 A 
ATOM     22  C   UNL A   1      29.408  29.995  21.513  1.00  0.00     0.075 A 
ATOM     23  C   UNL A   1      28.064  31.486  22.920  1.00  0.00     0.065 A 
ATOM     24  S   UNL A   1      28.087  31.048  21.270  1.00  0.00    -0.152 S 
ENDBRANCH  16  20
ENDBRANCH   9  11
ENDBRANCH   8   9
ENDBRANCH   7   8
ENDBRANCH   6   7
ENDBRANCH   5   6
ENDBRANCH   4   5
ENDBRANCH   3   4
ENDBRANCH   2   3
ENDBRANCH   1   2
BRANCH   1  25
ATOM     25  C   UNL A   1      33.706  35.960  30.204  1.00  0.00     0.188 C 
BRANCH  25  26
ATOM     26  O   UNL A   1      33.684  36.170  31.607  1.00  0.00    -0.376 OA
BRANCH  26  27
ATOM     27  C   UNL A   1      33.696  35.045  32.465  1.00  0.00     0.202 C 
BRANCH  27  28
ATOM     28  C   UNL A   1      34.937  34.873  33.353  1.00  0.00     0.261 C 
BRANCH  28  29
ATOM     29  O   UNL A   1      36.085  34.299  32.711  1.00  0.00    -0.460 OA
BRANCH  29  30
ATOM     30  C   UNL A   1      36.066  32.966  32.505  1.00  0.00     0.338 C 
ATOM     31  O   UNL A   1      35.110  32.215  32.619  1.00  0.00    -0.246 OA
BRANCH  30  32
ATOM     32  C   UNL A   1      37.364  32.582  31.914  1.00  0.00     0.060 A 
ATOM     33  C   UNL A   1      37.617  32.896  30.572  1.00  0.00     0.016 A 
ATOM     34  C   UNL A   1      38.331  31.939  32.688  1.00  0.00     0.016 A 
ATOM     35  C   UNL A   1      38.828  32.529  29.987  1.00  0.00     0.010 A 
ATOM     36  C   UNL A   1      39.532  31.546  32.095  1.00  0.00     0.010 A 
ATOM     37  C   UNL A   1      39.767  31.804  30.732  1.00  0.00    -0.014 A 
BRANCH  37  38
ATOM     38  C   UNL A   1      40.877  31.120  30.030  1.00  0.00     0.031 A 
ATOM     39  C   UNL A   1      42.166  31.874  29.848  1.00  0.00     0.074 A 
ATOM     40  C   UNL A   1      40.765  29.853  29.595  1.00  0.00     0.049 A 
ATOM     41  N   UNL A   1      43.269  31.505  29.248  1.00  0.00    -0.248 NA
ATOM     42  C   UNL A   1      42.216  33.231  30.420  1.00  0.00     0.031 C 
ATOM     43  C   UNL A   1      39.591  29.000  29.759  1.00  0.00     0.029 A 
ATOM     44  N   UNL A   1      41.664  29.067  28.920  1.00  0.00    -0.354 N 
ATOM     45  C   UNL A   1      44.136  32.585  29.362  1.00  0.00     0.074 A 
ATOM     46  C   UNL A   1      43.423  33.633  30.059  1.00  0.00     0.031 C 
ATOM     47  C   UNL A   1      39.841  27.806  29.191  1.00  0.00     0.029 A 
ATOM     48  C   UNL A   1      41.176  27.827  28.596  1.00  0.00     0.049 A 
ATOM     49  H   UNL A   1      42.575  29.365  28.690  1.00  0.00     0.167 HD
ATOM     50  C   UNL A   1      45.414  32.693  28.931  1.00  0.00     0.031 A 
ATOM     51  C   UNL A   1      41.737  26.831  27.881  1.00  0.00     0.031 A 
ATOM     52  C   UNL A   1      46.116  31.660  28.221  1.00  0.00     0.049 A 
ATOM     53  C   UNL A   1      43.130  27.011  27.333  1.00  0.00     0.074 A 
ATOM     54  C   UNL A   1      47.415  31.668  27.748  1.00  0.00     0.029 A 
ATOM     55  N   UNL A   1      45.569  30.435  27.871  1.00  0.00    -0.354 N 
ATOM     56  N   UNL A   1      43.951  28.026  27.467  1.00  0.00    -0.248 NA
ATOM     57  C   UNL A   1      43.676  25.900  26.540  1.00  0.00     0.031 C 
ATOM     58  C   UNL A   1      47.634  30.475  27.054  1.00  0.00     0.029 A 
ATOM     59  C   UNL A   1      46.495  29.691  27.160  1.00  0.00     0.049 A 
ATOM     60  H   UNL A   1      44.657  30.138  28.095  1.00  0.00     0.167 HD
ATOM     61  C   UNL A   1      45.119  27.660  26.808  1.00  0.00     0.074 A 
ATOM     62  C   UNL A   1      44.906  26.325  26.289  1.00  0.00     0.031 C 
ATOM     63  C   UNL A   1      46.269  28.364  26.649  1.00  0.00     0.031 A 
BRANCH  50  64
ATOM     64  C   UNL A   1      46.117  33.999  29.181  1.00  0.00    -0.014 A 
ATOM     65  C   UNL A   1      46.877  34.215  30.343  1.00  0.00     0.009 A 
ATOM     66  C   UNL A   1      46.034  35.025  28.226  1.00  0.00     0.009 A 
ATOM     67  C   UNL A   1      47.508  35.441  30.558  1.00  0.00     0.001 A 
ATOM     68  C   UNL A   1      46.692  36.238  28.429  1.00  0.00     0.001 A 
ATOM     69  C   UNL A   1      47.420  36.450  29.598  1.00  0.00     0.000 A 
ENDBRANCH  50  64
BRANCH  51  70
ATOM     70  C   UNL A   1      40.980  25.579  27.618  1.00  0.00    -0.014 A 
ATOM     71  C   UNL A   1      41.311  24.386  28.278  1.00  0.00     0.009 A 
ATOM     72  C   UNL A   1      39.940  25.563  26.674  1.00  0.00     0.009 A 
ATOM     73  C   UNL A   1      40.637  23.199  27.978  1.00  0.00     0.001 A 
ATOM     74  C   UNL A   1      39.246  24.382  26.401  1.00  0.00     0.001 A 
ATOM     75  C   UNL A   1      39.602  23.199  27.044  1.00  0.00     0.000 A 
ENDBRANCH  51  70
BRANCH  63  76
ATOM     76  C   UNL A   1      47.400  27.686  25.925  1.00  0.00    -0.014 A 
ATOM     77  C   UNL A   1      48.412  27.000  26.614  1.00  0.00     0.009 A 
ATOM     78  C   UNL A   1      47.431  27.704  24.520  1.00  0.00     0.009 A 
ATOM     79  C   UNL A   1      49.453  26.384  25.915  1.00  0.00     0.001 A 
ATOM     80  C   UNL A   1      48.453  27.058  23.823  1.00  0.00     0.001 A 
ATOM     81  C   UNL A   1      49.469  26.409  24.521  1.00  0.00     0.000 A 
ENDBRANCH  63  76
ENDBRANCH  37  38
ENDBRANCH  30  32
ENDBRANCH  29  30
ENDBRANCH  28  29
ENDBRANCH  27  28
ENDBRANCH  26  27
ENDBRANCH  25  26
ENDBRANCH   1  25
TORSDOF 21
ENDMDL
