MODEL 1
REMARK VINA RESULT:      -8.9      0.000      0.000
REMARK SMILES CC(C)([NH2+]C[C@@H]1CCCO1)C(=O)OCCOCCOCCOCCOC(=O)c1ccc(-c2c3nc(c(-c4ccccc4)c4ccc([nH]4)c(-c4ccccc4)c4nc(c(-c5ccccc5)c5ccc2[nH]5)C=C4)C=C3)cc1
REMARK SMILES IDX 18 1 17 2 16 3 15 4 14 5 13 6 11 7 12 8 2 9 1 10 3 11 4 12
REMARK SMILES IDX 5 15 6 16 7 17 10 18 8 19 9 20 19 21 20 22 21 23 22 24 23 25
REMARK SMILES IDX 24 26 25 27 26 28 27 29 28 30 29 31 75 32 30 33 74 34 31 35
REMARK SMILES IDX 32 36 33 37 68 38 34 39 73 40 67 41 69 42 35 43 72 44 66 45
REMARK SMILES IDX 65 46 36 48 58 49 43 50 57 51 44 52 47 53 56 54 70 55 45 56
REMARK SMILES IDX 46 57 55 59 71 60 48 61 37 62 38 63 42 64 39 65 41 66 40 67
REMARK SMILES IDX 59 68 60 69 64 70 61 71 63 72 62 73 49 74 50 75 54 76 51 77
REMARK SMILES IDX 53 78 52 79
REMARK H PARENT 4 13 4 14 69 47 47 58
REMARK Flexibility Score: inf
ROOT
ATOM      1  C   UNL A   1      39.933  21.736  26.402  1.00  0.00     0.188 C 
ENDROOT
BRANCH   1   2
ATOM      2  C   UNL A   1      38.448  21.519  26.040  1.00  0.00     0.188 C 
BRANCH   2   3
ATOM      3  O   UNL A   1      37.930  22.508  25.171  1.00  0.00    -0.376 OA
BRANCH   3   4
ATOM      4  C   UNL A   1      37.344  23.673  25.721  1.00  0.00     0.202 C 
BRANCH   4   5
ATOM      5  C   UNL A   1      35.839  23.776  26.017  1.00  0.00     0.261 C 
BRANCH   5   6
ATOM      6  O   UNL A   1      35.002  22.790  25.401  1.00  0.00    -0.459 OA
BRANCH   6   7
ATOM      7  C   UNL A   1      33.668  23.000  25.322  1.00  0.00     0.367 C 
ATOM      8  O   UNL A   1      33.169  23.857  24.599  1.00  0.00    -0.245 OA
BRANCH   7   9
ATOM      9  C   UNL A   1      32.825  21.995  26.171  1.00  0.00     0.188 C 
ATOM     10  C   UNL A   1      31.350  22.207  25.745  1.00  0.00     0.092 C 
ATOM     11  C   UNL A   1      32.903  22.344  27.668  1.00  0.00     0.092 C 
BRANCH   9  12
ATOM     12  N   UNL A   1      33.083  20.546  25.981  1.00  0.00    -0.330 N 
ATOM     13  H   UNL A   1      32.407  20.060  26.569  1.00  0.00     0.347 HD
ATOM     14  H   UNL A   1      34.078  20.484  26.195  1.00  0.00     0.347 HD
BRANCH  12  15
ATOM     15  C   UNL A   1      33.021  19.892  24.669  1.00  0.00     0.293 C 
BRANCH  15  16
ATOM     16  C   UNL A   1      32.558  18.431  24.554  1.00  0.00     0.173 C 
ATOM     17  C   UNL A   1      32.860  17.546  25.754  1.00  0.00     0.040 C 
ATOM     18  O   UNL A   1      33.235  17.800  23.439  1.00  0.00    -0.372 OA
ATOM     19  C   UNL A   1      32.918  16.181  25.122  1.00  0.00     0.031 C 
ATOM     20  C   UNL A   1      33.652  16.486  23.839  1.00  0.00     0.161 C 
ENDBRANCH  15  16
ENDBRANCH  12  15
ENDBRANCH   9  12
ENDBRANCH   7   9
ENDBRANCH   6   7
ENDBRANCH   5   6
ENDBRANCH   4   5
ENDBRANCH   3   4
ENDBRANCH   2   3
ENDBRANCH   1   2
BRANCH   1  21
ATOM     21  O   UNL A   1      40.443  21.081  27.550  1.00  0.00    -0.377 OA
BRANCH  21  22
ATOM     22  C   UNL A   1      41.543  20.192  27.424  1.00  0.00     0.188 C 
BRANCH  22  23
ATOM     23  C   UNL A   1      41.830  19.415  26.117  1.00  0.00     0.188 C 
BRANCH  23  24
ATOM     24  O   UNL A   1      43.021  19.770  25.437  1.00  0.00    -0.376 OA
BRANCH  24  25
ATOM     25  C   UNL A   1      43.357  21.146  25.354  1.00  0.00     0.202 C 
BRANCH  25  26
ATOM     26  C   UNL A   1      44.835  21.521  25.545  1.00  0.00     0.261 C 
BRANCH  26  27
ATOM     27  O   UNL A   1      45.083  22.793  26.161  1.00  0.00    -0.460 OA
BRANCH  27  28
ATOM     28  C   UNL A   1      44.795  23.894  25.439  1.00  0.00     0.338 C 
ATOM     29  O   UNL A   1      45.019  24.085  24.254  1.00  0.00    -0.246 OA
BRANCH  28  30
ATOM     30  C   UNL A   1      43.982  24.787  26.286  1.00  0.00     0.060 A 
ATOM     31  C   UNL A   1      44.294  26.152  26.332  1.00  0.00     0.016 A 
ATOM     32  C   UNL A   1      42.914  24.277  27.023  1.00  0.00     0.016 A 
ATOM     33  C   UNL A   1      43.555  27.008  27.146  1.00  0.00     0.010 A 
ATOM     34  C   UNL A   1      42.192  25.130  27.862  1.00  0.00     0.010 A 
ATOM     35  C   UNL A   1      42.534  26.491  27.953  1.00  0.00    -0.014 A 
BRANCH  35  36
ATOM     36  C   UNL A   1      41.981  27.319  29.050  1.00  0.00     0.031 A 
ATOM     37  C   UNL A   1      42.676  27.281  30.383  1.00  0.00     0.074 A 
ATOM     38  C   UNL A   1      40.909  28.108  28.867  1.00  0.00     0.049 A 
ATOM     39  N   UNL A   1      42.357  27.874  31.504  1.00  0.00    -0.248 NA
ATOM     40  C   UNL A   1      43.897  26.460  30.461  1.00  0.00     0.031 C 
ATOM     41  C   UNL A   1      40.184  28.279  27.609  1.00  0.00     0.029 A 
ATOM     42  N   UNL A   1      40.241  28.914  29.755  1.00  0.00    -0.354 N 
ATOM     43  C   UNL A   1      43.330  27.491  32.420  1.00  0.00     0.074 A 
ATOM     44  C   UNL A   1      44.232  26.593  31.735  1.00  0.00     0.031 C 
ATOM     45  C   UNL A   1      39.164  29.132  27.810  1.00  0.00     0.029 A 
ATOM     46  C   UNL A   1      39.142  29.534  29.215  1.00  0.00     0.049 A 
ATOM     47  H   UNL A   1      40.524  29.035  30.689  1.00  0.00     0.167 HD
ATOM     48  C   UNL A   1      43.465  27.859  33.716  1.00  0.00     0.031 A 
ATOM     49  C   UNL A   1      38.210  30.314  29.800  1.00  0.00     0.031 A 
ATOM     50  C   UNL A   1      42.557  28.737  34.403  1.00  0.00     0.049 A 
ATOM     51  C   UNL A   1      38.326  30.626  31.271  1.00  0.00     0.074 A 
ATOM     52  C   UNL A   1      42.608  29.172  35.715  1.00  0.00     0.029 A 
ATOM     53  N   UNL A   1      41.427  29.304  33.834  1.00  0.00    -0.354 N 
ATOM     54  N   UNL A   1      39.260  30.276  32.122  1.00  0.00    -0.248 NA
ATOM     55  C   UNL A   1      37.257  31.447  31.858  1.00  0.00     0.031 C 
ATOM     56  C   UNL A   1      41.473  29.952  35.959  1.00  0.00     0.029 A 
ATOM     57  C   UNL A   1      40.756  30.062  34.779  1.00  0.00     0.049 A 
ATOM     58  H   UNL A   1      41.145  29.185  32.899  1.00  0.00     0.167 HD
ATOM     59  C   UNL A   1      38.910  30.864  33.334  1.00  0.00     0.074 A 
ATOM     60  C   UNL A   1      37.688  31.605  33.101  1.00  0.00     0.031 C 
ATOM     61  C   UNL A   1      39.543  30.798  34.531  1.00  0.00     0.031 A 
BRANCH  48  62
ATOM     62  C   UNL A   1      44.617  27.276  34.484  1.00  0.00    -0.014 A 
ATOM     63  C   UNL A   1      44.501  26.055  35.165  1.00  0.00     0.009 A 
ATOM     64  C   UNL A   1      45.852  27.946  34.499  1.00  0.00     0.009 A 
ATOM     65  C   UNL A   1      45.588  25.532  35.871  1.00  0.00     0.001 A 
ATOM     66  C   UNL A   1      46.944  27.406  35.179  1.00  0.00     0.001 A 
ATOM     67  C   UNL A   1      46.809  26.204  35.871  1.00  0.00     0.000 A 
ENDBRANCH  48  62
BRANCH  49  68
ATOM     68  C   UNL A   1      37.062  30.836  29.009  1.00  0.00    -0.014 A 
ATOM     69  C   UNL A   1      36.988  32.194  28.661  1.00  0.00     0.009 A 
ATOM     70  C   UNL A   1      36.008  29.987  28.639  1.00  0.00     0.009 A 
ATOM     71  C   UNL A   1      35.869  32.695  27.991  1.00  0.00     0.001 A 
ATOM     72  C   UNL A   1      34.906  30.482  27.940  1.00  0.00     0.001 A 
ATOM     73  C   UNL A   1      34.830  31.839  27.628  1.00  0.00     0.000 A 
ENDBRANCH  49  68
BRANCH  61  74
ATOM     74  C   UNL A   1      38.958  31.588  35.670  1.00  0.00    -0.014 A 
ATOM     75  C   UNL A   1      39.182  32.967  35.803  1.00  0.00     0.009 A 
ATOM     76  C   UNL A   1      38.126  30.944  36.602  1.00  0.00     0.009 A 
ATOM     77  C   UNL A   1      38.619  33.675  36.866  1.00  0.00     0.001 A 
ATOM     78  C   UNL A   1      37.535  31.661  37.643  1.00  0.00     0.001 A 
ATOM     79  C   UNL A   1      37.791  33.024  37.781  1.00  0.00     0.000 A 
ENDBRANCH  61  74
ENDBRANCH  35  36
ENDBRANCH  28  30
ENDBRANCH  27  28
ENDBRANCH  26  27
ENDBRANCH  25  26
ENDBRANCH  24  25
ENDBRANCH  23  24
ENDBRANCH  22  23
ENDBRANCH  21  22
ENDBRANCH   1  21
TORSDOF 23
ENDMDL
MODEL 2
REMARK VINA RESULT:      -8.5      1.707      3.051
REMARK SMILES CC(C)([NH2+]C[C@@H]1CCCO1)C(=O)OCCOCCOCCOCCOC(=O)c1ccc(-c2c3nc(c(-c4ccccc4)c4ccc([nH]4)c(-c4ccccc4)c4nc(c(-c5ccccc5)c5ccc2[nH]5)C=C4)C=C3)cc1
REMARK SMILES IDX 18 1 17 2 16 3 15 4 14 5 13 6 11 7 12 8 2 9 1 10 3 11 4 12
REMARK SMILES IDX 5 15 6 16 7 17 10 18 8 19 9 20 19 21 20 22 21 23 22 24 23 25
REMARK SMILES IDX 24 26 25 27 26 28 27 29 28 30 29 31 75 32 30 33 74 34 31 35
REMARK SMILES IDX 32 36 33 37 68 38 34 39 73 40 67 41 69 42 35 43 72 44 66 45
REMARK SMILES IDX 65 46 36 48 58 49 43 50 57 51 44 52 47 53 56 54 70 55 45 56
REMARK SMILES IDX 46 57 55 59 71 60 48 61 37 62 38 63 42 64 39 65 41 66 40 67
REMARK SMILES IDX 59 68 60 69 64 70 61 71 63 72 62 73 49 74 50 75 54 76 51 77
REMARK SMILES IDX 53 78 52 79
REMARK H PARENT 4 13 4 14 69 47 47 58
REMARK Flexibility Score: inf
ROOT
ATOM      1  C   UNL A   1      40.039  21.642  26.219  1.00  0.00     0.188 C 
ENDROOT
BRANCH   1   2
ATOM      2  C   UNL A   1      38.705  21.043  25.726  1.00  0.00     0.188 C 
BRANCH   2   3
ATOM      3  O   UNL A   1      37.727  22.020  25.425  1.00  0.00    -0.376 OA
BRANCH   3   4
ATOM      4  C   UNL A   1      36.758  21.746  24.431  1.00  0.00     0.202 C 
BRANCH   4   5
ATOM      5  C   UNL A   1      35.307  21.372  24.777  1.00  0.00     0.261 C 
BRANCH   5   6
ATOM      6  O   UNL A   1      34.321  22.388  24.560  1.00  0.00    -0.459 OA
BRANCH   6   7
ATOM      7  C   UNL A   1      34.304  23.484  25.353  1.00  0.00     0.367 C 
ATOM      8  O   UNL A   1      34.924  23.552  26.410  1.00  0.00    -0.245 OA
BRANCH   7   9
ATOM      9  C   UNL A   1      33.491  24.676  24.756  1.00  0.00     0.188 C 
ATOM     10  C   UNL A   1      33.968  24.827  23.288  1.00  0.00     0.092 C 
ATOM     11  C   UNL A   1      33.846  25.993  25.469  1.00  0.00     0.092 C 
BRANCH   9  12
ATOM     12  N   UNL A   1      32.016  24.533  24.675  1.00  0.00    -0.330 N 
ATOM     13  H   UNL A   1      31.636  25.103  25.430  1.00  0.00     0.347 HD
ATOM     14  H   UNL A   1      31.906  23.520  24.700  1.00  0.00     0.347 HD
BRANCH  12  15
ATOM     15  C   UNL A   1      31.247  24.885  23.475  1.00  0.00     0.293 C 
BRANCH  15  16
ATOM     16  C   UNL A   1      30.538  26.246  23.383  1.00  0.00     0.173 C 
ATOM     17  C   UNL A   1      31.059  27.190  22.310  1.00  0.00     0.040 C 
ATOM     18  O   UNL A   1      30.710  26.961  24.632  1.00  0.00    -0.372 OA
ATOM     19  C   UNL A   1      30.686  28.535  22.878  1.00  0.00     0.031 C 
ATOM     20  C   UNL A   1      31.011  28.333  24.338  1.00  0.00     0.161 C 
ENDBRANCH  15  16
ENDBRANCH  12  15
ENDBRANCH   9  12
ENDBRANCH   7   9
ENDBRANCH   6   7
ENDBRANCH   5   6
ENDBRANCH   4   5
ENDBRANCH   3   4
ENDBRANCH   2   3
ENDBRANCH   1   2
BRANCH   1  21
ATOM     21  O   UNL A   1      40.619  21.102  27.395  1.00  0.00    -0.377 OA
BRANCH  21  22
ATOM     22  C   UNL A   1      41.410  19.926  27.315  1.00  0.00     0.188 C 
BRANCH  22  23
ATOM     23  C   UNL A   1      42.004  19.421  25.979  1.00  0.00     0.188 C 
BRANCH  23  24
ATOM     24  O   UNL A   1      43.368  19.733  25.754  1.00  0.00    -0.376 OA
BRANCH  24  25
ATOM     25  C   UNL A   1      43.702  21.075  25.435  1.00  0.00     0.202 C 
BRANCH  25  26
ATOM     26  C   UNL A   1      45.103  21.563  25.831  1.00  0.00     0.261 C 
BRANCH  26  27
ATOM     27  O   UNL A   1      45.206  22.950  26.184  1.00  0.00    -0.460 OA
BRANCH  27  28
ATOM     28  C   UNL A   1      44.598  23.840  25.374  1.00  0.00     0.338 C 
ATOM     29  O   UNL A   1      44.559  23.826  24.154  1.00  0.00    -0.246 OA
BRANCH  28  30
ATOM     30  C   UNL A   1      43.815  24.758  26.222  1.00  0.00     0.060 A 
ATOM     31  C   UNL A   1      44.166  26.114  26.263  1.00  0.00     0.016 A 
ATOM     32  C   UNL A   1      42.736  24.280  26.965  1.00  0.00     0.016 A 
ATOM     33  C   UNL A   1      43.456  26.993  27.078  1.00  0.00     0.010 A 
ATOM     34  C   UNL A   1      42.043  25.156  27.805  1.00  0.00     0.010 A 
ATOM     35  C   UNL A   1      42.424  26.507  27.891  1.00  0.00    -0.014 A 
BRANCH  35  36
ATOM     36  C   UNL A   1      41.900  27.353  28.987  1.00  0.00     0.031 A 
ATOM     37  C   UNL A   1      42.626  27.333  30.304  1.00  0.00     0.074 A 
ATOM     38  C   UNL A   1      40.826  28.143  28.817  1.00  0.00     0.049 A 
ATOM     39  N   UNL A   1      42.335  27.945  31.423  1.00  0.00    -0.248 NA
ATOM     40  C   UNL A   1      43.846  26.510  30.366  1.00  0.00     0.031 C 
ATOM     41  C   UNL A   1      40.072  28.298  27.574  1.00  0.00     0.029 A 
ATOM     42  N   UNL A   1      40.182  28.965  29.709  1.00  0.00    -0.354 N 
ATOM     43  C   UNL A   1      43.328  27.572  32.322  1.00  0.00     0.074 A 
ATOM     44  C   UNL A   1      44.211  26.661  31.629  1.00  0.00     0.031 C 
ATOM     45  C   UNL A   1      39.059  29.158  27.786  1.00  0.00     0.029 A 
ATOM     46  C   UNL A   1      39.072  29.581  29.185  1.00  0.00     0.049 A 
ATOM     47  H   UNL A   1      40.487  29.100  30.634  1.00  0.00     0.167 HD
ATOM     48  C   UNL A   1      43.495  27.960  33.608  1.00  0.00     0.031 A 
ATOM     49  C   UNL A   1      38.157  30.373  29.780  1.00  0.00     0.031 A 
ATOM     50  C   UNL A   1      42.607  28.851  34.303  1.00  0.00     0.049 A 
ATOM     51  C   UNL A   1      38.308  30.707  31.243  1.00  0.00     0.074 A 
ATOM     52  C   UNL A   1      42.690  29.306  35.607  1.00  0.00     0.029 A 
ATOM     53  N   UNL A   1      41.466  29.413  33.753  1.00  0.00    -0.354 N 
ATOM     54  N   UNL A   1      39.261  30.367  32.078  1.00  0.00    -0.248 NA
ATOM     55  C   UNL A   1      37.256  31.541  31.842  1.00  0.00     0.031 C 
ATOM     56  C   UNL A   1      41.563  30.093  35.865  1.00  0.00     0.029 A 
ATOM     57  C   UNL A   1      40.819  30.188  34.701  1.00  0.00     0.049 A 
ATOM     58  H   UNL A   1      41.161  29.281  32.826  1.00  0.00     0.167 HD
ATOM     59  C   UNL A   1      38.942  30.974  33.288  1.00  0.00     0.074 A 
ATOM     60  C   UNL A   1      37.717  31.716  33.072  1.00  0.00     0.031 C 
ATOM     61  C   UNL A   1      39.603  30.925  34.470  1.00  0.00     0.031 A 
BRANCH  48  62
ATOM     62  C   UNL A   1      44.664  27.385  34.358  1.00  0.00    -0.014 A 
ATOM     63  C   UNL A   1      44.560  26.172  35.058  1.00  0.00     0.009 A 
ATOM     64  C   UNL A   1      45.900  28.052  34.335  1.00  0.00     0.009 A 
ATOM     65  C   UNL A   1      45.662  25.656  35.746  1.00  0.00     0.001 A 
ATOM     66  C   UNL A   1      47.006  27.518  34.997  1.00  0.00     0.001 A 
ATOM     67  C   UNL A   1      46.884  26.326  35.709  1.00  0.00     0.000 A 
ENDBRANCH  48  62
BRANCH  49  68
ATOM     68  C   UNL A   1      36.992  30.887  29.009  1.00  0.00    -0.014 A 
ATOM     69  C   UNL A   1      36.897  32.247  28.673  1.00  0.00     0.009 A 
ATOM     70  C   UNL A   1      35.943  30.028  28.646  1.00  0.00     0.009 A 
ATOM     71  C   UNL A   1      35.763  32.739  28.021  1.00  0.00     0.001 A 
ATOM     72  C   UNL A   1      34.827  30.515  27.966  1.00  0.00     0.001 A 
ATOM     73  C   UNL A   1      34.730  31.873  27.665  1.00  0.00     0.000 A 
ENDBRANCH  49  68
BRANCH  61  74
ATOM     74  C   UNL A   1      39.047  31.733  35.611  1.00  0.00    -0.014 A 
ATOM     75  C   UNL A   1      39.338  33.099  35.757  1.00  0.00     0.009 A 
ATOM     76  C   UNL A   1      38.177  31.125  36.531  1.00  0.00     0.009 A 
ATOM     77  C   UNL A   1      38.801  33.826  36.821  1.00  0.00     0.001 A 
ATOM     78  C   UNL A   1      37.613  31.862  37.573  1.00  0.00     0.001 A 
ATOM     79  C   UNL A   1      37.934  33.209  37.723  1.00  0.00     0.000 A 
ENDBRANCH  61  74
ENDBRANCH  35  36
ENDBRANCH  28  30
ENDBRANCH  27  28
ENDBRANCH  26  27
ENDBRANCH  25  26
ENDBRANCH  24  25
ENDBRANCH  23  24
ENDBRANCH  22  23
ENDBRANCH  21  22
ENDBRANCH   1  21
TORSDOF 23
ENDMDL
MODEL 3
REMARK VINA RESULT:      -8.4      6.809      9.311
REMARK SMILES CC(C)([NH2+]C[C@@H]1CCCO1)C(=O)OCCOCCOCCOCCOC(=O)c1ccc(-c2c3nc(c(-c4ccccc4)c4ccc([nH]4)c(-c4ccccc4)c4nc(c(-c5ccccc5)c5ccc2[nH]5)C=C4)C=C3)cc1
REMARK SMILES IDX 18 1 17 2 16 3 15 4 14 5 13 6 11 7 12 8 2 9 1 10 3 11 4 12
REMARK SMILES IDX 5 15 6 16 7 17 10 18 8 19 9 20 19 21 20 22 21 23 22 24 23 25
REMARK SMILES IDX 24 26 25 27 26 28 27 29 28 30 29 31 75 32 30 33 74 34 31 35
REMARK SMILES IDX 32 36 33 37 68 38 34 39 73 40 67 41 69 42 35 43 72 44 66 45
REMARK SMILES IDX 65 46 36 48 58 49 43 50 57 51 44 52 47 53 56 54 70 55 45 56
REMARK SMILES IDX 46 57 55 59 71 60 48 61 37 62 38 63 42 64 39 65 41 66 40 67
REMARK SMILES IDX 59 68 60 69 64 70 61 71 63 72 62 73 49 74 50 75 54 76 51 77
REMARK SMILES IDX 53 78 52 79
REMARK H PARENT 4 13 4 14 69 47 47 58
REMARK Flexibility Score: inf
ROOT
ATOM      1  C   UNL A   1      41.562  19.694  27.172  1.00  0.00     0.188 C 
ENDROOT
BRANCH   1   2
ATOM      2  C   UNL A   1      40.277  20.156  26.455  1.00  0.00     0.188 C 
BRANCH   2   3
ATOM      3  O   UNL A   1      40.284  21.530  26.116  1.00  0.00    -0.376 OA
BRANCH   3   4
ATOM      4  C   UNL A   1      39.071  22.259  26.159  1.00  0.00     0.202 C 
BRANCH   4   5
ATOM      5  C   UNL A   1      37.880  21.929  25.244  1.00  0.00     0.261 C 
BRANCH   5   6
ATOM      6  O   UNL A   1      36.577  22.093  25.816  1.00  0.00    -0.459 OA
BRANCH   6   7
ATOM      7  C   UNL A   1      35.485  22.050  25.018  1.00  0.00     0.367 C 
ATOM      8  O   UNL A   1      35.467  22.526  23.887  1.00  0.00    -0.245 OA
BRANCH   7   9
ATOM      9  C   UNL A   1      34.285  21.268  25.640  1.00  0.00     0.188 C 
ATOM     10  C   UNL A   1      33.014  21.797  24.928  1.00  0.00     0.092 C 
ATOM     11  C   UNL A   1      34.125  21.608  27.132  1.00  0.00     0.092 C 
BRANCH   9  12
ATOM     12  N   UNL A   1      34.253  19.796  25.456  1.00  0.00    -0.330 N 
ATOM     13  H   UNL A   1      33.752  19.422  26.263  1.00  0.00     0.347 HD
ATOM     14  H   UNL A   1      35.242  19.582  25.330  1.00  0.00     0.347 HD
BRANCH  12  15
ATOM     15  C   UNL A   1      33.658  19.153  24.278  1.00  0.00     0.293 C 
BRANCH  15  16
ATOM     16  C   UNL A   1      33.223  17.680  24.338  1.00  0.00     0.173 C 
ATOM     17  C   UNL A   1      32.575  17.234  25.640  1.00  0.00     0.040 C 
ATOM     18  O   UNL A   1      34.388  16.831  24.184  1.00  0.00    -0.372 OA
ATOM     19  C   UNL A   1      32.879  15.759  25.644  1.00  0.00     0.031 C 
ATOM     20  C   UNL A   1      34.298  15.754  25.129  1.00  0.00     0.161 C 
ENDBRANCH  15  16
ENDBRANCH  12  15
ENDBRANCH   9  12
ENDBRANCH   7   9
ENDBRANCH   6   7
ENDBRANCH   5   6
ENDBRANCH   4   5
ENDBRANCH   3   4
ENDBRANCH   2   3
ENDBRANCH   1   2
BRANCH   1  21
ATOM     21  O   UNL A   1      42.498  18.927  26.435  1.00  0.00    -0.377 OA
BRANCH  21  22
ATOM     22  C   UNL A   1      43.202  19.520  25.354  1.00  0.00     0.188 C 
BRANCH  22  23
ATOM     23  C   UNL A   1      44.429  18.842  24.698  1.00  0.00     0.188 C 
BRANCH  23  24
ATOM     24  O   UNL A   1      45.685  19.146  25.278  1.00  0.00    -0.376 OA
BRANCH  24  25
ATOM     25  C   UNL A   1      46.468  20.164  24.676  1.00  0.00     0.202 C 
BRANCH  25  26
ATOM     26  C   UNL A   1      45.970  21.610  24.817  1.00  0.00     0.261 C 
BRANCH  26  27
ATOM     27  O   UNL A   1      46.016  22.162  26.141  1.00  0.00    -0.460 OA
BRANCH  27  28
ATOM     28  C   UNL A   1      44.962  22.901  26.538  1.00  0.00     0.338 C 
ATOM     29  O   UNL A   1      43.893  22.497  26.969  1.00  0.00    -0.246 OA
BRANCH  28  30
ATOM     30  C   UNL A   1      45.379  24.315  26.541  1.00  0.00     0.060 A 
ATOM     31  C   UNL A   1      45.164  25.091  25.393  1.00  0.00     0.016 A 
ATOM     32  C   UNL A   1      45.971  24.872  27.675  1.00  0.00     0.016 A 
ATOM     33  C   UNL A   1      45.575  26.422  25.366  1.00  0.00     0.010 A 
ATOM     34  C   UNL A   1      46.410  26.198  27.636  1.00  0.00     0.010 A 
ATOM     35  C   UNL A   1      46.246  26.966  26.469  1.00  0.00    -0.014 A 
BRANCH  35  36
ATOM     36  C   UNL A   1      46.970  28.248  26.322  1.00  0.00     0.031 A 
ATOM     37  C   UNL A   1      48.447  28.198  26.040  1.00  0.00     0.074 A 
ATOM     38  C   UNL A   1      46.337  29.431  26.406  1.00  0.00     0.049 A 
ATOM     39  N   UNL A   1      49.305  29.178  25.919  1.00  0.00    -0.248 NA
ATOM     40  C   UNL A   1      49.035  26.858  25.871  1.00  0.00     0.031 C 
ATOM     41  C   UNL A   1      44.902  29.613  26.616  1.00  0.00     0.029 A 
ATOM     42  N   UNL A   1      46.833  30.709  26.328  1.00  0.00    -0.354 N 
ATOM     43  C   UNL A   1      50.532  28.573  25.672  1.00  0.00     0.074 A 
ATOM     44  C   UNL A   1      50.314  27.144  25.688  1.00  0.00     0.031 C 
ATOM     45  C   UNL A   1      44.635  30.931  26.659  1.00  0.00     0.029 A 
ATOM     46  C   UNL A   1      45.882  31.680  26.520  1.00  0.00     0.049 A 
ATOM     47  H   UNL A   1      47.780  30.908  26.152  1.00  0.00     0.167 HD
ATOM     48  C   UNL A   1      51.732  29.155  25.444  1.00  0.00     0.031 A 
ATOM     49  C   UNL A   1      46.013  33.019  26.601  1.00  0.00     0.031 A 
ATOM     50  C   UNL A   1      51.952  30.576  25.447  1.00  0.00     0.049 A 
ATOM     51  C   UNL A   1      47.380  33.638  26.447  1.00  0.00     0.074 A 
ATOM     52  C   UNL A   1      53.131  31.265  25.225  1.00  0.00     0.029 A 
ATOM     53  N   UNL A   1      50.972  31.524  25.695  1.00  0.00    -0.354 N 
ATOM     54  N   UNL A   1      48.529  33.060  26.192  1.00  0.00    -0.248 NA
ATOM     55  C   UNL A   1      47.463  35.100  26.586  1.00  0.00     0.031 C 
ATOM     56  C   UNL A   1      52.878  32.629  25.403  1.00  0.00     0.029 A 
ATOM     57  C   UNL A   1      51.527  32.793  25.662  1.00  0.00     0.049 A 
ATOM     58  H   UNL A   1      50.024  31.326  25.869  1.00  0.00     0.167 HD
ATOM     59  C   UNL A   1      49.462  34.088  26.106  1.00  0.00     0.074 A 
ATOM     60  C   UNL A   1      48.741  35.326  26.319  1.00  0.00     0.031 C 
ATOM     61  C   UNL A   1      50.795  34.016  25.870  1.00  0.00     0.031 A 
BRANCH  48  62
ATOM     62  C   UNL A   1      52.908  28.249  25.214  1.00  0.00    -0.014 A 
ATOM     63  C   UNL A   1      53.772  27.891  26.261  1.00  0.00     0.009 A 
ATOM     64  C   UNL A   1      53.136  27.717  23.934  1.00  0.00     0.009 A 
ATOM     65  C   UNL A   1      54.858  27.044  26.022  1.00  0.00     0.001 A 
ATOM     66  C   UNL A   1      54.202  26.847  23.707  1.00  0.00     0.001 A 
ATOM     67  C   UNL A   1      55.068  26.518  24.748  1.00  0.00     0.000 A 
ENDBRANCH  48  62
BRANCH  49  68
ATOM     68  C   UNL A   1      44.827  33.877  26.871  1.00  0.00    -0.014 A 
ATOM     69  C   UNL A   1      44.349  34.052  28.179  1.00  0.00     0.009 A 
ATOM     70  C   UNL A   1      44.135  34.487  25.812  1.00  0.00     0.009 A 
ATOM     71  C   UNL A   1      43.186  34.790  28.417  1.00  0.00     0.001 A 
ATOM     72  C   UNL A   1      42.993  35.251  26.056  1.00  0.00     0.001 A 
ATOM     73  C   UNL A   1      42.511  35.392  27.356  1.00  0.00     0.000 A 
ENDBRANCH  49  68
BRANCH  61  74
ATOM     74  C   UNL A   1      51.555  35.311  25.778  1.00  0.00    -0.014 A 
ATOM     75  C   UNL A   1      52.187  35.876  26.896  1.00  0.00     0.009 A 
ATOM     76  C   UNL A   1      51.681  35.952  24.534  1.00  0.00     0.009 A 
ATOM     77  C   UNL A   1      52.893  37.075  26.779  1.00  0.00     0.001 A 
ATOM     78  C   UNL A   1      52.417  37.131  24.411  1.00  0.00     0.001 A 
ATOM     79  C   UNL A   1      53.013  37.697  25.536  1.00  0.00     0.000 A 
ENDBRANCH  61  74
ENDBRANCH  35  36
ENDBRANCH  28  30
ENDBRANCH  27  28
ENDBRANCH  26  27
ENDBRANCH  25  26
ENDBRANCH  24  25
ENDBRANCH  23  24
ENDBRANCH  22  23
ENDBRANCH  21  22
ENDBRANCH   1  21
TORSDOF 23
ENDMDL
