MODEL 1
REMARK VINA RESULT:      -9.0      0.000      0.000
REMARK SMILES O=C(COc1ccccc1/C=C1/SC(=S)N(c2ccc(F)c(Cl)c2)C1=O)OCCOCCOCCOCCOC(=O)c1ccc(-c2c3nc(c(-c4ccccc4)c4ccc([nH]4)c(-c4ccccc4)c4nc(c(-c5ccccc5)c5ccc2[nH]5)C=C4)C=C3)cc1
REMARK SMILES IDX 32 1 31 2 30 3 29 4 28 5 27 6 2 7 1 8 3 9 4 10 5 11 6 12
REMARK SMILES IDX 10 13 7 14 9 15 8 16 11 17 12 18 13 19 25 20 14 21 16 22
REMARK SMILES IDX 26 23 15 24 17 25 18 26 24 27 19 28 22 29 20 30 23 31 21 32
REMARK SMILES IDX 33 33 34 34 35 35 36 36 37 37 38 38 39 39 40 40 41 41 42 42
REMARK SMILES IDX 43 43 89 44 44 45 88 46 45 47 46 48 47 49 82 50 48 51 87 52
REMARK SMILES IDX 81 53 83 54 49 55 86 56 80 57 79 58 50 60 72 61 57 62 71 63
REMARK SMILES IDX 58 64 61 65 70 66 84 67 59 68 60 69 69 71 85 72 62 73 51 74
REMARK SMILES IDX 52 75 56 76 53 77 55 78 54 79 73 80 74 81 78 82 75 83 77 84
REMARK SMILES IDX 76 85 63 86 64 87 68 88 65 89 67 90 66 91
REMARK H PARENT 83 59 61 70
REMARK Flexibility Score: inf
ROOT
ATOM      1  C   UNL A   1      43.620  19.984  25.690  1.00  0.00     0.188 C 
ENDROOT
BRANCH   1   2
ATOM      2  C   UNL A   1      42.122  20.003  26.089  1.00  0.00     0.188 C 
BRANCH   2   3
ATOM      3  O   UNL A   1      41.713  20.885  27.104  1.00  0.00    -0.376 OA
BRANCH   3   4
ATOM      4  C   UNL A   1      40.444  21.504  27.207  1.00  0.00     0.202 C 
BRANCH   4   5
ATOM      5  C   UNL A   1      39.620  22.008  26.027  1.00  0.00     0.261 C 
BRANCH   5   6
ATOM      6  O   UNL A   1      38.206  21.803  26.128  1.00  0.00    -0.461 OA
BRANCH   6   7
ATOM      7  C   UNL A   1      37.420  21.474  25.062  1.00  0.00     0.344 C 
ATOM      8  O   UNL A   1      37.298  22.252  24.117  1.00  0.00    -0.248 OA
BRANCH   7   9
ATOM      9  C   UNL A   1      36.685  20.167  25.118  1.00  0.00     0.351 C 
BRANCH   9  10
ATOM     10  O   UNL A   1      35.297  20.429  25.250  1.00  0.00    -0.481 OA
BRANCH  10  11
ATOM     11  C   UNL A   1      34.502  19.378  24.912  1.00  0.00     0.127 A 
ATOM     12  C   UNL A   1      35.230  18.343  24.313  1.00  0.00     0.047 A 
ATOM     13  C   UNL A   1      33.105  19.294  25.082  1.00  0.00     0.018 A 
ATOM     14  C   UNL A   1      34.597  17.167  23.946  1.00  0.00     0.004 A 
ATOM     15  C   UNL A   1      32.497  18.083  24.725  1.00  0.00     0.012 A 
ATOM     16  C   UNL A   1      33.233  17.031  24.170  1.00  0.00     0.001 A 
BRANCH  13  17
ATOM     17  C   UNL A   1      32.177  20.274  25.689  1.00  0.00     0.033 C 
ATOM     18  C   UNL A   1      31.838  21.530  25.341  1.00  0.00     0.081 C 
ATOM     19  S   UNL A   1      30.761  22.481  26.303  1.00  0.00    -0.054 SA
ATOM     20  C   UNL A   1      32.375  22.365  24.234  1.00  0.00     0.270 C 
ATOM     21  C   UNL A   1      31.197  23.987  25.497  1.00  0.00     0.152 C 
ATOM     22  N   UNL A   1      32.054  23.719  24.435  1.00  0.00    -0.261 N 
ATOM     23  O   UNL A   1      33.069  21.894  23.341  1.00  0.00    -0.268 OA
ATOM     24  S   UNL A   1      30.507  25.431  25.985  1.00  0.00    -0.051 S 
BRANCH  22  25
ATOM     25  C   UNL A   1      32.689  24.713  23.609  1.00  0.00     0.052 A 
ATOM     26  C   UNL A   1      33.334  25.811  24.201  1.00  0.00     0.030 A 
ATOM     27  C   UNL A   1      32.548  24.714  22.210  1.00  0.00     0.050 A 
ATOM     28  C   UNL A   1      33.768  26.900  23.440  1.00  0.00     0.043 A 
ATOM     29  C   UNL A   1      32.956  25.819  21.451  1.00  0.00     0.078 A 
ATOM     30  C   UNL A   1      33.555  26.909  22.070  1.00  0.00     0.141 A 
ATOM     31  Cl  UNL A   1      32.622  25.859  19.763  1.00  0.00    -0.081 Cl
ATOM     32  F   UNL A   1      33.906  27.995  21.367  1.00  0.00    -0.205 F 
ENDBRANCH  22  25
ENDBRANCH  13  17
ENDBRANCH  10  11
ENDBRANCH   9  10
ENDBRANCH   7   9
ENDBRANCH   6   7
ENDBRANCH   5   6
ENDBRANCH   4   5
ENDBRANCH   3   4
ENDBRANCH   2   3
ENDBRANCH   1   2
BRANCH   1  33
ATOM     33  O   UNL A   1      44.059  20.411  24.408  1.00  0.00    -0.377 OA
BRANCH  33  34
ATOM     34  C   UNL A   1      44.734  21.645  24.328  1.00  0.00     0.188 C 
BRANCH  34  35
ATOM     35  C   UNL A   1      44.177  22.744  25.259  1.00  0.00     0.188 C 
BRANCH  35  36
ATOM     36  O   UNL A   1      42.908  23.347  25.071  1.00  0.00    -0.376 OA
BRANCH  36  37
ATOM     37  C   UNL A   1      42.667  24.678  25.489  1.00  0.00     0.202 C 
BRANCH  37  38
ATOM     38  C   UNL A   1      41.972  25.012  26.826  1.00  0.00     0.261 C 
BRANCH  38  39
ATOM     39  O   UNL A   1      40.589  25.385  26.776  1.00  0.00    -0.460 OA
BRANCH  39  40
ATOM     40  C   UNL A   1      40.075  25.839  27.944  1.00  0.00     0.338 C 
ATOM     41  O   UNL A   1      39.353  25.242  28.711  1.00  0.00    -0.246 OA
BRANCH  40  42
ATOM     42  C   UNL A   1      40.703  27.143  28.264  1.00  0.00     0.060 A 
ATOM     43  C   UNL A   1      41.666  27.169  29.283  1.00  0.00     0.016 A 
ATOM     44  C   UNL A   1      40.326  28.321  27.619  1.00  0.00     0.016 A 
ATOM     45  C   UNL A   1      42.235  28.372  29.682  1.00  0.00     0.010 A 
ATOM     46  C   UNL A   1      40.858  29.538  28.057  1.00  0.00     0.010 A 
ATOM     47  C   UNL A   1      41.785  29.567  29.116  1.00  0.00    -0.014 A 
BRANCH  47  48
ATOM     48  C   UNL A   1      42.102  30.828  29.822  1.00  0.00     0.031 A 
ATOM     49  C   UNL A   1      43.224  31.672  29.280  1.00  0.00     0.074 A 
ATOM     50  C   UNL A   1      41.357  31.264  30.850  1.00  0.00     0.049 A 
ATOM     51  N   UNL A   1      43.687  32.815  29.715  1.00  0.00    -0.248 NA
ATOM     52  C   UNL A   1      43.905  31.165  28.076  1.00  0.00     0.031 C 
ATOM     53  C   UNL A   1      40.190  30.579  31.401  1.00  0.00     0.029 A 
ATOM     54  N   UNL A   1      41.477  32.397  31.614  1.00  0.00    -0.354 N 
ATOM     55  C   UNL A   1      44.709  33.161  28.839  1.00  0.00     0.074 A 
ATOM     56  C   UNL A   1      44.820  32.097  27.866  1.00  0.00     0.031 C 
ATOM     57  C   UNL A   1      39.714  31.295  32.436  1.00  0.00     0.029 A 
ATOM     58  C   UNL A   1      40.558  32.471  32.633  1.00  0.00     0.049 A 
ATOM     59  H   UNL A   1      42.156  33.090  31.449  1.00  0.00     0.167 HD
ATOM     60  C   UNL A   1      45.481  34.272  28.840  1.00  0.00     0.031 A 
ATOM     61  C   UNL A   1      40.438  33.374  33.624  1.00  0.00     0.031 A 
ATOM     62  C   UNL A   1      45.384  35.318  29.822  1.00  0.00     0.049 A 
ATOM     63  C   UNL A   1      41.391  34.541  33.672  1.00  0.00     0.074 A 
ATOM     64  C   UNL A   1      46.133  36.476  29.925  1.00  0.00     0.029 A 
ATOM     65  N   UNL A   1      44.487  35.325  30.878  1.00  0.00    -0.354 N 
ATOM     66  N   UNL A   1      42.351  34.864  32.839  1.00  0.00    -0.248 NA
ATOM     67  C   UNL A   1      41.233  35.476  34.795  1.00  0.00     0.031 C 
ATOM     68  C   UNL A   1      45.729  37.156  31.077  1.00  0.00     0.029 A 
ATOM     69  C   UNL A   1      44.681  36.455  31.653  1.00  0.00     0.049 A 
ATOM     70  H   UNL A   1      43.811  34.630  31.052  1.00  0.00     0.167 HD
ATOM     71  C   UNL A   1      42.888  36.053  33.317  1.00  0.00     0.074 A 
ATOM     72  C   UNL A   1      42.129  36.406  34.499  1.00  0.00     0.031 C 
ATOM     73  C   UNL A   1      43.916  36.789  32.828  1.00  0.00     0.031 A 
BRANCH  60  74
ATOM     74  C   UNL A   1      46.525  34.393  27.766  1.00  0.00    -0.014 A 
ATOM     75  C   UNL A   1      47.839  33.947  27.972  1.00  0.00     0.009 A 
ATOM     76  C   UNL A   1      46.174  34.922  26.514  1.00  0.00     0.009 A 
ATOM     77  C   UNL A   1      48.787  34.049  26.951  1.00  0.00     0.001 A 
ATOM     78  C   UNL A   1      47.115  34.997  25.487  1.00  0.00     0.001 A 
ATOM     79  C   UNL A   1      48.422  34.566  25.707  1.00  0.00     0.000 A 
ENDBRANCH  60  74
BRANCH  61  80
ATOM     80  C   UNL A   1      39.408  33.199  34.684  1.00  0.00    -0.014 A 
ATOM     81  C   UNL A   1      39.652  32.393  35.806  1.00  0.00     0.009 A 
ATOM     82  C   UNL A   1      38.143  33.794  34.544  1.00  0.00     0.009 A 
ATOM     83  C   UNL A   1      38.641  32.153  36.740  1.00  0.00     0.001 A 
ATOM     84  C   UNL A   1      37.145  33.582  35.497  1.00  0.00     0.001 A 
ATOM     85  C   UNL A   1      37.390  32.748  36.586  1.00  0.00     0.000 A 
ENDBRANCH  61  80
BRANCH  73  86
ATOM     86  C   UNL A   1      44.248  38.067  33.547  1.00  0.00    -0.014 A 
ATOM     87  C   UNL A   1      44.154  39.314  32.908  1.00  0.00     0.009 A 
ATOM     88  C   UNL A   1      44.643  38.023  34.894  1.00  0.00     0.009 A 
ATOM     89  C   UNL A   1      44.498  40.484  33.588  1.00  0.00     0.001 A 
ATOM     90  C   UNL A   1      44.950  39.197  35.582  1.00  0.00     0.001 A 
ATOM     91  C   UNL A   1      44.892  40.425  34.924  1.00  0.00     0.000 A 
ENDBRANCH  73  86
ENDBRANCH  47  48
ENDBRANCH  40  42
ENDBRANCH  39  40
ENDBRANCH  38  39
ENDBRANCH  37  38
ENDBRANCH  36  37
ENDBRANCH  35  36
ENDBRANCH  34  35
ENDBRANCH  33  34
ENDBRANCH   1  33
TORSDOF 24
ENDMDL
MODEL 2
REMARK VINA RESULT:      -8.8      0.427      5.425
REMARK SMILES O=C(COc1ccccc1/C=C1/SC(=S)N(c2ccc(F)c(Cl)c2)C1=O)OCCOCCOCCOCCOC(=O)c1ccc(-c2c3nc(c(-c4ccccc4)c4ccc([nH]4)c(-c4ccccc4)c4nc(c(-c5ccccc5)c5ccc2[nH]5)C=C4)C=C3)cc1
REMARK SMILES IDX 32 1 31 2 30 3 29 4 28 5 27 6 2 7 1 8 3 9 4 10 5 11 6 12
REMARK SMILES IDX 10 13 7 14 9 15 8 16 11 17 12 18 13 19 25 20 14 21 16 22
REMARK SMILES IDX 26 23 15 24 17 25 18 26 24 27 19 28 22 29 20 30 23 31 21 32
REMARK SMILES IDX 33 33 34 34 35 35 36 36 37 37 38 38 39 39 40 40 41 41 42 42
REMARK SMILES IDX 43 43 89 44 44 45 88 46 45 47 46 48 47 49 82 50 48 51 87 52
REMARK SMILES IDX 81 53 83 54 49 55 86 56 80 57 79 58 50 60 72 61 57 62 71 63
REMARK SMILES IDX 58 64 61 65 70 66 84 67 59 68 60 69 69 71 85 72 62 73 51 74
REMARK SMILES IDX 52 75 56 76 53 77 55 78 54 79 73 80 74 81 78 82 75 83 77 84
REMARK SMILES IDX 76 85 63 86 64 87 68 88 65 89 67 90 66 91
REMARK H PARENT 83 59 61 70
REMARK Flexibility Score: inf
ROOT
ATOM      1  C   UNL A   1      43.632  19.987  25.606  1.00  0.00     0.188 C 
ENDROOT
BRANCH   1   2
ATOM      2  C   UNL A   1      42.115  19.943  25.917  1.00  0.00     0.188 C 
BRANCH   2   3
ATOM      3  O   UNL A   1      41.649  20.603  27.068  1.00  0.00    -0.376 OA
BRANCH   3   4
ATOM      4  C   UNL A   1      40.426  21.306  27.186  1.00  0.00     0.202 C 
BRANCH   4   5
ATOM      5  C   UNL A   1      39.706  22.006  26.039  1.00  0.00     0.261 C 
BRANCH   5   6
ATOM      6  O   UNL A   1      38.276  22.019  26.122  1.00  0.00    -0.461 OA
BRANCH   6   7
ATOM      7  C   UNL A   1      37.463  21.669  25.084  1.00  0.00     0.344 C 
ATOM      8  O   UNL A   1      37.288  22.442  24.143  1.00  0.00    -0.248 OA
BRANCH   7   9
ATOM      9  C   UNL A   1      36.765  20.343  25.165  1.00  0.00     0.351 C 
BRANCH   9  10
ATOM     10  O   UNL A   1      35.371  20.569  25.302  1.00  0.00    -0.481 OA
BRANCH  10  11
ATOM     11  C   UNL A   1      34.602  19.503  24.949  1.00  0.00     0.127 A 
ATOM     12  C   UNL A   1      35.360  18.482  24.363  1.00  0.00     0.047 A 
ATOM     13  C   UNL A   1      33.204  19.393  25.094  1.00  0.00     0.018 A 
ATOM     14  C   UNL A   1      34.755  17.296  23.983  1.00  0.00     0.004 A 
ATOM     15  C   UNL A   1      32.625  18.171  24.726  1.00  0.00     0.012 A 
ATOM     16  C   UNL A   1      33.390  17.134  24.184  1.00  0.00     0.001 A 
BRANCH  13  17
ATOM     17  C   UNL A   1      32.247  20.355  25.686  1.00  0.00     0.033 C 
ATOM     18  C   UNL A   1      31.877  21.598  25.322  1.00  0.00     0.081 C 
ATOM     19  S   UNL A   1      30.771  22.531  26.268  1.00  0.00    -0.054 SA
ATOM     20  C   UNL A   1      32.399  22.434  24.209  1.00  0.00     0.270 C 
ATOM     21  C   UNL A   1      31.172  24.039  25.447  1.00  0.00     0.152 C 
ATOM     22  N   UNL A   1      32.041  23.782  24.394  1.00  0.00    -0.261 N 
ATOM     23  O   UNL A   1      33.110  21.972  23.325  1.00  0.00    -0.268 OA
ATOM     24  S   UNL A   1      30.441  25.469  25.916  1.00  0.00    -0.051 S 
BRANCH  22  25
ATOM     25  C   UNL A   1      32.655  24.783  23.560  1.00  0.00     0.052 A 
ATOM     26  C   UNL A   1      33.219  25.931  24.140  1.00  0.00     0.030 A 
ATOM     27  C   UNL A   1      32.568  24.735  22.157  1.00  0.00     0.050 A 
ATOM     28  C   UNL A   1      33.625  27.019  23.361  1.00  0.00     0.043 A 
ATOM     29  C   UNL A   1      32.946  25.837  21.379  1.00  0.00     0.078 A 
ATOM     30  C   UNL A   1      33.464  26.975  21.985  1.00  0.00     0.141 A 
ATOM     31  Cl  UNL A   1      32.676  25.809  19.680  1.00  0.00    -0.081 Cl
ATOM     32  F   UNL A   1      33.785  28.057  21.261  1.00  0.00    -0.205 F 
ENDBRANCH  22  25
ENDBRANCH  13  17
ENDBRANCH  10  11
ENDBRANCH   9  10
ENDBRANCH   7   9
ENDBRANCH   6   7
ENDBRANCH   5   6
ENDBRANCH   4   5
ENDBRANCH   3   4
ENDBRANCH   2   3
ENDBRANCH   1   2
BRANCH   1  33
ATOM     33  O   UNL A   1      44.123  20.296  24.309  1.00  0.00    -0.377 OA
BRANCH  33  34
ATOM     34  C   UNL A   1      44.755  21.542  24.131  1.00  0.00     0.188 C 
BRANCH  34  35
ATOM     35  C   UNL A   1      44.265  22.653  25.085  1.00  0.00     0.188 C 
BRANCH  35  36
ATOM     36  O   UNL A   1      42.982  23.248  24.988  1.00  0.00    -0.376 OA
BRANCH  36  37
ATOM     37  C   UNL A   1      42.789  24.616  25.299  1.00  0.00     0.202 C 
BRANCH  37  38
ATOM     38  C   UNL A   1      42.210  25.083  26.651  1.00  0.00     0.261 C 
BRANCH  38  39
ATOM     39  O   UNL A   1      40.838  25.494  26.674  1.00  0.00    -0.460 OA
BRANCH  39  40
ATOM     40  C   UNL A   1      40.400  25.964  27.867  1.00  0.00     0.338 C 
ATOM     41  O   UNL A   1      39.719  25.383  28.682  1.00  0.00    -0.246 OA
BRANCH  40  42
ATOM     42  C   UNL A   1      41.060  27.264  28.136  1.00  0.00     0.060 A 
ATOM     43  C   UNL A   1      41.980  27.320  29.193  1.00  0.00     0.016 A 
ATOM     44  C   UNL A   1      40.754  28.412  27.406  1.00  0.00     0.016 A 
ATOM     45  C   UNL A   1      42.575  28.525  29.544  1.00  0.00     0.010 A 
ATOM     46  C   UNL A   1      41.312  29.635  27.793  1.00  0.00     0.010 A 
ATOM     47  C   UNL A   1      42.193  29.698  28.888  1.00  0.00    -0.014 A 
BRANCH  47  48
ATOM     48  C   UNL A   1      42.525  30.989  29.531  1.00  0.00     0.031 A 
ATOM     49  C   UNL A   1      41.750  31.381  30.759  1.00  0.00     0.074 A 
ATOM     50  C   UNL A   1      43.549  31.744  29.101  1.00  0.00     0.049 A 
ATOM     51  N   UNL A   1      41.857  32.453  31.501  1.00  0.00    -0.248 NA
ATOM     52  C   UNL A   1      40.726  30.428  31.221  1.00  0.00     0.031 C 
ATOM     53  C   UNL A   1      44.428  31.421  27.981  1.00  0.00     0.029 A 
ATOM     54  N   UNL A   1      44.019  32.947  29.565  1.00  0.00    -0.354 N 
ATOM     55  C   UNL A   1      40.918  32.301  32.514  1.00  0.00     0.074 A 
ATOM     56  C   UNL A   1      40.230  31.051  32.278  1.00  0.00     0.031 C 
ATOM     57  C   UNL A   1      45.320  32.416  27.826  1.00  0.00     0.029 A 
ATOM     58  C   UNL A   1      45.055  33.455  28.819  1.00  0.00     0.049 A 
ATOM     59  H   UNL A   1      43.650  33.402  30.355  1.00  0.00     0.167 HD
ATOM     60  C   UNL A   1      40.658  33.126  33.554  1.00  0.00     0.031 A 
ATOM     61  C   UNL A   1      45.691  34.637  28.916  1.00  0.00     0.031 A 
ATOM     62  C   UNL A   1      41.327  34.379  33.773  1.00  0.00     0.049 A 
ATOM     63  C   UNL A   1      45.297  35.593  30.014  1.00  0.00     0.074 A 
ATOM     64  C   UNL A   1      41.125  35.299  34.786  1.00  0.00     0.029 A 
ATOM     65  N   UNL A   1      42.324  34.892  32.958  1.00  0.00    -0.354 N 
ATOM     66  N   UNL A   1      44.412  35.441  30.970  1.00  0.00    -0.248 NA
ATOM     67  C   UNL A   1      46.003  36.882  30.051  1.00  0.00     0.031 C 
ATOM     68  C   UNL A   1      41.957  36.397  34.551  1.00  0.00     0.029 A 
ATOM     69  C   UNL A   1      42.728  36.129  33.430  1.00  0.00     0.049 A 
ATOM     70  H   UNL A   1      42.691  34.443  32.162  1.00  0.00     0.167 HD
ATOM     71  C   UNL A   1      44.479  36.596  31.739  1.00  0.00     0.074 A 
ATOM     72  C   UNL A   1      45.508  37.429  31.152  1.00  0.00     0.031 C 
ATOM     73  C   UNL A   1      43.754  36.943  32.831  1.00  0.00     0.031 A 
BRANCH  60  74
ATOM     74  C   UNL A   1      39.576  32.715  34.512  1.00  0.00    -0.014 A 
ATOM     75  C   UNL A   1      39.741  31.619  35.374  1.00  0.00     0.009 A 
ATOM     76  C   UNL A   1      38.390  33.463  34.583  1.00  0.00     0.009 A 
ATOM     77  C   UNL A   1      38.730  31.269  36.272  1.00  0.00     0.001 A 
ATOM     78  C   UNL A   1      37.395  33.129  35.501  1.00  0.00     0.001 A 
ATOM     79  C   UNL A   1      37.562  32.029  36.340  1.00  0.00     0.000 A 
ENDBRANCH  60  74
BRANCH  61  80
ATOM     80  C   UNL A   1      46.737  35.016  27.927  1.00  0.00    -0.014 A 
ATOM     81  C   UNL A   1      46.404  35.684  26.739  1.00  0.00     0.009 A 
ATOM     82  C   UNL A   1      48.077  34.651  28.142  1.00  0.00     0.009 A 
ATOM     83  C   UNL A   1      47.379  35.940  25.772  1.00  0.00     0.001 A 
ATOM     84  C   UNL A   1      49.056  34.939  27.190  1.00  0.00     0.001 A 
ATOM     85  C   UNL A   1      48.703  35.570  25.999  1.00  0.00     0.000 A 
ENDBRANCH  61  80
BRANCH  73  86
ATOM     86  C   UNL A   1      44.082  38.258  33.483  1.00  0.00    -0.014 A 
ATOM     87  C   UNL A   1      43.495  39.458  33.051  1.00  0.00     0.009 A 
ATOM     88  C   UNL A   1      44.981  38.293  34.561  1.00  0.00     0.009 A 
ATOM     89  C   UNL A   1      43.840  40.670  33.652  1.00  0.00     0.001 A 
ATOM     90  C   UNL A   1      45.296  39.500  35.185  1.00  0.00     0.001 A 
ATOM     91  C   UNL A   1      44.737  40.690  34.720  1.00  0.00     0.000 A 
ENDBRANCH  73  86
ENDBRANCH  47  48
ENDBRANCH  40  42
ENDBRANCH  39  40
ENDBRANCH  38  39
ENDBRANCH  37  38
ENDBRANCH  36  37
ENDBRANCH  35  36
ENDBRANCH  34  35
ENDBRANCH  33  34
ENDBRANCH   1  33
TORSDOF 24
ENDMDL
MODEL 3
REMARK VINA RESULT:      -8.3     11.418     19.640
REMARK SMILES O=C(COc1ccccc1/C=C1/SC(=S)N(c2ccc(F)c(Cl)c2)C1=O)OCCOCCOCCOCCOC(=O)c1ccc(-c2c3nc(c(-c4ccccc4)c4ccc([nH]4)c(-c4ccccc4)c4nc(c(-c5ccccc5)c5ccc2[nH]5)C=C4)C=C3)cc1
REMARK SMILES IDX 32 1 31 2 30 3 29 4 28 5 27 6 2 7 1 8 3 9 4 10 5 11 6 12
REMARK SMILES IDX 10 13 7 14 9 15 8 16 11 17 12 18 13 19 25 20 14 21 16 22
REMARK SMILES IDX 26 23 15 24 17 25 18 26 24 27 19 28 22 29 20 30 23 31 21 32
REMARK SMILES IDX 33 33 34 34 35 35 36 36 37 37 38 38 39 39 40 40 41 41 42 42
REMARK SMILES IDX 43 43 89 44 44 45 88 46 45 47 46 48 47 49 82 50 48 51 87 52
REMARK SMILES IDX 81 53 83 54 49 55 86 56 80 57 79 58 50 60 72 61 57 62 71 63
REMARK SMILES IDX 58 64 61 65 70 66 84 67 59 68 60 69 69 71 85 72 62 73 51 74
REMARK SMILES IDX 52 75 56 76 53 77 55 78 54 79 73 80 74 81 78 82 75 83 77 84
REMARK SMILES IDX 76 85 63 86 64 87 68 88 65 89 67 90 66 91
REMARK H PARENT 83 59 61 70
REMARK Flexibility Score: inf
ROOT
ATOM      1  C   UNL A   1      45.860  44.498  27.237  1.00  0.00     0.188 C 
ENDROOT
BRANCH   1   2
ATOM      2  C   UNL A   1      45.952  44.912  25.746  1.00  0.00     0.188 C 
BRANCH   2   3
ATOM      3  O   UNL A   1      45.395  44.057  24.779  1.00  0.00    -0.376 OA
BRANCH   3   4
ATOM      4  C   UNL A   1      45.926  43.798  23.493  1.00  0.00     0.202 C 
BRANCH   4   5
ATOM      5  C   UNL A   1      45.373  44.363  22.189  1.00  0.00     0.261 C 
BRANCH   5   6
ATOM      6  O   UNL A   1      44.920  43.393  21.237  1.00  0.00    -0.461 OA
BRANCH   6   7
ATOM      7  C   UNL A   1      44.760  43.665  19.910  1.00  0.00     0.344 C 
ATOM      8  O   UNL A   1      45.598  43.287  19.093  1.00  0.00    -0.248 OA
BRANCH   7   9
ATOM      9  C   UNL A   1      43.564  44.476  19.507  1.00  0.00     0.351 C 
BRANCH   9  10
ATOM     10  O   UNL A   1      43.543  44.587  18.093  1.00  0.00    -0.481 OA
BRANCH  10  11
ATOM     11  C   UNL A   1      43.561  45.870  17.640  1.00  0.00     0.127 A 
ATOM     12  C   UNL A   1      42.298  46.469  17.714  1.00  0.00     0.047 A 
ATOM     13  C   UNL A   1      44.673  46.557  17.112  1.00  0.00     0.018 A 
ATOM     14  C   UNL A   1      42.132  47.793  17.342  1.00  0.00     0.004 A 
ATOM     15  C   UNL A   1      44.480  47.902  16.769  1.00  0.00     0.012 A 
ATOM     16  C   UNL A   1      43.229  48.514  16.888  1.00  0.00     0.001 A 
BRANCH  13  17
ATOM     17  C   UNL A   1      46.071  46.094  16.957  1.00  0.00     0.033 C 
ATOM     18  C   UNL A   1      47.105  46.046  17.818  1.00  0.00     0.081 C 
ATOM     19  S   UNL A   1      48.675  45.516  17.325  1.00  0.00    -0.054 SA
ATOM     20  C   UNL A   1      47.169  46.531  19.222  1.00  0.00     0.270 C 
ATOM     21  C   UNL A   1      49.464  46.158  18.764  1.00  0.00     0.152 C 
ATOM     22  N   UNL A   1      48.506  46.648  19.644  1.00  0.00    -0.261 N 
ATOM     23  O   UNL A   1      46.165  46.851  19.847  1.00  0.00    -0.268 OA
ATOM     24  S   UNL A   1      51.121  46.019  18.945  1.00  0.00    -0.051 S 
BRANCH  22  25
ATOM     25  C   UNL A   1      48.786  47.332  20.880  1.00  0.00     0.052 A 
ATOM     26  C   UNL A   1      49.108  48.699  20.870  1.00  0.00     0.030 A 
ATOM     27  C   UNL A   1      48.909  46.640  22.098  1.00  0.00     0.050 A 
ATOM     28  C   UNL A   1      49.596  49.343  22.011  1.00  0.00     0.043 A 
ATOM     29  C   UNL A   1      49.426  47.278  23.233  1.00  0.00     0.078 A 
ATOM     30  C   UNL A   1      49.775  48.622  23.182  1.00  0.00     0.141 A 
ATOM     31  Cl  UNL A   1      49.717  46.363  24.662  1.00  0.00    -0.081 Cl
ATOM     32  F   UNL A   1      50.317  49.235  24.244  1.00  0.00    -0.205 F 
ENDBRANCH  22  25
ENDBRANCH  13  17
ENDBRANCH  10  11
ENDBRANCH   9  10
ENDBRANCH   7   9
ENDBRANCH   6   7
ENDBRANCH   5   6
ENDBRANCH   4   5
ENDBRANCH   3   4
ENDBRANCH   2   3
ENDBRANCH   1   2
BRANCH   1  33
ATOM     33  O   UNL A   1      45.900  43.137  27.640  1.00  0.00    -0.377 OA
BRANCH  33  34
ATOM     34  C   UNL A   1      44.673  42.453  27.753  1.00  0.00     0.188 C 
BRANCH  34  35
ATOM     35  C   UNL A   1      44.387  41.455  26.609  1.00  0.00     0.188 C 
BRANCH  35  36
ATOM     36  O   UNL A   1      43.077  41.131  26.175  1.00  0.00    -0.376 OA
BRANCH  36  37
ATOM     37  C   UNL A   1      42.209  40.366  26.992  1.00  0.00     0.202 C 
BRANCH  37  38
ATOM     38  C   UNL A   1      41.557  39.055  26.506  1.00  0.00     0.261 C 
BRANCH  38  39
ATOM     39  O   UNL A   1      42.365  37.872  26.520  1.00  0.00    -0.460 OA
BRANCH  39  40
ATOM     40  C   UNL A   1      42.138  37.034  27.560  1.00  0.00     0.338 C 
ATOM     41  O   UNL A   1      41.340  37.179  28.460  1.00  0.00    -0.246 OA
BRANCH  40  42
ATOM     42  C   UNL A   1      42.885  35.775  27.329  1.00  0.00     0.060 A 
ATOM     43  C   UNL A   1      43.434  35.130  28.445  1.00  0.00     0.016 A 
ATOM     44  C   UNL A   1      43.087  35.262  26.047  1.00  0.00     0.016 A 
ATOM     45  C   UNL A   1      44.210  33.988  28.287  1.00  0.00     0.010 A 
ATOM     46  C   UNL A   1      43.911  34.144  25.882  1.00  0.00     0.010 A 
ATOM     47  C   UNL A   1      44.505  33.530  27.001  1.00  0.00    -0.014 A 
BRANCH  47  48
ATOM     48  C   UNL A   1      45.632  32.583  26.846  1.00  0.00     0.031 A 
ATOM     49  C   UNL A   1      45.311  31.114  26.794  1.00  0.00     0.074 A 
ATOM     50  C   UNL A   1      46.890  33.013  26.657  1.00  0.00     0.049 A 
ATOM     51  N   UNL A   1      46.116  30.093  26.660  1.00  0.00    -0.248 NA
ATOM     52  C   UNL A   1      43.887  30.749  26.892  1.00  0.00     0.031 C 
ATOM     53  C   UNL A   1      47.307  34.411  26.595  1.00  0.00     0.029 A 
ATOM     54  N   UNL A   1      48.052  32.305  26.481  1.00  0.00    -0.354 N 
ATOM     55  C   UNL A   1      45.298  28.970  26.656  1.00  0.00     0.074 A 
ATOM     56  C   UNL A   1      43.938  29.428  26.830  1.00  0.00     0.031 C 
ATOM     57  C   UNL A   1      48.640  34.460  26.420  1.00  0.00     0.029 A 
ATOM     58  C   UNL A   1      49.168  33.099  26.385  1.00  0.00     0.049 A 
ATOM     59  H   UNL A   1      48.082  31.322  26.430  1.00  0.00     0.167 HD
ATOM     60  C   UNL A   1      45.648  27.671  26.510  1.00  0.00     0.031 A 
ATOM     61  C   UNL A   1      50.468  32.756  26.305  1.00  0.00     0.031 A 
ATOM     62  C   UNL A   1      47.004  27.216  26.360  1.00  0.00     0.049 A 
ATOM     63  C   UNL A   1      50.839  31.296  26.267  1.00  0.00     0.074 A 
ATOM     64  C   UNL A   1      47.468  25.920  26.225  1.00  0.00     0.029 A 
ATOM     65  N   UNL A   1      48.114  28.045  26.334  1.00  0.00    -0.354 N 
ATOM     66  N   UNL A   1      50.061  30.240  26.260  1.00  0.00    -0.248 NA
ATOM     67  C   UNL A   1      52.274  30.982  26.215  1.00  0.00     0.031 C 
ATOM     68  C   UNL A   1      48.864  25.959  26.177  1.00  0.00     0.029 A 
ATOM     69  C   UNL A   1      49.265  27.286  26.213  1.00  0.00     0.049 A 
ATOM     70  H   UNL A   1      48.089  29.027  26.393  1.00  0.00     0.167 HD
ATOM     71  C   UNL A   1      50.907  29.142  26.168  1.00  0.00     0.074 A 
ATOM     72  C   UNL A   1      52.257  29.662  26.097  1.00  0.00     0.031 C 
ATOM     73  C   UNL A   1      50.601  27.822  26.146  1.00  0.00     0.031 A 
BRANCH  60  74
ATOM     74  C   UNL A   1      44.549  26.648  26.546  1.00  0.00    -0.014 A 
ATOM     75  C   UNL A   1      43.915  26.215  25.371  1.00  0.00     0.009 A 
ATOM     76  C   UNL A   1      44.173  26.076  27.772  1.00  0.00     0.009 A 
ATOM     77  C   UNL A   1      42.910  25.246  25.427  1.00  0.00     0.001 A 
ATOM     78  C   UNL A   1      43.189  25.088  27.821  1.00  0.00     0.001 A 
ATOM     79  C   UNL A   1      42.555  24.677  26.650  1.00  0.00     0.000 A 
ENDBRANCH  60  74
BRANCH  61  80
ATOM     80  C   UNL A   1      51.526  33.803  26.301  1.00  0.00    -0.014 A 
ATOM     81  C   UNL A   1      52.032  34.317  25.098  1.00  0.00     0.009 A 
ATOM     82  C   UNL A   1      52.081  34.250  27.512  1.00  0.00     0.009 A 
ATOM     83  C   UNL A   1      53.097  35.221  25.105  1.00  0.00     0.001 A 
ATOM     84  C   UNL A   1      53.122  35.180  27.518  1.00  0.00     0.001 A 
ATOM     85  C   UNL A   1      53.639  35.654  26.314  1.00  0.00     0.000 A 
ENDBRANCH  61  80
BRANCH  73  86
ATOM     86  C   UNL A   1      51.743  26.854  25.997  1.00  0.00    -0.014 A 
ATOM     87  C   UNL A   1      52.083  26.307  24.750  1.00  0.00     0.009 A 
ATOM     88  C   UNL A   1      52.504  26.501  27.124  1.00  0.00     0.009 A 
ATOM     89  C   UNL A   1      53.128  25.386  24.644  1.00  0.00     0.001 A 
ATOM     90  C   UNL A   1      53.571  25.611  27.008  1.00  0.00     0.001 A 
ATOM     91  C   UNL A   1      53.873  25.042  25.772  1.00  0.00     0.000 A 
ENDBRANCH  73  86
ENDBRANCH  47  48
ENDBRANCH  40  42
ENDBRANCH  39  40
ENDBRANCH  38  39
ENDBRANCH  37  38
ENDBRANCH  36  37
ENDBRANCH  35  36
ENDBRANCH  34  35
ENDBRANCH  33  34
ENDBRANCH   1  33
TORSDOF 24
ENDMDL
