MODEL 1
REMARK VINA RESULT:      -6.0      0.000      0.000
REMARK SMILES Cc1nnc(SCCC(=O)OCCOCCOCCOCCOC(=O)c2ccc(-c3c4nc(c(-c5ccccc5)c5ccc([nH]5)c(-c5ccccc5)c5nc(c(-c6ccccc6)c6ccc3[nH]6)C=C5)C=C4)cc2)s1
REMARK SMILES IDX 16 1 15 2 14 3 13 4 12 5 11 6 9 7 10 8 8 9 7 10 6 11 5 12
REMARK SMILES IDX 1 13 2 14 3 15 74 16 4 17 17 18 18 19 19 20 20 21 21 22
REMARK SMILES IDX 22 23 23 24 24 25 25 26 26 27 27 28 73 29 28 30 72 31 29 32
REMARK SMILES IDX 30 33 31 34 66 35 32 36 71 37 65 38 67 39 33 40 70 41 64 42
REMARK SMILES IDX 63 43 34 45 56 46 41 47 55 48 42 49 45 50 54 51 68 52 43 53
REMARK SMILES IDX 44 54 53 56 69 57 46 58 35 59 36 60 40 61 37 62 39 63 38 64
REMARK SMILES IDX 57 65 58 66 62 67 59 68 61 69 60 70 47 71 48 72 52 73 49 74
REMARK SMILES IDX 51 75 50 76
REMARK H PARENT 67 44 45 55
REMARK Flexibility Score: inf
ROOT
ATOM      1  C   UNL A   1      35.892  32.068  33.018  1.00  0.00     0.188 C 
ENDROOT
BRANCH   1   2
ATOM      2  C   UNL A   1      36.945  32.910  33.755  1.00  0.00     0.188 C 
BRANCH   2   3
ATOM      3  O   UNL A   1      37.795  33.751  32.997  1.00  0.00    -0.376 OA
BRANCH   3   4
ATOM      4  C   UNL A   1      38.881  34.419  33.654  1.00  0.00     0.202 C 
BRANCH   4   5
ATOM      5  C   UNL A   1      40.219  34.559  32.930  1.00  0.00     0.261 C 
BRANCH   5   6
ATOM      6  O   UNL A   1      40.005  34.633  31.507  1.00  0.00    -0.463 OA
BRANCH   6   7
ATOM      7  C   UNL A   1      41.050  34.223  30.748  1.00  0.00     0.306 C 
ATOM      8  O   UNL A   1      41.076  34.277  29.524  1.00  0.00    -0.252 OA
BRANCH   7   9
ATOM      9  C   UNL A   1      42.253  33.802  31.556  1.00  0.00     0.134 C 
BRANCH   9  10
ATOM     10  C   UNL A   1      43.625  33.939  30.907  1.00  0.00     0.089 C 
BRANCH  10  11
ATOM     11  S   UNL A   1      44.077  32.485  29.903  1.00  0.00    -0.093 SA
BRANCH  11  12
ATOM     12  C   UNL A   1      45.561  31.969  30.665  1.00  0.00     0.174 A 
ATOM     13  C   UNL A   1      48.330  29.900  32.322  1.00  0.00     0.081 C 
ATOM     14  C   UNL A   1      47.378  30.850  31.700  1.00  0.00     0.115 A 
ATOM     15  N   UNL A   1      47.467  32.155  31.818  1.00  0.00    -0.143 NA
ATOM     16  S   UNL A   1      46.035  30.323  30.768  1.00  0.00    -0.091 S 
ATOM     17  N   UNL A   1      46.410  32.803  31.217  1.00  0.00    -0.132 NA
ENDBRANCH  11  12
ENDBRANCH  10  11
ENDBRANCH   9  10
ENDBRANCH   7   9
ENDBRANCH   6   7
ENDBRANCH   5   6
ENDBRANCH   4   5
ENDBRANCH   3   4
ENDBRANCH   2   3
ENDBRANCH   1   2
BRANCH   1  18
ATOM     18  O   UNL A   1      34.599  32.555  32.709  1.00  0.00    -0.377 OA
BRANCH  18  19
ATOM     19  C   UNL A   1      34.349  33.958  32.712  1.00  0.00     0.188 C 
BRANCH  19  20
ATOM     20  C   UNL A   1      34.058  34.665  31.383  1.00  0.00     0.188 C 
BRANCH  20  21
ATOM     21  O   UNL A   1      33.792  33.809  30.271  1.00  0.00    -0.376 OA
BRANCH  21  22
ATOM     22  C   UNL A   1      33.801  34.441  29.000  1.00  0.00     0.202 C 
BRANCH  22  23
ATOM     23  C   UNL A   1      33.764  33.433  27.847  1.00  0.00     0.261 C 
BRANCH  23  24
ATOM     24  O   UNL A   1      35.012  32.753  27.644  1.00  0.00    -0.460 OA
BRANCH  24  25
ATOM     25  C   UNL A   1      34.954  31.415  27.866  1.00  0.00     0.338 C 
ATOM     26  O   UNL A   1      34.126  30.625  27.450  1.00  0.00    -0.246 OA
BRANCH  25  27
ATOM     27  C   UNL A   1      36.079  30.993  28.722  1.00  0.00     0.060 A 
ATOM     28  C   UNL A   1      37.269  31.728  28.678  1.00  0.00     0.016 A 
ATOM     29  C   UNL A   1      36.010  29.791  29.430  1.00  0.00     0.016 A 
ATOM     30  C   UNL A   1      38.417  31.224  29.296  1.00  0.00     0.010 A 
ATOM     31  C   UNL A   1      37.161  29.284  30.039  1.00  0.00     0.010 A 
ATOM     32  C   UNL A   1      38.379  29.976  29.936  1.00  0.00    -0.014 A 
BRANCH  32  33
ATOM     33  C   UNL A   1      39.645  29.315  30.340  1.00  0.00     0.031 A 
ATOM     34  C   UNL A   1      40.354  29.793  31.575  1.00  0.00     0.074 A 
ATOM     35  C   UNL A   1      40.154  28.293  29.630  1.00  0.00     0.049 A 
ATOM     36  N   UNL A   1      41.475  29.371  32.102  1.00  0.00    -0.248 NA
ATOM     37  C   UNL A   1      39.722  30.902  32.308  1.00  0.00     0.031 C 
ATOM     38  C   UNL A   1      39.563  27.741  28.415  1.00  0.00     0.029 A 
ATOM     39  N   UNL A   1      41.278  27.534  29.834  1.00  0.00    -0.354 N 
ATOM     40  C   UNL A   1      41.692  30.171  33.216  1.00  0.00     0.074 A 
ATOM     41  C   UNL A   1      40.594  31.112  33.284  1.00  0.00     0.031 C 
ATOM     42  C   UNL A   1      40.306  26.699  28.002  1.00  0.00     0.029 A 
ATOM     43  C   UNL A   1      41.459  26.553  28.889  1.00  0.00     0.049 A 
ATOM     44  H   UNL A   1      41.897  27.679  30.585  1.00  0.00     0.167 HD
ATOM     45  C   UNL A   1      42.717  30.134  34.100  1.00  0.00     0.031 A 
ATOM     46  C   UNL A   1      42.455  25.656  28.746  1.00  0.00     0.031 A 
ATOM     47  C   UNL A   1      43.822  29.217  34.026  1.00  0.00     0.049 A 
ATOM     48  C   UNL A   1      43.606  25.665  29.717  1.00  0.00     0.074 A 
ATOM     49  C   UNL A   1      44.908  29.104  34.877  1.00  0.00     0.029 A 
ATOM     50  N   UNL A   1      43.986  28.260  33.037  1.00  0.00    -0.354 N 
ATOM     51  N   UNL A   1      43.787  26.415  30.777  1.00  0.00    -0.248 NA
ATOM     52  C   UNL A   1      44.696  24.712  29.461  1.00  0.00     0.031 C 
ATOM     53  C   UNL A   1      45.753  28.108  34.377  1.00  0.00     0.029 A 
ATOM     54  C   UNL A   1      45.167  27.566  33.245  1.00  0.00     0.049 A 
ATOM     55  H   UNL A   1      43.357  28.097  32.297  1.00  0.00     0.167 HD
ATOM     56  C   UNL A   1      45.002  26.015  31.321  1.00  0.00     0.074 A 
ATOM     57  C   UNL A   1      45.502  24.941  30.489  1.00  0.00     0.031 C 
ATOM     58  C   UNL A   1      45.649  26.498  32.410  1.00  0.00     0.031 A 
BRANCH  45  59
ATOM     59  C   UNL A   1      42.709  31.150  35.205  1.00  0.00    -0.014 A 
ATOM     60  C   UNL A   1      42.198  30.840  36.476  1.00  0.00     0.009 A 
ATOM     61  C   UNL A   1      43.243  32.428  34.978  1.00  0.00     0.009 A 
ATOM     62  C   UNL A   1      42.197  31.801  37.489  1.00  0.00     0.001 A 
ATOM     63  C   UNL A   1      43.263  33.378  36.000  1.00  0.00     0.001 A 
ATOM     64  C   UNL A   1      42.733  33.067  37.252  1.00  0.00     0.000 A 
ENDBRANCH  45  59
BRANCH  46  65
ATOM     65  C   UNL A   1      42.435  24.688  27.617  1.00  0.00    -0.014 A 
ATOM     66  C   UNL A   1      43.042  25.006  26.391  1.00  0.00     0.009 A 
ATOM     67  C   UNL A   1      41.777  23.455  27.747  1.00  0.00     0.009 A 
ATOM     68  C   UNL A   1      42.968  24.120  25.314  1.00  0.00     0.001 A 
ATOM     69  C   UNL A   1      41.731  22.559  26.677  1.00  0.00     0.001 A 
ATOM     70  C   UNL A   1      42.317  22.896  25.459  1.00  0.00     0.000 A 
ENDBRANCH  46  65
BRANCH  58  71
ATOM     71  C   UNL A   1      46.951  25.848  32.784  1.00  0.00    -0.014 A 
ATOM     72  C   UNL A   1      47.004  24.819  33.737  1.00  0.00     0.009 A 
ATOM     73  C   UNL A   1      48.133  26.240  32.139  1.00  0.00     0.009 A 
ATOM     74  C   UNL A   1      48.222  24.216  34.057  1.00  0.00     0.001 A 
ATOM     75  C   UNL A   1      49.346  25.619  32.443  1.00  0.00     0.001 A 
ATOM     76  C   UNL A   1      49.390  24.613  33.407  1.00  0.00     0.000 A 
ENDBRANCH  58  71
ENDBRANCH  32  33
ENDBRANCH  25  27
ENDBRANCH  24  25
ENDBRANCH  23  24
ENDBRANCH  22  23
ENDBRANCH  21  22
ENDBRANCH  20  21
ENDBRANCH  19  20
ENDBRANCH  18  19
ENDBRANCH   1  18
TORSDOF 23
ENDMDL
MODEL 2
REMARK VINA RESULT:      -5.9      5.599      9.494
REMARK SMILES Cc1nnc(SCCC(=O)OCCOCCOCCOCCOC(=O)c2ccc(-c3c4nc(c(-c5ccccc5)c5ccc([nH]5)c(-c5ccccc5)c5nc(c(-c6ccccc6)c6ccc3[nH]6)C=C5)C=C4)cc2)s1
REMARK SMILES IDX 16 1 15 2 14 3 13 4 12 5 11 6 9 7 10 8 8 9 7 10 6 11 5 12
REMARK SMILES IDX 1 13 2 14 3 15 74 16 4 17 17 18 18 19 19 20 20 21 21 22
REMARK SMILES IDX 22 23 23 24 24 25 25 26 26 27 27 28 73 29 28 30 72 31 29 32
REMARK SMILES IDX 30 33 31 34 66 35 32 36 71 37 65 38 67 39 33 40 70 41 64 42
REMARK SMILES IDX 63 43 34 45 56 46 41 47 55 48 42 49 45 50 54 51 68 52 43 53
REMARK SMILES IDX 44 54 53 56 69 57 46 58 35 59 36 60 40 61 37 62 39 63 38 64
REMARK SMILES IDX 57 65 58 66 62 67 59 68 61 69 60 70 47 71 48 72 52 73 49 74
REMARK SMILES IDX 51 75 50 76
REMARK H PARENT 67 44 45 55
REMARK Flexibility Score: inf
ROOT
ATOM      1  C   UNL A   1      38.910  30.522  30.724  1.00  0.00     0.188 C 
ENDROOT
BRANCH   1   2
ATOM      2  C   UNL A   1      39.412  30.753  32.158  1.00  0.00     0.188 C 
BRANCH   2   3
ATOM      3  O   UNL A   1      38.463  31.011  33.177  1.00  0.00    -0.376 OA
BRANCH   3   4
ATOM      4  C   UNL A   1      37.069  31.025  32.843  1.00  0.00     0.202 C 
BRANCH   4   5
ATOM      5  C   UNL A   1      36.217  32.229  33.245  1.00  0.00     0.261 C 
BRANCH   5   6
ATOM      6  O   UNL A   1      35.205  32.473  32.249  1.00  0.00    -0.463 OA
BRANCH   6   7
ATOM      7  C   UNL A   1      35.156  33.743  31.780  1.00  0.00     0.306 C 
ATOM      8  O   UNL A   1      35.975  34.612  32.054  1.00  0.00    -0.252 OA
BRANCH   7   9
ATOM      9  C   UNL A   1      34.055  33.970  30.772  1.00  0.00     0.134 C 
BRANCH   9  10
ATOM     10  C   UNL A   1      34.061  35.285  30.001  1.00  0.00     0.089 C 
BRANCH  10  11
ATOM     11  S   UNL A   1      34.349  35.049  28.216  1.00  0.00    -0.093 SA
BRANCH  11  12
ATOM     12  C   UNL A   1      34.746  33.351  28.137  1.00  0.00     0.174 A 
ATOM     13  C   UNL A   1      36.596  30.005  27.848  1.00  0.00     0.081 C 
ATOM     14  C   UNL A   1      35.721  31.194  27.979  1.00  0.00     0.115 A 
ATOM     15  N   UNL A   1      34.418  31.162  27.817  1.00  0.00    -0.143 NA
ATOM     16  S   UNL A   1      36.342  32.753  28.342  1.00  0.00    -0.091 S 
ATOM     17  N   UNL A   1      33.854  32.416  27.907  1.00  0.00    -0.132 NA
ENDBRANCH  11  12
ENDBRANCH  10  11
ENDBRANCH   9  10
ENDBRANCH   7   9
ENDBRANCH   6   7
ENDBRANCH   5   6
ENDBRANCH   4   5
ENDBRANCH   3   4
ENDBRANCH   2   3
ENDBRANCH   1   2
BRANCH   1  18
ATOM     18  O   UNL A   1      39.734  30.688  29.586  1.00  0.00    -0.377 OA
BRANCH  18  19
ATOM     19  C   UNL A   1      40.728  29.715  29.279  1.00  0.00     0.188 C 
BRANCH  19  20
ATOM     20  C   UNL A   1      40.579  28.874  28.006  1.00  0.00     0.188 C 
BRANCH  20  21
ATOM     21  O   UNL A   1      39.437  28.018  27.960  1.00  0.00    -0.376 OA
BRANCH  21  22
ATOM     22  C   UNL A   1      39.346  27.067  29.011  1.00  0.00     0.202 C 
BRANCH  22  23
ATOM     23  C   UNL A   1      39.398  25.624  28.497  1.00  0.00     0.261 C 
BRANCH  23  24
ATOM     24  O   UNL A   1      40.725  25.077  28.467  1.00  0.00    -0.460 OA
BRANCH  24  25
ATOM     25  C   UNL A   1      41.184  24.813  27.217  1.00  0.00     0.338 C 
ATOM     26  O   UNL A   1      40.623  24.193  26.331  1.00  0.00    -0.246 OA
BRANCH  25  27
ATOM     27  C   UNL A   1      42.526  25.398  27.035  1.00  0.00     0.060 A 
ATOM     28  C   UNL A   1      43.282  25.712  28.170  1.00  0.00     0.016 A 
ATOM     29  C   UNL A   1      42.958  25.782  25.763  1.00  0.00     0.016 A 
ATOM     30  C   UNL A   1      44.447  26.471  28.038  1.00  0.00     0.010 A 
ATOM     31  C   UNL A   1      44.118  26.550  25.634  1.00  0.00     0.010 A 
ATOM     32  C   UNL A   1      44.843  26.935  26.774  1.00  0.00    -0.014 A 
BRANCH  32  33
ATOM     33  C   UNL A   1      45.905  27.965  26.665  1.00  0.00     0.031 A 
ATOM     34  C   UNL A   1      45.524  29.416  26.750  1.00  0.00     0.074 A 
ATOM     35  C   UNL A   1      47.195  27.620  26.506  1.00  0.00     0.049 A 
ATOM     36  N   UNL A   1      46.285  30.478  26.666  1.00  0.00    -0.248 NA
ATOM     37  C   UNL A   1      44.096  29.711  26.945  1.00  0.00     0.031 C 
ATOM     38  C   UNL A   1      47.690  26.252  26.406  1.00  0.00     0.029 A 
ATOM     39  N   UNL A   1      48.323  28.395  26.409  1.00  0.00    -0.354 N 
ATOM     40  C   UNL A   1      45.427  31.564  26.780  1.00  0.00     0.074 A 
ATOM     41  C   UNL A   1      44.088  31.035  26.928  1.00  0.00     0.031 C 
ATOM     42  C   UNL A   1      49.031  26.277  26.306  1.00  0.00     0.029 A 
ATOM     43  C   UNL A   1      49.480  27.669  26.271  1.00  0.00     0.049 A 
ATOM     44  H   UNL A   1      48.304  29.380  26.434  1.00  0.00     0.167 HD
ATOM     45  C   UNL A   1      45.725  32.885  26.756  1.00  0.00     0.031 A 
ATOM     46  C   UNL A   1      50.754  28.081  26.112  1.00  0.00     0.031 A 
ATOM     47  C   UNL A   1      47.050  33.417  26.588  1.00  0.00     0.049 A 
ATOM     48  C   UNL A   1      51.051  29.555  26.043  1.00  0.00     0.074 A 
ATOM     49  C   UNL A   1      47.449  34.743  26.550  1.00  0.00     0.029 A 
ATOM     50  N   UNL A   1      48.191  32.651  26.419  1.00  0.00    -0.354 N 
ATOM     51  N   UNL A   1      50.233  30.571  26.172  1.00  0.00    -0.248 NA
ATOM     52  C   UNL A   1      52.449  29.938  25.793  1.00  0.00     0.031 C 
ATOM     53  C   UNL A   1      48.826  34.778  26.314  1.00  0.00     0.029 A 
ATOM     54  C   UNL A   1      49.293  33.474  26.257  1.00  0.00     0.049 A 
ATOM     55  H   UNL A   1      48.216  31.666  26.417  1.00  0.00     0.167 HD
ATOM     56  C   UNL A   1      51.017  31.710  26.033  1.00  0.00     0.074 A 
ATOM     57  C   UNL A   1      52.379  31.261  25.834  1.00  0.00     0.031 C 
ATOM     58  C   UNL A   1      50.641  33.012  26.062  1.00  0.00     0.031 A 
BRANCH  45  59
ATOM     59  C   UNL A   1      44.580  33.849  26.874  1.00  0.00    -0.014 A 
ATOM     60  C   UNL A   1      43.896  34.310  25.738  1.00  0.00     0.009 A 
ATOM     61  C   UNL A   1      44.165  34.283  28.142  1.00  0.00     0.009 A 
ATOM     62  C   UNL A   1      42.836  35.210  25.870  1.00  0.00     0.001 A 
ATOM     63  C   UNL A   1      43.089  35.163  28.273  1.00  0.00     0.001 A 
ATOM     64  C   UNL A   1      42.431  35.632  27.137  1.00  0.00     0.000 A 
ENDBRANCH  45  59
BRANCH  46  65
ATOM     65  C   UNL A   1      51.851  27.087  25.969  1.00  0.00    -0.014 A 
ATOM     66  C   UNL A   1      52.205  26.589  24.705  1.00  0.00     0.009 A 
ATOM     67  C   UNL A   1      52.527  26.604  27.101  1.00  0.00     0.009 A 
ATOM     68  C   UNL A   1      53.194  25.611  24.581  1.00  0.00     0.001 A 
ATOM     69  C   UNL A   1      53.536  25.648  26.970  1.00  0.00     0.001 A 
ATOM     70  C   UNL A   1      53.862  25.145  25.712  1.00  0.00     0.000 A 
ENDBRANCH  46  65
BRANCH  58  71
ATOM     71  C   UNL A   1      51.722  34.045  25.908  1.00  0.00    -0.014 A 
ATOM     72  C   UNL A   1      52.437  34.523  27.017  1.00  0.00     0.009 A 
ATOM     73  C   UNL A   1      52.057  34.513  24.629  1.00  0.00     0.009 A 
ATOM     74  C   UNL A   1      53.450  35.470  26.849  1.00  0.00     0.001 A 
ATOM     75  C   UNL A   1      53.086  35.442  24.461  1.00  0.00     0.001 A 
ATOM     76  C   UNL A   1      53.776  35.925  25.572  1.00  0.00     0.000 A 
ENDBRANCH  58  71
ENDBRANCH  32  33
ENDBRANCH  25  27
ENDBRANCH  24  25
ENDBRANCH  23  24
ENDBRANCH  22  23
ENDBRANCH  21  22
ENDBRANCH  20  21
ENDBRANCH  19  20
ENDBRANCH  18  19
ENDBRANCH   1  18
TORSDOF 23
ENDMDL
MODEL 3
REMARK VINA RESULT:      -5.7      5.967     11.796
REMARK SMILES Cc1nnc(SCCC(=O)OCCOCCOCCOCCOC(=O)c2ccc(-c3c4nc(c(-c5ccccc5)c5ccc([nH]5)c(-c5ccccc5)c5nc(c(-c6ccccc6)c6ccc3[nH]6)C=C5)C=C4)cc2)s1
REMARK SMILES IDX 16 1 15 2 14 3 13 4 12 5 11 6 9 7 10 8 8 9 7 10 6 11 5 12
REMARK SMILES IDX 1 13 2 14 3 15 74 16 4 17 17 18 18 19 19 20 20 21 21 22
REMARK SMILES IDX 22 23 23 24 24 25 25 26 26 27 27 28 73 29 28 30 72 31 29 32
REMARK SMILES IDX 30 33 31 34 66 35 32 36 71 37 65 38 67 39 33 40 70 41 64 42
REMARK SMILES IDX 63 43 34 45 56 46 41 47 55 48 42 49 45 50 54 51 68 52 43 53
REMARK SMILES IDX 44 54 53 56 69 57 46 58 35 59 36 60 40 61 37 62 39 63 38 64
REMARK SMILES IDX 57 65 58 66 62 67 59 68 61 69 60 70 47 71 48 72 52 73 49 74
REMARK SMILES IDX 51 75 50 76
REMARK H PARENT 67 44 45 55
REMARK Flexibility Score: inf
ROOT
ATOM      1  C   UNL A   1      39.854  21.345  26.385  1.00  0.00     0.188 C 
ENDROOT
BRANCH   1   2
ATOM      2  C   UNL A   1      39.301  22.779  26.369  1.00  0.00     0.188 C 
BRANCH   2   3
ATOM      3  O   UNL A   1      37.919  22.977  26.602  1.00  0.00    -0.376 OA
BRANCH   3   4
ATOM      4  C   UNL A   1      36.977  22.544  25.611  1.00  0.00     0.202 C 
BRANCH   4   5
ATOM      5  C   UNL A   1      35.491  22.837  25.815  1.00  0.00     0.261 C 
BRANCH   5   6
ATOM      6  O   UNL A   1      35.163  24.130  25.269  1.00  0.00    -0.463 OA
BRANCH   6   7
ATOM      7  C   UNL A   1      33.837  24.377  25.136  1.00  0.00     0.306 C 
ATOM      8  O   UNL A   1      33.153  24.944  25.980  1.00  0.00    -0.252 OA
BRANCH   7   9
ATOM      9  C   UNL A   1      33.287  23.999  23.782  1.00  0.00     0.134 C 
BRANCH   9  10
ATOM     10  C   UNL A   1      33.714  22.661  23.192  1.00  0.00     0.089 C 
BRANCH  10  11
ATOM     11  S   UNL A   1      32.295  21.606  22.745  1.00  0.00    -0.093 SA
BRANCH  11  12
ATOM     12  C   UNL A   1      32.524  20.231  23.797  1.00  0.00     0.174 A 
ATOM     13  C   UNL A   1      32.618  16.697  25.280  1.00  0.00     0.081 C 
ATOM     14  C   UNL A   1      32.659  18.121  24.873  1.00  0.00     0.115 A 
ATOM     15  N   UNL A   1      32.796  19.118  25.717  1.00  0.00    -0.143 NA
ATOM     16  S   UNL A   1      32.509  18.610  23.233  1.00  0.00    -0.091 S 
ATOM     17  N   UNL A   1      32.716  20.342  25.090  1.00  0.00    -0.132 NA
ENDBRANCH  11  12
ENDBRANCH  10  11
ENDBRANCH   9  10
ENDBRANCH   7   9
ENDBRANCH   6   7
ENDBRANCH   5   6
ENDBRANCH   4   5
ENDBRANCH   3   4
ENDBRANCH   2   3
ENDBRANCH   1   2
BRANCH   1  18
ATOM     18  O   UNL A   1      41.104  21.010  26.958  1.00  0.00    -0.377 OA
BRANCH  18  19
ATOM     19  C   UNL A   1      42.267  20.943  26.139  1.00  0.00     0.188 C 
BRANCH  19  20
ATOM     20  C   UNL A   1      42.856  19.571  25.793  1.00  0.00     0.188 C 
BRANCH  20  21
ATOM     21  O   UNL A   1      43.637  19.515  24.599  1.00  0.00    -0.376 OA
BRANCH  21  22
ATOM     22  C   UNL A   1      45.036  19.369  24.794  1.00  0.00     0.202 C 
BRANCH  22  23
ATOM     23  C   UNL A   1      45.807  20.654  24.472  1.00  0.00     0.261 C 
BRANCH  23  24
ATOM     24  O   UNL A   1      44.959  21.802  24.309  1.00  0.00    -0.460 OA
BRANCH  24  25
ATOM     25  C   UNL A   1      45.598  22.988  24.478  1.00  0.00     0.338 C 
ATOM     26  O   UNL A   1      46.602  23.382  23.912  1.00  0.00    -0.246 OA
BRANCH  25  27
ATOM     27  C   UNL A   1      44.896  23.803  25.487  1.00  0.00     0.060 A 
ATOM     28  C   UNL A   1      44.761  25.178  25.265  1.00  0.00     0.016 A 
ATOM     29  C   UNL A   1      44.525  23.240  26.710  1.00  0.00     0.016 A 
ATOM     30  C   UNL A   1      44.311  26.005  26.296  1.00  0.00     0.010 A 
ATOM     31  C   UNL A   1      44.085  24.070  27.745  1.00  0.00     0.010 A 
ATOM     32  C   UNL A   1      44.019  25.461  27.556  1.00  0.00    -0.014 A 
BRANCH  32  33
ATOM     33  C   UNL A   1      43.817  26.358  28.720  1.00  0.00     0.031 A 
ATOM     34  C   UNL A   1      42.496  27.055  28.882  1.00  0.00     0.074 A 
ATOM     35  C   UNL A   1      44.787  26.544  29.632  1.00  0.00     0.049 A 
ATOM     36  N   UNL A   1      42.109  27.891  29.812  1.00  0.00    -0.248 NA
ATOM     37  C   UNL A   1      41.479  26.784  27.853  1.00  0.00     0.031 C 
ATOM     38  C   UNL A   1      46.109  25.929  29.585  1.00  0.00     0.029 A 
ATOM     39  N   UNL A   1      44.806  27.297  30.778  1.00  0.00    -0.354 N 
ATOM     40  C   UNL A   1      40.813  28.258  29.472  1.00  0.00     0.074 A 
ATOM     41  C   UNL A   1      40.483  27.565  28.246  1.00  0.00     0.031 C 
ATOM     42  C   UNL A   1      46.800  26.293  30.680  1.00  0.00     0.029 A 
ATOM     43  C   UNL A   1      45.989  27.218  31.471  1.00  0.00     0.049 A 
ATOM     44  H   UNL A   1      44.043  27.844  31.076  1.00  0.00     0.167 HD
ATOM     45  C   UNL A   1      39.975  29.103  30.118  1.00  0.00     0.031 A 
ATOM     46  C   UNL A   1      46.380  27.839  32.601  1.00  0.00     0.031 A 
ATOM     47  C   UNL A   1      40.305  29.811  31.325  1.00  0.00     0.049 A 
ATOM     48  C   UNL A   1      45.445  28.808  33.275  1.00  0.00     0.074 A 
ATOM     49  C   UNL A   1      39.519  30.690  32.052  1.00  0.00     0.029 A 
ATOM     50  N   UNL A   1      41.524  29.730  31.978  1.00  0.00    -0.354 N 
ATOM     51  N   UNL A   1      44.215  29.130  32.953  1.00  0.00    -0.248 NA
ATOM     52  C   UNL A   1      45.959  29.510  34.461  1.00  0.00     0.031 C 
ATOM     53  C   UNL A   1      40.280  31.175  33.120  1.00  0.00     0.029 A 
ATOM     54  C   UNL A   1      41.520  30.558  33.088  1.00  0.00     0.049 A 
ATOM     55  H   UNL A   1      42.281  29.166  31.695  1.00  0.00     0.167 HD
ATOM     56  C   UNL A   1      43.806  30.059  33.902  1.00  0.00     0.074 A 
ATOM     57  C   UNL A   1      44.908  30.230  34.826  1.00  0.00     0.031 C 
ATOM     58  C   UNL A   1      42.623  30.715  33.998  1.00  0.00     0.031 A 
BRANCH  45  59
ATOM     59  C   UNL A   1      38.627  29.338  29.501  1.00  0.00    -0.014 A 
ATOM     60  C   UNL A   1      37.445  29.060  30.205  1.00  0.00     0.009 A 
ATOM     61  C   UNL A   1      38.539  29.870  28.205  1.00  0.00     0.009 A 
ATOM     62  C   UNL A   1      36.201  29.284  29.610  1.00  0.00     0.001 A 
ATOM     63  C   UNL A   1      37.295  30.115  27.623  1.00  0.00     0.001 A 
ATOM     64  C   UNL A   1      36.127  29.815  28.323  1.00  0.00     0.000 A 
ENDBRANCH  45  59
BRANCH  46  65
ATOM     65  C   UNL A   1      47.737  27.597  33.159  1.00  0.00    -0.014 A 
ATOM     66  C   UNL A   1      47.928  26.682  34.206  1.00  0.00     0.009 A 
ATOM     67  C   UNL A   1      48.845  28.308  32.671  1.00  0.00     0.009 A 
ATOM     68  C   UNL A   1      49.194  26.504  34.769  1.00  0.00     0.001 A 
ATOM     69  C   UNL A   1      50.115  28.105  33.215  1.00  0.00     0.001 A 
ATOM     70  C   UNL A   1      50.287  27.211  34.270  1.00  0.00     0.000 A 
ENDBRANCH  46  65
BRANCH  58  71
ATOM     71  C   UNL A   1      42.448  31.654  35.159  1.00  0.00    -0.014 A 
ATOM     72  C   UNL A   1      41.961  31.201  36.394  1.00  0.00     0.009 A 
ATOM     73  C   UNL A   1      42.817  33.001  35.024  1.00  0.00     0.009 A 
ATOM     74  C   UNL A   1      41.822  32.087  37.465  1.00  0.00     0.001 A 
ATOM     75  C   UNL A   1      42.701  33.879  36.104  1.00  0.00     0.001 A 
ATOM     76  C   UNL A   1      42.196  33.423  37.320  1.00  0.00     0.000 A 
ENDBRANCH  58  71
ENDBRANCH  32  33
ENDBRANCH  25  27
ENDBRANCH  24  25
ENDBRANCH  23  24
ENDBRANCH  22  23
ENDBRANCH  21  22
ENDBRANCH  20  21
ENDBRANCH  19  20
ENDBRANCH  18  19
ENDBRANCH   1  18
TORSDOF 23
ENDMDL
