MODEL 1
REMARK VINA RESULT:     -10.1      0.000      0.000
REMARK SMILES CC(=O)N[C@@H](Cc1c(OCC(C)C)ccc2ccccc12)C(=O)OCCOCCOCCOCCOC(=O)c1ccc(-c2c3nc(c(-c4ccccc4)c4ccc([nH]4)c(-c4ccccc4)c4nc(c(-c5ccccc5)c5ccc2[nH]5)C=C4)C=C3)cc1
REMARK SMILES IDX 28 1 27 2 26 3 25 4 24 5 22 6 23 7 5 8 4 9 1 10 2 11 3 12
REMARK SMILES IDX 6 14 7 15 8 16 21 17 14 18 16 19 20 20 15 21 17 22 19 23
REMARK SMILES IDX 18 24 9 25 10 26 11 27 12 28 13 29 29 30 30 31 31 32 32 33
REMARK SMILES IDX 33 34 34 35 35 36 36 37 37 38 38 39 39 40 40 41 86 42 41 43
REMARK SMILES IDX 85 44 42 45 43 46 44 47 79 48 45 49 84 50 78 51 80 52 46 53
REMARK SMILES IDX 83 54 77 55 76 56 47 58 69 59 54 60 68 61 55 62 58 63 67 64
REMARK SMILES IDX 81 65 56 66 57 67 66 69 82 70 59 71 48 72 49 73 53 74 50 75
REMARK SMILES IDX 52 76 51 77 70 78 71 79 75 80 72 81 74 82 73 83 60 84 61 85
REMARK SMILES IDX 65 86 62 87 64 88 63 89
REMARK H PARENT 4 13 80 57 58 68
REMARK Flexibility Score: inf
ROOT
ATOM      1  C   UNL A   1      41.173  21.437  27.425  1.00  0.00     0.188 C 
ENDROOT
BRANCH   1   2
ATOM      2  O   UNL A   1      40.463  22.197  26.456  1.00  0.00    -0.376 OA
BRANCH   2   3
ATOM      3  C   UNL A   1      39.050  22.130  26.396  1.00  0.00     0.202 C 
BRANCH   3   4
ATOM      4  C   UNL A   1      38.241  23.314  25.864  1.00  0.00     0.261 C 
BRANCH   4   5
ATOM      5  O   UNL A   1      36.839  23.096  25.621  1.00  0.00    -0.462 OA
BRANCH   5   6
ATOM      6  C   UNL A   1      36.385  23.391  24.378  1.00  0.00     0.329 C 
ATOM      7  O   UNL A   1      37.015  23.180  23.345  1.00  0.00    -0.250 OA
BRANCH   6   8
ATOM      8  C   UNL A   1      35.066  24.183  24.375  1.00  0.00     0.196 C 
BRANCH   8   9
ATOM      9  N   UNL A   1      34.045  23.882  23.361  1.00  0.00    -0.343 N 
ATOM     10  C   UNL A   1      33.706  26.206  22.575  1.00  0.00     0.114 C 
ATOM     11  C   UNL A   1      33.350  24.741  22.556  1.00  0.00     0.217 C 
ATOM     12  O   UNL A   1      32.484  24.309  21.797  1.00  0.00    -0.275 OA
ATOM     13  H   UNL A   1      33.832  22.928  23.245  1.00  0.00     0.164 HD
ENDBRANCH   8   9
BRANCH   8  14
ATOM     14  C   UNL A   1      34.476  24.127  25.801  1.00  0.00     0.077 C 
BRANCH  14  15
ATOM     15  C   UNL A   1      33.081  24.729  25.996  1.00  0.00     0.005 A 
ATOM     16  C   UNL A   1      31.963  23.861  26.037  1.00  0.00     0.123 A 
ATOM     17  C   UNL A   1      32.875  26.143  26.158  1.00  0.00    -0.011 A 
ATOM     18  C   UNL A   1      30.683  24.400  26.050  1.00  0.00     0.047 A 
ATOM     19  C   UNL A   1      31.572  26.605  26.463  1.00  0.00    -0.018 A 
ATOM     20  C   UNL A   1      33.872  27.143  26.068  1.00  0.00     0.009 A 
ATOM     21  C   UNL A   1      30.488  25.744  26.337  1.00  0.00     0.012 A 
ATOM     22  C   UNL A   1      31.348  27.927  26.879  1.00  0.00     0.009 A 
ATOM     23  C   UNL A   1      33.637  28.470  26.453  1.00  0.00     0.001 A 
ATOM     24  C   UNL A   1      32.385  28.848  26.914  1.00  0.00     0.001 A 
BRANCH  16  25
ATOM     25  O   UNL A   1      32.213  22.518  26.148  1.00  0.00    -0.493 OA
BRANCH  25  26
ATOM     26  C   UNL A   1      31.850  21.633  25.082  1.00  0.00     0.232 C 
BRANCH  26  27
ATOM     27  C   UNL A   1      32.608  20.283  25.020  1.00  0.00     0.020 C 
ATOM     28  C   UNL A   1      32.489  19.489  23.717  1.00  0.00     0.011 C 
ATOM     29  C   UNL A   1      34.095  20.545  25.289  1.00  0.00     0.011 C 
ENDBRANCH  26  27
ENDBRANCH  25  26
ENDBRANCH  16  25
ENDBRANCH  14  15
ENDBRANCH   8  14
ENDBRANCH   6   8
ENDBRANCH   5   6
ENDBRANCH   4   5
ENDBRANCH   3   4
ENDBRANCH   2   3
ENDBRANCH   1   2
BRANCH   1  30
ATOM     30  C   UNL A   1      41.616  19.988  27.131  1.00  0.00     0.188 C 
BRANCH  30  31
ATOM     31  O   UNL A   1      42.140  19.759  25.836  1.00  0.00    -0.377 OA
BRANCH  31  32
ATOM     32  C   UNL A   1      43.050  18.677  25.705  1.00  0.00     0.188 C 
BRANCH  32  33
ATOM     33  C   UNL A   1      44.281  18.911  24.809  1.00  0.00     0.188 C 
BRANCH  33  34
ATOM     34  O   UNL A   1      44.244  20.136  24.091  1.00  0.00    -0.376 OA
BRANCH  34  35
ATOM     35  C   UNL A   1      44.957  21.258  24.588  1.00  0.00     0.202 C 
BRANCH  35  36
ATOM     36  C   UNL A   1      44.627  22.650  24.019  1.00  0.00     0.261 C 
BRANCH  36  37
ATOM     37  O   UNL A   1      43.972  23.571  24.904  1.00  0.00    -0.460 OA
BRANCH  37  38
ATOM     38  C   UNL A   1      44.555  24.764  25.117  1.00  0.00     0.338 C 
ATOM     39  O   UNL A   1      45.553  25.206  24.565  1.00  0.00    -0.246 OA
BRANCH  38  40
ATOM     40  C   UNL A   1      43.668  25.567  25.984  1.00  0.00     0.060 A 
ATOM     41  C   UNL A   1      44.025  26.893  26.256  1.00  0.00     0.016 A 
ATOM     42  C   UNL A   1      42.510  25.018  26.544  1.00  0.00     0.016 A 
ATOM     43  C   UNL A   1      43.268  27.653  27.142  1.00  0.00     0.010 A 
ATOM     44  C   UNL A   1      41.762  25.774  27.452  1.00  0.00     0.010 A 
ATOM     45  C   UNL A   1      42.169  27.076  27.793  1.00  0.00    -0.014 A 
BRANCH  45  46
ATOM     46  C   UNL A   1      41.609  27.771  28.977  1.00  0.00     0.031 A 
ATOM     47  C   UNL A   1      42.326  27.632  30.294  1.00  0.00     0.074 A 
ATOM     48  C   UNL A   1      40.548  28.589  28.867  1.00  0.00     0.049 A 
ATOM     49  N   UNL A   1      42.077  28.210  31.442  1.00  0.00    -0.248 NA
ATOM     50  C   UNL A   1      43.485  26.723  30.319  1.00  0.00     0.031 C 
ATOM     51  C   UNL A   1      39.801  28.847  27.638  1.00  0.00     0.029 A 
ATOM     52  N   UNL A   1      39.929  29.369  29.811  1.00  0.00    -0.354 N 
ATOM     53  C   UNL A   1      43.044  27.734  32.321  1.00  0.00     0.074 A 
ATOM     54  C   UNL A   1      43.858  26.792  31.587  1.00  0.00     0.031 C 
ATOM     55  C   UNL A   1      38.826  29.735  27.901  1.00  0.00     0.029 A 
ATOM     56  C   UNL A   1      38.866  30.085  29.320  1.00  0.00     0.049 A 
ATOM     57  H   UNL A   1      40.218  29.410  30.751  1.00  0.00     0.167 HD
ATOM     58  C   UNL A   1      43.244  28.059  33.620  1.00  0.00     0.031 A 
ATOM     59  C   UNL A   1      38.018  30.922  29.947  1.00  0.00     0.031 A 
ATOM     60  C   UNL A   1      42.422  28.981  34.356  1.00  0.00     0.049 A 
ATOM     61  C   UNL A   1      38.215  31.208  31.414  1.00  0.00     0.074 A 
ATOM     62  C   UNL A   1      42.545  29.384  35.675  1.00  0.00     0.029 A 
ATOM     63  N   UNL A   1      41.316  29.638  33.840  1.00  0.00    -0.354 N 
ATOM     64  N   UNL A   1      39.150  30.775  32.226  1.00  0.00    -0.248 NA
ATOM     65  C   UNL A   1      37.246  32.116  32.044  1.00  0.00     0.031 C 
ATOM     66  C   UNL A   1      41.472  30.231  35.975  1.00  0.00     0.029 A 
ATOM     67  C   UNL A   1      40.727  30.418  34.822  1.00  0.00     0.049 A 
ATOM     68  H   UNL A   1      40.994  29.560  32.912  1.00  0.00     0.167 HD
ATOM     69  C   UNL A   1      38.900  31.380  33.453  1.00  0.00     0.074 A 
ATOM     70  C   UNL A   1      37.741  32.231  33.267  1.00  0.00     0.031 C 
ATOM     71  C   UNL A   1      39.566  31.249  34.627  1.00  0.00     0.031 A 
BRANCH  58  72
ATOM     72  C   UNL A   1      44.376  27.375  34.338  1.00  0.00    -0.014 A 
ATOM     73  C   UNL A   1      45.666  27.932  34.377  1.00  0.00     0.009 A 
ATOM     74  C   UNL A   1      44.143  26.164  35.006  1.00  0.00     0.009 A 
ATOM     75  C   UNL A   1      46.702  27.272  35.041  1.00  0.00     0.001 A 
ATOM     76  C   UNL A   1      45.173  25.522  35.696  1.00  0.00     0.001 A 
ATOM     77  C   UNL A   1      46.453  26.072  35.705  1.00  0.00     0.000 A 
ENDBRANCH  58  72
BRANCH  59  78
ATOM     78  C   UNL A   1      36.894  31.549  29.200  1.00  0.00    -0.014 A 
ATOM     79  C   UNL A   1      37.004  32.851  28.688  1.00  0.00     0.009 A 
ATOM     80  C   UNL A   1      35.688  30.853  29.025  1.00  0.00     0.009 A 
ATOM     81  C   UNL A   1      35.920  33.452  28.044  1.00  0.00     0.001 A 
ATOM     82  C   UNL A   1      34.617  31.443  28.353  1.00  0.00     0.001 A 
ATOM     83  C   UNL A   1      34.730  32.747  27.873  1.00  0.00     0.000 A 
ENDBRANCH  59  78
BRANCH  71  84
ATOM     84  C   UNL A   1      39.078  32.075  35.788  1.00  0.00    -0.014 A 
ATOM     85  C   UNL A   1      38.148  31.570  36.711  1.00  0.00     0.009 A 
ATOM     86  C   UNL A   1      39.562  33.382  35.960  1.00  0.00     0.009 A 
ATOM     87  C   UNL A   1      37.669  32.378  37.745  1.00  0.00     0.001 A 
ATOM     88  C   UNL A   1      39.111  34.173  37.017  1.00  0.00     0.001 A 
ATOM     89  C   UNL A   1      38.153  33.677  37.899  1.00  0.00     0.000 A 
ENDBRANCH  71  84
ENDBRANCH  45  46
ENDBRANCH  38  40
ENDBRANCH  37  38
ENDBRANCH  36  37
ENDBRANCH  35  36
ENDBRANCH  34  35
ENDBRANCH  33  34
ENDBRANCH  32  33
ENDBRANCH  31  32
ENDBRANCH  30  31
ENDBRANCH   1  30
TORSDOF 26
ENDMDL
MODEL 2
REMARK VINA RESULT:      -8.6      2.772      8.805
REMARK SMILES CC(=O)N[C@@H](Cc1c(OCC(C)C)ccc2ccccc12)C(=O)OCCOCCOCCOCCOC(=O)c1ccc(-c2c3nc(c(-c4ccccc4)c4ccc([nH]4)c(-c4ccccc4)c4nc(c(-c5ccccc5)c5ccc2[nH]5)C=C4)C=C3)cc1
REMARK SMILES IDX 28 1 27 2 26 3 25 4 24 5 22 6 23 7 5 8 4 9 1 10 2 11 3 12
REMARK SMILES IDX 6 14 7 15 8 16 21 17 14 18 16 19 20 20 15 21 17 22 19 23
REMARK SMILES IDX 18 24 9 25 10 26 11 27 12 28 13 29 29 30 30 31 31 32 32 33
REMARK SMILES IDX 33 34 34 35 35 36 36 37 37 38 38 39 39 40 40 41 86 42 41 43
REMARK SMILES IDX 85 44 42 45 43 46 44 47 79 48 45 49 84 50 78 51 80 52 46 53
REMARK SMILES IDX 83 54 77 55 76 56 47 58 69 59 54 60 68 61 55 62 58 63 67 64
REMARK SMILES IDX 81 65 56 66 57 67 66 69 82 70 59 71 48 72 49 73 53 74 50 75
REMARK SMILES IDX 52 76 51 77 70 78 71 79 75 80 72 81 74 82 73 83 60 84 61 85
REMARK SMILES IDX 65 86 62 87 64 88 63 89
REMARK H PARENT 4 13 80 57 58 68
REMARK Flexibility Score: inf
ROOT
ATOM      1  C   UNL A   1      29.932  26.151  25.667  1.00  0.00     0.188 C 
ENDROOT
BRANCH   1   2
ATOM      2  O   UNL A   1      29.895  25.304  26.808  1.00  0.00    -0.376 OA
BRANCH   2   3
ATOM      3  C   UNL A   1      29.642  23.919  26.658  1.00  0.00     0.202 C 
BRANCH   3   4
ATOM      4  C   UNL A   1      30.801  22.932  26.505  1.00  0.00     0.261 C 
BRANCH   4   5
ATOM      5  O   UNL A   1      32.125  23.425  26.784  1.00  0.00    -0.462 OA
BRANCH   5   6
ATOM      6  C   UNL A   1      32.996  22.547  27.336  1.00  0.00     0.329 C 
ATOM      7  O   UNL A   1      33.307  22.537  28.524  1.00  0.00    -0.250 OA
BRANCH   6   8
ATOM      8  C   UNL A   1      33.712  21.656  26.306  1.00  0.00     0.196 C 
BRANCH   8   9
ATOM      9  N   UNL A   1      35.163  21.454  26.409  1.00  0.00    -0.343 N 
ATOM     10  C   UNL A   1      35.834  23.322  24.929  1.00  0.00     0.114 C 
ATOM     11  C   UNL A   1      36.175  22.124  25.779  1.00  0.00     0.217 C 
ATOM     12  O   UNL A   1      37.342  21.776  25.947  1.00  0.00    -0.275 OA
ATOM     13  H   UNL A   1      35.449  20.735  27.019  1.00  0.00     0.164 HD
ENDBRANCH   8   9
BRANCH   8  14
ATOM     14  C   UNL A   1      32.959  20.308  26.243  1.00  0.00     0.077 C 
BRANCH  14  15
ATOM     15  C   UNL A   1      32.866  19.632  24.871  1.00  0.00     0.005 A 
ATOM     16  C   UNL A   1      32.401  20.388  23.768  1.00  0.00     0.123 A 
ATOM     17  C   UNL A   1      33.255  18.263  24.666  1.00  0.00    -0.011 A 
ATOM     18  C   UNL A   1      32.158  19.750  22.559  1.00  0.00     0.047 A 
ATOM     19  C   UNL A   1      33.261  17.753  23.346  1.00  0.00    -0.018 A 
ATOM     20  C   UNL A   1      33.667  17.358  25.672  1.00  0.00     0.009 A 
ATOM     21  C   UNL A   1      32.651  18.474  22.325  1.00  0.00     0.012 A 
ATOM     22  C   UNL A   1      33.862  16.521  23.044  1.00  0.00     0.009 A 
ATOM     23  C   UNL A   1      34.237  16.113  25.370  1.00  0.00     0.001 A 
ATOM     24  C   UNL A   1      34.386  15.720  24.049  1.00  0.00     0.001 A 
BRANCH  16  25
ATOM     25  O   UNL A   1      32.295  21.744  23.935  1.00  0.00    -0.493 OA
BRANCH  25  26
ATOM     26  C   UNL A   1      32.643  22.625  22.861  1.00  0.00     0.232 C 
BRANCH  26  27
ATOM     27  C   UNL A   1      32.269  24.118  23.046  1.00  0.00     0.020 C 
ATOM     28  C   UNL A   1      32.911  25.111  22.075  1.00  0.00     0.011 C 
ATOM     29  C   UNL A   1      30.745  24.256  22.935  1.00  0.00     0.011 C 
ENDBRANCH  26  27
ENDBRANCH  25  26
ENDBRANCH  16  25
ENDBRANCH  14  15
ENDBRANCH   8  14
ENDBRANCH   6   8
ENDBRANCH   5   6
ENDBRANCH   4   5
ENDBRANCH   3   4
ENDBRANCH   2   3
ENDBRANCH   1   2
BRANCH   1  30
ATOM     30  C   UNL A   1      31.186  26.986  25.336  1.00  0.00     0.188 C 
BRANCH  30  31
ATOM     31  O   UNL A   1      31.214  27.560  24.042  1.00  0.00    -0.377 OA
BRANCH  31  32
ATOM     32  C   UNL A   1      31.865  28.817  23.924  1.00  0.00     0.188 C 
BRANCH  32  33
ATOM     33  C   UNL A   1      32.708  29.278  25.127  1.00  0.00     0.188 C 
BRANCH  33  34
ATOM     34  O   UNL A   1      32.161  30.393  25.817  1.00  0.00    -0.376 OA
BRANCH  34  35
ATOM     35  C   UNL A   1      32.889  30.977  26.886  1.00  0.00     0.202 C 
BRANCH  35  36
ATOM     36  C   UNL A   1      32.399  32.317  27.465  1.00  0.00     0.261 C 
BRANCH  36  37
ATOM     37  O   UNL A   1      33.326  33.413  27.431  1.00  0.00    -0.460 OA
BRANCH  37  38
ATOM     38  C   UNL A   1      33.420  34.194  28.522  1.00  0.00     0.338 C 
ATOM     39  O   UNL A   1      32.607  35.021  28.908  1.00  0.00    -0.246 OA
BRANCH  38  40
ATOM     40  C   UNL A   1      34.579  33.742  29.318  1.00  0.00     0.060 A 
ATOM     41  C   UNL A   1      35.851  34.215  28.970  1.00  0.00     0.016 A 
ATOM     42  C   UNL A   1      34.426  32.846  30.380  1.00  0.00     0.016 A 
ATOM     43  C   UNL A   1      36.978  33.741  29.634  1.00  0.00     0.010 A 
ATOM     44  C   UNL A   1      35.561  32.352  31.032  1.00  0.00     0.010 A 
ATOM     45  C   UNL A   1      36.843  32.760  30.625  1.00  0.00    -0.014 A 
BRANCH  45  46
ATOM     46  C   UNL A   1      38.056  32.023  31.054  1.00  0.00     0.031 A 
ATOM     47  C   UNL A   1      38.610  32.295  32.428  1.00  0.00     0.074 A 
ATOM     48  C   UNL A   1      38.596  31.062  30.285  1.00  0.00     0.049 A 
ATOM     49  N   UNL A   1      39.604  31.717  33.053  1.00  0.00    -0.248 NA
ATOM     50  C   UNL A   1      37.950  33.358  33.204  1.00  0.00     0.031 C 
ATOM     51  C   UNL A   1      38.119  30.670  28.959  1.00  0.00     0.029 A 
ATOM     52  N   UNL A   1      39.658  30.227  30.525  1.00  0.00    -0.354 N 
ATOM     53  C   UNL A   1      39.687  32.345  34.290  1.00  0.00     0.074 A 
ATOM     54  C   UNL A   1      38.672  33.374  34.313  1.00  0.00     0.031 C 
ATOM     55  C   UNL A   1      38.883  29.661  28.505  1.00  0.00     0.029 A 
ATOM     56  C   UNL A   1      39.915  29.357  29.495  1.00  0.00     0.049 A 
ATOM     57  H   UNL A   1      40.186  30.250  31.355  1.00  0.00     0.167 HD
ATOM     58  C   UNL A   1      40.527  32.085  35.321  1.00  0.00     0.031 A 
ATOM     59  C   UNL A   1      40.878  28.425  29.365  1.00  0.00     0.031 A 
ATOM     60  C   UNL A   1      41.551  31.075  35.291  1.00  0.00     0.049 A 
ATOM     61  C   UNL A   1      41.850  28.206  30.496  1.00  0.00     0.074 A 
ATOM     62  C   UNL A   1      42.449  30.728  36.285  1.00  0.00     0.029 A 
ATOM     63  N   UNL A   1      41.820  30.257  34.205  1.00  0.00    -0.354 N 
ATOM     64  N   UNL A   1      41.900  28.787  31.671  1.00  0.00    -0.248 NA
ATOM     65  C   UNL A   1      42.888  27.187  30.285  1.00  0.00     0.031 C 
ATOM     66  C   UNL A   1      43.306  29.746  35.775  1.00  0.00     0.029 A 
ATOM     67  C   UNL A   1      42.892  29.427  34.492  1.00  0.00     0.049 A 
ATOM     68  H   UNL A   1      41.325  30.265  33.354  1.00  0.00     0.167 HD
ATOM     69  C   UNL A   1      42.953  28.184  32.350  1.00  0.00     0.074 A 
ATOM     70  C   UNL A   1      43.495  27.174  31.462  1.00  0.00     0.031 C 
ATOM     71  C   UNL A   1      43.430  28.437  33.594  1.00  0.00     0.031 A 
BRANCH  58  72
ATOM     72  C   UNL A   1      40.396  32.939  36.553  1.00  0.00    -0.014 A 
ATOM     73  C   UNL A   1      39.407  32.688  37.520  1.00  0.00     0.009 A 
ATOM     74  C   UNL A   1      41.292  33.998  36.761  1.00  0.00     0.009 A 
ATOM     75  C   UNL A   1      39.300  33.503  38.650  1.00  0.00     0.001 A 
ATOM     76  C   UNL A   1      41.203  34.790  37.907  1.00  0.00     0.001 A 
ATOM     77  C   UNL A   1      40.201  34.548  38.845  1.00  0.00     0.000 A 
ENDBRANCH  58  72
BRANCH  59  78
ATOM     78  C   UNL A   1      40.986  27.628  28.113  1.00  0.00    -0.014 A 
ATOM     79  C   UNL A   1      41.716  28.105  27.013  1.00  0.00     0.009 A 
ATOM     80  C   UNL A   1      40.325  26.394  28.002  1.00  0.00     0.009 A 
ATOM     81  C   UNL A   1      41.756  27.378  25.821  1.00  0.00     0.001 A 
ATOM     82  C   UNL A   1      40.394  25.653  26.821  1.00  0.00     0.001 A 
ATOM     83  C   UNL A   1      41.100  26.151  25.728  1.00  0.00     0.000 A 
ENDBRANCH  59  78
BRANCH  71  84
ATOM     84  C   UNL A   1      44.570  27.580  34.078  1.00  0.00    -0.014 A 
ATOM     85  C   UNL A   1      45.908  27.967  33.901  1.00  0.00     0.009 A 
ATOM     86  C   UNL A   1      44.297  26.365  34.727  1.00  0.00     0.009 A 
ATOM     87  C   UNL A   1      46.947  27.126  34.308  1.00  0.00     0.001 A 
ATOM     88  C   UNL A   1      45.337  25.545  35.168  1.00  0.00     0.001 A 
ATOM     89  C   UNL A   1      46.660  25.918  34.944  1.00  0.00     0.000 A 
ENDBRANCH  71  84
ENDBRANCH  45  46
ENDBRANCH  38  40
ENDBRANCH  37  38
ENDBRANCH  36  37
ENDBRANCH  35  36
ENDBRANCH  34  35
ENDBRANCH  33  34
ENDBRANCH  32  33
ENDBRANCH  31  32
ENDBRANCH  30  31
ENDBRANCH   1  30
TORSDOF 26
ENDMDL
MODEL 3
REMARK VINA RESULT:      -8.5      1.570      2.299
REMARK SMILES CC(=O)N[C@@H](Cc1c(OCC(C)C)ccc2ccccc12)C(=O)OCCOCCOCCOCCOC(=O)c1ccc(-c2c3nc(c(-c4ccccc4)c4ccc([nH]4)c(-c4ccccc4)c4nc(c(-c5ccccc5)c5ccc2[nH]5)C=C4)C=C3)cc1
REMARK SMILES IDX 28 1 27 2 26 3 25 4 24 5 22 6 23 7 5 8 4 9 1 10 2 11 3 12
REMARK SMILES IDX 6 14 7 15 8 16 21 17 14 18 16 19 20 20 15 21 17 22 19 23
REMARK SMILES IDX 18 24 9 25 10 26 11 27 12 28 13 29 29 30 30 31 31 32 32 33
REMARK SMILES IDX 33 34 34 35 35 36 36 37 37 38 38 39 39 40 40 41 86 42 41 43
REMARK SMILES IDX 85 44 42 45 43 46 44 47 79 48 45 49 84 50 78 51 80 52 46 53
REMARK SMILES IDX 83 54 77 55 76 56 47 58 69 59 54 60 68 61 55 62 58 63 67 64
REMARK SMILES IDX 81 65 56 66 57 67 66 69 82 70 59 71 48 72 49 73 53 74 50 75
REMARK SMILES IDX 52 76 51 77 70 78 71 79 75 80 72 81 74 82 73 83 60 84 61 85
REMARK SMILES IDX 65 86 62 87 64 88 63 89
REMARK H PARENT 4 13 80 57 58 68
REMARK Flexibility Score: inf
ROOT
ATOM      1  C   UNL A   1      40.114  23.047  27.427  1.00  0.00     0.188 C 
ENDROOT
BRANCH   1   2
ATOM      2  O   UNL A   1      39.320  23.243  26.264  1.00  0.00    -0.376 OA
BRANCH   2   3
ATOM      3  C   UNL A   1      38.017  22.692  26.191  1.00  0.00     0.202 C 
BRANCH   3   4
ATOM      4  C   UNL A   1      37.558  21.955  24.933  1.00  0.00     0.261 C 
BRANCH   4   5
ATOM      5  O   UNL A   1      36.194  22.151  24.516  1.00  0.00    -0.462 OA
BRANCH   5   6
ATOM      6  C   UNL A   1      35.984  23.055  23.529  1.00  0.00     0.329 C 
ATOM      7  O   UNL A   1      36.444  22.957  22.394  1.00  0.00    -0.250 OA
BRANCH   6   8
ATOM      8  C   UNL A   1      35.253  24.324  23.998  1.00  0.00     0.196 C 
BRANCH   8   9
ATOM      9  N   UNL A   1      34.227  24.928  23.136  1.00  0.00    -0.343 N 
ATOM     10  C   UNL A   1      33.277  22.812  22.270  1.00  0.00     0.114 C 
ATOM     11  C   UNL A   1      33.343  24.318  22.291  1.00  0.00     0.217 C 
ATOM     12  O   UNL A   1      32.585  24.995  21.598  1.00  0.00    -0.275 OA
ATOM     13  H   UNL A   1      34.168  25.910  23.173  1.00  0.00     0.164 HD
ENDBRANCH   8   9
BRANCH   8  14
ATOM     14  C   UNL A   1      34.708  24.058  25.419  1.00  0.00     0.077 C 
BRANCH  14  15
ATOM     15  C   UNL A   1      33.236  24.402  25.670  1.00  0.00     0.005 A 
ATOM     16  C   UNL A   1      32.270  23.372  25.580  1.00  0.00     0.123 A 
ATOM     17  C   UNL A   1      32.810  25.732  26.012  1.00  0.00    -0.011 A 
ATOM     18  C   UNL A   1      30.920  23.695  25.645  1.00  0.00     0.047 A 
ATOM     19  C   UNL A   1      31.453  25.940  26.355  1.00  0.00    -0.018 A 
ATOM     20  C   UNL A   1      33.636  26.880  26.068  1.00  0.00     0.009 A 
ATOM     21  C   UNL A   1      30.518  24.942  26.102  1.00  0.00     0.012 A 
ATOM     22  C   UNL A   1      31.025  27.144  26.936  1.00  0.00     0.009 A 
ATOM     23  C   UNL A   1      33.196  28.091  26.619  1.00  0.00     0.001 A 
ATOM     24  C   UNL A   1      31.904  28.203  27.106  1.00  0.00     0.001 A 
BRANCH  16  25
ATOM     25  O   UNL A   1      32.729  22.082  25.519  1.00  0.00    -0.493 OA
BRANCH  25  26
ATOM     26  C   UNL A   1      31.890  21.048  24.993  1.00  0.00     0.232 C 
BRANCH  26  27
ATOM     27  C   UNL A   1      32.525  19.640  24.871  1.00  0.00     0.020 C 
ATOM     28  C   UNL A   1      32.229  18.862  23.587  1.00  0.00     0.011 C 
ATOM     29  C   UNL A   1      34.046  19.778  25.009  1.00  0.00     0.011 C 
ENDBRANCH  26  27
ENDBRANCH  25  26
ENDBRANCH  16  25
ENDBRANCH  14  15
ENDBRANCH   8  14
ENDBRANCH   6   8
ENDBRANCH   5   6
ENDBRANCH   4   5
ENDBRANCH   3   4
ENDBRANCH   2   3
ENDBRANCH   1   2
BRANCH   1  30
ATOM     30  C   UNL A   1      40.757  21.678  27.731  1.00  0.00     0.188 C 
BRANCH  30  31
ATOM     31  O   UNL A   1      41.095  20.896  26.600  1.00  0.00    -0.377 OA
BRANCH  31  32
ATOM     32  C   UNL A   1      42.161  19.973  26.767  1.00  0.00     0.188 C 
BRANCH  32  33
ATOM     33  C   UNL A   1      42.247  18.822  25.747  1.00  0.00     0.188 C 
BRANCH  33  34
ATOM     34  O   UNL A   1      43.228  19.020  24.740  1.00  0.00    -0.376 OA
BRANCH  34  35
ATOM     35  C   UNL A   1      44.599  19.075  25.102  1.00  0.00     0.202 C 
BRANCH  35  36
ATOM     36  C   UNL A   1      45.422  20.309  24.686  1.00  0.00     0.261 C 
BRANCH  36  37
ATOM     37  O   UNL A   1      45.348  21.455  25.548  1.00  0.00    -0.460 OA
BRANCH  37  38
ATOM     38  C   UNL A   1      44.507  22.447  25.207  1.00  0.00     0.338 C 
ATOM     39  O   UNL A   1      43.773  22.488  24.230  1.00  0.00    -0.246 OA
BRANCH  38  40
ATOM     40  C   UNL A   1      44.445  23.408  26.327  1.00  0.00     0.060 A 
ATOM     41  C   UNL A   1      43.994  22.952  27.572  1.00  0.00     0.016 A 
ATOM     42  C   UNL A   1      44.800  24.749  26.153  1.00  0.00     0.016 A 
ATOM     43  C   UNL A   1      43.831  23.845  28.626  1.00  0.00     0.010 A 
ATOM     44  C   UNL A   1      44.615  25.651  27.206  1.00  0.00     0.010 A 
ATOM     45  C   UNL A   1      44.081  25.210  28.429  1.00  0.00    -0.014 A 
BRANCH  45  46
ATOM     46  C   UNL A   1      43.564  26.171  29.433  1.00  0.00     0.031 A 
ATOM     47  C   UNL A   1      44.442  26.520  30.607  1.00  0.00     0.074 A 
ATOM     48  C   UNL A   1      42.388  26.797  29.259  1.00  0.00     0.049 A 
ATOM     49  N   UNL A   1      44.244  27.392  31.563  1.00  0.00    -0.248 NA
ATOM     50  C   UNL A   1      45.718  25.793  30.712  1.00  0.00     0.031 C 
ATOM     51  C   UNL A   1      41.473  26.583  28.138  1.00  0.00     0.029 A 
ATOM     52  N   UNL A   1      41.773  27.757  30.021  1.00  0.00    -0.354 N 
ATOM     53  C   UNL A   1      45.367  27.316  32.380  1.00  0.00     0.074 A 
ATOM     54  C   UNL A   1      46.222  26.287  31.832  1.00  0.00     0.031 C 
ATOM     55  C   UNL A   1      40.414  27.399  28.282  1.00  0.00     0.029 A 
ATOM     56  C   UNL A   1      40.565  28.169  29.516  1.00  0.00     0.049 A 
ATOM     57  H   UNL A   1      42.160  28.116  30.852  1.00  0.00     0.167 HD
ATOM     58  C   UNL A   1      45.665  28.043  33.482  1.00  0.00     0.031 A 
ATOM     59  C   UNL A   1      39.681  29.063  29.998  1.00  0.00     0.031 A 
ATOM     60  C   UNL A   1      44.806  29.053  34.039  1.00  0.00     0.049 A 
ATOM     61  C   UNL A   1      40.002  29.804  31.270  1.00  0.00     0.074 A 
ATOM     62  C   UNL A   1      45.020  29.852  35.150  1.00  0.00     0.029 A 
ATOM     63  N   UNL A   1      43.562  29.397  33.533  1.00  0.00    -0.354 N 
ATOM     64  N   UNL A   1      41.078  29.744  32.017  1.00  0.00    -0.248 NA
ATOM     65  C   UNL A   1      38.988  30.752  31.753  1.00  0.00     0.031 C 
ATOM     66  C   UNL A   1      43.874  30.630  35.355  1.00  0.00     0.029 A 
ATOM     67  C   UNL A   1      42.981  30.373  34.327  1.00  0.00     0.049 A 
ATOM     68  H   UNL A   1      43.150  29.004  32.730  1.00  0.00     0.167 HD
ATOM     69  C   UNL A   1      40.884  30.666  33.040  1.00  0.00     0.074 A 
ATOM     70  C   UNL A   1      39.598  31.290  32.799  1.00  0.00     0.031 C 
ATOM     71  C   UNL A   1      41.695  30.974  34.084  1.00  0.00     0.031 A 
BRANCH  58  72
ATOM     72  C   UNL A   1      46.962  27.739  34.182  1.00  0.00    -0.014 A 
ATOM     73  C   UNL A   1      48.154  28.402  33.844  1.00  0.00     0.009 A 
ATOM     74  C   UNL A   1      46.988  26.787  35.213  1.00  0.00     0.009 A 
ATOM     75  C   UNL A   1      49.347  28.093  34.502  1.00  0.00     0.001 A 
ATOM     76  C   UNL A   1      48.175  26.503  35.890  1.00  0.00     0.001 A 
ATOM     77  C   UNL A   1      49.355  27.150  35.527  1.00  0.00     0.000 A 
ENDBRANCH  58  72
BRANCH  59  78
ATOM     78  C   UNL A   1      38.397  29.305  29.286  1.00  0.00    -0.014 A 
ATOM     79  C   UNL A   1      38.381  29.799  27.972  1.00  0.00     0.009 A 
ATOM     80  C   UNL A   1      37.174  29.072  29.935  1.00  0.00     0.009 A 
ATOM     81  C   UNL A   1      37.170  30.084  27.337  1.00  0.00     0.001 A 
ATOM     82  C   UNL A   1      35.965  29.326  29.287  1.00  0.00     0.001 A 
ATOM     83  C   UNL A   1      35.963  29.842  27.993  1.00  0.00     0.000 A 
ENDBRANCH  59  78
BRANCH  71  84
ATOM     84  C   UNL A   1      41.226  32.059  35.018  1.00  0.00    -0.014 A 
ATOM     85  C   UNL A   1      41.515  33.412  34.778  1.00  0.00     0.009 A 
ATOM     86  C   UNL A   1      40.479  31.718  36.156  1.00  0.00     0.009 A 
ATOM     87  C   UNL A   1      41.118  34.392  35.691  1.00  0.00     0.001 A 
ATOM     88  C   UNL A   1      40.050  32.703  37.046  1.00  0.00     0.001 A 
ATOM     89  C   UNL A   1      40.384  34.037  36.822  1.00  0.00     0.000 A 
ENDBRANCH  71  84
ENDBRANCH  45  46
ENDBRANCH  38  40
ENDBRANCH  37  38
ENDBRANCH  36  37
ENDBRANCH  35  36
ENDBRANCH  34  35
ENDBRANCH  33  34
ENDBRANCH  32  33
ENDBRANCH  31  32
ENDBRANCH  30  31
ENDBRANCH   1  30
TORSDOF 26
ENDMDL
