MODEL 1
REMARK VINA RESULT:      -8.0      0.000      0.000
REMARK SMILES O=C(CNC(=O)[C@H](CC1=c2ccccc2=NC1)N1C(=O)N=C2C=CC=C[C@H]2C1=O)OCCOCCOCCOCCOC(=O)c1ccc(-c2c3nc(c(-c4ccccc4)c4ccc([nH]4)c(-c4ccccc4)c4nc(c(-c5ccccc5)c5ccc2[nH]5)C=C4)C=C3)cc1
REMARK SMILES IDX 35 1 34 2 33 3 32 4 31 5 30 6 2 7 1 8 3 9 4 10 5 11 6 13
REMARK SMILES IDX 7 14 8 15 9 16 10 17 17 18 11 19 15 20 16 21 12 22 14 23
REMARK SMILES IDX 13 24 18 25 19 26 28 27 21 28 20 29 27 30 29 31 22 32 26 33
REMARK SMILES IDX 23 34 25 35 24 36 36 37 37 38 38 39 39 40 40 41 41 42 42 43
REMARK SMILES IDX 43 44 44 45 45 46 46 47 92 48 47 49 91 50 48 51 49 52 50 53
REMARK SMILES IDX 85 54 51 55 90 56 84 57 86 58 52 59 89 60 83 61 82 62 53 64
REMARK SMILES IDX 75 65 60 66 74 67 61 68 64 69 73 70 87 71 62 72 63 73 72 75
REMARK SMILES IDX 88 76 65 77 54 78 55 79 59 80 56 81 58 82 57 83 76 84 77 85
REMARK SMILES IDX 81 86 78 87 80 88 79 89 66 90 67 91 71 92 68 93 70 94 69 95
REMARK H PARENT 4 12 86 63 64 74
REMARK Flexibility Score: inf
ROOT
ATOM      1  C   UNL A   1      34.992  35.313  33.602  1.00  0.00     0.188 C 
ENDROOT
BRANCH   1   2
ATOM      2  C   UNL A   1      36.918  34.182  33.901  1.00  0.00     0.188 C 
BRANCH   2   3
ATOM      3  O   UNL A   1      38.281  34.833  34.338  1.00  0.00    -0.376 OA
BRANCH   3   4
ATOM      4  C   UNL A   1      39.601  34.356  34.180  1.00  0.00     0.202 C 
BRANCH   4   5
ATOM      5  C   UNL A   1      39.636  32.863  33.968  1.00  0.00     0.261 C 
BRANCH   5   6
ATOM      6  O   UNL A   1      40.067  32.035  35.068  1.00  0.00    -0.462 OA
BRANCH   6   7
ATOM      7  C   UNL A   1      39.998  30.690  35.173  1.00  0.00     0.325 C 
ATOM      8  O   UNL A   1      39.571  30.203  36.226  1.00  0.00    -0.250 OA
BRANCH   7   9
ATOM      9  C   UNL A   1      40.311  29.745  33.963  1.00  0.00     0.238 C 
BRANCH   9  10
ATOM     10  N   UNL A   1      40.397  28.275  34.003  1.00  0.00    -0.343 N 
ATOM     11  C   UNL A   1      41.370  27.391  34.398  1.00  0.00     0.244 C 
ATOM     12  H   UNL A   1      39.581  27.831  33.677  1.00  0.00     0.164 HD
ATOM     13  O   UNL A   1      40.883  26.381  34.942  1.00  0.00    -0.273 OA
BRANCH  11  14
ATOM     14  C   UNL A   1      42.945  27.350  34.036  1.00  0.00     0.188 C 
BRANCH  14  15
ATOM     15  C   UNL A   1      43.710  25.967  33.970  1.00  0.00     0.069 C 
BRANCH  15  16
ATOM     16  C   UNL A   1      44.809  25.657  32.965  1.00  0.00    -0.037 C 
ATOM     17  C   UNL A   1      46.306  25.672  33.375  1.00  0.00     0.001 A 
ATOM     18  C   UNL A   1      44.644  25.660  30.898  1.00  0.00     0.174 C 
ATOM     19  C   UNL A   1      47.034  25.909  34.561  1.00  0.00     0.010 A 
ATOM     20  C   UNL A   1      47.433  25.571  31.807  1.00  0.00     0.065 A 
ATOM     21  N   UNL A   1      46.633  25.604  30.437  1.00  0.00    -0.280 NA
ATOM     22  C   UNL A   1      48.367  25.849  34.603  1.00  0.00     0.001 A 
ATOM     23  C   UNL A   1      48.867  25.495  32.163  1.00  0.00     0.028 A 
ATOM     24  C   UNL A   1      49.226  25.580  33.461  1.00  0.00     0.002 A 
ENDBRANCH  15  16
ENDBRANCH  14  15
BRANCH  14  25
ATOM     25  N   UNL A   1      43.947  28.554  33.789  1.00  0.00    -0.249 N 
ATOM     26  C   UNL A   1      44.485  29.113  34.967  1.00  0.00     0.351 C 
ATOM     27  C   UNL A   1      44.371  29.072  32.549  1.00  0.00     0.244 C 
ATOM     28  N   UNL A   1      45.416  30.108  34.884  1.00  0.00    -0.197 NA
ATOM     29  O   UNL A   1      44.261  28.653  36.083  1.00  0.00    -0.246 OA
ATOM     30  C   UNL A   1      45.728  29.877  32.530  1.00  0.00     0.151 C 
ATOM     31  O   UNL A   1      43.676  29.064  31.529  1.00  0.00    -0.273 OA
ATOM     32  C   UNL A   1      46.256  29.889  33.936  1.00  0.00     0.062 C 
ATOM     33  C   UNL A   1      46.871  29.672  31.538  1.00  0.00    -0.007 C 
ATOM     34  C   UNL A   1      47.627  29.473  34.279  1.00  0.00     0.025 C 
ATOM     35  C   UNL A   1      48.151  29.487  31.916  1.00  0.00    -0.003 C 
ATOM     36  C   UNL A   1      48.502  29.269  33.295  1.00  0.00     0.002 C 
ENDBRANCH  14  25
ENDBRANCH  11  14
ENDBRANCH   9  10
ENDBRANCH   7   9
ENDBRANCH   6   7
ENDBRANCH   5   6
ENDBRANCH   4   5
ENDBRANCH   3   4
ENDBRANCH   2   3
ENDBRANCH   1   2
BRANCH   1  37
ATOM     37  O   UNL A   1      34.719  36.644  32.811  1.00  0.00    -0.377 OA
BRANCH  37  38
ATOM     38  C   UNL A   1      33.437  37.189  32.525  1.00  0.00     0.188 C 
BRANCH  38  39
ATOM     39  C   UNL A   1      32.555  36.330  31.622  1.00  0.00     0.188 C 
BRANCH  39  40
ATOM     40  O   UNL A   1      32.950  36.409  30.272  1.00  0.00    -0.376 OA
BRANCH  40  41
ATOM     41  C   UNL A   1      33.270  35.196  29.597  1.00  0.00     0.202 C 
BRANCH  41  42
ATOM     42  C   UNL A   1      34.606  34.403  29.654  1.00  0.00     0.261 C 
BRANCH  42  43
ATOM     43  O   UNL A   1      34.626  32.976  29.770  1.00  0.00    -0.460 OA
BRANCH  43  44
ATOM     44  C   UNL A   1      35.083  32.393  30.902  1.00  0.00     0.338 C 
ATOM     45  O   UNL A   1      34.509  32.324  31.973  1.00  0.00    -0.246 OA
BRANCH  44  46
ATOM     46  C   UNL A   1      36.324  31.656  30.541  1.00  0.00     0.060 A 
ATOM     47  C   UNL A   1      36.638  31.452  29.198  1.00  0.00     0.016 A 
ATOM     48  C   UNL A   1      37.126  31.081  31.542  1.00  0.00     0.016 A 
ATOM     49  C   UNL A   1      37.758  30.689  28.857  1.00  0.00     0.010 A 
ATOM     50  C   UNL A   1      38.214  30.265  31.198  1.00  0.00     0.010 A 
ATOM     51  C   UNL A   1      38.560  30.096  29.851  1.00  0.00    -0.014 A 
BRANCH  51  52
ATOM     52  C   UNL A   1      39.888  29.545  29.477  1.00  0.00     0.031 A 
ATOM     53  C   UNL A   1      40.109  28.120  29.073  1.00  0.00     0.074 A 
ATOM     54  C   UNL A   1      40.922  30.410  29.493  1.00  0.00     0.049 A 
ATOM     55  N   UNL A   1      41.206  27.562  28.626  1.00  0.00    -0.248 NA
ATOM     56  C   UNL A   1      38.968  27.199  29.183  1.00  0.00     0.031 C 
ATOM     57  C   UNL A   1      40.814  31.817  29.882  1.00  0.00     0.029 A 
ATOM     58  N   UNL A   1      42.243  30.255  29.157  1.00  0.00    -0.354 N 
ATOM     59  C   UNL A   1      40.891  26.233  28.379  1.00  0.00     0.074 A 
ATOM     60  C   UNL A   1      39.508  26.055  28.773  1.00  0.00     0.031 C 
ATOM     61  C   UNL A   1      42.004  32.407  29.720  1.00  0.00     0.029 A 
ATOM     62  C   UNL A   1      42.973  31.414  29.266  1.00  0.00     0.049 A 
ATOM     63  H   UNL A   1      42.630  29.398  28.865  1.00  0.00     0.167 HD
ATOM     64  C   UNL A   1      41.687  25.266  27.857  1.00  0.00     0.031 A 
ATOM     65  C   UNL A   1      44.275  31.664  29.031  1.00  0.00     0.031 A 
ATOM     66  C   UNL A   1      43.068  25.465  27.485  1.00  0.00     0.049 A 
ATOM     67  C   UNL A   1      45.144  30.558  28.504  1.00  0.00     0.074 A 
ATOM     68  C   UNL A   1      43.936  24.553  26.906  1.00  0.00     0.029 A 
ATOM     69  N   UNL A   1      43.787  26.640  27.660  1.00  0.00    -0.354 N 
ATOM     70  N   UNL A   1      44.808  29.330  28.189  1.00  0.00    -0.248 NA
ATOM     71  C   UNL A   1      46.562  30.867  28.278  1.00  0.00     0.031 C 
ATOM     72  C   UNL A   1      45.199  25.138  26.829  1.00  0.00     0.029 A 
ATOM     73  C   UNL A   1      45.098  26.456  27.245  1.00  0.00     0.049 A 
ATOM     74  H   UNL A   1      43.421  27.478  28.022  1.00  0.00     0.167 HD
ATOM     75  C   UNL A   1      45.962  28.731  27.702  1.00  0.00     0.074 A 
ATOM     76  C   UNL A   1      47.003  29.737  27.741  1.00  0.00     0.031 C 
ATOM     77  C   UNL A   1      46.135  27.460  27.268  1.00  0.00     0.031 A 
BRANCH  64  78
ATOM     78  C   UNL A   1      41.109  23.890  27.628  1.00  0.00    -0.014 A 
ATOM     79  C   UNL A   1      41.621  22.788  28.337  1.00  0.00     0.009 A 
ATOM     80  C   UNL A   1      40.192  23.652  26.593  1.00  0.00     0.009 A 
ATOM     81  C   UNL A   1      41.262  21.483  27.990  1.00  0.00     0.001 A 
ATOM     82  C   UNL A   1      39.802  22.348  26.274  1.00  0.00     0.001 A 
ATOM     83  C   UNL A   1      40.350  21.265  26.959  1.00  0.00     0.000 A 
ENDBRANCH  64  78
BRANCH  65  84
ATOM     84  C   UNL A   1      44.806  33.035  29.268  1.00  0.00    -0.014 A 
ATOM     85  C   UNL A   1      44.711  34.019  28.266  1.00  0.00     0.009 A 
ATOM     86  C   UNL A   1      45.472  33.355  30.459  1.00  0.00     0.009 A 
ATOM     87  C   UNL A   1      45.310  35.269  28.432  1.00  0.00     0.001 A 
ATOM     88  C   UNL A   1      46.027  34.624  30.643  1.00  0.00     0.001 A 
ATOM     89  C   UNL A   1      45.961  35.573  29.624  1.00  0.00     0.000 A 
ENDBRANCH  65  84
BRANCH  77  90
ATOM     90  C   UNL A   1      47.498  27.048  26.770  1.00  0.00    -0.014 A 
ATOM     91  C   UNL A   1      47.755  27.026  25.387  1.00  0.00     0.009 A 
ATOM     92  C   UNL A   1      48.471  26.538  27.642  1.00  0.00     0.009 A 
ATOM     93  C   UNL A   1      48.929  26.460  24.888  1.00  0.00     0.001 A 
ATOM     94  C   UNL A   1      49.666  26.014  27.143  1.00  0.00     0.001 A 
ATOM     95  C   UNL A   1      49.885  25.956  25.767  1.00  0.00     0.000 A 
ENDBRANCH  77  90
ENDBRANCH  51  52
ENDBRANCH  44  46
ENDBRANCH  43  44
ENDBRANCH  42  43
ENDBRANCH  41  42
ENDBRANCH  40  41
ENDBRANCH  39  40
ENDBRANCH  38  39
ENDBRANCH  37  38
ENDBRANCH   1  37
TORSDOF 25
ENDMDL
MODEL 2
REMARK VINA RESULT:      -7.6      1.231      2.314
REMARK SMILES O=C(CNC(=O)[C@H](CC1=c2ccccc2=NC1)N1C(=O)N=C2C=CC=C[C@H]2C1=O)OCCOCCOCCOCCOC(=O)c1ccc(-c2c3nc(c(-c4ccccc4)c4ccc([nH]4)c(-c4ccccc4)c4nc(c(-c5ccccc5)c5ccc2[nH]5)C=C4)C=C3)cc1
REMARK SMILES IDX 35 1 34 2 33 3 32 4 31 5 30 6 2 7 1 8 3 9 4 10 5 11 6 13
REMARK SMILES IDX 7 14 8 15 9 16 10 17 17 18 11 19 15 20 16 21 12 22 14 23
REMARK SMILES IDX 13 24 18 25 19 26 28 27 21 28 20 29 27 30 29 31 22 32 26 33
REMARK SMILES IDX 23 34 25 35 24 36 36 37 37 38 38 39 39 40 40 41 41 42 42 43
REMARK SMILES IDX 43 44 44 45 45 46 46 47 92 48 47 49 91 50 48 51 49 52 50 53
REMARK SMILES IDX 85 54 51 55 90 56 84 57 86 58 52 59 89 60 83 61 82 62 53 64
REMARK SMILES IDX 75 65 60 66 74 67 61 68 64 69 73 70 87 71 62 72 63 73 72 75
REMARK SMILES IDX 88 76 65 77 54 78 55 79 59 80 56 81 58 82 57 83 76 84 77 85
REMARK SMILES IDX 81 86 78 87 80 88 79 89 66 90 67 91 71 92 68 93 70 94 69 95
REMARK H PARENT 4 12 86 63 64 74
REMARK Flexibility Score: inf
ROOT
ATOM      1  C   UNL A   1      35.892  34.811  33.655  1.00  0.00     0.188 C 
ENDROOT
BRANCH   1   2
ATOM      2  C   UNL A   1      38.082  34.530  34.106  1.00  0.00     0.188 C 
BRANCH   2   3
ATOM      3  O   UNL A   1      38.940  35.485  35.012  1.00  0.00    -0.376 OA
BRANCH   3   4
ATOM      4  C   UNL A   1      40.236  35.301  35.545  1.00  0.00     0.202 C 
BRANCH   4   5
ATOM      5  C   UNL A   1      40.642  33.849  35.543  1.00  0.00     0.261 C 
BRANCH   5   6
ATOM      6  O   UNL A   1      40.004  32.968  36.491  1.00  0.00    -0.462 OA
BRANCH   6   7
ATOM      7  C   UNL A   1      39.575  31.702  36.291  1.00  0.00     0.325 C 
ATOM      8  O   UNL A   1      38.410  31.423  36.591  1.00  0.00    -0.250 OA
BRANCH   7   9
ATOM      9  C   UNL A   1      40.462  30.629  35.573  1.00  0.00     0.238 C 
BRANCH   9  10
ATOM     10  N   UNL A   1      40.500  29.187  35.873  1.00  0.00    -0.343 N 
ATOM     11  C   UNL A   1      41.509  28.305  36.170  1.00  0.00     0.244 C 
ATOM     12  H   UNL A   1      39.610  28.766  35.856  1.00  0.00     0.164 HD
ATOM     13  O   UNL A   1      41.146  27.453  37.004  1.00  0.00    -0.273 OA
BRANCH  11  14
ATOM     14  C   UNL A   1      42.929  28.064  35.436  1.00  0.00     0.188 C 
BRANCH  14  15
ATOM     15  C   UNL A   1      44.240  28.752  35.993  1.00  0.00     0.069 C 
BRANCH  15  16
ATOM     16  C   UNL A   1      45.611  28.599  35.353  1.00  0.00    -0.037 C 
ATOM     17  C   UNL A   1      46.032  29.458  34.131  1.00  0.00     0.001 A 
ATOM     18  C   UNL A   1      46.924  27.011  35.584  1.00  0.00     0.174 C 
ATOM     19  C   UNL A   1      45.441  30.475  33.350  1.00  0.00     0.010 A 
ATOM     20  C   UNL A   1      47.677  28.784  33.371  1.00  0.00     0.065 A 
ATOM     21  N   UNL A   1      48.204  27.453  34.056  1.00  0.00    -0.280 NA
ATOM     22  C   UNL A   1      46.075  31.043  32.321  1.00  0.00     0.001 A 
ATOM     23  C   UNL A   1      48.157  29.630  32.256  1.00  0.00     0.028 A 
ATOM     24  C   UNL A   1      47.402  30.675  31.855  1.00  0.00     0.002 A 
ENDBRANCH  15  16
ENDBRANCH  14  15
BRANCH  14  25
ATOM     25  N   UNL A   1      43.245  27.252  34.111  1.00  0.00    -0.249 N 
ATOM     26  C   UNL A   1      42.784  27.869  32.928  1.00  0.00     0.351 C 
ATOM     27  C   UNL A   1      43.954  26.040  33.999  1.00  0.00     0.244 C 
ATOM     28  N   UNL A   1      43.058  27.305  31.716  1.00  0.00    -0.197 NA
ATOM     29  O   UNL A   1      42.257  28.978  32.920  1.00  0.00    -0.246 OA
ATOM     30  C   UNL A   1      44.593  25.705  32.596  1.00  0.00     0.151 C 
ATOM     31  O   UNL A   1      43.971  25.172  34.878  1.00  0.00    -0.273 OA
ATOM     32  C   UNL A   1      44.256  26.841  31.673  1.00  0.00     0.062 C 
ATOM     33  C   UNL A   1      46.028  25.240  32.360  1.00  0.00    -0.007 C 
ATOM     34  C   UNL A   1      45.272  27.557  30.883  1.00  0.00     0.025 C 
ATOM     35  C   UNL A   1      46.856  25.824  31.471  1.00  0.00    -0.003 C 
ATOM     36  C   UNL A   1      46.507  27.061  30.821  1.00  0.00     0.002 C 
ENDBRANCH  14  25
ENDBRANCH  11  14
ENDBRANCH   9  10
ENDBRANCH   7   9
ENDBRANCH   6   7
ENDBRANCH   5   6
ENDBRANCH   4   5
ENDBRANCH   3   4
ENDBRANCH   2   3
ENDBRANCH   1   2
BRANCH   1  37
ATOM     37  O   UNL A   1      35.163  35.978  32.894  1.00  0.00    -0.377 OA
BRANCH  37  38
ATOM     38  C   UNL A   1      33.896  36.525  33.236  1.00  0.00     0.188 C 
BRANCH  38  39
ATOM     39  C   UNL A   1      32.717  35.980  32.432  1.00  0.00     0.188 C 
BRANCH  39  40
ATOM     40  O   UNL A   1      32.787  36.359  31.076  1.00  0.00    -0.376 OA
BRANCH  40  41
ATOM     41  C   UNL A   1      33.047  35.342  30.112  1.00  0.00     0.202 C 
BRANCH  41  42
ATOM     42  C   UNL A   1      34.374  34.565  29.887  1.00  0.00     0.261 C 
BRANCH  42  43
ATOM     43  O   UNL A   1      34.419  33.134  29.909  1.00  0.00    -0.460 OA
BRANCH  43  44
ATOM     44  C   UNL A   1      34.812  32.485  31.029  1.00  0.00     0.338 C 
ATOM     45  O   UNL A   1      34.168  32.328  32.049  1.00  0.00    -0.246 OA
BRANCH  44  46
ATOM     46  C   UNL A   1      36.095  31.803  30.707  1.00  0.00     0.060 A 
ATOM     47  C   UNL A   1      36.213  31.083  29.519  1.00  0.00     0.016 A 
ATOM     48  C   UNL A   1      37.149  31.797  31.637  1.00  0.00     0.016 A 
ATOM     49  C   UNL A   1      37.388  30.374  29.253  1.00  0.00     0.010 A 
ATOM     50  C   UNL A   1      38.302  31.036  31.397  1.00  0.00     0.010 A 
ATOM     51  C   UNL A   1      38.445  30.349  30.184  1.00  0.00    -0.014 A 
BRANCH  51  52
ATOM     52  C   UNL A   1      39.773  29.838  29.758  1.00  0.00     0.031 A 
ATOM     53  C   UNL A   1      40.020  28.421  29.342  1.00  0.00     0.074 A 
ATOM     54  C   UNL A   1      40.780  30.733  29.735  1.00  0.00     0.049 A 
ATOM     55  N   UNL A   1      41.116  27.897  28.852  1.00  0.00    -0.248 NA
ATOM     56  C   UNL A   1      38.913  27.466  29.495  1.00  0.00     0.031 C 
ATOM     57  C   UNL A   1      40.645  32.136  30.131  1.00  0.00     0.029 A 
ATOM     58  N   UNL A   1      42.091  30.619  29.348  1.00  0.00    -0.354 N 
ATOM     59  C   UNL A   1      40.831  26.559  28.615  1.00  0.00     0.074 A 
ATOM     60  C   UNL A   1      39.471  26.339  29.062  1.00  0.00     0.031 C 
ATOM     61  C   UNL A   1      41.810  32.762  29.924  1.00  0.00     0.029 A 
ATOM     62  C   UNL A   1      42.790  31.799  29.431  1.00  0.00     0.049 A 
ATOM     63  H   UNL A   1      42.492  29.774  29.040  1.00  0.00     0.167 HD
ATOM     64  C   UNL A   1      41.634  25.617  28.060  1.00  0.00     0.031 A 
ATOM     65  C   UNL A   1      44.074  32.088  29.147  1.00  0.00     0.031 A 
ATOM     66  C   UNL A   1      42.994  25.858  27.635  1.00  0.00     0.049 A 
ATOM     67  C   UNL A   1      44.955  31.009  28.584  1.00  0.00     0.074 A 
ATOM     68  C   UNL A   1      43.865  24.972  27.021  1.00  0.00     0.029 A 
ATOM     69  N   UNL A   1      43.684  27.053  27.785  1.00  0.00    -0.354 N 
ATOM     70  N   UNL A   1      44.643  29.772  28.280  1.00  0.00    -0.248 NA
ATOM     71  C   UNL A   1      46.353  31.361  28.304  1.00  0.00     0.031 C 
ATOM     72  C   UNL A   1      45.106  25.595  26.897  1.00  0.00     0.029 A 
ATOM     73  C   UNL A   1      44.983  26.908  27.319  1.00  0.00     0.049 A 
ATOM     74  H   UNL A   1      43.307  27.879  28.163  1.00  0.00     0.167 HD
ATOM     75  C   UNL A   1      45.795  29.209  27.747  1.00  0.00     0.074 A 
ATOM     76  C   UNL A   1      46.806  30.246  27.747  1.00  0.00     0.031 C 
ATOM     77  C   UNL A   1      45.989  27.944  27.304  1.00  0.00     0.031 A 
BRANCH  64  78
ATOM     78  C   UNL A   1      41.090  24.224  27.851  1.00  0.00    -0.014 A 
ATOM     79  C   UNL A   1      41.634  23.143  28.570  1.00  0.00     0.009 A 
ATOM     80  C   UNL A   1      40.173  23.952  26.825  1.00  0.00     0.009 A 
ATOM     81  C   UNL A   1      41.305  21.826  28.240  1.00  0.00     0.001 A 
ATOM     82  C   UNL A   1      39.813  22.634  26.524  1.00  0.00     0.001 A 
ATOM     83  C   UNL A   1      40.393  21.573  27.218  1.00  0.00     0.000 A 
ENDBRANCH  64  78
BRANCH  65  84
ATOM     84  C   UNL A   1      44.572  33.475  29.365  1.00  0.00    -0.014 A 
ATOM     85  C   UNL A   1      44.751  34.348  28.276  1.00  0.00     0.009 A 
ATOM     86  C   UNL A   1      44.940  33.915  30.644  1.00  0.00     0.009 A 
ATOM     87  C   UNL A   1      45.329  35.606  28.455  1.00  0.00     0.001 A 
ATOM     88  C   UNL A   1      45.472  35.194  30.829  1.00  0.00     0.001 A 
ATOM     89  C   UNL A   1      45.682  36.031  29.733  1.00  0.00     0.000 A 
ENDBRANCH  65  84
BRANCH  77  90
ATOM     90  C   UNL A   1      47.344  27.573  26.753  1.00  0.00    -0.014 A 
ATOM     91  C   UNL A   1      48.385  27.235  27.636  1.00  0.00     0.009 A 
ATOM     92  C   UNL A   1      47.637  27.704  25.387  1.00  0.00     0.009 A 
ATOM     93  C   UNL A   1      49.693  27.088  27.174  1.00  0.00     0.001 A 
ATOM     94  C   UNL A   1      48.939  27.509  24.921  1.00  0.00     0.001 A 
ATOM     95  C   UNL A   1      49.969  27.223  25.816  1.00  0.00     0.000 A 
ENDBRANCH  77  90
ENDBRANCH  51  52
ENDBRANCH  44  46
ENDBRANCH  43  44
ENDBRANCH  42  43
ENDBRANCH  41  42
ENDBRANCH  40  41
ENDBRANCH  39  40
ENDBRANCH  38  39
ENDBRANCH  37  38
ENDBRANCH   1  37
TORSDOF 25
ENDMDL
MODEL 3
REMARK VINA RESULT:      -7.1      5.389     11.334
REMARK SMILES O=C(CNC(=O)[C@H](CC1=c2ccccc2=NC1)N1C(=O)N=C2C=CC=C[C@H]2C1=O)OCCOCCOCCOCCOC(=O)c1ccc(-c2c3nc(c(-c4ccccc4)c4ccc([nH]4)c(-c4ccccc4)c4nc(c(-c5ccccc5)c5ccc2[nH]5)C=C4)C=C3)cc1
REMARK SMILES IDX 35 1 34 2 33 3 32 4 31 5 30 6 2 7 1 8 3 9 4 10 5 11 6 13
REMARK SMILES IDX 7 14 8 15 9 16 10 17 17 18 11 19 15 20 16 21 12 22 14 23
REMARK SMILES IDX 13 24 18 25 19 26 28 27 21 28 20 29 27 30 29 31 22 32 26 33
REMARK SMILES IDX 23 34 25 35 24 36 36 37 37 38 38 39 39 40 40 41 41 42 42 43
REMARK SMILES IDX 43 44 44 45 45 46 46 47 92 48 47 49 91 50 48 51 49 52 50 53
REMARK SMILES IDX 85 54 51 55 90 56 84 57 86 58 52 59 89 60 83 61 82 62 53 64
REMARK SMILES IDX 75 65 60 66 74 67 61 68 64 69 73 70 87 71 62 72 63 73 72 75
REMARK SMILES IDX 88 76 65 77 54 78 55 79 59 80 56 81 58 82 57 83 76 84 77 85
REMARK SMILES IDX 81 86 78 87 80 88 79 89 66 90 67 91 71 92 68 93 70 94 69 95
REMARK H PARENT 4 12 86 63 64 74
REMARK Flexibility Score: inf
ROOT
ATOM      1  C   UNL A   1      35.551  33.914  29.805  1.00  0.00     0.188 C 
ENDROOT
BRANCH   1   2
ATOM      2  C   UNL A   1      36.916  32.419  28.814  1.00  0.00     0.188 C 
BRANCH   2   3
ATOM      3  O   UNL A   1      36.595  30.891  28.639  1.00  0.00    -0.376 OA
BRANCH   3   4
ATOM      4  C   UNL A   1      35.354  30.217  28.685  1.00  0.00     0.202 C 
BRANCH   4   5
ATOM      5  C   UNL A   1      34.844  29.887  27.305  1.00  0.00     0.261 C 
BRANCH   5   6
ATOM      6  O   UNL A   1      33.479  30.235  26.989  1.00  0.00    -0.462 OA
BRANCH   6   7
ATOM      7  C   UNL A   1      32.468  29.407  26.646  1.00  0.00     0.325 C 
ATOM      8  O   UNL A   1      31.653  29.793  25.801  1.00  0.00    -0.250 OA
BRANCH   7   9
ATOM      9  C   UNL A   1      32.380  27.937  27.182  1.00  0.00     0.238 C 
BRANCH   9  10
ATOM     10  N   UNL A   1      31.320  26.961  26.879  1.00  0.00    -0.343 N 
ATOM     11  C   UNL A   1      31.270  25.821  26.115  1.00  0.00     0.244 C 
ATOM     12  H   UNL A   1      30.464  27.170  27.318  1.00  0.00     0.164 HD
ATOM     13  O   UNL A   1      30.541  24.952  26.632  1.00  0.00    -0.273 OA
BRANCH  11  14
ATOM     14  C   UNL A   1      31.771  25.561  24.600  1.00  0.00     0.188 C 
BRANCH  14  15
ATOM     15  C   UNL A   1      31.327  26.537  23.437  1.00  0.00     0.069 C 
BRANCH  15  16
ATOM     16  C   UNL A   1      29.909  27.059  23.268  1.00  0.00    -0.037 C 
ATOM     17  C   UNL A   1      29.631  28.460  22.659  1.00  0.00     0.001 A 
ATOM     18  C   UNL A   1      28.198  26.342  24.194  1.00  0.00     0.174 C 
ATOM     19  C   UNL A   1      30.410  29.518  22.141  1.00  0.00     0.010 A 
ATOM     20  C   UNL A   1      27.774  28.940  22.897  1.00  0.00     0.065 A 
ATOM     21  N   UNL A   1      26.941  27.887  23.745  1.00  0.00    -0.280 NA
ATOM     22  C   UNL A   1      29.864  30.643  21.673  1.00  0.00     0.001 A 
ATOM     23  C   UNL A   1      27.450  30.231  22.252  1.00  0.00     0.028 A 
ATOM     24  C   UNL A   1      28.441  30.939  21.669  1.00  0.00     0.002 A 
ENDBRANCH  15  16
ENDBRANCH  14  15
BRANCH  14  25
ATOM     25  N   UNL A   1      32.639  24.366  24.025  1.00  0.00    -0.249 N 
ATOM     26  C   UNL A   1      33.602  24.754  23.069  1.00  0.00     0.351 C 
ATOM     27  C   UNL A   1      32.574  23.007  24.394  1.00  0.00     0.244 C 
ATOM     28  N   UNL A   1      34.460  23.827  22.553  1.00  0.00    -0.197 NA
ATOM     29  O   UNL A   1      33.805  25.927  22.771  1.00  0.00    -0.246 OA
ATOM     30  C   UNL A   1      33.845  22.119  24.102  1.00  0.00     0.151 C 
ATOM     31  O   UNL A   1      31.543  22.451  24.784  1.00  0.00    -0.273 OA
ATOM     32  C   UNL A   1      34.869  23.009  23.457  1.00  0.00     0.062 C 
ATOM     33  C   UNL A   1      34.518  21.173  25.094  1.00  0.00    -0.007 C 
ATOM     34  C   UNL A   1      36.254  23.120  23.946  1.00  0.00     0.025 C 
ATOM     35  C   UNL A   1      35.839  21.198  25.357  1.00  0.00    -0.003 C 
ATOM     36  C   UNL A   1      36.682  22.256  24.866  1.00  0.00     0.002 C 
ENDBRANCH  14  25
ENDBRANCH  11  14
ENDBRANCH   9  10
ENDBRANCH   7   9
ENDBRANCH   6   7
ENDBRANCH   5   6
ENDBRANCH   4   5
ENDBRANCH   3   4
ENDBRANCH   2   3
ENDBRANCH   1   2
BRANCH   1  37
ATOM     37  O   UNL A   1      34.705  33.784  31.123  1.00  0.00    -0.377 OA
BRANCH  37  38
ATOM     38  C   UNL A   1      34.097  34.860  31.827  1.00  0.00     0.188 C 
BRANCH  38  39
ATOM     39  C   UNL A   1      34.885  35.372  33.031  1.00  0.00     0.188 C 
BRANCH  39  40
ATOM     40  O   UNL A   1      36.252  35.040  32.944  1.00  0.00    -0.376 OA
BRANCH  40  41
ATOM     41  C   UNL A   1      36.778  34.121  33.898  1.00  0.00     0.202 C 
BRANCH  41  42
ATOM     42  C   UNL A   1      36.803  32.570  33.808  1.00  0.00     0.261 C 
BRANCH  42  43
ATOM     43  O   UNL A   1      37.561  31.889  32.802  1.00  0.00    -0.460 OA
BRANCH  43  44
ATOM     44  C   UNL A   1      37.348  30.574  32.565  1.00  0.00     0.338 C 
ATOM     45  O   UNL A   1      36.281  30.033  32.342  1.00  0.00    -0.246 OA
BRANCH  44  46
ATOM     46  C   UNL A   1      38.685  29.941  32.406  1.00  0.00     0.060 A 
ATOM     47  C   UNL A   1      39.835  30.722  32.509  1.00  0.00     0.016 A 
ATOM     48  C   UNL A   1      38.791  28.583  32.057  1.00  0.00     0.016 A 
ATOM     49  C   UNL A   1      41.087  30.146  32.279  1.00  0.00     0.010 A 
ATOM     50  C   UNL A   1      40.042  28.021  31.767  1.00  0.00     0.010 A 
ATOM     51  C   UNL A   1      41.204  28.791  31.914  1.00  0.00    -0.014 A 
BRANCH  51  52
ATOM     52  C   UNL A   1      42.539  28.140  31.961  1.00  0.00     0.031 A 
ATOM     53  C   UNL A   1      43.383  27.896  30.748  1.00  0.00     0.074 A 
ATOM     54  C   UNL A   1      42.991  27.787  33.180  1.00  0.00     0.049 A 
ATOM     55  N   UNL A   1      44.607  27.432  30.689  1.00  0.00    -0.248 NA
ATOM     56  C   UNL A   1      42.791  28.198  29.437  1.00  0.00     0.031 C 
ATOM     57  C   UNL A   1      42.240  27.973  34.423  1.00  0.00     0.029 A 
ATOM     58  N   UNL A   1      44.177  27.230  33.585  1.00  0.00    -0.354 N 
ATOM     59  C   UNL A   1      44.945  27.406  29.343  1.00  0.00     0.074 A 
ATOM     60  C   UNL A   1      43.778  27.857  28.613  1.00  0.00     0.031 C 
ATOM     61  C   UNL A   1      43.000  27.581  35.454  1.00  0.00     0.029 A 
ATOM     62  C   UNL A   1      44.268  27.068  34.946  1.00  0.00     0.049 A 
ATOM     63  H   UNL A   1      44.894  26.971  32.961  1.00  0.00     0.167 HD
ATOM     64  C   UNL A   1      46.130  27.054  28.784  1.00  0.00     0.031 A 
ATOM     65  C   UNL A   1      45.255  26.566  35.713  1.00  0.00     0.031 A 
ATOM     66  C   UNL A   1      47.277  26.594  29.533  1.00  0.00     0.049 A 
ATOM     67  C   UNL A   1      46.536  26.133  35.058  1.00  0.00     0.074 A 
ATOM     68  C   UNL A   1      48.532  26.259  29.052  1.00  0.00     0.029 A 
ATOM     69  N   UNL A   1      47.312  26.395  30.906  1.00  0.00    -0.354 N 
ATOM     70  N   UNL A   1      46.874  26.201  33.793  1.00  0.00    -0.248 NA
ATOM     71  C   UNL A   1      47.579  25.574  35.928  1.00  0.00     0.031 C 
ATOM     72  C   UNL A   1      49.288  25.760  30.111  1.00  0.00     0.029 A 
ATOM     73  C   UNL A   1      48.552  25.894  31.277  1.00  0.00     0.049 A 
ATOM     74  H   UNL A   1      46.570  26.581  31.524  1.00  0.00     0.167 HD
ATOM     75  C   UNL A   1      48.175  25.723  33.719  1.00  0.00     0.074 A 
ATOM     76  C   UNL A   1      48.575  25.390  35.071  1.00  0.00     0.031 C 
ATOM     77  C   UNL A   1      48.959  25.574  32.625  1.00  0.00     0.031 A 
BRANCH  64  78
ATOM     78  C   UNL A   1      46.288  27.153  27.286  1.00  0.00    -0.014 A 
ATOM     79  C   UNL A   1      46.669  28.373  26.699  1.00  0.00     0.009 A 
ATOM     80  C   UNL A   1      45.892  26.101  26.445  1.00  0.00     0.009 A 
ATOM     81  C   UNL A   1      46.610  28.552  25.315  1.00  0.00     0.001 A 
ATOM     82  C   UNL A   1      45.874  26.268  25.057  1.00  0.00     0.001 A 
ATOM     83  C   UNL A   1      46.215  27.498  24.495  1.00  0.00     0.000 A 
ENDBRANCH  64  78
BRANCH  65  84
ATOM     84  C   UNL A   1      45.061  26.487  37.187  1.00  0.00    -0.014 A 
ATOM     85  C   UNL A   1      45.376  27.586  38.007  1.00  0.00     0.009 A 
ATOM     86  C   UNL A   1      44.629  25.299  37.795  1.00  0.00     0.009 A 
ATOM     87  C   UNL A   1      45.311  27.482  39.398  1.00  0.00     0.001 A 
ATOM     88  C   UNL A   1      44.517  25.214  39.185  1.00  0.00     0.001 A 
ATOM     89  C   UNL A   1      44.874  26.298  39.985  1.00  0.00     0.000 A 
ENDBRANCH  65  84
BRANCH  77  90
ATOM     90  C   UNL A   1      50.358  25.039  32.808  1.00  0.00    -0.014 A 
ATOM     91  C   UNL A   1      50.587  23.653  32.736  1.00  0.00     0.009 A 
ATOM     92  C   UNL A   1      51.414  25.875  33.201  1.00  0.00     0.009 A 
ATOM     93  C   UNL A   1      51.821  23.114  33.100  1.00  0.00     0.001 A 
ATOM     94  C   UNL A   1      52.663  25.336  33.520  1.00  0.00     0.001 A 
ATOM     95  C   UNL A   1      52.859  23.956  33.490  1.00  0.00     0.000 A 
ENDBRANCH  77  90
ENDBRANCH  51  52
ENDBRANCH  44  46
ENDBRANCH  43  44
ENDBRANCH  42  43
ENDBRANCH  41  42
ENDBRANCH  40  41
ENDBRANCH  39  40
ENDBRANCH  38  39
ENDBRANCH  37  38
ENDBRANCH   1  37
TORSDOF 25
ENDMDL
