MODEL 1
REMARK VINA RESULT:      -8.4      0.000      0.000
REMARK SMILES COCCS(=O)(=O)Cc1c(C(=O)OCCOCCOCCOCCOC(=O)c2ccc(-c3c4nc(c(-c5ccccc5)c5ccc([nH]5)c(-c5ccccc5)c5nc(c(-c6ccccc6)c6ccc3[nH]6)C=C5)C=C4)cc2)oc2ccccc12
REMARK SMILES IDX 17 1 16 2 15 3 14 4 13 5 11 6 12 7 10 8 9 9 82 10 76 11
REMARK SMILES IDX 77 12 81 13 78 14 80 15 79 16 8 17 5 18 6 19 7 20 4 21 3 22
REMARK SMILES IDX 2 23 1 24 18 25 19 26 20 27 21 28 22 29 23 30 24 31 25 32
REMARK SMILES IDX 26 33 27 34 28 35 29 36 75 37 30 38 74 39 31 40 32 41 33 42
REMARK SMILES IDX 68 43 34 44 73 45 67 46 69 47 35 48 72 49 66 50 65 51 36 53
REMARK SMILES IDX 58 54 43 55 57 56 44 57 47 58 56 59 70 60 45 61 46 62 55 64
REMARK SMILES IDX 71 65 48 66 37 67 38 68 42 69 39 70 41 71 40 72 59 73 60 74
REMARK SMILES IDX 64 75 61 76 63 77 62 78 49 79 50 80 54 81 51 82 53 83 52 84
REMARK H PARENT 69 52 47 63
REMARK Flexibility Score: inf
ROOT
ATOM      1  C   UNL A   1      34.454  21.969  24.662  1.00  0.00     0.188 C 
ENDROOT
BRANCH   1   2
ATOM      2  O   UNL A   1      33.108  22.310  24.353  1.00  0.00    -0.376 OA
BRANCH   2   3
ATOM      3  C   UNL A   1      32.218  22.647  25.414  1.00  0.00     0.202 C 
BRANCH   3   4
ATOM      4  C   UNL A   1      31.851  24.127  25.605  1.00  0.00     0.261 C 
BRANCH   4   5
ATOM      5  O   UNL A   1      32.989  24.957  25.904  1.00  0.00    -0.457 OA
BRANCH   5   6
ATOM      6  C   UNL A   1      33.380  25.856  24.959  1.00  0.00     0.374 C 
ATOM      7  O   UNL A   1      33.656  25.572  23.801  1.00  0.00    -0.242 OA
BRANCH   6   8
ATOM      8  C   UNL A   1      33.223  27.196  25.492  1.00  0.00     0.217 A 
ATOM      9  C   UNL A   1      32.232  28.173  25.344  1.00  0.00     0.028 A 
ATOM     10  C   UNL A   1      32.696  29.298  26.112  1.00  0.00     0.025 A 
ATOM     11  O   UNL A   1      34.153  27.615  26.404  1.00  0.00    -0.449 OA
ATOM     12  C   UNL A   1      33.849  28.882  26.760  1.00  0.00     0.135 A 
ATOM     13  C   UNL A   1      32.271  30.623  26.323  1.00  0.00     0.012 A 
ATOM     14  C   UNL A   1      34.600  29.666  27.633  1.00  0.00     0.048 A 
ATOM     15  C   UNL A   1      33.021  31.453  27.169  1.00  0.00     0.001 A 
ATOM     16  C   UNL A   1      34.163  30.978  27.819  1.00  0.00     0.004 A 
BRANCH   9  17
ATOM     17  C   UNL A   1      31.002  28.126  24.487  1.00  0.00     0.177 C 
BRANCH  17  18
ATOM     18  S   UNL A   1      31.141  28.613  22.750  1.00  0.00     0.156 S 
ATOM     19  O   UNL A   1      30.606  27.510  21.970  1.00  0.00    -0.228 OA
ATOM     20  O   UNL A   1      32.512  29.028  22.505  1.00  0.00    -0.228 OA
BRANCH  18  21
ATOM     21  C   UNL A   1      30.115  30.052  22.451  1.00  0.00     0.165 C 
BRANCH  21  22
ATOM     22  C   UNL A   1      28.665  29.753  22.092  1.00  0.00     0.176 C 
BRANCH  22  23
ATOM     23  O   UNL A   1      27.795  29.698  23.224  1.00  0.00    -0.384 OA
ATOM     24  C   UNL A   1      27.018  28.519  23.289  1.00  0.00     0.194 C 
ENDBRANCH  22  23
ENDBRANCH  21  22
ENDBRANCH  18  21
ENDBRANCH  17  18
ENDBRANCH   9  17
ENDBRANCH   6   8
ENDBRANCH   5   6
ENDBRANCH   4   5
ENDBRANCH   3   4
ENDBRANCH   2   3
ENDBRANCH   1   2
BRANCH   1  25
ATOM     25  C   UNL A   1      35.468  22.649  23.745  1.00  0.00     0.188 C 
BRANCH  25  26
ATOM     26  O   UNL A   1      36.812  22.209  23.907  1.00  0.00    -0.377 OA
BRANCH  26  27
ATOM     27  C   UNL A   1      37.014  21.210  24.900  1.00  0.00     0.188 C 
BRANCH  27  28
ATOM     28  C   UNL A   1      38.361  21.200  25.659  1.00  0.00     0.188 C 
BRANCH  28  29
ATOM     29  O   UNL A   1      38.990  22.468  25.824  1.00  0.00    -0.376 OA
BRANCH  29  30
ATOM     30  C   UNL A   1      40.096  22.484  26.727  1.00  0.00     0.202 C 
BRANCH  30  31
ATOM     31  C   UNL A   1      41.432  22.890  26.087  1.00  0.00     0.261 C 
BRANCH  31  32
ATOM     32  O   UNL A   1      42.028  24.075  26.637  1.00  0.00    -0.460 OA
BRANCH  32  33
ATOM     33  C   UNL A   1      41.567  25.266  26.198  1.00  0.00     0.338 C 
ATOM     34  O   UNL A   1      41.127  25.522  25.093  1.00  0.00    -0.246 OA
BRANCH  33  35
ATOM     35  C   UNL A   1      41.472  26.168  27.367  1.00  0.00     0.060 A 
ATOM     36  C   UNL A   1      40.451  25.938  28.301  1.00  0.00     0.016 A 
ATOM     37  C   UNL A   1      42.422  27.170  27.592  1.00  0.00     0.016 A 
ATOM     38  C   UNL A   1      40.372  26.718  29.454  1.00  0.00     0.010 A 
ATOM     39  C   UNL A   1      42.322  27.973  28.730  1.00  0.00     0.010 A 
ATOM     40  C   UNL A   1      41.283  27.767  29.653  1.00  0.00    -0.014 A 
BRANCH  40  41
ATOM     41  C   UNL A   1      40.994  28.795  30.678  1.00  0.00     0.031 A 
ATOM     42  C   UNL A   1      41.856  28.803  31.911  1.00  0.00     0.074 A 
ATOM     43  C   UNL A   1      40.015  29.704  30.527  1.00  0.00     0.049 A 
ATOM     44  N   UNL A   1      41.812  29.591  32.952  1.00  0.00    -0.248 NA
ATOM     45  C   UNL A   1      42.916  27.780  31.971  1.00  0.00     0.031 C 
ATOM     46  C   UNL A   1      39.134  29.825  29.368  1.00  0.00     0.029 A 
ATOM     47  N   UNL A   1      39.600  30.703  31.372  1.00  0.00    -0.354 N 
ATOM     48  C   UNL A   1      42.840  29.166  33.784  1.00  0.00     0.074 A 
ATOM     49  C   UNL A   1      43.471  28.034  33.145  1.00  0.00     0.031 C 
ATOM     50  C   UNL A   1      38.274  30.839  29.580  1.00  0.00     0.029 A 
ATOM     51  C   UNL A   1      38.529  31.419  30.897  1.00  0.00     0.049 A 
ATOM     52  H   UNL A   1      40.030  30.889  32.238  1.00  0.00     0.167 HD
ATOM     53  C   UNL A   1      43.231  29.675  34.975  1.00  0.00     0.031 A 
ATOM     54  C   UNL A   1      37.828  32.418  31.472  1.00  0.00     0.031 A 
ATOM     55  C   UNL A   1      42.583  30.773  35.634  1.00  0.00     0.049 A 
ATOM     56  C   UNL A   1      38.226  32.906  32.843  1.00  0.00     0.074 A 
ATOM     57  C   UNL A   1      42.897  31.357  36.848  1.00  0.00     0.029 A 
ATOM     58  N   UNL A   1      41.476  31.442  35.137  1.00  0.00    -0.354 N 
ATOM     59  N   UNL A   1      39.222  32.521  33.604  1.00  0.00    -0.248 NA
ATOM     60  C   UNL A   1      37.402  33.975  33.430  1.00  0.00     0.031 C 
ATOM     61  C   UNL A   1      41.948  32.350  37.109  1.00  0.00     0.029 A 
ATOM     62  C   UNL A   1      41.080  32.420  36.032  1.00  0.00     0.049 A 
ATOM     63  H   UNL A   1      41.039  31.252  34.276  1.00  0.00     0.167 HD
ATOM     64  C   UNL A   1      39.163  33.318  34.742  1.00  0.00     0.074 A 
ATOM     65  C   UNL A   1      38.040  34.216  34.567  1.00  0.00     0.031 C 
ATOM     66  C   UNL A   1      39.964  33.308  35.835  1.00  0.00     0.031 A 
BRANCH  53  67
ATOM     67  C   UNL A   1      44.396  29.014  35.650  1.00  0.00    -0.014 A 
ATOM     68  C   UNL A   1      44.240  27.798  36.336  1.00  0.00     0.009 A 
ATOM     69  C   UNL A   1      45.666  29.605  35.590  1.00  0.00     0.009 A 
ATOM     70  C   UNL A   1      45.329  27.204  36.974  1.00  0.00     0.001 A 
ATOM     71  C   UNL A   1      46.759  28.996  36.208  1.00  0.00     0.001 A 
ATOM     72  C   UNL A   1      46.588  27.801  36.906  1.00  0.00     0.000 A 
ENDBRANCH  53  67
BRANCH  54  73
ATOM     73  C   UNL A   1      36.657  33.017  30.776  1.00  0.00    -0.014 A 
ATOM     74  C   UNL A   1      36.823  33.744  29.587  1.00  0.00     0.009 A 
ATOM     75  C   UNL A   1      35.371  32.906  31.327  1.00  0.00     0.009 A 
ATOM     76  C   UNL A   1      35.731  34.372  28.981  1.00  0.00     0.001 A 
ATOM     77  C   UNL A   1      34.277  33.512  30.705  1.00  0.00     0.001 A 
ATOM     78  C   UNL A   1      34.459  34.253  29.539  1.00  0.00     0.000 A 
ENDBRANCH  54  73
BRANCH  66  79
ATOM     79  C   UNL A   1      39.686  34.323  36.908  1.00  0.00    -0.014 A 
ATOM     80  C   UNL A   1      38.959  33.987  38.060  1.00  0.00     0.009 A 
ATOM     81  C   UNL A   1      40.210  35.620  36.787  1.00  0.00     0.009 A 
ATOM     82  C   UNL A   1      38.737  34.940  39.056  1.00  0.00     0.001 A 
ATOM     83  C   UNL A   1      40.012  36.561  37.797  1.00  0.00     0.001 A 
ATOM     84  C   UNL A   1      39.268  36.224  38.926  1.00  0.00     0.000 A 
ENDBRANCH  66  79
ENDBRANCH  40  41
ENDBRANCH  33  35
ENDBRANCH  32  33
ENDBRANCH  31  32
ENDBRANCH  30  31
ENDBRANCH  29  30
ENDBRANCH  28  29
ENDBRANCH  27  28
ENDBRANCH  26  27
ENDBRANCH  25  26
ENDBRANCH   1  25
TORSDOF 25
ENDMDL
MODEL 2
REMARK VINA RESULT:      -8.1      7.237     11.952
REMARK SMILES COCCS(=O)(=O)Cc1c(C(=O)OCCOCCOCCOCCOC(=O)c2ccc(-c3c4nc(c(-c5ccccc5)c5ccc([nH]5)c(-c5ccccc5)c5nc(c(-c6ccccc6)c6ccc3[nH]6)C=C5)C=C4)cc2)oc2ccccc12
REMARK SMILES IDX 17 1 16 2 15 3 14 4 13 5 11 6 12 7 10 8 9 9 82 10 76 11
REMARK SMILES IDX 77 12 81 13 78 14 80 15 79 16 8 17 5 18 6 19 7 20 4 21 3 22
REMARK SMILES IDX 2 23 1 24 18 25 19 26 20 27 21 28 22 29 23 30 24 31 25 32
REMARK SMILES IDX 26 33 27 34 28 35 29 36 75 37 30 38 74 39 31 40 32 41 33 42
REMARK SMILES IDX 68 43 34 44 73 45 67 46 69 47 35 48 72 49 66 50 65 51 36 53
REMARK SMILES IDX 58 54 43 55 57 56 44 57 47 58 56 59 70 60 45 61 46 62 55 64
REMARK SMILES IDX 71 65 48 66 37 67 38 68 42 69 39 70 41 71 40 72 59 73 60 74
REMARK SMILES IDX 64 75 61 76 63 77 62 78 49 79 50 80 54 81 51 82 53 83 52 84
REMARK H PARENT 69 52 47 63
REMARK Flexibility Score: inf
ROOT
ATOM      1  C   UNL A   1      33.843  21.756  24.813  1.00  0.00     0.188 C 
ENDROOT
BRANCH   1   2
ATOM      2  O   UNL A   1      34.263  22.572  23.726  1.00  0.00    -0.376 OA
BRANCH   2   3
ATOM      3  C   UNL A   1      33.642  23.840  23.532  1.00  0.00     0.202 C 
BRANCH   3   4
ATOM      4  C   UNL A   1      34.471  25.101  23.818  1.00  0.00     0.261 C 
BRANCH   4   5
ATOM      5  O   UNL A   1      33.732  26.321  23.619  1.00  0.00    -0.457 OA
BRANCH   5   6
ATOM      6  C   UNL A   1      33.109  26.492  22.420  1.00  0.00     0.374 C 
ATOM      7  O   UNL A   1      33.560  26.123  21.343  1.00  0.00    -0.242 OA
BRANCH   6   8
ATOM      8  C   UNL A   1      31.767  26.990  22.655  1.00  0.00     0.217 A 
ATOM      9  C   UNL A   1      30.680  26.502  23.389  1.00  0.00     0.028 A 
ATOM     10  C   UNL A   1      29.627  27.461  23.184  1.00  0.00     0.025 A 
ATOM     11  O   UNL A   1      31.470  28.232  22.161  1.00  0.00    -0.449 OA
ATOM     12  C   UNL A   1      30.182  28.505  22.460  1.00  0.00     0.135 A 
ATOM     13  C   UNL A   1      28.265  27.555  23.526  1.00  0.00     0.012 A 
ATOM     14  C   UNL A   1      29.502  29.658  22.076  1.00  0.00     0.048 A 
ATOM     15  C   UNL A   1      27.539  28.687  23.125  1.00  0.00     0.001 A 
ATOM     16  C   UNL A   1      28.151  29.725  22.419  1.00  0.00     0.004 A 
BRANCH   9  17
ATOM     17  C   UNL A   1      30.574  25.208  24.139  1.00  0.00     0.177 C 
BRANCH  17  18
ATOM     18  S   UNL A   1      30.787  25.231  25.935  1.00  0.00     0.156 S 
ATOM     19  O   UNL A   1      31.411  23.967  26.291  1.00  0.00    -0.228 OA
ATOM     20  O   UNL A   1      29.506  25.559  26.538  1.00  0.00    -0.228 OA
BRANCH  18  21
ATOM     21  C   UNL A   1      31.913  26.551  26.385  1.00  0.00     0.165 C 
BRANCH  21  22
ATOM     22  C   UNL A   1      31.351  27.581  27.356  1.00  0.00     0.176 C 
BRANCH  22  23
ATOM     23  O   UNL A   1      31.770  28.918  27.078  1.00  0.00    -0.384 OA
ATOM     24  C   UNL A   1      31.770  29.240  25.701  1.00  0.00     0.194 C 
ENDBRANCH  22  23
ENDBRANCH  21  22
ENDBRANCH  18  21
ENDBRANCH  17  18
ENDBRANCH   9  17
ENDBRANCH   6   8
ENDBRANCH   5   6
ENDBRANCH   4   5
ENDBRANCH   3   4
ENDBRANCH   2   3
ENDBRANCH   1   2
BRANCH   1  25
ATOM     25  C   UNL A   1      34.890  21.647  25.919  1.00  0.00     0.188 C 
BRANCH  25  26
ATOM     26  O   UNL A   1      36.038  22.470  25.741  1.00  0.00    -0.377 OA
BRANCH  26  27
ATOM     27  C   UNL A   1      37.277  21.778  25.635  1.00  0.00     0.188 C 
BRANCH  27  28
ATOM     28  C   UNL A   1      38.579  22.578  25.866  1.00  0.00     0.188 C 
BRANCH  28  29
ATOM     29  O   UNL A   1      39.719  21.812  26.247  1.00  0.00    -0.376 OA
BRANCH  29  30
ATOM     30  C   UNL A   1      40.734  22.538  26.942  1.00  0.00     0.202 C 
BRANCH  30  31
ATOM     31  C   UNL A   1      40.335  23.968  27.335  1.00  0.00     0.261 C 
BRANCH  31  32
ATOM     32  O   UNL A   1      41.423  24.902  27.393  1.00  0.00    -0.460 OA
BRANCH  32  33
ATOM     33  C   UNL A   1      41.783  25.513  26.244  1.00  0.00     0.338 C 
ATOM     34  O   UNL A   1      41.045  25.953  25.382  1.00  0.00    -0.246 OA
BRANCH  33  35
ATOM     35  C   UNL A   1      43.239  25.765  26.307  1.00  0.00     0.060 A 
ATOM     36  C   UNL A   1      44.109  24.697  26.041  1.00  0.00     0.016 A 
ATOM     37  C   UNL A   1      43.747  27.048  26.539  1.00  0.00     0.016 A 
ATOM     38  C   UNL A   1      45.488  24.910  26.018  1.00  0.00     0.010 A 
ATOM     39  C   UNL A   1      45.128  27.253  26.548  1.00  0.00     0.010 A 
ATOM     40  C   UNL A   1      46.004  26.180  26.313  1.00  0.00    -0.014 A 
BRANCH  40  41
ATOM     41  C   UNL A   1      47.444  26.323  26.625  1.00  0.00     0.031 A 
ATOM     42  C   UNL A   1      48.368  26.662  25.488  1.00  0.00     0.074 A 
ATOM     43  C   UNL A   1      47.926  26.177  27.872  1.00  0.00     0.049 A 
ATOM     44  N   UNL A   1      49.663  26.840  25.493  1.00  0.00    -0.248 NA
ATOM     45  C   UNL A   1      47.740  26.823  24.164  1.00  0.00     0.031 C 
ATOM     46  C   UNL A   1      47.133  25.885  29.065  1.00  0.00     0.029 A 
ATOM     47  N   UNL A   1      49.216  26.254  28.335  1.00  0.00    -0.354 N 
ATOM     48  C   UNL A   1      50.001  27.142  24.179  1.00  0.00     0.074 A 
ATOM     49  C   UNL A   1      48.785  27.094  23.399  1.00  0.00     0.031 C 
ATOM     50  C   UNL A   1      47.959  25.798  30.124  1.00  0.00     0.029 A 
ATOM     51  C   UNL A   1      49.336  26.004  29.681  1.00  0.00     0.049 A 
ATOM     52  H   UNL A   1      49.984  26.469  27.757  1.00  0.00     0.167 HD
ATOM     53  C   UNL A   1      51.216  27.440  23.665  1.00  0.00     0.031 A 
ATOM     54  C   UNL A   1      50.437  25.936  30.455  1.00  0.00     0.031 A 
ATOM     55  C   UNL A   1      52.433  27.449  24.426  1.00  0.00     0.049 A 
ATOM     56  C   UNL A   1      51.792  26.179  29.838  1.00  0.00     0.074 A 
ATOM     57  C   UNL A   1      53.717  27.728  23.994  1.00  0.00     0.029 A 
ATOM     58  N   UNL A   1      52.516  27.150  25.776  1.00  0.00    -0.354 N 
ATOM     59  N   UNL A   1      52.096  26.501  28.604  1.00  0.00    -0.248 NA
ATOM     60  C   UNL A   1      52.958  26.057  30.730  1.00  0.00     0.031 C 
ATOM     61  C   UNL A   1      54.586  27.550  25.075  1.00  0.00     0.029 A 
ATOM     62  C   UNL A   1      53.834  27.215  26.190  1.00  0.00     0.049 A 
ATOM     63  H   UNL A   1      51.751  26.926  26.354  1.00  0.00     0.167 HD
ATOM     64  C   UNL A   1      53.479  26.647  28.577  1.00  0.00     0.074 A 
ATOM     65  C   UNL A   1      53.954  26.393  29.921  1.00  0.00     0.031 C 
ATOM     66  C   UNL A   1      54.284  26.964  27.535  1.00  0.00     0.031 A 
BRANCH  53  67
ATOM     67  C   UNL A   1      51.280  27.742  22.197  1.00  0.00    -0.014 A 
ATOM     68  C   UNL A   1      51.120  29.053  21.720  1.00  0.00     0.009 A 
ATOM     69  C   UNL A   1      51.514  26.707  21.280  1.00  0.00     0.009 A 
ATOM     70  C   UNL A   1      51.164  29.316  20.351  1.00  0.00     0.001 A 
ATOM     71  C   UNL A   1      51.583  26.976  19.913  1.00  0.00     0.001 A 
ATOM     72  C   UNL A   1      51.400  28.278  19.449  1.00  0.00     0.000 A 
ENDBRANCH  53  67
BRANCH  54  73
ATOM     73  C   UNL A   1      50.324  25.596  31.900  1.00  0.00    -0.014 A 
ATOM     74  C   UNL A   1      50.413  24.264  32.333  1.00  0.00     0.009 A 
ATOM     75  C   UNL A   1      50.076  26.601  32.848  1.00  0.00     0.009 A 
ATOM     76  C   UNL A   1      50.225  23.943  33.681  1.00  0.00     0.001 A 
ATOM     77  C   UNL A   1      49.916  26.280  34.198  1.00  0.00     0.001 A 
ATOM     78  C   UNL A   1      49.980  24.951  34.612  1.00  0.00     0.000 A 
ENDBRANCH  54  73
BRANCH  66  79
ATOM     79  C   UNL A   1      55.755  27.096  27.810  1.00  0.00    -0.014 A 
ATOM     80  C   UNL A   1      56.625  26.004  27.669  1.00  0.00     0.009 A 
ATOM     81  C   UNL A   1      56.286  28.348  28.160  1.00  0.00     0.009 A 
ATOM     82  C   UNL A   1      57.993  26.158  27.905  1.00  0.00     0.001 A 
ATOM     83  C   UNL A   1      57.656  28.505  28.366  1.00  0.00     0.001 A 
ATOM     84  C   UNL A   1      58.508  27.408  28.246  1.00  0.00     0.000 A 
ENDBRANCH  66  79
ENDBRANCH  40  41
ENDBRANCH  33  35
ENDBRANCH  32  33
ENDBRANCH  31  32
ENDBRANCH  30  31
ENDBRANCH  29  30
ENDBRANCH  28  29
ENDBRANCH  27  28
ENDBRANCH  26  27
ENDBRANCH  25  26
ENDBRANCH   1  25
TORSDOF 25
ENDMDL
MODEL 3
REMARK VINA RESULT:      -7.4      7.484     11.921
REMARK SMILES COCCS(=O)(=O)Cc1c(C(=O)OCCOCCOCCOCCOC(=O)c2ccc(-c3c4nc(c(-c5ccccc5)c5ccc([nH]5)c(-c5ccccc5)c5nc(c(-c6ccccc6)c6ccc3[nH]6)C=C5)C=C4)cc2)oc2ccccc12
REMARK SMILES IDX 17 1 16 2 15 3 14 4 13 5 11 6 12 7 10 8 9 9 82 10 76 11
REMARK SMILES IDX 77 12 81 13 78 14 80 15 79 16 8 17 5 18 6 19 7 20 4 21 3 22
REMARK SMILES IDX 2 23 1 24 18 25 19 26 20 27 21 28 22 29 23 30 24 31 25 32
REMARK SMILES IDX 26 33 27 34 28 35 29 36 75 37 30 38 74 39 31 40 32 41 33 42
REMARK SMILES IDX 68 43 34 44 73 45 67 46 69 47 35 48 72 49 66 50 65 51 36 53
REMARK SMILES IDX 58 54 43 55 57 56 44 57 47 58 56 59 70 60 45 61 46 62 55 64
REMARK SMILES IDX 71 65 48 66 37 67 38 68 42 69 39 70 41 71 40 72 59 73 60 74
REMARK SMILES IDX 64 75 61 76 63 77 62 78 49 79 50 80 54 81 51 82 53 83 52 84
REMARK H PARENT 69 52 47 63
REMARK Flexibility Score: inf
ROOT
ATOM      1  C   UNL A   1      39.291  29.361  30.130  1.00  0.00     0.188 C 
ENDROOT
BRANCH   1   2
ATOM      2  O   UNL A   1      40.272  28.474  29.607  1.00  0.00    -0.376 OA
BRANCH   2   3
ATOM      3  C   UNL A   1      40.570  28.514  28.214  1.00  0.00     0.202 C 
BRANCH   3   4
ATOM      4  C   UNL A   1      42.034  28.334  27.785  1.00  0.00     0.261 C 
BRANCH   4   5
ATOM      5  O   UNL A   1      42.216  27.275  26.827  1.00  0.00    -0.457 OA
BRANCH   5   6
ATOM      6  C   UNL A   1      42.623  27.620  25.574  1.00  0.00     0.374 C 
ATOM      7  O   UNL A   1      42.043  28.420  24.850  1.00  0.00    -0.242 OA
BRANCH   6   8
ATOM      8  C   UNL A   1      43.933  27.048  25.331  1.00  0.00     0.217 A 
ATOM      9  C   UNL A   1      44.412  25.733  25.301  1.00  0.00     0.028 A 
ATOM     10  C   UNL A   1      45.820  25.851  25.035  1.00  0.00     0.025 A 
ATOM     11  O   UNL A   1      44.929  27.910  24.958  1.00  0.00    -0.449 OA
ATOM     12  C   UNL A   1      46.065  27.196  24.801  1.00  0.00     0.135 A 
ATOM     13  C   UNL A   1      46.916  24.969  24.975  1.00  0.00     0.012 A 
ATOM     14  C   UNL A   1      47.306  27.736  24.475  1.00  0.00     0.048 A 
ATOM     15  C   UNL A   1      48.189  25.482  24.684  1.00  0.00     0.001 A 
ATOM     16  C   UNL A   1      48.378  26.843  24.430  1.00  0.00     0.004 A 
BRANCH   9  17
ATOM     17  C   UNL A   1      43.663  24.467  25.592  1.00  0.00     0.177 C 
BRANCH  17  18
ATOM     18  S   UNL A   1      43.907  23.668  27.197  1.00  0.00     0.156 S 
ATOM     19  O   UNL A   1      43.508  24.638  28.203  1.00  0.00    -0.228 OA
ATOM     20  O   UNL A   1      45.263  23.149  27.241  1.00  0.00    -0.228 OA
BRANCH  18  21
ATOM     21  C   UNL A   1      42.816  22.252  27.330  1.00  0.00     0.165 C 
BRANCH  21  22
ATOM     22  C   UNL A   1      41.706  22.187  26.288  1.00  0.00     0.176 C 
BRANCH  22  23
ATOM     23  O   UNL A   1      40.916  21.001  26.369  1.00  0.00    -0.384 OA
ATOM     24  C   UNL A   1      41.640  19.814  26.108  1.00  0.00     0.194 C 
ENDBRANCH  22  23
ENDBRANCH  21  22
ENDBRANCH  18  21
ENDBRANCH  17  18
ENDBRANCH   9  17
ENDBRANCH   6   8
ENDBRANCH   5   6
ENDBRANCH   4   5
ENDBRANCH   3   4
ENDBRANCH   2   3
ENDBRANCH   1   2
BRANCH   1  25
ATOM     25  C   UNL A   1      39.837  30.761  30.404  1.00  0.00     0.188 C 
BRANCH  25  26
ATOM     26  O   UNL A   1      39.883  31.128  31.778  1.00  0.00    -0.377 OA
BRANCH  26  27
ATOM     27  C   UNL A   1      38.714  30.827  32.532  1.00  0.00     0.188 C 
BRANCH  27  28
ATOM     28  C   UNL A   1      38.829  30.796  34.073  1.00  0.00     0.188 C 
BRANCH  28  29
ATOM     29  O   UNL A   1      37.846  31.544  34.784  1.00  0.00    -0.376 OA
BRANCH  29  30
ATOM     30  C   UNL A   1      36.968  32.322  33.969  1.00  0.00     0.202 C 
BRANCH  30  31
ATOM     31  C   UNL A   1      37.063  33.838  34.200  1.00  0.00     0.261 C 
BRANCH  31  32
ATOM     32  O   UNL A   1      37.935  34.532  33.295  1.00  0.00    -0.460 OA
BRANCH  32  33
ATOM     33  C   UNL A   1      37.673  34.429  31.975  1.00  0.00     0.338 C 
ATOM     34  O   UNL A   1      36.584  34.476  31.435  1.00  0.00    -0.246 OA
BRANCH  33  35
ATOM     35  C   UNL A   1      38.966  34.477  31.257  1.00  0.00     0.060 A 
ATOM     36  C   UNL A   1      40.146  34.427  32.012  1.00  0.00     0.016 A 
ATOM     37  C   UNL A   1      39.022  34.484  29.858  1.00  0.00     0.016 A 
ATOM     38  C   UNL A   1      41.385  34.394  31.370  1.00  0.00     0.010 A 
ATOM     39  C   UNL A   1      40.263  34.485  29.218  1.00  0.00     0.010 A 
ATOM     40  C   UNL A   1      41.449  34.466  29.971  1.00  0.00    -0.014 A 
BRANCH  40  41
ATOM     41  C   UNL A   1      42.740  34.778  29.319  1.00  0.00     0.031 A 
ATOM     42  C   UNL A   1      43.746  33.665  29.208  1.00  0.00     0.074 A 
ATOM     43  C   UNL A   1      43.018  35.997  28.823  1.00  0.00     0.049 A 
ATOM     44  N   UNL A   1      44.944  33.674  28.687  1.00  0.00    -0.248 NA
ATOM     45  C   UNL A   1      43.338  32.361  29.761  1.00  0.00     0.031 C 
ATOM     46  C   UNL A   1      42.119  37.148  28.835  1.00  0.00     0.029 A 
ATOM     47  N   UNL A   1      44.156  36.463  28.212  1.00  0.00    -0.354 N 
ATOM     48  C   UNL A   1      45.427  32.381  28.841  1.00  0.00     0.074 A 
ATOM     49  C   UNL A   1      44.409  31.620  29.530  1.00  0.00     0.031 C 
ATOM     50  C   UNL A   1      42.746  38.194  28.264  1.00  0.00     0.029 A 
ATOM     51  C   UNL A   1      44.094  37.792  27.871  1.00  0.00     0.049 A 
ATOM     52  H   UNL A   1      44.942  35.898  28.035  1.00  0.00     0.167 HD
ATOM     53  C   UNL A   1      46.612  31.866  28.440  1.00  0.00     0.031 A 
ATOM     54  C   UNL A   1      45.030  38.591  27.318  1.00  0.00     0.031 A 
ATOM     55  C   UNL A   1      47.643  32.626  27.793  1.00  0.00     0.049 A 
ATOM     56  C   UNL A   1      46.379  38.014  26.966  1.00  0.00     0.074 A 
ATOM     57  C   UNL A   1      48.884  32.198  27.356  1.00  0.00     0.029 A 
ATOM     58  N   UNL A   1      47.556  33.977  27.503  1.00  0.00    -0.354 N 
ATOM     59  N   UNL A   1      46.811  36.782  27.082  1.00  0.00    -0.248 NA
ATOM     60  C   UNL A   1      47.368  38.945  26.397  1.00  0.00     0.031 C 
ATOM     61  C   UNL A   1      49.568  33.305  26.845  1.00  0.00     0.029 A 
ATOM     62  C   UNL A   1      48.731  34.407  26.914  1.00  0.00     0.049 A 
ATOM     63  H   UNL A   1      46.774  34.547  27.687  1.00  0.00     0.167 HD
ATOM     64  C   UNL A   1      48.107  36.782  26.576  1.00  0.00     0.074 A 
ATOM     65  C   UNL A   1      48.385  38.134  26.139  1.00  0.00     0.031 C 
ATOM     66  C   UNL A   1      48.987  35.756  26.480  1.00  0.00     0.031 A 
BRANCH  53  67
ATOM     67  C   UNL A   1      46.859  30.416  28.732  1.00  0.00    -0.014 A 
ATOM     68  C   UNL A   1      47.510  30.015  29.911  1.00  0.00     0.009 A 
ATOM     69  C   UNL A   1      46.426  29.437  27.825  1.00  0.00     0.009 A 
ATOM     70  C   UNL A   1      47.748  28.663  30.160  1.00  0.00     0.001 A 
ATOM     71  C   UNL A   1      46.643  28.084  28.090  1.00  0.00     0.001 A 
ATOM     72  C   UNL A   1      47.311  27.699  29.252  1.00  0.00     0.000 A 
ENDBRANCH  53  67
BRANCH  54  73
ATOM     73  C   UNL A   1      44.748  40.033  27.082  1.00  0.00    -0.014 A 
ATOM     74  C   UNL A   1      44.136  40.459  25.894  1.00  0.00     0.009 A 
ATOM     75  C   UNL A   1      45.138  40.995  28.026  1.00  0.00     0.009 A 
ATOM     76  C   UNL A   1      43.948  41.821  25.643  1.00  0.00     0.001 A 
ATOM     77  C   UNL A   1      44.923  42.355  27.785  1.00  0.00     0.001 A 
ATOM     78  C   UNL A   1      44.338  42.767  26.589  1.00  0.00     0.000 A 
ENDBRANCH  54  73
BRANCH  66  79
ATOM     79  C   UNL A   1      50.317  36.041  25.844  1.00  0.00    -0.014 A 
ATOM     80  C   UNL A   1      51.450  36.335  26.620  1.00  0.00     0.009 A 
ATOM     81  C   UNL A   1      50.451  35.958  24.449  1.00  0.00     0.009 A 
ATOM     82  C   UNL A   1      52.682  36.570  26.006  1.00  0.00     0.001 A 
ATOM     83  C   UNL A   1      51.689  36.164  23.842  1.00  0.00     0.001 A 
ATOM     84  C   UNL A   1      52.802  36.478  24.620  1.00  0.00     0.000 A 
ENDBRANCH  66  79
ENDBRANCH  40  41
ENDBRANCH  33  35
ENDBRANCH  32  33
ENDBRANCH  31  32
ENDBRANCH  30  31
ENDBRANCH  29  30
ENDBRANCH  28  29
ENDBRANCH  27  28
ENDBRANCH  26  27
ENDBRANCH  25  26
ENDBRANCH   1  25
TORSDOF 25
ENDMDL
