MODEL 1
REMARK VINA RESULT:      -9.7      0.000      0.000
REMARK SMILES CSc1cccc(NC(=O)N[C@@H]2C=C[C@@H](C(=O)OCCOCCOCCOCCOC(=O)c3ccc(-c4c5nc(c(-c6ccccc6)c6ccc([nH]6)c(-c6ccccc6)c6nc(c(-c7ccccc7)c7ccc4[nH]7)C=C6)C=C5)cc3)C2)c1
REMARK SMILES IDX 23 1 22 2 21 3 20 4 19 5 18 6 16 7 17 8 15 9 12 10 13 11
REMARK SMILES IDX 81 12 14 13 11 14 8 15 9 16 10 18 7 20 3 21 4 22 82 23 5 24
REMARK SMILES IDX 6 25 2 26 1 27 24 28 25 29 26 30 27 31 28 32 29 33 30 34
REMARK SMILES IDX 31 35 32 36 33 37 34 38 80 39 35 40 79 41 36 42 37 43 38 44
REMARK SMILES IDX 73 45 39 46 78 47 72 48 74 49 40 50 77 51 71 52 70 53 41 55
REMARK SMILES IDX 63 56 48 57 62 58 49 59 52 60 61 61 75 62 50 63 51 64 60 66
REMARK SMILES IDX 76 67 53 68 42 69 43 70 47 71 44 72 46 73 45 74 64 75 65 76
REMARK SMILES IDX 69 77 66 78 68 79 67 80 54 81 55 82 59 83 56 84 58 85 57 86
REMARK H PARENT 8 17 11 19 74 54 52 65
REMARK Flexibility Score: inf
ROOT
ATOM      1  C   UNL A   1      33.423  33.823  28.188  1.00  0.00     0.188 C 
ENDROOT
BRANCH   1   2
ATOM      2  C   UNL A   1      34.560  32.777  28.279  1.00  0.00     0.188 C 
BRANCH   2   3
ATOM      3  O   UNL A   1      34.117  31.427  28.285  1.00  0.00    -0.376 OA
BRANCH   3   4
ATOM      4  C   UNL A   1      33.429  30.898  27.162  1.00  0.00     0.202 C 
BRANCH   4   5
ATOM      5  C   UNL A   1      33.207  29.381  27.098  1.00  0.00     0.261 C 
BRANCH   5   6
ATOM      6  O   UNL A   1      31.833  29.024  26.892  1.00  0.00    -0.463 OA
BRANCH   6   7
ATOM      7  C   UNL A   1      31.534  27.781  26.446  1.00  0.00     0.312 C 
ATOM      8  O   UNL A   1      31.277  26.836  27.179  1.00  0.00    -0.252 OA
BRANCH   7   9
ATOM      9  C   UNL A   1      31.366  27.772  24.916  1.00  0.00     0.124 C 
ATOM     10  C   UNL A   1      32.181  26.089  23.287  1.00  0.00     0.107 C 
ATOM     11  C   UNL A   1      30.726  25.966  23.554  1.00  0.00    -0.006 C 
ATOM     12  C   UNL A   1      32.574  27.340  24.063  1.00  0.00     0.048 C 
ATOM     13  C   UNL A   1      30.292  26.836  24.469  1.00  0.00    -0.014 C 
BRANCH  10  14
ATOM     14  N   UNL A   1      32.492  26.150  21.874  1.00  0.00    -0.332 N 
ATOM     15  N   UNL A   1      33.083  23.919  21.293  1.00  0.00    -0.308 N 
ATOM     16  C   UNL A   1      32.884  25.221  20.974  1.00  0.00     0.319 C 
ATOM     17  H   UNL A   1      33.012  23.297  20.533  1.00  0.00     0.171 HD
ATOM     18  O   UNL A   1      32.931  25.559  19.788  1.00  0.00    -0.248 OA
ATOM     19  H   UNL A   1      32.401  27.052  21.491  1.00  0.00     0.165 HD
BRANCH  15  20
ATOM     20  C   UNL A   1      33.374  23.309  22.518  1.00  0.00     0.043 A 
ATOM     21  C   UNL A   1      32.527  22.499  24.636  1.00  0.00     0.009 A 
ATOM     22  C   UNL A   1      33.827  22.571  25.155  1.00  0.00     0.015 A 
ATOM     23  C   UNL A   1      32.310  22.847  23.299  1.00  0.00     0.041 A 
ATOM     24  C   UNL A   1      34.905  22.889  24.330  1.00  0.00     0.003 A 
ATOM     25  C   UNL A   1      34.679  23.206  22.994  1.00  0.00     0.026 A 
BRANCH  21  26
ATOM     26  S   UNL A   1      31.241  21.904  25.723  1.00  0.00    -0.130 SA
ATOM     27  C   UNL A   1      30.758  23.397  26.630  1.00  0.00     0.091 C 
ENDBRANCH  21  26
ENDBRANCH  15  20
ENDBRANCH  10  14
ENDBRANCH   7   9
ENDBRANCH   6   7
ENDBRANCH   5   6
ENDBRANCH   4   5
ENDBRANCH   3   4
ENDBRANCH   2   3
ENDBRANCH   1   2
BRANCH   1  28
ATOM     28  O   UNL A   1      33.041  34.681  29.251  1.00  0.00    -0.377 OA
BRANCH  28  29
ATOM     29  C   UNL A   1      34.074  35.253  30.028  1.00  0.00     0.188 C 
BRANCH  29  30
ATOM     30  C   UNL A   1      33.627  35.485  31.479  1.00  0.00     0.188 C 
BRANCH  30  31
ATOM     31  O   UNL A   1      33.238  34.278  32.132  1.00  0.00    -0.376 OA
BRANCH  31  32
ATOM     32  C   UNL A   1      34.251  33.303  32.351  1.00  0.00     0.202 C 
BRANCH  32  33
ATOM     33  C   UNL A   1      35.178  33.432  33.578  1.00  0.00     0.261 C 
BRANCH  33  34
ATOM     34  O   UNL A   1      36.596  33.356  33.345  1.00  0.00    -0.460 OA
BRANCH  34  35
ATOM     35  C   UNL A   1      37.291  32.367  33.936  1.00  0.00     0.338 C 
ATOM     36  O   UNL A   1      37.141  31.927  35.065  1.00  0.00    -0.246 OA
BRANCH  35  37
ATOM     37  C   UNL A   1      38.148  31.741  32.905  1.00  0.00     0.060 A 
ATOM     38  C   UNL A   1      39.082  30.775  33.303  1.00  0.00     0.016 A 
ATOM     39  C   UNL A   1      38.014  32.077  31.555  1.00  0.00     0.016 A 
ATOM     40  C   UNL A   1      39.899  30.158  32.358  1.00  0.00     0.010 A 
ATOM     41  C   UNL A   1      38.860  31.486  30.611  1.00  0.00     0.010 A 
ATOM     42  C   UNL A   1      39.828  30.548  31.015  1.00  0.00    -0.014 A 
BRANCH  42  43
ATOM     43  C   UNL A   1      40.916  30.141  30.094  1.00  0.00     0.031 A 
ATOM     44  C   UNL A   1      40.772  28.830  29.369  1.00  0.00     0.074 A 
ATOM     45  C   UNL A   1      41.975  30.934  29.855  1.00  0.00     0.049 A 
ATOM     46  N   UNL A   1      41.573  28.268  28.500  1.00  0.00    -0.248 NA
ATOM     47  C   UNL A   1      39.557  28.051  29.660  1.00  0.00     0.031 C 
ATOM     48  C   UNL A   1      42.202  32.249  30.448  1.00  0.00     0.029 A 
ATOM     49  N   UNL A   1      43.058  30.740  29.035  1.00  0.00    -0.354 N 
ATOM     50  C   UNL A   1      40.960  27.072  28.145  1.00  0.00     0.074 A 
ATOM     51  C   UNL A   1      39.740  26.973  28.915  1.00  0.00     0.031 C 
ATOM     52  C   UNL A   1      43.359  32.745  29.974  1.00  0.00     0.029 A 
ATOM     53  C   UNL A   1      43.966  31.770  29.069  1.00  0.00     0.049 A 
ATOM     54  H   UNL A   1      43.174  29.939  28.475  1.00  0.00     0.167 HD
ATOM     55  C   UNL A   1      41.372  26.142  27.254  1.00  0.00     0.031 A 
ATOM     56  C   UNL A   1      45.158  31.899  28.454  1.00  0.00     0.031 A 
ATOM     57  C   UNL A   1      42.597  26.226  26.505  1.00  0.00     0.049 A 
ATOM     58  C   UNL A   1      45.640  30.803  27.538  1.00  0.00     0.074 A 
ATOM     59  C   UNL A   1      43.100  25.336  25.573  1.00  0.00     0.029 A 
ATOM     60  N   UNL A   1      43.517  27.257  26.615  1.00  0.00    -0.354 N 
ATOM     61  N   UNL A   1      45.040  29.690  27.188  1.00  0.00    -0.248 NA
ATOM     62  C   UNL A   1      46.964  30.988  26.925  1.00  0.00     0.031 C 
ATOM     63  C   UNL A   1      44.358  25.794  25.169  1.00  0.00     0.029 A 
ATOM     64  C   UNL A   1      44.603  27.007  25.792  1.00  0.00     0.049 A 
ATOM     65  H   UNL A   1      43.415  28.047  27.192  1.00  0.00     0.167 HD
ATOM     66  C   UNL A   1      45.897  29.061  26.292  1.00  0.00     0.074 A 
ATOM     67  C   UNL A   1      47.049  29.924  26.138  1.00  0.00     0.031 C 
ATOM     68  C   UNL A   1      45.746  27.874  25.652  1.00  0.00     0.031 A 
BRANCH  55  69
ATOM     69  C   UNL A   1      40.505  24.926  27.076  1.00  0.00    -0.014 A 
ATOM     70  C   UNL A   1      39.283  24.989  26.387  1.00  0.00     0.009 A 
ATOM     71  C   UNL A   1      40.932  23.690  27.586  1.00  0.00     0.009 A 
ATOM     72  C   UNL A   1      38.492  23.847  26.243  1.00  0.00     0.001 A 
ATOM     73  C   UNL A   1      40.155  22.544  27.413  1.00  0.00     0.001 A 
ATOM     74  C   UNL A   1      38.932  22.624  26.750  1.00  0.00     0.000 A 
ENDBRANCH  55  69
BRANCH  56  75
ATOM     75  C   UNL A   1      46.002  33.101  28.696  1.00  0.00    -0.014 A 
ATOM     76  C   UNL A   1      45.897  34.234  27.875  1.00  0.00     0.009 A 
ATOM     77  C   UNL A   1      46.948  33.105  29.733  1.00  0.00     0.009 A 
ATOM     78  C   UNL A   1      46.741  35.331  28.068  1.00  0.00     0.001 A 
ATOM     79  C   UNL A   1      47.769  34.214  29.945  1.00  0.00     0.001 A 
ATOM     80  C   UNL A   1      47.673  35.322  29.105  1.00  0.00     0.000 A 
ENDBRANCH  56  75
BRANCH  68  81
ATOM     81  C   UNL A   1      46.832  27.459  24.697  1.00  0.00    -0.014 A 
ATOM     82  C   UNL A   1      47.028  28.121  23.475  1.00  0.00     0.009 A 
ATOM     83  C   UNL A   1      47.698  26.409  25.045  1.00  0.00     0.009 A 
ATOM     84  C   UNL A   1      48.039  27.709  22.603  1.00  0.00     0.001 A 
ATOM     85  C   UNL A   1      48.729  26.024  24.188  1.00  0.00     0.001 A 
ATOM     86  C   UNL A   1      48.890  26.666  22.962  1.00  0.00     0.000 A 
ENDBRANCH  68  81
ENDBRANCH  42  43
ENDBRANCH  35  37
ENDBRANCH  34  35
ENDBRANCH  33  34
ENDBRANCH  32  33
ENDBRANCH  31  32
ENDBRANCH  30  31
ENDBRANCH  29  30
ENDBRANCH  28  29
ENDBRANCH   1  28
TORSDOF 23
ENDMDL
MODEL 2
REMARK VINA RESULT:      -9.4      4.879      6.718
REMARK SMILES CSc1cccc(NC(=O)N[C@@H]2C=C[C@@H](C(=O)OCCOCCOCCOCCOC(=O)c3ccc(-c4c5nc(c(-c6ccccc6)c6ccc([nH]6)c(-c6ccccc6)c6nc(c(-c7ccccc7)c7ccc4[nH]7)C=C6)C=C5)cc3)C2)c1
REMARK SMILES IDX 23 1 22 2 21 3 20 4 19 5 18 6 16 7 17 8 15 9 12 10 13 11
REMARK SMILES IDX 81 12 14 13 11 14 8 15 9 16 10 18 7 20 3 21 4 22 82 23 5 24
REMARK SMILES IDX 6 25 2 26 1 27 24 28 25 29 26 30 27 31 28 32 29 33 30 34
REMARK SMILES IDX 31 35 32 36 33 37 34 38 80 39 35 40 79 41 36 42 37 43 38 44
REMARK SMILES IDX 73 45 39 46 78 47 72 48 74 49 40 50 77 51 71 52 70 53 41 55
REMARK SMILES IDX 63 56 48 57 62 58 49 59 52 60 61 61 75 62 50 63 51 64 60 66
REMARK SMILES IDX 76 67 53 68 42 69 43 70 47 71 44 72 46 73 45 74 64 75 65 76
REMARK SMILES IDX 69 77 66 78 68 79 67 80 54 81 55 82 59 83 56 84 58 85 57 86
REMARK H PARENT 8 17 11 19 74 54 52 65
REMARK Flexibility Score: inf
ROOT
ATOM      1  C   UNL A   1      35.933  33.108  28.074  1.00  0.00     0.188 C 
ENDROOT
BRANCH   1   2
ATOM      2  C   UNL A   1      37.357  32.648  28.468  1.00  0.00     0.188 C 
BRANCH   2   3
ATOM      3  O   UNL A   1      37.398  31.439  29.213  1.00  0.00    -0.376 OA
BRANCH   3   4
ATOM      4  C   UNL A   1      38.463  30.520  29.021  1.00  0.00     0.202 C 
BRANCH   4   5
ATOM      5  C   UNL A   1      38.124  29.025  28.949  1.00  0.00     0.261 C 
BRANCH   5   6
ATOM      6  O   UNL A   1      39.160  28.246  28.335  1.00  0.00    -0.463 OA
BRANCH   6   7
ATOM      7  C   UNL A   1      40.413  28.297  28.844  1.00  0.00     0.312 C 
ATOM      8  O   UNL A   1      40.739  27.788  29.908  1.00  0.00    -0.252 OA
BRANCH   7   9
ATOM      9  C   UNL A   1      41.397  28.894  27.823  1.00  0.00     0.124 C 
ATOM     10  C   UNL A   1      42.904  27.700  26.255  1.00  0.00     0.107 C 
ATOM     11  C   UNL A   1      41.703  28.256  25.581  1.00  0.00    -0.006 C 
ATOM     12  C   UNL A   1      42.778  28.226  27.681  1.00  0.00     0.048 C 
ATOM     13  C   UNL A   1      40.863  28.854  26.430  1.00  0.00    -0.014 C 
BRANCH  10  14
ATOM     14  N   UNL A   1      44.141  28.069  25.599  1.00  0.00    -0.332 N 
ATOM     15  N   UNL A   1      45.308  26.014  25.322  1.00  0.00    -0.308 N 
ATOM     16  C   UNL A   1      45.208  27.357  25.173  1.00  0.00     0.319 C 
ATOM     17  H   UNL A   1      45.919  25.577  24.686  1.00  0.00     0.171 HD
ATOM     18  O   UNL A   1      46.061  27.949  24.506  1.00  0.00    -0.248 OA
ATOM     19  H   UNL A   1      44.221  29.035  25.428  1.00  0.00     0.165 HD
BRANCH  15  20
ATOM     20  C   UNL A   1      44.691  25.142  26.227  1.00  0.00     0.043 A 
ATOM     21  C   UNL A   1      42.916  23.544  26.620  1.00  0.00     0.009 A 
ATOM     22  C   UNL A   1      43.064  23.756  27.997  1.00  0.00     0.015 A 
ATOM     23  C   UNL A   1      43.757  24.226  25.734  1.00  0.00     0.041 A 
ATOM     24  C   UNL A   1      44.096  24.556  28.486  1.00  0.00     0.003 A 
ATOM     25  C   UNL A   1      44.943  25.207  27.596  1.00  0.00     0.026 A 
BRANCH  21  26
ATOM     26  S   UNL A   1      41.686  22.358  26.099  1.00  0.00    -0.130 SA
ATOM     27  C   UNL A   1      40.952  21.824  27.667  1.00  0.00     0.091 C 
ENDBRANCH  21  26
ENDBRANCH  15  20
ENDBRANCH  10  14
ENDBRANCH   7   9
ENDBRANCH   6   7
ENDBRANCH   5   6
ENDBRANCH   4   5
ENDBRANCH   3   4
ENDBRANCH   2   3
ENDBRANCH   1   2
BRANCH   1  28
ATOM     28  O   UNL A   1      35.038  33.775  28.951  1.00  0.00    -0.377 OA
BRANCH  28  29
ATOM     29  C   UNL A   1      34.298  32.977  29.854  1.00  0.00     0.188 C 
BRANCH  29  30
ATOM     30  C   UNL A   1      35.063  32.752  31.167  1.00  0.00     0.188 C 
BRANCH  30  31
ATOM     31  O   UNL A   1      34.194  32.537  32.276  1.00  0.00    -0.376 OA
BRANCH  31  32
ATOM     32  C   UNL A   1      34.115  33.571  33.250  1.00  0.00     0.202 C 
BRANCH  32  33
ATOM     33  C   UNL A   1      35.306  33.810  34.202  1.00  0.00     0.261 C 
BRANCH  33  34
ATOM     34  O   UNL A   1      36.553  33.172  33.874  1.00  0.00    -0.460 OA
BRANCH  34  35
ATOM     35  C   UNL A   1      37.264  32.606  34.866  1.00  0.00     0.338 C 
ATOM     36  O   UNL A   1      36.962  32.532  36.047  1.00  0.00    -0.246 OA
BRANCH  35  37
ATOM     37  C   UNL A   1      38.399  31.884  34.249  1.00  0.00     0.060 A 
ATOM     38  C   UNL A   1      39.689  32.105  34.752  1.00  0.00     0.016 A 
ATOM     39  C   UNL A   1      38.196  30.976  33.206  1.00  0.00     0.016 A 
ATOM     40  C   UNL A   1      40.780  31.436  34.202  1.00  0.00     0.010 A 
ATOM     41  C   UNL A   1      39.296  30.335  32.628  1.00  0.00     0.010 A 
ATOM     42  C   UNL A   1      40.595  30.587  33.103  1.00  0.00    -0.014 A 
BRANCH  42  43
ATOM     43  C   UNL A   1      41.782  30.158  32.325  1.00  0.00     0.031 A 
ATOM     44  C   UNL A   1      42.452  28.868  32.716  1.00  0.00     0.074 A 
ATOM     45  C   UNL A   1      42.220  30.853  31.261  1.00  0.00     0.049 A 
ATOM     46  N   UNL A   1      43.487  28.273  32.179  1.00  0.00    -0.248 NA
ATOM     47  C   UNL A   1      41.874  28.153  33.866  1.00  0.00     0.031 C 
ATOM     48  C   UNL A   1      41.624  32.083  30.746  1.00  0.00     0.029 A 
ATOM     49  N   UNL A   1      43.275  30.609  30.418  1.00  0.00    -0.354 N 
ATOM     50  C   UNL A   1      43.682  27.117  32.926  1.00  0.00     0.074 A 
ATOM     51  C   UNL A   1      42.684  27.111  33.972  1.00  0.00     0.031 C 
ATOM     52  C   UNL A   1      42.327  32.490  29.674  1.00  0.00     0.029 A 
ATOM     53  C   UNL A   1      43.437  31.566  29.447  1.00  0.00     0.049 A 
ATOM     54  H   UNL A   1      43.860  29.821  30.501  1.00  0.00     0.167 HD
ATOM     55  C   UNL A   1      44.606  26.144  32.754  1.00  0.00     0.031 A 
ATOM     56  C   UNL A   1      44.386  31.690  28.498  1.00  0.00     0.031 A 
ATOM     57  C   UNL A   1      45.616  26.160  31.730  1.00  0.00     0.049 A 
ATOM     58  C   UNL A   1      45.463  30.641  28.388  1.00  0.00     0.074 A 
ATOM     59  C   UNL A   1      46.594  25.217  31.471  1.00  0.00     0.029 A 
ATOM     60  N   UNL A   1      45.782  27.179  30.805  1.00  0.00    -0.354 N 
ATOM     61  N   UNL A   1      45.621  29.538  29.080  1.00  0.00    -0.248 NA
ATOM     62  C   UNL A   1      46.488  30.851  27.354  1.00  0.00     0.031 C 
ATOM     63  C   UNL A   1      47.396  25.698  30.432  1.00  0.00     0.029 A 
ATOM     64  C   UNL A   1      46.871  26.904  29.995  1.00  0.00     0.049 A 
ATOM     65  H   UNL A   1      45.213  27.978  30.736  1.00  0.00     0.167 HD
ATOM     66  C   UNL A   1      46.742  28.911  28.546  1.00  0.00     0.074 A 
ATOM     67  C   UNL A   1      47.211  29.745  27.460  1.00  0.00     0.031 C 
ATOM     68  C   UNL A   1      47.330  27.747  28.920  1.00  0.00     0.031 A 
BRANCH  55  69
ATOM     69  C   UNL A   1      44.592  25.000  33.730  1.00  0.00    -0.014 A 
ATOM     70  C   UNL A   1      44.127  23.727  33.363  1.00  0.00     0.009 A 
ATOM     71  C   UNL A   1      45.077  25.195  35.033  1.00  0.00     0.009 A 
ATOM     72  C   UNL A   1      44.116  22.683  34.291  1.00  0.00     0.001 A 
ATOM     73  C   UNL A   1      45.096  24.141  35.948  1.00  0.00     0.001 A 
ATOM     74  C   UNL A   1      44.607  22.890  35.580  1.00  0.00     0.000 A 
ENDBRANCH  55  69
BRANCH  56  75
ATOM     75  C   UNL A   1      44.384  32.864  27.583  1.00  0.00    -0.014 A 
ATOM     76  C   UNL A   1      44.846  34.117  28.015  1.00  0.00     0.009 A 
ATOM     77  C   UNL A   1      43.883  32.744  26.277  1.00  0.00     0.009 A 
ATOM     78  C   UNL A   1      44.777  35.228  27.172  1.00  0.00     0.001 A 
ATOM     79  C   UNL A   1      43.845  33.849  25.424  1.00  0.00     0.001 A 
ATOM     80  C   UNL A   1      44.280  35.093  25.876  1.00  0.00     0.000 A 
ENDBRANCH  56  75
BRANCH  68  81
ATOM     81  C   UNL A   1      48.521  27.287  28.124  1.00  0.00    -0.014 A 
ATOM     82  C   UNL A   1      49.829  27.655  28.478  1.00  0.00     0.009 A 
ATOM     83  C   UNL A   1      48.333  26.440  27.020  1.00  0.00     0.009 A 
ATOM     84  C   UNL A   1      50.917  27.222  27.716  1.00  0.00     0.001 A 
ATOM     85  C   UNL A   1      49.424  25.979  26.282  1.00  0.00     0.001 A 
ATOM     86  C   UNL A   1      50.714  26.381  26.623  1.00  0.00     0.000 A 
ENDBRANCH  68  81
ENDBRANCH  42  43
ENDBRANCH  35  37
ENDBRANCH  34  35
ENDBRANCH  33  34
ENDBRANCH  32  33
ENDBRANCH  31  32
ENDBRANCH  30  31
ENDBRANCH  29  30
ENDBRANCH  28  29
ENDBRANCH   1  28
TORSDOF 23
ENDMDL
MODEL 3
REMARK VINA RESULT:      -9.2      3.997      7.793
REMARK SMILES CSc1cccc(NC(=O)N[C@@H]2C=C[C@@H](C(=O)OCCOCCOCCOCCOC(=O)c3ccc(-c4c5nc(c(-c6ccccc6)c6ccc([nH]6)c(-c6ccccc6)c6nc(c(-c7ccccc7)c7ccc4[nH]7)C=C6)C=C5)cc3)C2)c1
REMARK SMILES IDX 23 1 22 2 21 3 20 4 19 5 18 6 16 7 17 8 15 9 12 10 13 11
REMARK SMILES IDX 81 12 14 13 11 14 8 15 9 16 10 18 7 20 3 21 4 22 82 23 5 24
REMARK SMILES IDX 6 25 2 26 1 27 24 28 25 29 26 30 27 31 28 32 29 33 30 34
REMARK SMILES IDX 31 35 32 36 33 37 34 38 80 39 35 40 79 41 36 42 37 43 38 44
REMARK SMILES IDX 73 45 39 46 78 47 72 48 74 49 40 50 77 51 71 52 70 53 41 55
REMARK SMILES IDX 63 56 48 57 62 58 49 59 52 60 61 61 75 62 50 63 51 64 60 66
REMARK SMILES IDX 76 67 53 68 42 69 43 70 47 71 44 72 46 73 45 74 64 75 65 76
REMARK SMILES IDX 69 77 66 78 68 79 67 80 54 81 55 82 59 83 56 84 58 85 57 86
REMARK H PARENT 8 17 11 19 74 54 52 65
REMARK Flexibility Score: inf
ROOT
ATOM      1  C   UNL A   1      33.619  25.946  21.982  1.00  0.00     0.188 C 
ENDROOT
BRANCH   1   2
ATOM      2  C   UNL A   1      32.295  25.220  22.323  1.00  0.00     0.188 C 
BRANCH   2   3
ATOM      3  O   UNL A   1      31.506  25.870  23.309  1.00  0.00    -0.376 OA
BRANCH   3   4
ATOM      4  C   UNL A   1      30.127  25.560  23.437  1.00  0.00     0.202 C 
BRANCH   4   5
ATOM      5  C   UNL A   1      29.339  26.220  24.577  1.00  0.00     0.261 C 
BRANCH   5   6
ATOM      6  O   UNL A   1      29.400  25.477  25.802  1.00  0.00    -0.463 OA
BRANCH   6   7
ATOM      7  C   UNL A   1      30.607  25.228  26.364  1.00  0.00     0.312 C 
ATOM      8  O   UNL A   1      31.410  26.100  26.670  1.00  0.00    -0.252 OA
BRANCH   7   9
ATOM      9  C   UNL A   1      30.741  23.743  26.743  1.00  0.00     0.124 C 
ATOM     10  C   UNL A   1      32.147  22.001  25.675  1.00  0.00     0.107 C 
ATOM     11  C   UNL A   1      32.718  22.489  26.956  1.00  0.00    -0.006 C 
ATOM     12  C   UNL A   1      30.801  22.713  25.600  1.00  0.00     0.048 C 
ATOM     13  C   UNL A   1      31.991  23.464  27.509  1.00  0.00    -0.014 C 
BRANCH  10  14
ATOM     14  N   UNL A   1      32.054  20.557  25.612  1.00  0.00    -0.332 N 
ATOM     15  N   UNL A   1      34.294  19.827  25.279  1.00  0.00    -0.308 N 
ATOM     16  C   UNL A   1      32.972  19.580  25.445  1.00  0.00     0.319 C 
ATOM     17  H   UNL A   1      34.884  19.077  25.522  1.00  0.00     0.171 HD
ATOM     18  O   UNL A   1      32.596  18.413  25.584  1.00  0.00    -0.248 OA
ATOM     19  H   UNL A   1      31.135  20.219  25.710  1.00  0.00     0.165 HD
BRANCH  15  20
ATOM     20  C   UNL A   1      34.964  20.966  24.819  1.00  0.00     0.043 A 
ATOM     21  C   UNL A   1      36.592  22.695  25.289  1.00  0.00     0.009 A 
ATOM     22  C   UNL A   1      36.015  23.479  24.282  1.00  0.00     0.015 A 
ATOM     23  C   UNL A   1      36.075  21.419  25.537  1.00  0.00     0.041 A 
ATOM     24  C   UNL A   1      35.005  22.962  23.471  1.00  0.00     0.003 A 
ATOM     25  C   UNL A   1      34.518  21.682  23.709  1.00  0.00     0.026 A 
BRANCH  21  26
ATOM     26  S   UNL A   1      38.003  23.372  26.151  1.00  0.00    -0.130 SA
ATOM     27  C   UNL A   1      39.141  21.964  26.230  1.00  0.00     0.091 C 
ENDBRANCH  21  26
ENDBRANCH  15  20
ENDBRANCH  10  14
ENDBRANCH   7   9
ENDBRANCH   6   7
ENDBRANCH   5   6
ENDBRANCH   4   5
ENDBRANCH   3   4
ENDBRANCH   2   3
ENDBRANCH   1   2
BRANCH   1  28
ATOM     28  O   UNL A   1      33.696  27.266  21.467  1.00  0.00    -0.377 OA
BRANCH  28  29
ATOM     29  C   UNL A   1      34.030  28.298  22.372  1.00  0.00     0.188 C 
BRANCH  29  30
ATOM     30  C   UNL A   1      32.780  28.888  23.043  1.00  0.00     0.188 C 
BRANCH  30  31
ATOM     31  O   UNL A   1      32.750  28.650  24.449  1.00  0.00    -0.376 OA
BRANCH  31  32
ATOM     32  C   UNL A   1      32.918  29.775  25.303  1.00  0.00     0.202 C 
BRANCH  32  33
ATOM     33  C   UNL A   1      32.845  29.586  26.833  1.00  0.00     0.261 C 
BRANCH  33  34
ATOM     34  O   UNL A   1      34.091  29.513  27.550  1.00  0.00    -0.460 OA
BRANCH  34  35
ATOM     35  C   UNL A   1      34.725  30.661  27.852  1.00  0.00     0.338 C 
ATOM     36  O   UNL A   1      34.280  31.795  27.780  1.00  0.00    -0.246 OA
BRANCH  35  37
ATOM     37  C   UNL A   1      36.006  30.307  28.503  1.00  0.00     0.060 A 
ATOM     38  C   UNL A   1      37.190  30.868  28.003  1.00  0.00     0.016 A 
ATOM     39  C   UNL A   1      36.042  29.456  29.611  1.00  0.00     0.016 A 
ATOM     40  C   UNL A   1      38.414  30.565  28.597  1.00  0.00     0.010 A 
ATOM     41  C   UNL A   1      37.275  29.121  30.181  1.00  0.00     0.010 A 
ATOM     42  C   UNL A   1      38.467  29.650  29.655  1.00  0.00    -0.014 A 
BRANCH  42  43
ATOM     43  C   UNL A   1      39.781  29.084  30.044  1.00  0.00     0.031 A 
ATOM     44  C   UNL A   1      40.449  29.636  31.275  1.00  0.00     0.074 A 
ATOM     45  C   UNL A   1      40.343  28.067  29.368  1.00  0.00     0.049 A 
ATOM     46  N   UNL A   1      41.584  29.294  31.829  1.00  0.00    -0.248 NA
ATOM     47  C   UNL A   1      39.738  30.717  31.977  1.00  0.00     0.031 C 
ATOM     48  C   UNL A   1      39.771  27.407  28.197  1.00  0.00     0.029 A 
ATOM     49  N   UNL A   1      41.527  27.408  29.583  1.00  0.00    -0.354 N 
ATOM     50  C   UNL A   1      41.722  30.117  32.940  1.00  0.00     0.074 A 
ATOM     51  C   UNL A   1      40.574  30.997  32.963  1.00  0.00     0.031 C 
ATOM     52  C   UNL A   1      40.610  26.437  27.793  1.00  0.00     0.029 A 
ATOM     53  C   UNL A   1      41.788  26.428  28.657  1.00  0.00     0.049 A 
ATOM     54  H   UNL A   1      42.133  27.619  30.330  1.00  0.00     0.167 HD
ATOM     55  C   UNL A   1      42.711  30.137  33.863  1.00  0.00     0.031 A 
ATOM     56  C   UNL A   1      42.865  25.630  28.516  1.00  0.00     0.031 A 
ATOM     57  C   UNL A   1      43.865  29.280  33.828  1.00  0.00     0.049 A 
ATOM     58  C   UNL A   1      44.000  25.738  29.503  1.00  0.00     0.074 A 
ATOM     59  C   UNL A   1      44.920  29.220  34.721  1.00  0.00     0.029 A 
ATOM     60  N   UNL A   1      44.120  28.342  32.840  1.00  0.00    -0.354 N 
ATOM     61  N   UNL A   1      44.106  26.499  30.566  1.00  0.00    -0.248 NA
ATOM     62  C   UNL A   1      45.160  24.864  29.275  1.00  0.00     0.031 C 
ATOM     63  C   UNL A   1      45.848  28.294  34.236  1.00  0.00     0.029 A 
ATOM     64  C   UNL A   1      45.335  27.723  33.082  1.00  0.00     0.049 A 
ATOM     65  H   UNL A   1      43.528  28.147  32.079  1.00  0.00     0.167 HD
ATOM     66  C   UNL A   1      45.327  26.175  31.147  1.00  0.00     0.074 A 
ATOM     67  C   UNL A   1      45.916  25.134  30.330  1.00  0.00     0.031 C 
ATOM     68  C   UNL A   1      45.911  26.691  32.257  1.00  0.00     0.031 A 
BRANCH  55  69
ATOM     69  C   UNL A   1      42.605  31.154  34.966  1.00  0.00    -0.014 A 
ATOM     70  C   UNL A   1      42.129  30.808  36.240  1.00  0.00     0.009 A 
ATOM     71  C   UNL A   1      43.013  32.476  34.730  1.00  0.00     0.009 A 
ATOM     72  C   UNL A   1      42.032  31.774  37.245  1.00  0.00     0.001 A 
ATOM     73  C   UNL A   1      42.946  33.431  35.745  1.00  0.00     0.001 A 
ATOM     74  C   UNL A   1      42.447  33.082  36.998  1.00  0.00     0.000 A 
ENDBRANCH  55  69
BRANCH  56  75
ATOM     75  C   UNL A   1      42.945  24.670  27.382  1.00  0.00    -0.014 A 
ATOM     76  C   UNL A   1      43.366  25.087  26.110  1.00  0.00     0.009 A 
ATOM     77  C   UNL A   1      42.561  23.330  27.560  1.00  0.00     0.009 A 
ATOM     78  C   UNL A   1      43.371  24.194  25.036  1.00  0.00     0.001 A 
ATOM     79  C   UNL A   1      42.599  22.431  26.492  1.00  0.00     0.001 A 
ATOM     80  C   UNL A   1      42.992  22.866  25.228  1.00  0.00     0.000 A 
ENDBRANCH  56  75
BRANCH  68  81
ATOM     81  C   UNL A   1      47.234  26.110  32.677  1.00  0.00    -0.014 A 
ATOM     82  C   UNL A   1      48.449  26.631  32.205  1.00  0.00     0.009 A 
ATOM     83  C   UNL A   1      47.264  25.044  33.591  1.00  0.00     0.009 A 
ATOM     84  C   UNL A   1      49.663  26.067  32.605  1.00  0.00     0.001 A 
ATOM     85  C   UNL A   1      48.480  24.505  34.016  1.00  0.00     0.001 A 
ATOM     86  C   UNL A   1      49.677  25.010  33.512  1.00  0.00     0.000 A 
ENDBRANCH  68  81
ENDBRANCH  42  43
ENDBRANCH  35  37
ENDBRANCH  34  35
ENDBRANCH  33  34
ENDBRANCH  32  33
ENDBRANCH  31  32
ENDBRANCH  30  31
ENDBRANCH  29  30
ENDBRANCH  28  29
ENDBRANCH   1  28
TORSDOF 23
ENDMDL
