MODEL 1
REMARK VINA RESULT:      -9.1      0.000      0.000
REMARK SMILES CCn1c(SCC(=O)OCCOCCOCCOCCOC(=O)c2ccc(-c3c4nc(c(-c5ccccc5)c5ccc([nH]5)c(-c5ccccc5)c5nc(c(-c6ccccc6)c6ccc3[nH]6)C=C5)C=C4)cc2)nnc1-c1ccc(C)cc1
REMARK SMILES IDX 14 1 13 2 12 3 11 4 10 5 9 6 7 7 8 8 6 9 5 10 4 11 3 12
REMARK SMILES IDX 74 13 72 14 73 15 2 16 1 17 75 18 76 19 81 20 77 21 80 22
REMARK SMILES IDX 78 23 79 24 15 25 16 26 17 27 18 28 19 29 20 30 21 31 22 32
REMARK SMILES IDX 23 33 24 34 25 35 71 36 26 37 70 38 27 39 28 40 29 41 64 42
REMARK SMILES IDX 30 43 69 44 63 45 65 46 31 47 68 48 62 49 61 50 32 52 54 53
REMARK SMILES IDX 39 54 53 55 40 56 43 57 52 58 66 59 41 60 42 61 51 63 67 64
REMARK SMILES IDX 44 65 33 66 34 67 38 68 35 69 37 70 36 71 55 72 56 73 60 74
REMARK SMILES IDX 57 75 59 76 58 77 45 78 46 79 50 80 47 81 49 82 48 83
REMARK H PARENT 65 51 43 62
REMARK Flexibility Score: inf
ROOT
ATOM      1  C   UNL A   1      32.906  35.778  31.123  1.00  0.00     0.188 C 
ENDROOT
BRANCH   1   2
ATOM      2  C   UNL A   1      33.599  35.203  29.877  1.00  0.00     0.188 C 
BRANCH   2   3
ATOM      3  O   UNL A   1      32.738  34.325  29.176  1.00  0.00    -0.376 OA
BRANCH   3   4
ATOM      4  C   UNL A   1      33.301  33.733  28.014  1.00  0.00     0.202 C 
BRANCH   4   5
ATOM      5  C   UNL A   1      34.009  32.378  28.215  1.00  0.00     0.261 C 
BRANCH   5   6
ATOM      6  O   UNL A   1      33.443  31.210  27.551  1.00  0.00    -0.463 OA
BRANCH   6   7
ATOM      7  C   UNL A   1      34.187  30.092  27.358  1.00  0.00     0.316 C 
ATOM      8  O   UNL A   1      35.093  29.752  28.110  1.00  0.00    -0.251 OA
BRANCH   7   9
ATOM      9  C   UNL A   1      33.839  29.322  26.082  1.00  0.00     0.200 C 
BRANCH   9  10
ATOM     10  S   UNL A   1      32.107  28.976  25.782  1.00  0.00    -0.074 SA
BRANCH  10  11
ATOM     11  C   UNL A   1      31.630  27.298  25.815  1.00  0.00     0.192 A 
ATOM     12  N   UNL A   1      31.972  26.232  25.002  1.00  0.00    -0.302 N 
ATOM     13  C   UNL A   1      31.761  25.080  25.763  1.00  0.00     0.164 A 
ATOM     14  N   UNL A   1      31.073  26.814  26.906  1.00  0.00    -0.123 NA
ATOM     15  N   UNL A   1      31.134  25.448  26.867  1.00  0.00    -0.129 NA
BRANCH  12  16
ATOM     16  C   UNL A   1      32.397  26.293  23.623  1.00  0.00     0.123 C 
ATOM     17  C   UNL A   1      31.386  25.858  22.568  1.00  0.00     0.028 C 
ENDBRANCH  12  16
BRANCH  13  18
ATOM     18  C   UNL A   1      32.175  23.685  25.487  1.00  0.00     0.019 A 
ATOM     19  C   UNL A   1      32.966  22.988  26.415  1.00  0.00     0.012 A 
ATOM     20  C   UNL A   1      31.902  23.045  24.269  1.00  0.00     0.012 A 
ATOM     21  C   UNL A   1      33.408  21.678  26.158  1.00  0.00     0.004 A 
ATOM     22  C   UNL A   1      32.348  21.742  24.005  1.00  0.00     0.004 A 
ATOM     23  C   UNL A   1      33.091  21.041  24.954  1.00  0.00    -0.051 A 
ATOM     24  C   UNL A   1      33.511  19.622  24.699  1.00  0.00     0.044 C 
ENDBRANCH  13  18
ENDBRANCH  10  11
ENDBRANCH   9  10
ENDBRANCH   7   9
ENDBRANCH   6   7
ENDBRANCH   5   6
ENDBRANCH   4   5
ENDBRANCH   3   4
ENDBRANCH   2   3
ENDBRANCH   1   2
BRANCH   1  25
ATOM     25  O   UNL A   1      33.152  35.254  32.419  1.00  0.00    -0.377 OA
BRANCH  25  26
ATOM     26  C   UNL A   1      34.384  34.615  32.643  1.00  0.00     0.188 C 
BRANCH  26  27
ATOM     27  C   UNL A   1      34.348  33.324  33.480  1.00  0.00     0.188 C 
BRANCH  27  28
ATOM     28  O   UNL A   1      35.487  32.845  34.208  1.00  0.00    -0.376 OA
BRANCH  28  29
ATOM     29  C   UNL A   1      36.727  33.547  34.168  1.00  0.00     0.202 C 
BRANCH  29  30
ATOM     30  C   UNL A   1      37.891  32.745  33.594  1.00  0.00     0.261 C 
BRANCH  30  31
ATOM     31  O   UNL A   1      37.500  32.280  32.313  1.00  0.00    -0.460 OA
BRANCH  31  32
ATOM     32  C   UNL A   1      37.871  33.127  31.338  1.00  0.00     0.338 C 
ATOM     33  O   UNL A   1      37.611  34.321  31.260  1.00  0.00    -0.246 OA
BRANCH  32  34
ATOM     34  C   UNL A   1      38.561  32.325  30.327  1.00  0.00     0.060 A 
ATOM     35  C   UNL A   1      37.862  31.191  29.957  1.00  0.00     0.016 A 
ATOM     36  C   UNL A   1      39.950  32.473  30.119  1.00  0.00     0.016 A 
ATOM     37  C   UNL A   1      38.608  30.063  29.774  1.00  0.00     0.010 A 
ATOM     38  C   UNL A   1      40.697  31.342  29.905  1.00  0.00     0.010 A 
ATOM     39  C   UNL A   1      40.010  30.142  29.878  1.00  0.00    -0.014 A 
BRANCH  39  40
ATOM     40  C   UNL A   1      40.693  28.879  29.962  1.00  0.00     0.031 A 
ATOM     41  C   UNL A   1      41.150  28.583  31.323  1.00  0.00     0.074 A 
ATOM     42  C   UNL A   1      41.004  28.117  28.904  1.00  0.00     0.049 A 
ATOM     43  N   UNL A   1      42.338  28.763  31.787  1.00  0.00    -0.248 NA
ATOM     44  C   UNL A   1      40.126  28.257  32.318  1.00  0.00     0.031 C 
ATOM     45  C   UNL A   1      40.461  28.122  27.546  1.00  0.00     0.029 A 
ATOM     46  N   UNL A   1      41.885  27.088  28.888  1.00  0.00    -0.354 N 
ATOM     47  C   UNL A   1      42.259  28.424  33.125  1.00  0.00     0.074 A 
ATOM     48  C   UNL A   1      40.856  28.275  33.433  1.00  0.00     0.031 C 
ATOM     49  C   UNL A   1      40.858  26.988  26.917  1.00  0.00     0.029 A 
ATOM     50  C   UNL A   1      41.797  26.279  27.773  1.00  0.00     0.049 A 
ATOM     51  H   UNL A   1      42.533  26.928  29.612  1.00  0.00     0.167 HD
ATOM     52  C   UNL A   1      43.364  28.068  33.827  1.00  0.00     0.031 A 
ATOM     53  C   UNL A   1      42.399  25.075  27.637  1.00  0.00     0.031 A 
ATOM     54  C   UNL A   1      44.586  28.443  33.165  1.00  0.00     0.049 A 
ATOM     55  C   UNL A   1      43.542  25.029  28.587  1.00  0.00     0.074 A 
ATOM     56  C   UNL A   1      45.164  29.640  32.795  1.00  0.00     0.029 A 
ATOM     57  N   UNL A   1      45.229  27.472  32.434  1.00  0.00    -0.354 N 
ATOM     58  N   UNL A   1      44.613  25.757  28.449  1.00  0.00    -0.248 NA
ATOM     59  C   UNL A   1      43.318  24.509  29.929  1.00  0.00     0.031 C 
ATOM     60  C   UNL A   1      45.796  29.379  31.543  1.00  0.00     0.029 A 
ATOM     61  C   UNL A   1      45.596  28.032  31.236  1.00  0.00     0.049 A 
ATOM     62  H   UNL A   1      45.395  26.543  32.718  1.00  0.00     0.167 HD
ATOM     63  C   UNL A   1      44.955  26.143  29.738  1.00  0.00     0.074 A 
ATOM     64  C   UNL A   1      44.191  25.256  30.613  1.00  0.00     0.031 C 
ATOM     65  C   UNL A   1      45.604  27.322  29.975  1.00  0.00     0.031 A 
BRANCH  52  66
ATOM     66  C   UNL A   1      43.306  27.019  34.894  1.00  0.00    -0.014 A 
ATOM     67  C   UNL A   1      43.198  25.672  34.523  1.00  0.00     0.009 A 
ATOM     68  C   UNL A   1      43.078  27.336  36.250  1.00  0.00     0.009 A 
ATOM     69  C   UNL A   1      42.837  24.698  35.459  1.00  0.00     0.001 A 
ATOM     70  C   UNL A   1      42.760  26.362  37.193  1.00  0.00     0.001 A 
ATOM     71  C   UNL A   1      42.614  25.044  36.791  1.00  0.00     0.000 A 
ENDBRANCH  52  66
BRANCH  53  72
ATOM     72  C   UNL A   1      41.832  23.867  27.008  1.00  0.00    -0.014 A 
ATOM     73  C   UNL A   1      42.641  23.000  26.259  1.00  0.00     0.009 A 
ATOM     74  C   UNL A   1      40.547  23.420  27.371  1.00  0.00     0.009 A 
ATOM     75  C   UNL A   1      42.190  21.717  25.918  1.00  0.00     0.001 A 
ATOM     76  C   UNL A   1      40.096  22.143  27.028  1.00  0.00     0.001 A 
ATOM     77  C   UNL A   1      40.925  21.286  26.313  1.00  0.00     0.000 A 
ENDBRANCH  53  72
BRANCH  65  78
ATOM     78  C   UNL A   1      46.126  28.079  28.776  1.00  0.00    -0.014 A 
ATOM     79  C   UNL A   1      47.339  27.752  28.143  1.00  0.00     0.009 A 
ATOM     80  C   UNL A   1      45.311  29.057  28.186  1.00  0.00     0.009 A 
ATOM     81  C   UNL A   1      47.742  28.413  26.978  1.00  0.00     0.001 A 
ATOM     82  C   UNL A   1      45.705  29.702  27.011  1.00  0.00     0.001 A 
ATOM     83  C   UNL A   1      46.923  29.385  26.412  1.00  0.00     0.000 A 
ENDBRANCH  65  78
ENDBRANCH  39  40
ENDBRANCH  32  34
ENDBRANCH  31  32
ENDBRANCH  30  31
ENDBRANCH  29  30
ENDBRANCH  28  29
ENDBRANCH  27  28
ENDBRANCH  26  27
ENDBRANCH  25  26
ENDBRANCH   1  25
TORSDOF 24
ENDMDL
MODEL 2
REMARK VINA RESULT:      -8.9      4.519      9.408
REMARK SMILES CCn1c(SCC(=O)OCCOCCOCCOCCOC(=O)c2ccc(-c3c4nc(c(-c5ccccc5)c5ccc([nH]5)c(-c5ccccc5)c5nc(c(-c6ccccc6)c6ccc3[nH]6)C=C5)C=C4)cc2)nnc1-c1ccc(C)cc1
REMARK SMILES IDX 14 1 13 2 12 3 11 4 10 5 9 6 7 7 8 8 6 9 5 10 4 11 3 12
REMARK SMILES IDX 74 13 72 14 73 15 2 16 1 17 75 18 76 19 81 20 77 21 80 22
REMARK SMILES IDX 78 23 79 24 15 25 16 26 17 27 18 28 19 29 20 30 21 31 22 32
REMARK SMILES IDX 23 33 24 34 25 35 71 36 26 37 70 38 27 39 28 40 29 41 64 42
REMARK SMILES IDX 30 43 69 44 63 45 65 46 31 47 68 48 62 49 61 50 32 52 54 53
REMARK SMILES IDX 39 54 53 55 40 56 43 57 52 58 66 59 41 60 42 61 51 63 67 64
REMARK SMILES IDX 44 65 33 66 34 67 38 68 35 69 37 70 36 71 55 72 56 73 60 74
REMARK SMILES IDX 57 75 59 76 58 77 45 78 46 79 50 80 47 81 49 82 48 83
REMARK H PARENT 65 51 43 62
REMARK Flexibility Score: inf
ROOT
ATOM      1  C   UNL A   1      34.079  16.725  24.366  1.00  0.00     0.188 C 
ENDROOT
BRANCH   1   2
ATOM      2  C   UNL A   1      33.301  16.940  25.675  1.00  0.00     0.188 C 
BRANCH   2   3
ATOM      3  O   UNL A   1      32.157  17.745  25.459  1.00  0.00    -0.376 OA
BRANCH   3   4
ATOM      4  C   UNL A   1      32.262  18.661  24.379  1.00  0.00     0.202 C 
BRANCH   4   5
ATOM      5  C   UNL A   1      32.124  20.154  24.736  1.00  0.00     0.261 C 
BRANCH   5   6
ATOM      6  O   UNL A   1      32.798  21.124  23.881  1.00  0.00    -0.463 OA
BRANCH   6   7
ATOM      7  C   UNL A   1      32.209  21.577  22.745  1.00  0.00     0.316 C 
ATOM      8  O   UNL A   1      31.809  20.834  21.856  1.00  0.00    -0.251 OA
BRANCH   7   9
ATOM      9  C   UNL A   1      32.146  23.102  22.641  1.00  0.00     0.200 C 
BRANCH   9  10
ATOM     10  S   UNL A   1      30.747  23.917  23.407  1.00  0.00    -0.074 SA
BRANCH  10  11
ATOM     11  C   UNL A   1      31.100  24.969  24.754  1.00  0.00     0.192 A 
ATOM     12  N   UNL A   1      32.108  25.896  24.954  1.00  0.00    -0.302 N 
ATOM     13  C   UNL A   1      31.624  26.795  25.907  1.00  0.00     0.164 A 
ATOM     14  N   UNL A   1      30.167  25.182  25.659  1.00  0.00    -0.123 NA
ATOM     15  N   UNL A   1      30.497  26.295  26.384  1.00  0.00    -0.129 NA
BRANCH  12  16
ATOM     16  C   UNL A   1      33.419  25.897  24.349  1.00  0.00     0.123 C 
ATOM     17  C   UNL A   1      34.568  25.355  25.192  1.00  0.00     0.028 C 
ENDBRANCH  12  16
BRANCH  13  18
ATOM     18  C   UNL A   1      32.175  28.104  26.326  1.00  0.00     0.019 A 
ATOM     19  C   UNL A   1      33.235  28.161  27.246  1.00  0.00     0.012 A 
ATOM     20  C   UNL A   1      31.608  29.324  25.926  1.00  0.00     0.012 A 
ATOM     21  C   UNL A   1      33.748  29.392  27.693  1.00  0.00     0.004 A 
ATOM     22  C   UNL A   1      32.111  30.553  26.376  1.00  0.00     0.004 A 
ATOM     23  C   UNL A   1      33.196  30.598  27.250  1.00  0.00    -0.051 A 
ATOM     24  C   UNL A   1      33.777  31.915  27.679  1.00  0.00     0.044 C 
ENDBRANCH  13  18
ENDBRANCH  10  11
ENDBRANCH   9  10
ENDBRANCH   7   9
ENDBRANCH   6   7
ENDBRANCH   5   6
ENDBRANCH   4   5
ENDBRANCH   3   4
ENDBRANCH   2   3
ENDBRANCH   1   2
BRANCH   1  25
ATOM     25  O   UNL A   1      35.162  17.566  23.999  1.00  0.00    -0.377 OA
BRANCH  25  26
ATOM     26  C   UNL A   1      35.759  18.340  25.008  1.00  0.00     0.188 C 
BRANCH  26  27
ATOM     27  C   UNL A   1      35.654  19.869  24.857  1.00  0.00     0.188 C 
BRANCH  27  28
ATOM     28  O   UNL A   1      36.557  20.772  25.509  1.00  0.00    -0.376 OA
BRANCH  28  29
ATOM     29  C   UNL A   1      37.791  21.139  24.898  1.00  0.00     0.202 C 
BRANCH  29  30
ATOM     30  C   UNL A   1      38.791  21.803  25.841  1.00  0.00     0.261 C 
BRANCH  30  31
ATOM     31  O   UNL A   1      39.348  20.788  26.659  1.00  0.00    -0.460 OA
BRANCH  31  32
ATOM     32  C   UNL A   1      40.442  20.241  26.103  1.00  0.00     0.338 C 
ATOM     33  O   UNL A   1      40.502  19.198  25.463  1.00  0.00    -0.246 OA
BRANCH  32  34
ATOM     34  C   UNL A   1      41.575  21.078  26.499  1.00  0.00     0.060 A 
ATOM     35  C   UNL A   1      41.977  20.875  27.806  1.00  0.00     0.016 A 
ATOM     36  C   UNL A   1      41.894  22.245  25.770  1.00  0.00     0.016 A 
ATOM     37  C   UNL A   1      42.321  21.995  28.505  1.00  0.00     0.010 A 
ATOM     38  C   UNL A   1      42.269  23.364  26.470  1.00  0.00     0.010 A 
ATOM     39  C   UNL A   1      42.336  23.239  27.846  1.00  0.00    -0.014 A 
BRANCH  39  40
ATOM     40  C   UNL A   1      42.422  24.390  28.705  1.00  0.00     0.031 A 
ATOM     41  C   UNL A   1      41.466  25.436  28.330  1.00  0.00     0.074 A 
ATOM     42  C   UNL A   1      43.354  24.556  29.654  1.00  0.00     0.049 A 
ATOM     43  N   UNL A   1      41.719  26.485  27.625  1.00  0.00    -0.248 NA
ATOM     44  C   UNL A   1      40.049  25.172  28.586  1.00  0.00     0.031 C 
ATOM     45  C   UNL A   1      44.217  23.574  30.310  1.00  0.00     0.029 A 
ATOM     46  N   UNL A   1      43.662  25.717  30.281  1.00  0.00    -0.354 N 
ATOM     47  C   UNL A   1      40.499  27.116  27.467  1.00  0.00     0.074 A 
ATOM     48  C   UNL A   1      39.491  26.194  27.937  1.00  0.00     0.031 C 
ATOM     49  C   UNL A   1      44.775  24.151  31.404  1.00  0.00     0.029 A 
ATOM     50  C   UNL A   1      44.429  25.565  31.418  1.00  0.00     0.049 A 
ATOM     51  H   UNL A   1      43.363  26.596  29.953  1.00  0.00     0.167 HD
ATOM     52  C   UNL A   1      40.423  28.438  27.175  1.00  0.00     0.031 A 
ATOM     53  C   UNL A   1      44.666  26.536  32.330  1.00  0.00     0.031 A 
ATOM     54  C   UNL A   1      41.671  28.971  26.693  1.00  0.00     0.049 A 
ATOM     55  C   UNL A   1      44.451  27.847  31.664  1.00  0.00     0.074 A 
ATOM     56  C   UNL A   1      42.468  28.736  25.591  1.00  0.00     0.029 A 
ATOM     57  N   UNL A   1      42.467  29.628  27.602  1.00  0.00    -0.354 N 
ATOM     58  N   UNL A   1      45.234  28.311  30.733  1.00  0.00    -0.248 NA
ATOM     59  C   UNL A   1      43.125  28.448  31.709  1.00  0.00     0.031 C 
ATOM     60  C   UNL A   1      43.808  28.852  26.067  1.00  0.00     0.029 A 
ATOM     61  C   UNL A   1      43.752  29.182  27.423  1.00  0.00     0.049 A 
ATOM     62  H   UNL A   1      42.169  30.297  28.261  1.00  0.00     0.167 HD
ATOM     63  C   UNL A   1      44.386  28.928  29.823  1.00  0.00     0.074 A 
ATOM     64  C   UNL A   1      43.117  29.077  30.530  1.00  0.00     0.031 C 
ATOM     65  C   UNL A   1      44.707  29.002  28.496  1.00  0.00     0.031 A 
BRANCH  52  66
ATOM     66  C   UNL A   1      39.332  29.300  27.730  1.00  0.00    -0.014 A 
ATOM     67  C   UNL A   1      39.404  29.718  29.065  1.00  0.00     0.009 A 
ATOM     68  C   UNL A   1      38.103  29.482  27.061  1.00  0.00     0.009 A 
ATOM     69  C   UNL A   1      38.284  30.253  29.709  1.00  0.00     0.001 A 
ATOM     70  C   UNL A   1      36.999  30.056  27.686  1.00  0.00     0.001 A 
ATOM     71  C   UNL A   1      37.082  30.418  29.021  1.00  0.00     0.000 A 
ENDBRANCH  52  66
BRANCH  53  72
ATOM     72  C   UNL A   1      44.714  26.381  33.797  1.00  0.00    -0.014 A 
ATOM     73  C   UNL A   1      45.871  26.712  34.517  1.00  0.00     0.009 A 
ATOM     74  C   UNL A   1      43.526  26.164  34.521  1.00  0.00     0.009 A 
ATOM     75  C   UNL A   1      45.829  26.854  35.911  1.00  0.00     0.001 A 
ATOM     76  C   UNL A   1      43.485  26.303  35.911  1.00  0.00     0.001 A 
ATOM     77  C   UNL A   1      44.636  26.662  36.604  1.00  0.00     0.000 A 
ENDBRANCH  53  72
BRANCH  65  78
ATOM     78  C   UNL A   1      46.104  28.589  28.096  1.00  0.00    -0.014 A 
ATOM     79  C   UNL A   1      46.436  27.262  27.764  1.00  0.00     0.009 A 
ATOM     80  C   UNL A   1      47.079  29.582  27.918  1.00  0.00     0.009 A 
ATOM     81  C   UNL A   1      47.716  26.935  27.306  1.00  0.00     0.001 A 
ATOM     82  C   UNL A   1      48.352  29.257  27.442  1.00  0.00     0.001 A 
ATOM     83  C   UNL A   1      48.672  27.934  27.143  1.00  0.00     0.000 A 
ENDBRANCH  65  78
ENDBRANCH  39  40
ENDBRANCH  32  34
ENDBRANCH  31  32
ENDBRANCH  30  31
ENDBRANCH  29  30
ENDBRANCH  28  29
ENDBRANCH  27  28
ENDBRANCH  26  27
ENDBRANCH  25  26
ENDBRANCH   1  25
TORSDOF 24
ENDMDL
MODEL 3
REMARK VINA RESULT:      -8.8      4.480      9.393
REMARK SMILES CCn1c(SCC(=O)OCCOCCOCCOCCOC(=O)c2ccc(-c3c4nc(c(-c5ccccc5)c5ccc([nH]5)c(-c5ccccc5)c5nc(c(-c6ccccc6)c6ccc3[nH]6)C=C5)C=C4)cc2)nnc1-c1ccc(C)cc1
REMARK SMILES IDX 14 1 13 2 12 3 11 4 10 5 9 6 7 7 8 8 6 9 5 10 4 11 3 12
REMARK SMILES IDX 74 13 72 14 73 15 2 16 1 17 75 18 76 19 81 20 77 21 80 22
REMARK SMILES IDX 78 23 79 24 15 25 16 26 17 27 18 28 19 29 20 30 21 31 22 32
REMARK SMILES IDX 23 33 24 34 25 35 71 36 26 37 70 38 27 39 28 40 29 41 64 42
REMARK SMILES IDX 30 43 69 44 63 45 65 46 31 47 68 48 62 49 61 50 32 52 54 53
REMARK SMILES IDX 39 54 53 55 40 56 43 57 52 58 66 59 41 60 42 61 51 63 67 64
REMARK SMILES IDX 44 65 33 66 34 67 38 68 35 69 37 70 36 71 55 72 56 73 60 74
REMARK SMILES IDX 57 75 59 76 58 77 45 78 46 79 50 80 47 81 49 82 48 83
REMARK H PARENT 65 51 43 62
REMARK Flexibility Score: inf
ROOT
ATOM      1  C   UNL A   1      34.257  16.693  24.160  1.00  0.00     0.188 C 
ENDROOT
BRANCH   1   2
ATOM      2  C   UNL A   1      33.311  16.753  25.370  1.00  0.00     0.188 C 
BRANCH   2   3
ATOM      3  O   UNL A   1      32.217  17.616  25.119  1.00  0.00    -0.376 OA
BRANCH   3   4
ATOM      4  C   UNL A   1      32.226  18.241  23.844  1.00  0.00     0.202 C 
BRANCH   4   5
ATOM      5  C   UNL A   1      32.103  19.777  23.837  1.00  0.00     0.261 C 
BRANCH   5   6
ATOM      6  O   UNL A   1      31.977  20.456  25.121  1.00  0.00    -0.463 OA
BRANCH   6   7
ATOM      7  C   UNL A   1      31.860  21.806  25.186  1.00  0.00     0.316 C 
ATOM      8  O   UNL A   1      31.302  22.472  24.321  1.00  0.00    -0.251 OA
BRANCH   7   9
ATOM      9  C   UNL A   1      32.541  22.434  26.404  1.00  0.00     0.200 C 
BRANCH   9  10
ATOM     10  S   UNL A   1      33.471  23.942  26.134  1.00  0.00    -0.074 SA
BRANCH  10  11
ATOM     11  C   UNL A   1      32.550  25.422  26.056  1.00  0.00     0.192 A 
ATOM     12  N   UNL A   1      32.376  26.340  25.036  1.00  0.00    -0.302 N 
ATOM     13  C   UNL A   1      31.173  26.997  25.308  1.00  0.00     0.164 A 
ATOM     14  N   UNL A   1      31.628  25.648  26.969  1.00  0.00    -0.123 NA
ATOM     15  N   UNL A   1      30.790  26.632  26.519  1.00  0.00    -0.129 NA
BRANCH  12  16
ATOM     16  C   UNL A   1      33.284  26.612  23.947  1.00  0.00     0.123 C 
ATOM     17  C   UNL A   1      33.798  28.041  23.817  1.00  0.00     0.028 C 
ENDBRANCH  12  16
BRANCH  13  18
ATOM     18  C   UNL A   1      30.383  27.903  24.442  1.00  0.00     0.019 A 
ATOM     19  C   UNL A   1      29.398  27.381  23.588  1.00  0.00     0.012 A 
ATOM     20  C   UNL A   1      30.649  29.277  24.348  1.00  0.00     0.012 A 
ATOM     21  C   UNL A   1      28.664  28.214  22.725  1.00  0.00     0.004 A 
ATOM     22  C   UNL A   1      29.925  30.110  23.483  1.00  0.00     0.004 A 
ATOM     23  C   UNL A   1      28.915  29.589  22.676  1.00  0.00    -0.051 A 
ATOM     24  C   UNL A   1      28.095  30.491  21.799  1.00  0.00     0.044 C 
ENDBRANCH  13  18
ENDBRANCH  10  11
ENDBRANCH   9  10
ENDBRANCH   7   9
ENDBRANCH   6   7
ENDBRANCH   5   6
ENDBRANCH   4   5
ENDBRANCH   3   4
ENDBRANCH   2   3
ENDBRANCH   1   2
BRANCH   1  25
ATOM     25  O   UNL A   1      35.125  17.770  23.840  1.00  0.00    -0.377 OA
BRANCH  25  26
ATOM     26  C   UNL A   1      35.732  18.457  24.906  1.00  0.00     0.188 C 
BRANCH  26  27
ATOM     27  C   UNL A   1      35.214  19.879  25.192  1.00  0.00     0.188 C 
BRANCH  27  28
ATOM     28  O   UNL A   1      36.016  21.048  24.978  1.00  0.00    -0.376 OA
BRANCH  28  29
ATOM     29  C   UNL A   1      37.378  20.936  24.571  1.00  0.00     0.202 C 
BRANCH  29  30
ATOM     30  C   UNL A   1      38.347  21.817  25.353  1.00  0.00     0.261 C 
BRANCH  30  31
ATOM     31  O   UNL A   1      38.911  21.025  26.383  1.00  0.00    -0.460 OA
BRANCH  31  32
ATOM     32  C   UNL A   1      39.969  20.319  25.950  1.00  0.00     0.338 C 
ATOM     33  O   UNL A   1      39.947  19.268  25.322  1.00  0.00    -0.246 OA
BRANCH  32  34
ATOM     34  C   UNL A   1      41.161  20.993  26.465  1.00  0.00     0.060 A 
ATOM     35  C   UNL A   1      41.358  20.799  27.819  1.00  0.00     0.016 A 
ATOM     36  C   UNL A   1      41.749  22.059  25.748  1.00  0.00     0.016 A 
ATOM     37  C   UNL A   1      41.785  21.889  28.522  1.00  0.00     0.010 A 
ATOM     38  C   UNL A   1      42.205  23.142  26.456  1.00  0.00     0.010 A 
ATOM     39  C   UNL A   1      42.078  23.080  27.832  1.00  0.00    -0.014 A 
BRANCH  39  40
ATOM     40  C   UNL A   1      42.235  24.247  28.657  1.00  0.00     0.031 A 
ATOM     41  C   UNL A   1      41.263  25.295  28.331  1.00  0.00     0.074 A 
ATOM     42  C   UNL A   1      43.236  24.425  29.532  1.00  0.00     0.049 A 
ATOM     43  N   UNL A   1      41.471  26.326  27.587  1.00  0.00    -0.248 NA
ATOM     44  C   UNL A   1      39.866  25.049  28.696  1.00  0.00     0.031 C 
ATOM     45  C   UNL A   1      44.137  23.449  30.144  1.00  0.00     0.029 A 
ATOM     46  N   UNL A   1      43.598  25.596  30.109  1.00  0.00    -0.354 N 
ATOM     47  C   UNL A   1      40.248  26.965  27.506  1.00  0.00     0.074 A 
ATOM     48  C   UNL A   1      39.270  26.062  28.068  1.00  0.00     0.031 C 
ATOM     49  C   UNL A   1      44.778  24.043  31.181  1.00  0.00     0.029 A 
ATOM     50  C   UNL A   1      44.445  25.460  31.190  1.00  0.00     0.049 A 
ATOM     51  H   UNL A   1      43.283  26.471  29.785  1.00  0.00     0.167 HD
ATOM     52  C   UNL A   1      40.161  28.282  27.192  1.00  0.00     0.031 A 
ATOM     53  C   UNL A   1      44.757  26.448  32.062  1.00  0.00     0.031 A 
ATOM     54  C   UNL A   1      41.374  28.793  26.609  1.00  0.00     0.049 A 
ATOM     55  C   UNL A   1      44.503  27.747  31.385  1.00  0.00     0.074 A 
ATOM     56  C   UNL A   1      42.086  28.528  25.456  1.00  0.00     0.029 A 
ATOM     57  N   UNL A   1      42.240  29.462  27.442  1.00  0.00    -0.354 N 
ATOM     58  N   UNL A   1      45.220  28.184  30.389  1.00  0.00    -0.248 NA
ATOM     59  C   UNL A   1      43.188  28.360  31.515  1.00  0.00     0.031 C 
ATOM     60  C   UNL A   1      43.458  28.641  25.830  1.00  0.00     0.029 A 
ATOM     61  C   UNL A   1      43.505  29.000  27.179  1.00  0.00     0.049 A 
ATOM     62  H   UNL A   1      41.996  30.147  28.107  1.00  0.00     0.167 HD
ATOM     63  C   UNL A   1      44.312  28.789  29.531  1.00  0.00     0.074 A 
ATOM     64  C   UNL A   1      43.099  28.965  30.326  1.00  0.00     0.031 C 
ATOM     65  C   UNL A   1      44.535  28.834  28.183  1.00  0.00     0.031 A 
BRANCH  52  66
ATOM     66  C   UNL A   1      39.120  29.165  27.807  1.00  0.00    -0.014 A 
ATOM     67  C   UNL A   1      39.084  29.310  29.200  1.00  0.00     0.009 A 
ATOM     68  C   UNL A   1      38.007  29.636  27.079  1.00  0.00     0.009 A 
ATOM     69  C   UNL A   1      37.966  29.863  29.833  1.00  0.00     0.001 A 
ATOM     70  C   UNL A   1      36.912  30.227  27.704  1.00  0.00     0.001 A 
ATOM     71  C   UNL A   1      36.881  30.317  29.086  1.00  0.00     0.000 A 
ENDBRANCH  52  66
BRANCH  53  72
ATOM     72  C   UNL A   1      44.911  26.323  33.524  1.00  0.00    -0.014 A 
ATOM     73  C   UNL A   1      43.812  26.495  34.379  1.00  0.00     0.009 A 
ATOM     74  C   UNL A   1      46.085  25.767  34.064  1.00  0.00     0.009 A 
ATOM     75  C   UNL A   1      43.878  26.090  35.718  1.00  0.00     0.001 A 
ATOM     76  C   UNL A   1      46.152  25.365  35.400  1.00  0.00     0.001 A 
ATOM     77  C   UNL A   1      45.042  25.514  36.224  1.00  0.00     0.000 A 
ENDBRANCH  53  72
BRANCH  65  78
ATOM     78  C   UNL A   1      45.895  28.399  27.691  1.00  0.00    -0.014 A 
ATOM     79  C   UNL A   1      47.039  29.209  27.811  1.00  0.00     0.009 A 
ATOM     80  C   UNL A   1      46.057  27.088  27.218  1.00  0.00     0.009 A 
ATOM     81  C   UNL A   1      48.299  28.735  27.431  1.00  0.00     0.001 A 
ATOM     82  C   UNL A   1      47.318  26.608  26.858  1.00  0.00     0.001 A 
ATOM     83  C   UNL A   1      48.437  27.433  26.958  1.00  0.00     0.000 A 
ENDBRANCH  65  78
ENDBRANCH  39  40
ENDBRANCH  32  34
ENDBRANCH  31  32
ENDBRANCH  30  31
ENDBRANCH  29  30
ENDBRANCH  28  29
ENDBRANCH  27  28
ENDBRANCH  26  27
ENDBRANCH  25  26
ENDBRANCH   1  25
TORSDOF 24
ENDMDL
