MODEL 1
REMARK VINA RESULT:      -9.0      0.000      0.000
REMARK SMILES Cc1cccc(Cn2c(=O)c3sccc3n(CC(=O)OCCOCCOCCOCCOC(=O)c3ccc(-c4c5nc(c(-c6ccccc6)c6ccc([nH]6)c(-c6ccccc6)c6nc(c(-c7ccccc7)c7ccc4[nH]7)C=C6)C=C5)cc3)c2=O)c1
REMARK SMILES IDX 25 1 24 2 23 3 22 4 21 5 20 6 18 7 19 8 17 9 16 10 8 11 9 12
REMARK SMILES IDX 83 13 10 14 11 15 84 16 12 17 15 18 13 19 14 20 7 21 6 22
REMARK SMILES IDX 1 23 2 24 3 25 85 26 4 27 5 28 26 29 27 30 28 31 29 32 30 33
REMARK SMILES IDX 31 34 32 35 33 36 34 37 35 38 36 39 82 40 37 41 81 42 38 43
REMARK SMILES IDX 39 44 40 45 75 46 41 47 80 48 74 49 76 50 42 51 79 52 73 53
REMARK SMILES IDX 72 54 43 56 65 57 50 58 64 59 51 60 54 61 63 62 77 63 52 64
REMARK SMILES IDX 53 65 62 67 78 68 55 69 44 70 45 71 49 72 46 73 48 74 47 75
REMARK SMILES IDX 66 76 67 77 71 78 68 79 70 80 69 81 56 82 57 83 61 84 58 85
REMARK SMILES IDX 60 86 59 87
REMARK H PARENT 76 55 54 66
REMARK Flexibility Score: inf
ROOT
ATOM      1  C   UNL A   1      36.341  30.455  27.628  1.00  0.00     0.188 C 
ENDROOT
BRANCH   1   2
ATOM      2  C   UNL A   1      34.937  30.769  28.199  1.00  0.00     0.188 C 
BRANCH   2   3
ATOM      3  O   UNL A   1      33.801  30.984  27.374  1.00  0.00    -0.376 OA
BRANCH   3   4
ATOM      4  C   UNL A   1      33.470  29.945  26.489  1.00  0.00     0.202 C 
BRANCH   4   5
ATOM      5  C   UNL A   1      31.955  29.804  26.442  1.00  0.00     0.261 C 
BRANCH   5   6
ATOM      6  O   UNL A   1      31.503  28.459  26.677  1.00  0.00    -0.462 OA
BRANCH   6   7
ATOM      7  C   UNL A   1      31.790  27.561  25.702  1.00  0.00     0.326 C 
ATOM      8  O   UNL A   1      31.210  27.476  24.626  1.00  0.00    -0.250 OA
BRANCH   7   9
ATOM      9  C   UNL A   1      32.921  26.623  26.103  1.00  0.00     0.250 C 
BRANCH   9  10
ATOM     10  N   UNL A   1      32.973  25.284  25.500  1.00  0.00    -0.281 N 
ATOM     11  N   UNL A   1      34.131  23.762  24.069  1.00  0.00    -0.254 N 
ATOM     12  C   UNL A   1      33.282  22.692  24.326  1.00  0.00     0.274 A 
ATOM     13  C   UNL A   1      33.868  25.089  24.437  1.00  0.00     0.332 A 
ATOM     14  O   UNL A   1      33.392  21.596  23.764  1.00  0.00    -0.268 OA
ATOM     15  C   UNL A   1      32.270  22.998  25.295  1.00  0.00     0.116 A 
ATOM     16  O   UNL A   1      34.426  26.039  23.883  1.00  0.00    -0.247 OA
ATOM     17  S   UNL A   1      31.051  21.903  25.747  1.00  0.00    -0.136 S 
ATOM     18  C   UNL A   1      32.152  24.224  25.903  1.00  0.00     0.070 A 
ATOM     19  C   UNL A   1      30.310  23.082  26.746  1.00  0.00     0.068 A 
ATOM     20  C   UNL A   1      31.051  24.247  26.810  1.00  0.00     0.039 A 
BRANCH  11  21
ATOM     21  C   UNL A   1      35.394  23.493  23.392  1.00  0.00     0.166 C 
BRANCH  21  22
ATOM     22  C   UNL A   1      36.401  23.015  24.429  1.00  0.00    -0.028 A 
ATOM     23  C   UNL A   1      38.792  24.441  27.047  1.00  0.00     0.044 C 
ATOM     24  C   UNL A   1      38.110  23.501  26.098  1.00  0.00    -0.051 A 
ATOM     25  C   UNL A   1      38.578  22.185  25.986  1.00  0.00     0.003 A 
ATOM     26  C   UNL A   1      37.034  23.918  25.299  1.00  0.00     0.009 A 
ATOM     27  C   UNL A   1      37.940  21.277  25.148  1.00  0.00     0.001 A 
ATOM     28  C   UNL A   1      36.839  21.682  24.401  1.00  0.00     0.005 A 
ENDBRANCH  21  22
ENDBRANCH  11  21
ENDBRANCH   9  10
ENDBRANCH   7   9
ENDBRANCH   6   7
ENDBRANCH   5   6
ENDBRANCH   4   5
ENDBRANCH   3   4
ENDBRANCH   2   3
ENDBRANCH   1   2
BRANCH   1  29
ATOM     29  O   UNL A   1      37.537  30.303  28.367  1.00  0.00    -0.377 OA
BRANCH  29  30
ATOM     30  C   UNL A   1      37.545  30.762  29.695  1.00  0.00     0.188 C 
BRANCH  30  31
ATOM     31  C   UNL A   1      37.493  29.761  30.816  1.00  0.00     0.188 C 
BRANCH  31  32
ATOM     32  O   UNL A   1      38.499  28.821  30.488  1.00  0.00    -0.376 OA
BRANCH  32  33
ATOM     33  C   UNL A   1      39.831  29.196  30.756  1.00  0.00     0.202 C 
BRANCH  33  34
ATOM     34  C   UNL A   1      40.822  28.074  30.435  1.00  0.00     0.261 C 
BRANCH  34  35
ATOM     35  O   UNL A   1      40.255  27.244  29.393  1.00  0.00    -0.460 OA
BRANCH  35  36
ATOM     36  C   UNL A   1      40.714  27.441  28.131  1.00  0.00     0.338 C 
ATOM     37  O   UNL A   1      40.040  27.854  27.185  1.00  0.00    -0.246 OA
BRANCH  36  38
ATOM     38  C   UNL A   1      42.054  26.797  27.956  1.00  0.00     0.060 A 
ATOM     39  C   UNL A   1      42.241  25.451  28.330  1.00  0.00     0.016 A 
ATOM     40  C   UNL A   1      43.170  27.602  27.754  1.00  0.00     0.016 A 
ATOM     41  C   UNL A   1      43.519  24.971  28.692  1.00  0.00     0.010 A 
ATOM     42  C   UNL A   1      44.417  27.137  28.158  1.00  0.00     0.010 A 
ATOM     43  C   UNL A   1      44.607  25.844  28.702  1.00  0.00    -0.014 A 
BRANCH  43  44
ATOM     44  C   UNL A   1      45.885  25.653  29.452  1.00  0.00     0.031 A 
ATOM     45  C   UNL A   1      47.120  25.297  28.677  1.00  0.00     0.074 A 
ATOM     46  C   UNL A   1      46.033  26.157  30.712  1.00  0.00     0.049 A 
ATOM     47  N   UNL A   1      48.317  25.282  29.157  1.00  0.00    -0.248 NA
ATOM     48  C   UNL A   1      47.112  24.954  27.254  1.00  0.00     0.031 C 
ATOM     49  C   UNL A   1      47.260  26.682  31.322  1.00  0.00     0.029 A 
ATOM     50  N   UNL A   1      45.101  26.397  31.711  1.00  0.00    -0.354 N 
ATOM     51  C   UNL A   1      49.221  25.239  28.118  1.00  0.00     0.074 A 
ATOM     52  C   UNL A   1      48.416  24.981  26.951  1.00  0.00     0.031 C 
ATOM     53  C   UNL A   1      47.041  27.156  32.557  1.00  0.00     0.029 A 
ATOM     54  C   UNL A   1      45.747  26.666  32.935  1.00  0.00     0.049 A 
ATOM     55  H   UNL A   1      44.125  26.382  31.583  1.00  0.00     0.167 HD
ATOM     56  C   UNL A   1      50.530  25.542  28.366  1.00  0.00     0.031 A 
ATOM     57  C   UNL A   1      45.541  25.824  33.985  1.00  0.00     0.031 A 
ATOM     58  C   UNL A   1      50.829  25.581  29.818  1.00  0.00     0.049 A 
ATOM     59  C   UNL A   1      46.764  24.927  34.163  1.00  0.00     0.074 A 
ATOM     60  C   UNL A   1      51.500  26.444  30.671  1.00  0.00     0.029 A 
ATOM     61  N   UNL A   1      50.229  24.633  30.660  1.00  0.00    -0.354 N 
ATOM     62  N   UNL A   1      47.680  24.778  33.227  1.00  0.00    -0.248 NA
ATOM     63  C   UNL A   1      47.170  24.269  35.401  1.00  0.00     0.031 C 
ATOM     64  C   UNL A   1      51.118  26.124  32.012  1.00  0.00     0.029 A 
ATOM     65  C   UNL A   1      50.338  24.977  31.990  1.00  0.00     0.049 A 
ATOM     66  H   UNL A   1      49.781  23.817  30.338  1.00  0.00     0.167 HD
ATOM     67  C   UNL A   1      48.790  24.165  33.724  1.00  0.00     0.074 A 
ATOM     68  C   UNL A   1      48.400  23.814  35.081  1.00  0.00     0.031 C 
ATOM     69  C   UNL A   1      49.962  24.018  33.031  1.00  0.00     0.031 A 
BRANCH  56  70
ATOM     70  C   UNL A   1      51.525  25.968  27.284  1.00  0.00    -0.014 A 
ATOM     71  C   UNL A   1      51.893  27.323  27.155  1.00  0.00     0.009 A 
ATOM     72  C   UNL A   1      52.060  25.116  26.294  1.00  0.00     0.009 A 
ATOM     73  C   UNL A   1      52.717  27.792  26.114  1.00  0.00     0.001 A 
ATOM     74  C   UNL A   1      52.921  25.569  25.277  1.00  0.00     0.001 A 
ATOM     75  C   UNL A   1      53.241  26.913  25.179  1.00  0.00     0.000 A 
ENDBRANCH  56  70
BRANCH  57  76
ATOM     76  C   UNL A   1      44.052  25.699  34.198  1.00  0.00    -0.014 A 
ATOM     77  C   UNL A   1      43.605  24.347  34.161  1.00  0.00     0.009 A 
ATOM     78  C   UNL A   1      43.393  26.560  35.097  1.00  0.00     0.009 A 
ATOM     79  C   UNL A   1      42.789  23.821  35.176  1.00  0.00     0.001 A 
ATOM     80  C   UNL A   1      42.547  26.028  36.095  1.00  0.00     0.001 A 
ATOM     81  C   UNL A   1      42.304  24.656  36.175  1.00  0.00     0.000 A 
ENDBRANCH  57  76
BRANCH  69  82
ATOM     82  C   UNL A   1      50.936  22.883  33.259  1.00  0.00    -0.014 A 
ATOM     83  C   UNL A   1      50.546  21.605  33.666  1.00  0.00     0.009 A 
ATOM     84  C   UNL A   1      52.275  23.025  32.817  1.00  0.00     0.009 A 
ATOM     85  C   UNL A   1      51.447  20.535  33.657  1.00  0.00     0.001 A 
ATOM     86  C   UNL A   1      53.160  21.951  32.752  1.00  0.00     0.001 A 
ATOM     87  C   UNL A   1      52.744  20.703  33.184  1.00  0.00     0.000 A 
ENDBRANCH  69  82
ENDBRANCH  43  44
ENDBRANCH  36  38
ENDBRANCH  35  36
ENDBRANCH  34  35
ENDBRANCH  33  34
ENDBRANCH  32  33
ENDBRANCH  31  32
ENDBRANCH  30  31
ENDBRANCH  29  30
ENDBRANCH   1  29
TORSDOF 23
ENDMDL
MODEL 2
REMARK VINA RESULT:      -8.5      2.260      4.903
REMARK SMILES Cc1cccc(Cn2c(=O)c3sccc3n(CC(=O)OCCOCCOCCOCCOC(=O)c3ccc(-c4c5nc(c(-c6ccccc6)c6ccc([nH]6)c(-c6ccccc6)c6nc(c(-c7ccccc7)c7ccc4[nH]7)C=C6)C=C5)cc3)c2=O)c1
REMARK SMILES IDX 25 1 24 2 23 3 22 4 21 5 20 6 18 7 19 8 17 9 16 10 8 11 9 12
REMARK SMILES IDX 83 13 10 14 11 15 84 16 12 17 15 18 13 19 14 20 7 21 6 22
REMARK SMILES IDX 1 23 2 24 3 25 85 26 4 27 5 28 26 29 27 30 28 31 29 32 30 33
REMARK SMILES IDX 31 34 32 35 33 36 34 37 35 38 36 39 82 40 37 41 81 42 38 43
REMARK SMILES IDX 39 44 40 45 75 46 41 47 80 48 74 49 76 50 42 51 79 52 73 53
REMARK SMILES IDX 72 54 43 56 65 57 50 58 64 59 51 60 54 61 63 62 77 63 52 64
REMARK SMILES IDX 53 65 62 67 78 68 55 69 44 70 45 71 49 72 46 73 48 74 47 75
REMARK SMILES IDX 66 76 67 77 71 78 68 79 70 80 69 81 56 82 57 83 61 84 58 85
REMARK SMILES IDX 60 86 59 87
REMARK H PARENT 76 55 54 66
REMARK Flexibility Score: inf
ROOT
ATOM      1  C   UNL A   1      38.369  21.785  25.668  1.00  0.00     0.188 C 
ENDROOT
BRANCH   1   2
ATOM      2  C   UNL A   1      36.866  21.900  25.319  1.00  0.00     0.188 C 
BRANCH   2   3
ATOM      3  O   UNL A   1      35.906  20.935  25.725  1.00  0.00    -0.376 OA
BRANCH   3   4
ATOM      4  C   UNL A   1      35.239  20.250  24.696  1.00  0.00     0.202 C 
BRANCH   4   5
ATOM      5  C   UNL A   1      33.823  19.933  25.155  1.00  0.00     0.261 C 
BRANCH   5   6
ATOM      6  O   UNL A   1      33.324  20.858  26.136  1.00  0.00    -0.462 OA
BRANCH   6   7
ATOM      7  C   UNL A   1      32.552  21.865  25.659  1.00  0.00     0.326 C 
ATOM      8  O   UNL A   1      31.431  21.731  25.180  1.00  0.00    -0.250 OA
BRANCH   7   9
ATOM      9  C   UNL A   1      33.250  23.215  25.755  1.00  0.00     0.250 C 
BRANCH   9  10
ATOM     10  N   UNL A   1      32.553  24.406  25.249  1.00  0.00    -0.281 N 
ATOM     11  N   UNL A   1      31.308  26.380  25.756  1.00  0.00    -0.254 N 
ATOM     12  C   UNL A   1      31.248  26.823  24.441  1.00  0.00     0.274 A 
ATOM     13  C   UNL A   1      31.725  25.099  26.145  1.00  0.00     0.332 A 
ATOM     14  O   UNL A   1      30.629  27.836  24.099  1.00  0.00    -0.268 OA
ATOM     15  C   UNL A   1      31.968  25.978  23.531  1.00  0.00     0.116 A 
ATOM     16  O   UNL A   1      31.416  24.619  27.238  1.00  0.00    -0.247 OA
ATOM     17  S   UNL A   1      32.005  26.235  21.852  1.00  0.00    -0.136 S 
ATOM     18  C   UNL A   1      32.643  24.847  23.924  1.00  0.00     0.070 A 
ATOM     19  C   UNL A   1      32.902  24.794  21.613  1.00  0.00     0.068 A 
ATOM     20  C   UNL A   1      33.253  24.198  22.810  1.00  0.00     0.039 A 
BRANCH  11  21
ATOM     21  C   UNL A   1      30.935  27.311  26.814  1.00  0.00     0.166 C 
BRANCH  21  22
ATOM     22  C   UNL A   1      32.083  28.290  27.018  1.00  0.00    -0.028 A 
ATOM     23  C   UNL A   1      32.692  32.051  27.310  1.00  0.00     0.044 C 
ATOM     24  C   UNL A   1      32.915  30.578  27.137  1.00  0.00    -0.051 A 
ATOM     25  C   UNL A   1      34.215  30.106  26.912  1.00  0.00     0.003 A 
ATOM     26  C   UNL A   1      31.848  29.666  27.166  1.00  0.00     0.009 A 
ATOM     27  C   UNL A   1      34.461  28.743  26.791  1.00  0.00     0.001 A 
ATOM     28  C   UNL A   1      33.405  27.841  26.877  1.00  0.00     0.005 A 
ENDBRANCH  21  22
ENDBRANCH  11  21
ENDBRANCH   9  10
ENDBRANCH   7   9
ENDBRANCH   6   7
ENDBRANCH   5   6
ENDBRANCH   4   5
ENDBRANCH   3   4
ENDBRANCH   2   3
ENDBRANCH   1   2
BRANCH   1  29
ATOM     29  O   UNL A   1      39.109  22.653  26.505  1.00  0.00    -0.377 OA
BRANCH  29  30
ATOM     30  C   UNL A   1      40.345  22.194  26.989  1.00  0.00     0.188 C 
BRANCH  30  31
ATOM     31  C   UNL A   1      41.211  23.126  27.788  1.00  0.00     0.188 C 
BRANCH  31  32
ATOM     32  O   UNL A   1      42.099  23.679  26.834  1.00  0.00    -0.376 OA
BRANCH  32  33
ATOM     33  C   UNL A   1      41.722  24.907  26.253  1.00  0.00     0.202 C 
BRANCH  33  34
ATOM     34  C   UNL A   1      41.267  25.927  27.300  1.00  0.00     0.261 C 
BRANCH  34  35
ATOM     35  O   UNL A   1      42.424  26.360  28.054  1.00  0.00    -0.460 OA
BRANCH  35  36
ATOM     36  C   UNL A   1      43.148  27.386  27.537  1.00  0.00     0.338 C 
ATOM     37  O   UNL A   1      42.690  28.309  26.860  1.00  0.00    -0.246 OA
BRANCH  36  38
ATOM     38  C   UNL A   1      44.612  27.090  27.625  1.00  0.00     0.060 A 
ATOM     39  C   UNL A   1      45.072  25.767  27.462  1.00  0.00     0.016 A 
ATOM     40  C   UNL A   1      45.460  28.034  28.195  1.00  0.00     0.016 A 
ATOM     41  C   UNL A   1      46.289  25.347  28.042  1.00  0.00     0.010 A 
ATOM     42  C   UNL A   1      46.632  27.602  28.805  1.00  0.00     0.010 A 
ATOM     43  C   UNL A   1      47.035  26.245  28.807  1.00  0.00    -0.014 A 
BRANCH  43  44
ATOM     44  C   UNL A   1      48.065  25.890  29.829  1.00  0.00     0.031 A 
ATOM     45  C   UNL A   1      49.497  25.779  29.390  1.00  0.00     0.074 A 
ATOM     46  C   UNL A   1      47.805  26.046  31.160  1.00  0.00     0.049 A 
ATOM     47  N   UNL A   1      50.507  25.663  30.182  1.00  0.00    -0.248 NA
ATOM     48  C   UNL A   1      49.920  25.824  27.990  1.00  0.00     0.031 C 
ATOM     49  C   UNL A   1      48.756  26.417  32.215  1.00  0.00     0.029 A 
ATOM     50  N   UNL A   1      46.613  25.992  31.867  1.00  0.00    -0.354 N 
ATOM     51  C   UNL A   1      51.664  25.917  29.480  1.00  0.00     0.074 A 
ATOM     52  C   UNL A   1      51.247  25.960  28.102  1.00  0.00     0.031 C 
ATOM     53  C   UNL A   1      48.155  26.541  33.407  1.00  0.00     0.029 A 
ATOM     54  C   UNL A   1      46.862  25.941  33.253  1.00  0.00     0.049 A 
ATOM     55  H   UNL A   1      45.718  25.990  31.457  1.00  0.00     0.167 HD
ATOM     56  C   UNL A   1      52.817  26.172  30.170  1.00  0.00     0.031 A 
ATOM     57  C   UNL A   1      46.454  24.847  33.954  1.00  0.00     0.031 A 
ATOM     58  C   UNL A   1      52.693  25.831  31.608  1.00  0.00     0.049 A 
ATOM     59  C   UNL A   1      47.661  23.961  34.258  1.00  0.00     0.074 A 
ATOM     60  C   UNL A   1      53.011  26.451  32.806  1.00  0.00     0.029 A 
ATOM     61  N   UNL A   1      51.977  24.681  31.974  1.00  0.00    -0.354 N 
ATOM     62  N   UNL A   1      48.812  24.086  33.628  1.00  0.00    -0.248 NA
ATOM     63  C   UNL A   1      47.768  23.008  35.358  1.00  0.00     0.031 C 
ATOM     64  C   UNL A   1      52.303  25.780  33.853  1.00  0.00     0.029 A 
ATOM     65  C   UNL A   1      51.677  24.663  33.319  1.00  0.00     0.049 A 
ATOM     66  H   UNL A   1      51.720  23.970  31.343  1.00  0.00     0.167 HD
ATOM     67  C   UNL A   1      49.794  23.388  34.262  1.00  0.00     0.074 A 
ATOM     68  C   UNL A   1      49.077  22.681  35.313  1.00  0.00     0.031 C 
ATOM     69  C   UNL A   1      51.122  23.455  33.933  1.00  0.00     0.031 A 
BRANCH  56  70
ATOM     70  C   UNL A   1      54.027  26.890  29.570  1.00  0.00    -0.014 A 
ATOM     71  C   UNL A   1      54.566  28.025  30.211  1.00  0.00     0.009 A 
ATOM     72  C   UNL A   1      54.624  26.576  28.330  1.00  0.00     0.009 A 
ATOM     73  C   UNL A   1      55.607  28.792  29.654  1.00  0.00     0.001 A 
ATOM     74  C   UNL A   1      55.695  27.310  27.787  1.00  0.00     0.001 A 
ATOM     75  C   UNL A   1      56.181  28.428  28.445  1.00  0.00     0.000 A 
ENDBRANCH  56  70
BRANCH  57  76
ATOM     76  C   UNL A   1      44.985  24.637  33.680  1.00  0.00    -0.014 A 
ATOM     77  C   UNL A   1      44.620  23.261  33.676  1.00  0.00     0.009 A 
ATOM     78  C   UNL A   1      44.036  25.544  34.192  1.00  0.00     0.009 A 
ATOM     79  C   UNL A   1      43.527  22.794  34.425  1.00  0.00     0.001 A 
ATOM     80  C   UNL A   1      42.922  25.067  34.917  1.00  0.00     0.001 A 
ATOM     81  C   UNL A   1      42.710  23.698  35.091  1.00  0.00     0.000 A 
ENDBRANCH  57  76
BRANCH  69  82
ATOM     82  C   UNL A   1      52.100  22.321  34.149  1.00  0.00    -0.014 A 
ATOM     83  C   UNL A   1      53.024  22.292  35.197  1.00  0.00     0.009 A 
ATOM     84  C   UNL A   1      51.933  21.118  33.420  1.00  0.00     0.009 A 
ATOM     85  C   UNL A   1      53.757  21.137  35.485  1.00  0.00     0.001 A 
ATOM     86  C   UNL A   1      52.619  19.948  33.738  1.00  0.00     0.001 A 
ATOM     87  C   UNL A   1      53.542  19.963  34.770  1.00  0.00     0.000 A 
ENDBRANCH  69  82
ENDBRANCH  43  44
ENDBRANCH  36  38
ENDBRANCH  35  36
ENDBRANCH  34  35
ENDBRANCH  33  34
ENDBRANCH  32  33
ENDBRANCH  31  32
ENDBRANCH  30  31
ENDBRANCH  29  30
ENDBRANCH   1  29
TORSDOF 23
ENDMDL
MODEL 3
REMARK VINA RESULT:      -8.4      3.610      9.038
REMARK SMILES Cc1cccc(Cn2c(=O)c3sccc3n(CC(=O)OCCOCCOCCOCCOC(=O)c3ccc(-c4c5nc(c(-c6ccccc6)c6ccc([nH]6)c(-c6ccccc6)c6nc(c(-c7ccccc7)c7ccc4[nH]7)C=C6)C=C5)cc3)c2=O)c1
REMARK SMILES IDX 25 1 24 2 23 3 22 4 21 5 20 6 18 7 19 8 17 9 16 10 8 11 9 12
REMARK SMILES IDX 83 13 10 14 11 15 84 16 12 17 15 18 13 19 14 20 7 21 6 22
REMARK SMILES IDX 1 23 2 24 3 25 85 26 4 27 5 28 26 29 27 30 28 31 29 32 30 33
REMARK SMILES IDX 31 34 32 35 33 36 34 37 35 38 36 39 82 40 37 41 81 42 38 43
REMARK SMILES IDX 39 44 40 45 75 46 41 47 80 48 74 49 76 50 42 51 79 52 73 53
REMARK SMILES IDX 72 54 43 56 65 57 50 58 64 59 51 60 54 61 63 62 77 63 52 64
REMARK SMILES IDX 53 65 62 67 78 68 55 69 44 70 45 71 49 72 46 73 48 74 47 75
REMARK SMILES IDX 66 76 67 77 71 78 68 79 70 80 69 81 56 82 57 83 61 84 58 85
REMARK SMILES IDX 60 86 59 87
REMARK H PARENT 76 55 54 66
REMARK Flexibility Score: inf
ROOT
ATOM      1  C   UNL A   1      39.899  21.081  26.578  1.00  0.00     0.188 C 
ENDROOT
BRANCH   1   2
ATOM      2  C   UNL A   1      38.735  21.900  25.971  1.00  0.00     0.188 C 
BRANCH   2   3
ATOM      3  O   UNL A   1      38.620  23.307  26.126  1.00  0.00    -0.376 OA
BRANCH   3   4
ATOM      4  C   UNL A   1      37.328  23.844  26.006  1.00  0.00     0.202 C 
BRANCH   4   5
ATOM      5  C   UNL A   1      36.791  23.528  24.618  1.00  0.00     0.261 C 
BRANCH   5   6
ATOM      6  O   UNL A   1      35.434  23.961  24.422  1.00  0.00    -0.462 OA
BRANCH   6   7
ATOM      7  C   UNL A   1      34.919  23.749  23.186  1.00  0.00     0.326 C 
ATOM      8  O   UNL A   1      35.361  22.955  22.362  1.00  0.00    -0.250 OA
BRANCH   7   9
ATOM      9  C   UNL A   1      33.719  24.643  22.905  1.00  0.00     0.250 C 
BRANCH   9  10
ATOM     10  N   UNL A   1      32.925  25.134  24.040  1.00  0.00    -0.281 N 
ATOM     11  N   UNL A   1      32.149  27.012  25.295  1.00  0.00    -0.254 N 
ATOM     12  C   UNL A   1      31.340  26.263  26.140  1.00  0.00     0.274 A 
ATOM     13  C   UNL A   1      33.107  26.471  24.426  1.00  0.00     0.332 A 
ATOM     14  O   UNL A   1      30.710  26.757  27.081  1.00  0.00    -0.268 OA
ATOM     15  C   UNL A   1      31.325  24.867  25.810  1.00  0.00     0.116 A 
ATOM     16  O   UNL A   1      34.042  27.145  23.988  1.00  0.00    -0.247 OA
ATOM     17  S   UNL A   1      30.482  23.704  26.718  1.00  0.00    -0.136 S 
ATOM     18  C   UNL A   1      32.041  24.329  24.767  1.00  0.00     0.070 A 
ATOM     19  C   UNL A   1      31.102  22.438  25.744  1.00  0.00     0.068 A 
ATOM     20  C   UNL A   1      31.847  22.918  24.683  1.00  0.00     0.039 A 
BRANCH  11  21
ATOM     21  C   UNL A   1      31.983  28.461  25.287  1.00  0.00     0.166 C 
BRANCH  21  22
ATOM     22  C   UNL A   1      30.862  28.809  24.317  1.00  0.00    -0.028 A 
ATOM     23  C   UNL A   1      28.607  31.754  23.402  1.00  0.00     0.044 C 
ATOM     24  C   UNL A   1      29.173  30.370  23.510  1.00  0.00    -0.051 A 
ATOM     25  C   UNL A   1      28.505  29.308  22.886  1.00  0.00     0.003 A 
ATOM     26  C   UNL A   1      30.341  30.111  24.244  1.00  0.00     0.009 A 
ATOM     27  C   UNL A   1      29.028  28.021  22.930  1.00  0.00     0.001 A 
ATOM     28  C   UNL A   1      30.215  27.781  23.614  1.00  0.00     0.005 A 
ENDBRANCH  21  22
ENDBRANCH  11  21
ENDBRANCH   9  10
ENDBRANCH   7   9
ENDBRANCH   6   7
ENDBRANCH   5   6
ENDBRANCH   4   5
ENDBRANCH   3   4
ENDBRANCH   2   3
ENDBRANCH   1   2
BRANCH   1  29
ATOM     29  O   UNL A   1      40.988  21.589  27.324  1.00  0.00    -0.377 OA
BRANCH  29  30
ATOM     30  C   UNL A   1      42.135  20.786  27.431  1.00  0.00     0.188 C 
BRANCH  30  31
ATOM     31  C   UNL A   1      42.650  20.078  26.209  1.00  0.00     0.188 C 
BRANCH  31  32
ATOM     32  O   UNL A   1      43.839  20.772  25.881  1.00  0.00    -0.376 OA
BRANCH  32  33
ATOM     33  C   UNL A   1      43.876  21.412  24.626  1.00  0.00     0.202 C 
BRANCH  33  34
ATOM     34  C   UNL A   1      43.995  22.933  24.756  1.00  0.00     0.261 C 
BRANCH  34  35
ATOM     35  O   UNL A   1      44.982  23.399  23.804  1.00  0.00    -0.460 OA
BRANCH  35  36
ATOM     36  C   UNL A   1      46.244  23.588  24.268  1.00  0.00     0.338 C 
ATOM     37  O   UNL A   1      47.134  22.735  24.277  1.00  0.00    -0.246 OA
BRANCH  36  38
ATOM     38  C   UNL A   1      46.327  24.860  25.053  1.00  0.00     0.060 A 
ATOM     39  C   UNL A   1      47.280  24.987  26.085  1.00  0.00     0.016 A 
ATOM     40  C   UNL A   1      45.268  25.760  24.998  1.00  0.00     0.016 A 
ATOM     41  C   UNL A   1      47.067  25.876  27.161  1.00  0.00     0.010 A 
ATOM     42  C   UNL A   1      45.040  26.597  26.085  1.00  0.00     0.010 A 
ATOM     43  C   UNL A   1      45.889  26.621  27.218  1.00  0.00    -0.014 A 
BRANCH  43  44
ATOM     44  C   UNL A   1      45.298  27.246  28.440  1.00  0.00     0.031 A 
ATOM     45  C   UNL A   1      44.719  26.346  29.492  1.00  0.00     0.074 A 
ATOM     46  C   UNL A   1      45.615  28.528  28.786  1.00  0.00     0.049 A 
ATOM     47  N   UNL A   1      44.347  26.725  30.667  1.00  0.00    -0.248 NA
ATOM     48  C   UNL A   1      44.537  24.905  29.315  1.00  0.00     0.031 C 
ATOM     49  C   UNL A   1      45.741  29.080  30.140  1.00  0.00     0.029 A 
ATOM     50  N   UNL A   1      45.983  29.616  28.008  1.00  0.00    -0.354 N 
ATOM     51  C   UNL A   1      44.180  25.617  31.468  1.00  0.00     0.074 A 
ATOM     52  C   UNL A   1      44.260  24.501  30.560  1.00  0.00     0.031 C 
ATOM     53  C   UNL A   1      46.124  30.364  30.123  1.00  0.00     0.029 A 
ATOM     54  C   UNL A   1      45.948  30.802  28.769  1.00  0.00     0.049 A 
ATOM     55  H   UNL A   1      46.232  29.567  27.057  1.00  0.00     0.167 HD
ATOM     56  C   UNL A   1      44.108  25.783  32.823  1.00  0.00     0.031 A 
ATOM     57  C   UNL A   1      45.084  31.791  28.407  1.00  0.00     0.031 A 
ATOM     58  C   UNL A   1      43.919  27.204  33.202  1.00  0.00     0.049 A 
ATOM     59  C   UNL A   1      43.889  31.792  29.357  1.00  0.00     0.074 A 
ATOM     60  C   UNL A   1      44.487  28.070  34.123  1.00  0.00     0.029 A 
ATOM     61  N   UNL A   1      43.076  28.008  32.421  1.00  0.00    -0.354 N 
ATOM     62  N   UNL A   1      43.607  30.776  30.148  1.00  0.00    -0.248 NA
ATOM     63  C   UNL A   1      43.025  32.933  29.644  1.00  0.00     0.031 C 
ATOM     64  C   UNL A   1      44.140  29.406  33.746  1.00  0.00     0.029 A 
ATOM     65  C   UNL A   1      43.241  29.349  32.691  1.00  0.00     0.049 A 
ATOM     66  H   UNL A   1      42.440  27.655  31.757  1.00  0.00     0.167 HD
ATOM     67  C   UNL A   1      42.681  31.127  31.083  1.00  0.00     0.074 A 
ATOM     68  C   UNL A   1      42.304  32.477  30.691  1.00  0.00     0.031 C 
ATOM     69  C   UNL A   1      42.309  30.332  32.134  1.00  0.00     0.031 A 
BRANCH  56  70
ATOM     70  C   UNL A   1      44.373  24.664  33.833  1.00  0.00    -0.014 A 
ATOM     71  C   UNL A   1      43.521  24.498  34.945  1.00  0.00     0.009 A 
ATOM     72  C   UNL A   1      45.492  23.804  33.816  1.00  0.00     0.009 A 
ATOM     73  C   UNL A   1      43.773  23.560  35.964  1.00  0.00     0.001 A 
ATOM     74  C   UNL A   1      45.728  22.832  34.807  1.00  0.00     0.001 A 
ATOM     75  C   UNL A   1      44.873  22.718  35.890  1.00  0.00     0.000 A 
ENDBRANCH  56  70
BRANCH  57  76
ATOM     76  C   UNL A   1      45.325  32.111  26.952  1.00  0.00    -0.014 A 
ATOM     77  C   UNL A   1      44.116  32.321  26.230  1.00  0.00     0.009 A 
ATOM     78  C   UNL A   1      46.432  32.898  26.577  1.00  0.00     0.009 A 
ATOM     79  C   UNL A   1      43.937  33.456  25.421  1.00  0.00     0.001 A 
ATOM     80  C   UNL A   1      46.252  34.019  25.737  1.00  0.00     0.001 A 
ATOM     81  C   UNL A   1      44.994  34.334  25.220  1.00  0.00     0.000 A 
ENDBRANCH  57  76
BRANCH  69  82
ATOM     82  C   UNL A   1      40.944  30.383  32.785  1.00  0.00    -0.014 A 
ATOM     83  C   UNL A   1      40.677  31.093  33.958  1.00  0.00     0.009 A 
ATOM     84  C   UNL A   1      39.821  29.898  32.069  1.00  0.00     0.009 A 
ATOM     85  C   UNL A   1      39.366  31.289  34.404  1.00  0.00     0.001 A 
ATOM     86  C   UNL A   1      38.512  30.138  32.479  1.00  0.00     0.001 A 
ATOM     87  C   UNL A   1      38.286  30.829  33.657  1.00  0.00     0.000 A 
ENDBRANCH  69  82
ENDBRANCH  43  44
ENDBRANCH  36  38
ENDBRANCH  35  36
ENDBRANCH  34  35
ENDBRANCH  33  34
ENDBRANCH  32  33
ENDBRANCH  31  32
ENDBRANCH  30  31
ENDBRANCH  29  30
ENDBRANCH   1  29
TORSDOF 23
ENDMDL
