MODEL 1
REMARK VINA RESULT:      -8.2      0.000      0.000
REMARK SMILES CCOc1cc2c(cc1/C=C1/C(=O)N(c3cccc(C(=O)OCCOCCOCCOCCOC(=O)c4ccc(-c5c6nc(c(-c7ccccc7)c7ccc([nH]7)c(-c7ccccc7)c7nc(c(-c8ccccc8)c8ccc5[nH]8)C=C7)C=C6)cc4)c3)C(=S)N=C1O)OCO2
REMARK SMILES IDX 27 1 26 2 25 3 24 4 23 5 22 6 20 7 21 8 19 9 15 10 16 11
REMARK SMILES IDX 85 12 17 13 18 14 14 15 10 16 11 17 12 18 89 19 13 20 88 21
REMARK SMILES IDX 86 22 87 23 9 24 4 25 5 26 6 27 8 28 7 29 93 30 91 31 92 32
REMARK SMILES IDX 3 33 2 34 1 35 90 36 28 38 29 39 30 40 31 41 32 42 33 43
REMARK SMILES IDX 34 44 35 45 36 46 37 47 38 48 84 49 39 50 83 51 40 52 41 53
REMARK SMILES IDX 42 54 77 55 43 56 82 57 76 58 78 59 44 60 81 61 75 62 74 63
REMARK SMILES IDX 45 65 67 66 52 67 66 68 53 69 56 70 65 71 79 72 54 73 55 74
REMARK SMILES IDX 64 76 80 77 57 78 46 79 47 80 51 81 48 82 50 83 49 84 68 85
REMARK SMILES IDX 69 86 73 87 70 88 72 89 71 90 58 91 59 92 63 93 60 94 62 95
REMARK SMILES IDX 61 96
REMARK H PARENT 90 37 78 64 56 75
REMARK Flexibility Score: inf
ROOT
ATOM      1  C   UNL A   1      34.217  36.660  32.880  1.00  0.00     0.188 C 
ENDROOT
BRANCH   1   2
ATOM      2  C   UNL A   1      34.370  35.393  33.746  1.00  0.00     0.188 C 
BRANCH   2   3
ATOM      3  O   UNL A   1      34.163  34.190  33.028  1.00  0.00    -0.376 OA
BRANCH   3   4
ATOM      4  C   UNL A   1      34.928  33.035  33.313  1.00  0.00     0.202 C 
BRANCH   4   5
ATOM      5  C   UNL A   1      36.207  33.085  34.165  1.00  0.00     0.261 C 
BRANCH   5   6
ATOM      6  O   UNL A   1      37.441  32.828  33.494  1.00  0.00    -0.460 OA
BRANCH   6   7
ATOM      7  C   UNL A   1      38.090  33.876  32.939  1.00  0.00     0.338 C 
ATOM      8  O   UNL A   1      37.620  34.957  32.649  1.00  0.00    -0.246 OA
BRANCH   7   9
ATOM      9  C   UNL A   1      39.539  33.550  32.987  1.00  0.00     0.062 A 
ATOM     10  C   UNL A   1      41.381  32.222  33.869  1.00  0.00     0.052 A 
ATOM     11  C   UNL A   1      42.276  33.126  33.270  1.00  0.00     0.027 A 
ATOM     12  C   UNL A   1      40.007  32.454  33.723  1.00  0.00     0.042 A 
ATOM     13  C   UNL A   1      41.811  34.229  32.545  1.00  0.00     0.003 A 
ATOM     14  C   UNL A   1      40.442  34.435  32.391  1.00  0.00     0.016 A 
BRANCH  10  15
ATOM     15  N   UNL A   1      41.862  31.047  34.562  1.00  0.00    -0.251 N 
ATOM     16  C   UNL A   1      42.356  27.469  33.967  1.00  0.00     0.031 C 
ATOM     17  C   UNL A   1      42.536  28.690  34.528  1.00  0.00     0.103 C 
ATOM     18  C   UNL A   1      41.945  29.860  33.810  1.00  0.00     0.270 C 
ATOM     19  C   UNL A   1      43.269  29.070  35.731  1.00  0.00     0.226 C 
ATOM     20  O   UNL A   1      41.605  29.742  32.632  1.00  0.00    -0.268 OA
ATOM     21  N   UNL A   1      43.159  30.170  36.373  1.00  0.00    -0.184 NA
ATOM     22  C   UNL A   1      42.265  31.109  35.914  1.00  0.00     0.210 C 
ATOM     23  S   UNL A   1      41.690  32.247  37.040  1.00  0.00    -0.038 S 
BRANCH  16  24
ATOM     24  C   UNL A   1      42.843  26.132  34.379  1.00  0.00     0.021 A 
ATOM     25  C   UNL A   1      42.030  25.262  35.158  1.00  0.00     0.130 A 
ATOM     26  C   UNL A   1      42.372  23.916  35.342  1.00  0.00     0.097 A 
ATOM     27  C   UNL A   1      43.578  23.490  34.846  1.00  0.00     0.169 A 
ATOM     28  C   UNL A   1      44.120  25.680  34.011  1.00  0.00     0.062 A 
ATOM     29  C   UNL A   1      44.440  24.354  34.223  1.00  0.00     0.166 A 
ATOM     30  O   UNL A   1      44.062  22.223  34.908  1.00  0.00    -0.453 OA
ATOM     31  O   UNL A   1      45.582  23.741  33.815  1.00  0.00    -0.454 OA
ATOM     32  C   UNL A   1      45.299  22.374  34.183  1.00  0.00     0.468 C 
BRANCH  25  33
ATOM     33  O   UNL A   1      40.841  25.690  35.699  1.00  0.00    -0.493 OA
BRANCH  33  34
ATOM     34  C   UNL A   1      40.845  25.603  37.139  1.00  0.00     0.226 C 
ATOM     35  C   UNL A   1      42.191  25.962  37.757  1.00  0.00     0.049 C 
ENDBRANCH  33  34
ENDBRANCH  25  33
ENDBRANCH  16  24
BRANCH  19  36
ATOM     36  O   UNL A   1      44.193  28.223  36.182  1.00  0.00    -0.493 OA
ATOM     37  H   UNL A   1      44.202  27.336  35.882  1.00  0.00     0.295 HD
ENDBRANCH  19  36
ENDBRANCH  10  15
ENDBRANCH   7   9
ENDBRANCH   6   7
ENDBRANCH   5   6
ENDBRANCH   4   5
ENDBRANCH   3   4
ENDBRANCH   2   3
ENDBRANCH   1   2
BRANCH   1  38
ATOM     38  O   UNL A   1      33.039  36.729  32.092  1.00  0.00    -0.377 OA
BRANCH  38  39
ATOM     39  C   UNL A   1      33.143  36.705  30.668  1.00  0.00     0.188 C 
BRANCH  39  40
ATOM     40  C   UNL A   1      33.250  35.400  29.836  1.00  0.00     0.188 C 
BRANCH  40  41
ATOM     41  O   UNL A   1      33.988  35.508  28.632  1.00  0.00    -0.376 OA
BRANCH  41  42
ATOM     42  C   UNL A   1      34.781  34.416  28.209  1.00  0.00     0.202 C 
BRANCH  42  43
ATOM     43  C   UNL A   1      36.119  34.220  28.933  1.00  0.00     0.261 C 
BRANCH  43  44
ATOM     44  O   UNL A   1      36.089  33.323  30.052  1.00  0.00    -0.460 OA
BRANCH  44  45
ATOM     45  C   UNL A   1      35.544  32.106  29.828  1.00  0.00     0.338 C 
ATOM     46  O   UNL A   1      34.374  31.845  29.648  1.00  0.00    -0.246 OA
BRANCH  45  47
ATOM     47  C   UNL A   1      36.650  31.144  29.642  1.00  0.00     0.060 A 
ATOM     48  C   UNL A   1      37.468  30.850  30.739  1.00  0.00     0.016 A 
ATOM     49  C   UNL A   1      36.892  30.558  28.396  1.00  0.00     0.016 A 
ATOM     50  C   UNL A   1      38.575  30.020  30.577  1.00  0.00     0.010 A 
ATOM     51  C   UNL A   1      38.014  29.742  28.230  1.00  0.00     0.010 A 
ATOM     52  C   UNL A   1      38.888  29.516  29.307  1.00  0.00    -0.014 A 
BRANCH  52  53
ATOM     53  C   UNL A   1      40.252  28.982  29.080  1.00  0.00     0.031 A 
ATOM     54  C   UNL A   1      41.421  29.901  29.320  1.00  0.00     0.074 A 
ATOM     55  C   UNL A   1      40.458  27.693  28.760  1.00  0.00     0.049 A 
ATOM     56  N   UNL A   1      42.704  29.651  29.254  1.00  0.00    -0.248 NA
ATOM     57  C   UNL A   1      41.099  31.290  29.692  1.00  0.00     0.031 C 
ATOM     58  C   UNL A   1      39.414  26.692  28.550  1.00  0.00     0.029 A 
ATOM     59  N   UNL A   1      41.630  27.004  28.569  1.00  0.00    -0.354 N 
ATOM     60  C   UNL A   1      43.336  30.847  29.570  1.00  0.00     0.074 A 
ATOM     61  C   UNL A   1      42.302  31.832  29.791  1.00  0.00     0.031 C 
ATOM     62  C   UNL A   1      39.995  25.512  28.266  1.00  0.00     0.029 A 
ATOM     63  C   UNL A   1      41.447  25.683  28.247  1.00  0.00     0.049 A 
ATOM     64  H   UNL A   1      42.519  27.420  28.655  1.00  0.00     0.167 HD
ATOM     65  C   UNL A   1      44.660  31.103  29.683  1.00  0.00     0.031 A 
ATOM     66  C   UNL A   1      42.350  24.724  27.961  1.00  0.00     0.031 A 
ATOM     67  C   UNL A   1      45.692  30.129  29.454  1.00  0.00     0.049 A 
ATOM     68  C   UNL A   1      43.819  25.057  28.016  1.00  0.00     0.074 A 
ATOM     69  C   UNL A   1      47.063  30.286  29.549  1.00  0.00     0.029 A 
ATOM     70  N   UNL A   1      45.465  28.816  29.073  1.00  0.00    -0.354 N 
ATOM     71  N   UNL A   1      44.405  26.184  28.347  1.00  0.00    -0.248 NA
ATOM     72  C   UNL A   1      44.752  23.974  27.675  1.00  0.00     0.031 C 
ATOM     73  C   UNL A   1      47.669  29.087  29.162  1.00  0.00     0.029 A 
ATOM     74  C   UNL A   1      46.673  28.160  28.900  1.00  0.00     0.049 A 
ATOM     75  H   UNL A   1      44.577  28.410  28.945  1.00  0.00     0.167 HD
ATOM     76  C   UNL A   1      45.772  25.934  28.286  1.00  0.00     0.074 A 
ATOM     77  C   UNL A   1      45.925  24.544  27.910  1.00  0.00     0.031 C 
ATOM     78  C   UNL A   1      46.808  26.777  28.519  1.00  0.00     0.031 A 
BRANCH  65  79
ATOM     79  C   UNL A   1      45.067  32.509  30.032  1.00  0.00    -0.014 A 
ATOM     80  C   UNL A   1      45.232  33.492  29.043  1.00  0.00     0.009 A 
ATOM     81  C   UNL A   1      45.263  32.860  31.376  1.00  0.00     0.009 A 
ATOM     82  C   UNL A   1      45.616  34.789  29.393  1.00  0.00     0.001 A 
ATOM     83  C   UNL A   1      45.615  34.165  31.725  1.00  0.00     0.001 A 
ATOM     84  C   UNL A   1      45.800  35.126  30.733  1.00  0.00     0.000 A 
ENDBRANCH  65  79
BRANCH  66  85
ATOM     85  C   UNL A   1      41.902  23.359  27.575  1.00  0.00    -0.014 A 
ATOM     86  C   UNL A   1      41.884  22.313  28.511  1.00  0.00     0.009 A 
ATOM     87  C   UNL A   1      41.535  23.084  26.248  1.00  0.00     0.009 A 
ATOM     88  C   UNL A   1      41.546  21.015  28.116  1.00  0.00     0.001 A 
ATOM     89  C   UNL A   1      41.165  21.794  25.864  1.00  0.00     0.001 A 
ATOM     90  C   UNL A   1      41.184  20.757  26.796  1.00  0.00     0.000 A 
ENDBRANCH  66  85
BRANCH  78  91
ATOM     91  C   UNL A   1      48.198  26.205  28.419  1.00  0.00    -0.014 A 
ATOM     92  C   UNL A   1      48.907  25.789  29.558  1.00  0.00     0.009 A 
ATOM     93  C   UNL A   1      48.801  26.067  27.160  1.00  0.00     0.009 A 
ATOM     94  C   UNL A   1      50.209  25.299  29.441  1.00  0.00     0.001 A 
ATOM     95  C   UNL A   1      50.088  25.539  27.041  1.00  0.00     0.001 A 
ATOM     96  C   UNL A   1      50.797  25.171  28.183  1.00  0.00     0.000 A 
ENDBRANCH  78  91
ENDBRANCH  52  53
ENDBRANCH  45  47
ENDBRANCH  44  45
ENDBRANCH  43  44
ENDBRANCH  42  43
ENDBRANCH  41  42
ENDBRANCH  40  41
ENDBRANCH  39  40
ENDBRANCH  38  39
ENDBRANCH   1  38
TORSDOF 25
ENDMDL
MODEL 2
REMARK VINA RESULT:      -7.9      5.862     14.012
REMARK SMILES CCOc1cc2c(cc1/C=C1/C(=O)N(c3cccc(C(=O)OCCOCCOCCOCCOC(=O)c4ccc(-c5c6nc(c(-c7ccccc7)c7ccc([nH]7)c(-c7ccccc7)c7nc(c(-c8ccccc8)c8ccc5[nH]8)C=C7)C=C6)cc4)c3)C(=S)N=C1O)OCO2
REMARK SMILES IDX 27 1 26 2 25 3 24 4 23 5 22 6 20 7 21 8 19 9 15 10 16 11
REMARK SMILES IDX 85 12 17 13 18 14 14 15 10 16 11 17 12 18 89 19 13 20 88 21
REMARK SMILES IDX 86 22 87 23 9 24 4 25 5 26 6 27 8 28 7 29 93 30 91 31 92 32
REMARK SMILES IDX 3 33 2 34 1 35 90 36 28 38 29 39 30 40 31 41 32 42 33 43
REMARK SMILES IDX 34 44 35 45 36 46 37 47 38 48 84 49 39 50 83 51 40 52 41 53
REMARK SMILES IDX 42 54 77 55 43 56 82 57 76 58 78 59 44 60 81 61 75 62 74 63
REMARK SMILES IDX 45 65 67 66 52 67 66 68 53 69 56 70 65 71 79 72 54 73 55 74
REMARK SMILES IDX 64 76 80 77 57 78 46 79 47 80 51 81 48 82 50 83 49 84 68 85
REMARK SMILES IDX 69 86 73 87 70 88 72 89 71 90 58 91 59 92 63 93 60 94 62 95
REMARK SMILES IDX 61 96
REMARK H PARENT 90 37 78 64 56 75
REMARK Flexibility Score: inf
ROOT
ATOM      1  C   UNL A   1      42.981  20.848  25.780  1.00  0.00     0.188 C 
ENDROOT
BRANCH   1   2
ATOM      2  C   UNL A   1      42.827  19.314  25.739  1.00  0.00     0.188 C 
BRANCH   2   3
ATOM      3  O   UNL A   1      41.479  18.881  25.770  1.00  0.00    -0.376 OA
BRANCH   3   4
ATOM      4  C   UNL A   1      40.419  19.816  25.843  1.00  0.00     0.202 C 
BRANCH   4   5
ATOM      5  C   UNL A   1      38.945  19.399  25.721  1.00  0.00     0.261 C 
BRANCH   5   6
ATOM      6  O   UNL A   1      38.127  20.165  24.835  1.00  0.00    -0.460 OA
BRANCH   6   7
ATOM      7  C   UNL A   1      37.570  21.301  25.311  1.00  0.00     0.338 C 
ATOM      8  O   UNL A   1      38.148  22.313  25.649  1.00  0.00    -0.246 OA
BRANCH   7   9
ATOM      9  C   UNL A   1      36.105  21.172  25.104  1.00  0.00     0.062 A 
ATOM     10  C   UNL A   1      33.851  22.072  25.318  1.00  0.00     0.052 A 
ATOM     11  C   UNL A   1      33.348  20.808  24.958  1.00  0.00     0.027 A 
ATOM     12  C   UNL A   1      35.240  22.236  25.394  1.00  0.00     0.042 A 
ATOM     13  C   UNL A   1      34.210  19.741  24.680  1.00  0.00     0.003 A 
ATOM     14  C   UNL A   1      35.588  19.925  24.740  1.00  0.00     0.016 A 
BRANCH  10  15
ATOM     15  N   UNL A   1      32.962  23.190  25.540  1.00  0.00    -0.251 N 
ATOM     16  C   UNL A   1      31.954  26.313  23.917  1.00  0.00     0.031 C 
ATOM     17  C   UNL A   1      31.867  25.228  24.724  1.00  0.00     0.103 C 
ATOM     18  C   UNL A   1      32.865  24.137  24.503  1.00  0.00     0.270 C 
ATOM     19  C   UNL A   1      30.906  24.916  25.777  1.00  0.00     0.226 C 
ATOM     20  O   UNL A   1      33.504  24.102  23.450  1.00  0.00    -0.268 OA
ATOM     21  N   UNL A   1      31.043  24.037  26.695  1.00  0.00    -0.184 NA
ATOM     22  C   UNL A   1      32.201  23.297  26.726  1.00  0.00     0.210 C 
ATOM     23  S   UNL A   1      32.638  22.603  28.216  1.00  0.00    -0.038 S 
BRANCH  16  24
ATOM     24  C   UNL A   1      31.109  27.528  23.832  1.00  0.00     0.021 A 
ATOM     25  C   UNL A   1      31.272  28.602  24.751  1.00  0.00     0.130 A 
ATOM     26  C   UNL A   1      30.662  29.843  24.534  1.00  0.00     0.097 A 
ATOM     27  C   UNL A   1      29.805  29.958  23.470  1.00  0.00     0.169 A 
ATOM     28  C   UNL A   1      30.124  27.657  22.841  1.00  0.00     0.062 A 
ATOM     29  C   UNL A   1      29.522  28.887  22.663  1.00  0.00     0.166 A 
ATOM     30  O   UNL A   1      29.146  31.084  23.094  1.00  0.00    -0.453 OA
ATOM     31  O   UNL A   1      28.644  29.202  21.674  1.00  0.00    -0.454 OA
ATOM     32  C   UNL A   1      28.474  30.616  21.908  1.00  0.00     0.468 C 
BRANCH  25  33
ATOM     33  O   UNL A   1      32.093  28.484  25.848  1.00  0.00    -0.493 OA
BRANCH  33  34
ATOM     34  C   UNL A   1      33.284  29.285  25.713  1.00  0.00     0.226 C 
ATOM     35  C   UNL A   1      34.428  28.813  26.604  1.00  0.00     0.049 C 
ENDBRANCH  33  34
ENDBRANCH  25  33
ENDBRANCH  16  24
BRANCH  19  36
ATOM     36  O   UNL A   1      29.740  25.559  25.756  1.00  0.00    -0.493 OA
ATOM     37  H   UNL A   1      29.143  25.423  25.046  1.00  0.00     0.295 HD
ENDBRANCH  19  36
ENDBRANCH  10  15
ENDBRANCH   7   9
ENDBRANCH   6   7
ENDBRANCH   5   6
ENDBRANCH   4   5
ENDBRANCH   3   4
ENDBRANCH   2   3
ENDBRANCH   1   2
BRANCH   1  38
ATOM     38  O   UNL A   1      43.244  21.407  27.058  1.00  0.00    -0.377 OA
BRANCH  38  39
ATOM     39  C   UNL A   1      42.769  22.719  27.362  1.00  0.00     0.188 C 
BRANCH  39  40
ATOM     40  C   UNL A   1      41.507  23.348  26.715  1.00  0.00     0.188 C 
BRANCH  40  41
ATOM     41  O   UNL A   1      41.752  24.431  25.837  1.00  0.00    -0.376 OA
BRANCH  41  42
ATOM     42  C   UNL A   1      42.362  25.603  26.342  1.00  0.00     0.202 C 
BRANCH  42  43
ATOM     43  C   UNL A   1      41.881  26.935  25.752  1.00  0.00     0.261 C 
BRANCH  43  44
ATOM     44  O   UNL A   1      41.860  28.042  26.663  1.00  0.00    -0.460 OA
BRANCH  44  45
ATOM     45  C   UNL A   1      43.046  28.648  26.894  1.00  0.00     0.338 C 
ATOM     46  O   UNL A   1      43.924  28.877  26.091  1.00  0.00    -0.246 OA
BRANCH  45  47
ATOM     47  C   UNL A   1      43.024  29.173  28.275  1.00  0.00     0.060 A 
ATOM     48  C   UNL A   1      42.570  28.334  29.299  1.00  0.00     0.016 A 
ATOM     49  C   UNL A   1      43.422  30.483  28.553  1.00  0.00     0.016 A 
ATOM     50  C   UNL A   1      42.447  28.824  30.596  1.00  0.00     0.010 A 
ATOM     51  C   UNL A   1      43.280  30.981  29.851  1.00  0.00     0.010 A 
ATOM     52  C   UNL A   1      42.741  30.168  30.864  1.00  0.00    -0.014 A 
BRANCH  52  53
ATOM     53  C   UNL A   1      42.236  30.761  32.125  1.00  0.00     0.031 A 
ATOM     54  C   UNL A   1      40.839  31.322  32.134  1.00  0.00     0.074 A 
ATOM     55  C   UNL A   1      42.958  30.720  33.259  1.00  0.00     0.049 A 
ATOM     56  N   UNL A   1      40.153  31.832  33.126  1.00  0.00    -0.248 NA
ATOM     57  C   UNL A   1      40.115  31.301  30.851  1.00  0.00     0.031 C 
ATOM     58  C   UNL A   1      44.300  30.158  33.393  1.00  0.00     0.029 A 
ATOM     59  N   UNL A   1      42.645  31.154  34.523  1.00  0.00    -0.354 N 
ATOM     60  C   UNL A   1      38.924  32.192  32.585  1.00  0.00     0.074 A 
ATOM     61  C   UNL A   1      38.970  31.882  31.174  1.00  0.00     0.031 C 
ATOM     62  C   UNL A   1      44.694  30.276  34.674  1.00  0.00     0.029 A 
ATOM     63  C   UNL A   1      43.644  30.944  35.440  1.00  0.00     0.049 A 
ATOM     64  H   UNL A   1      41.784  31.576  34.750  1.00  0.00     0.167 HD
ATOM     65  C   UNL A   1      37.846  32.722  33.207  1.00  0.00     0.031 A 
ATOM     66  C   UNL A   1      43.705  31.265  36.748  1.00  0.00     0.031 A 
ATOM     67  C   UNL A   1      37.800  33.042  34.608  1.00  0.00     0.049 A 
ATOM     68  C   UNL A   1      42.518  31.927  37.400  1.00  0.00     0.074 A 
ATOM     69  C   UNL A   1      36.752  33.576  35.337  1.00  0.00     0.029 A 
ATOM     70  N   UNL A   1      38.854  32.868  35.491  1.00  0.00    -0.354 N 
ATOM     71  N   UNL A   1      41.351  32.235  36.885  1.00  0.00    -0.248 NA
ATOM     72  C   UNL A   1      42.655  32.269  38.823  1.00  0.00     0.031 C 
ATOM     73  C   UNL A   1      37.194  33.785  36.647  1.00  0.00     0.029 A 
ATOM     74  C   UNL A   1      38.492  33.311  36.752  1.00  0.00     0.049 A 
ATOM     75  H   UNL A   1      39.731  32.485  35.256  1.00  0.00     0.167 HD
ATOM     76  C   UNL A   1      40.605  32.775  37.928  1.00  0.00     0.074 A 
ATOM     77  C   UNL A   1      41.445  32.728  39.107  1.00  0.00     0.031 C 
ATOM     78  C   UNL A   1      39.341  33.264  37.914  1.00  0.00     0.031 A 
BRANCH  65  79
ATOM     79  C   UNL A   1      36.639  33.027  32.363  1.00  0.00    -0.014 A 
ATOM     80  C   UNL A   1      35.890  32.006  31.755  1.00  0.00     0.009 A 
ATOM     81  C   UNL A   1      36.230  34.359  32.194  1.00  0.00     0.009 A 
ATOM     82  C   UNL A   1      34.777  32.317  30.971  1.00  0.00     0.001 A 
ATOM     83  C   UNL A   1      35.099  34.664  31.436  1.00  0.00     0.001 A 
ATOM     84  C   UNL A   1      34.378  33.643  30.818  1.00  0.00     0.000 A 
ENDBRANCH  65  79
BRANCH  66  85
ATOM     85  C   UNL A   1      44.937  30.987  37.535  1.00  0.00    -0.014 A 
ATOM     86  C   UNL A   1      46.033  31.863  37.496  1.00  0.00     0.009 A 
ATOM     87  C   UNL A   1      45.039  29.811  38.294  1.00  0.00     0.009 A 
ATOM     88  C   UNL A   1      47.217  31.547  38.169  1.00  0.00     0.001 A 
ATOM     89  C   UNL A   1      46.211  29.515  38.994  1.00  0.00     0.001 A 
ATOM     90  C   UNL A   1      47.304  30.377  38.920  1.00  0.00     0.000 A 
ENDBRANCH  66  85
BRANCH  78  91
ATOM     91  C   UNL A   1      38.774  33.746  39.224  1.00  0.00    -0.014 A 
ATOM     92  C   UNL A   1      37.964  32.923  40.023  1.00  0.00     0.009 A 
ATOM     93  C   UNL A   1      39.069  35.043  39.671  1.00  0.00     0.009 A 
ATOM     94  C   UNL A   1      37.419  33.408  41.213  1.00  0.00     0.001 A 
ATOM     95  C   UNL A   1      38.556  35.513  40.881  1.00  0.00     0.001 A 
ATOM     96  C   UNL A   1      37.718  34.701  41.643  1.00  0.00     0.000 A 
ENDBRANCH  78  91
ENDBRANCH  52  53
ENDBRANCH  45  47
ENDBRANCH  44  45
ENDBRANCH  43  44
ENDBRANCH  42  43
ENDBRANCH  41  42
ENDBRANCH  40  41
ENDBRANCH  39  40
ENDBRANCH  38  39
ENDBRANCH   1  38
TORSDOF 25
ENDMDL
MODEL 3
REMARK VINA RESULT:      -7.6      3.667      9.585
REMARK SMILES CCOc1cc2c(cc1/C=C1/C(=O)N(c3cccc(C(=O)OCCOCCOCCOCCOC(=O)c4ccc(-c5c6nc(c(-c7ccccc7)c7ccc([nH]7)c(-c7ccccc7)c7nc(c(-c8ccccc8)c8ccc5[nH]8)C=C7)C=C6)cc4)c3)C(=S)N=C1O)OCO2
REMARK SMILES IDX 27 1 26 2 25 3 24 4 23 5 22 6 20 7 21 8 19 9 15 10 16 11
REMARK SMILES IDX 85 12 17 13 18 14 14 15 10 16 11 17 12 18 89 19 13 20 88 21
REMARK SMILES IDX 86 22 87 23 9 24 4 25 5 26 6 27 8 28 7 29 93 30 91 31 92 32
REMARK SMILES IDX 3 33 2 34 1 35 90 36 28 38 29 39 30 40 31 41 32 42 33 43
REMARK SMILES IDX 34 44 35 45 36 46 37 47 38 48 84 49 39 50 83 51 40 52 41 53
REMARK SMILES IDX 42 54 77 55 43 56 82 57 76 58 78 59 44 60 81 61 75 62 74 63
REMARK SMILES IDX 45 65 67 66 52 67 66 68 53 69 56 70 65 71 79 72 54 73 55 74
REMARK SMILES IDX 64 76 80 77 57 78 46 79 47 80 51 81 48 82 50 83 49 84 68 85
REMARK SMILES IDX 69 86 73 87 70 88 72 89 71 90 58 91 59 92 63 93 60 94 62 95
REMARK SMILES IDX 61 96
REMARK H PARENT 90 37 78 64 56 75
REMARK Flexibility Score: inf
ROOT
ATOM      1  C   UNL A   1      32.549  35.855  29.588  1.00  0.00     0.188 C 
ENDROOT
BRANCH   1   2
ATOM      2  C   UNL A   1      33.201  34.981  28.498  1.00  0.00     0.188 C 
BRANCH   2   3
ATOM      3  O   UNL A   1      34.596  35.187  28.370  1.00  0.00    -0.376 OA
BRANCH   3   4
ATOM      4  C   UNL A   1      35.516  34.200  28.797  1.00  0.00     0.202 C 
BRANCH   4   5
ATOM      5  C   UNL A   1      35.672  32.853  28.074  1.00  0.00     0.261 C 
BRANCH   5   6
ATOM      6  O   UNL A   1      35.343  31.678  28.817  1.00  0.00    -0.460 OA
BRANCH   6   7
ATOM      7  C   UNL A   1      35.812  30.493  28.366  1.00  0.00     0.338 C 
ATOM      8  O   UNL A   1      35.596  29.984  27.285  1.00  0.00    -0.246 OA
BRANCH   7   9
ATOM      9  C   UNL A   1      36.844  30.050  29.338  1.00  0.00     0.062 A 
ATOM     10  C   UNL A   1      39.050  29.127  29.808  1.00  0.00     0.052 A 
ATOM     11  C   UNL A   1      38.663  28.974  31.152  1.00  0.00     0.027 A 
ATOM     12  C   UNL A   1      38.120  29.664  28.907  1.00  0.00     0.042 A 
ATOM     13  C   UNL A   1      37.384  29.348  31.581  1.00  0.00     0.003 A 
ATOM     14  C   UNL A   1      36.479  29.898  30.679  1.00  0.00     0.016 A 
BRANCH  10  15
ATOM     15  N   UNL A   1      40.392  28.803  29.379  1.00  0.00    -0.251 N 
ATOM     16  C   UNL A   1      42.429  25.869  28.578  1.00  0.00     0.031 C 
ATOM     17  C   UNL A   1      42.024  27.162  28.568  1.00  0.00     0.103 C 
ATOM     18  C   UNL A   1      40.657  27.449  29.100  1.00  0.00     0.270 C 
ATOM     19  C   UNL A   1      42.704  28.354  28.070  1.00  0.00     0.226 C 
ATOM     20  O   UNL A   1      39.850  26.527  29.231  1.00  0.00    -0.268 OA
ATOM     21  N   UNL A   1      42.416  29.567  28.352  1.00  0.00    -0.184 NA
ATOM     22  C   UNL A   1      41.370  29.809  29.211  1.00  0.00     0.210 C 
ATOM     23  S   UNL A   1      41.371  31.298  30.034  1.00  0.00    -0.038 S 
BRANCH  16  24
ATOM     24  C   UNL A   1      43.678  25.241  28.086  1.00  0.00     0.021 A 
ATOM     25  C   UNL A   1      43.701  24.508  26.866  1.00  0.00     0.130 A 
ATOM     26  C   UNL A   1      44.908  24.126  26.269  1.00  0.00     0.097 A 
ATOM     27  C   UNL A   1      46.068  24.377  26.956  1.00  0.00     0.169 A 
ATOM     28  C   UNL A   1      44.878  25.351  28.805  1.00  0.00     0.062 A 
ATOM     29  C   UNL A   1      46.051  24.947  28.202  1.00  0.00     0.166 A 
ATOM     30  O   UNL A   1      47.326  24.100  26.524  1.00  0.00    -0.453 OA
ATOM     31  O   UNL A   1      47.300  25.101  28.717  1.00  0.00    -0.454 OA
ATOM     32  C   UNL A   1      48.105  24.635  27.613  1.00  0.00     0.468 C 
BRANCH  25  33
ATOM     33  O   UNL A   1      42.540  24.211  26.191  1.00  0.00    -0.493 OA
BRANCH  33  34
ATOM     34  C   UNL A   1      42.088  22.870  26.467  1.00  0.00     0.226 C 
ATOM     35  C   UNL A   1      40.644  22.813  26.954  1.00  0.00     0.049 C 
ENDBRANCH  33  34
ENDBRANCH  25  33
ENDBRANCH  16  24
BRANCH  19  36
ATOM     36  O   UNL A   1      43.683  28.180  27.184  1.00  0.00    -0.493 OA
ATOM     37  H   UNL A   1      43.571  27.580  26.474  1.00  0.00     0.295 HD
ENDBRANCH  19  36
ENDBRANCH  10  15
ENDBRANCH   7   9
ENDBRANCH   6   7
ENDBRANCH   5   6
ENDBRANCH   4   5
ENDBRANCH   3   4
ENDBRANCH   2   3
ENDBRANCH   1   2
BRANCH   1  38
ATOM     38  O   UNL A   1      33.239  37.051  29.915  1.00  0.00    -0.377 OA
BRANCH  38  39
ATOM     39  C   UNL A   1      33.574  37.320  31.277  1.00  0.00     0.188 C 
BRANCH  39  40
ATOM     40  C   UNL A   1      32.792  36.740  32.485  1.00  0.00     0.188 C 
BRANCH  40  41
ATOM     41  O   UNL A   1      33.494  35.783  33.258  1.00  0.00    -0.376 OA
BRANCH  41  42
ATOM     42  C   UNL A   1      33.865  34.555  32.663  1.00  0.00     0.202 C 
BRANCH  42  43
ATOM     43  C   UNL A   1      34.581  33.544  33.567  1.00  0.00     0.261 C 
BRANCH  43  44
ATOM     44  O   UNL A   1      35.997  33.729  33.698  1.00  0.00    -0.460 OA
BRANCH  44  45
ATOM     45  C   UNL A   1      36.762  33.210  32.710  1.00  0.00     0.338 C 
ATOM     46  O   UNL A   1      36.698  33.455  31.525  1.00  0.00    -0.246 OA
BRANCH  45  47
ATOM     47  C   UNL A   1      37.839  32.420  33.341  1.00  0.00     0.060 A 
ATOM     48  C   UNL A   1      37.520  31.620  34.445  1.00  0.00     0.016 A 
ATOM     49  C   UNL A   1      39.151  32.485  32.865  1.00  0.00     0.016 A 
ATOM     50  C   UNL A   1      38.527  30.936  35.120  1.00  0.00     0.010 A 
ATOM     51  C   UNL A   1      40.164  31.814  33.555  1.00  0.00     0.010 A 
ATOM     52  C   UNL A   1      39.861  31.082  34.717  1.00  0.00    -0.014 A 
BRANCH  52  53
ATOM     53  C   UNL A   1      40.929  30.682  35.663  1.00  0.00     0.031 A 
ATOM     54  C   UNL A   1      41.622  29.365  35.431  1.00  0.00     0.074 A 
ATOM     55  C   UNL A   1      41.342  31.501  36.646  1.00  0.00     0.049 A 
ATOM     56  N   UNL A   1      42.626  28.827  36.078  1.00  0.00    -0.248 NA
ATOM     57  C   UNL A   1      41.119  28.545  34.315  1.00  0.00     0.031 C 
ATOM     58  C   UNL A   1      40.788  32.821  36.941  1.00  0.00     0.029 A 
ATOM     59  N   UNL A   1      42.342  31.339  37.572  1.00  0.00    -0.354 N 
ATOM     60  C   UNL A   1      42.867  27.611  35.450  1.00  0.00     0.074 A 
ATOM     61  C   UNL A   1      41.885  27.470  34.399  1.00  0.00     0.031 C 
ATOM     62  C   UNL A   1      41.463  33.353  37.976  1.00  0.00     0.029 A 
ATOM     63  C   UNL A   1      42.475  32.401  38.431  1.00  0.00     0.049 A 
ATOM     64  H   UNL A   1      42.911  30.536  37.616  1.00  0.00     0.167 HD
ATOM     65  C   UNL A   1      43.830  26.697  35.712  1.00  0.00     0.031 A 
ATOM     66  C   UNL A   1      43.312  32.578  39.472  1.00  0.00     0.031 A 
ATOM     67  C   UNL A   1      44.802  26.829  36.764  1.00  0.00     0.049 A 
ATOM     68  C   UNL A   1      44.324  31.508  39.793  1.00  0.00     0.074 A 
ATOM     69  C   UNL A   1      45.823  25.961  37.108  1.00  0.00     0.029 A 
ATOM     70  N   UNL A   1      44.865  27.893  37.649  1.00  0.00    -0.354 N 
ATOM     71  N   UNL A   1      44.563  30.376  39.172  1.00  0.00    -0.248 NA
ATOM     72  C   UNL A   1      45.195  31.751  40.951  1.00  0.00     0.031 C 
ATOM     73  C   UNL A   1      46.464  26.469  38.242  1.00  0.00     0.029 A 
ATOM     74  C   UNL A   1      45.890  27.690  38.557  1.00  0.00     0.049 A 
ATOM     75  H   UNL A   1      44.269  28.678  37.633  1.00  0.00     0.167 HD
ATOM     76  C   UNL A   1      45.632  29.792  39.845  1.00  0.00     0.074 A 
ATOM     77  C   UNL A   1      46.007  30.707  40.903  1.00  0.00     0.031 C 
ATOM     78  C   UNL A   1      46.248  28.607  39.610  1.00  0.00     0.031 A 
BRANCH  65  79
ATOM     79  C   UNL A   1      43.850  25.450  34.870  1.00  0.00    -0.014 A 
ATOM     80  C   UNL A   1      43.214  24.270  35.289  1.00  0.00     0.009 A 
ATOM     81  C   UNL A   1      44.495  25.466  33.624  1.00  0.00     0.009 A 
ATOM     82  C   UNL A   1      43.252  23.125  34.492  1.00  0.00     0.001 A 
ATOM     83  C   UNL A   1      44.505  24.329  32.815  1.00  0.00     0.001 A 
ATOM     84  C   UNL A   1      43.891  23.157  33.253  1.00  0.00     0.000 A 
ENDBRANCH  65  79
BRANCH  66  85
ATOM     85  C   UNL A   1      43.227  33.806  40.307  1.00  0.00    -0.014 A 
ATOM     86  C   UNL A   1      44.015  34.932  40.021  1.00  0.00     0.009 A 
ATOM     87  C   UNL A   1      42.385  33.840  41.430  1.00  0.00     0.009 A 
ATOM     88  C   UNL A   1      43.991  36.046  40.864  1.00  0.00     0.001 A 
ATOM     89  C   UNL A   1      42.336  34.968  42.251  1.00  0.00     0.001 A 
ATOM     90  C   UNL A   1      43.151  36.066  41.975  1.00  0.00     0.000 A 
ENDBRANCH  66  85
BRANCH  78  91
ATOM     91  C   UNL A   1      47.421  28.255  40.485  1.00  0.00    -0.014 A 
ATOM     92  C   UNL A   1      47.253  27.594  41.713  1.00  0.00     0.009 A 
ATOM     93  C   UNL A   1      48.721  28.579  40.064  1.00  0.00     0.009 A 
ATOM     94  C   UNL A   1      48.355  27.315  42.523  1.00  0.00     0.001 A 
ATOM     95  C   UNL A   1      49.825  28.263  40.858  1.00  0.00     0.001 A 
ATOM     96  C   UNL A   1      49.640  27.646  42.094  1.00  0.00     0.000 A 
ENDBRANCH  78  91
ENDBRANCH  52  53
ENDBRANCH  45  47
ENDBRANCH  44  45
ENDBRANCH  43  44
ENDBRANCH  42  43
ENDBRANCH  41  42
ENDBRANCH  40  41
ENDBRANCH  39  40
ENDBRANCH  38  39
ENDBRANCH   1  38
TORSDOF 25
ENDMDL
