MODEL 1
REMARK VINA RESULT:      -9.8      0.000      0.000
REMARK SMILES C[N@H+]1CCO[C@@H](CNS(=O)(=O)N2CCC(C(=O)OCCOCCOCCOCCOC(=O)c3ccc(-c4c5nc(c(-c6ccccc6)c6ccc([nH]6)c(-c6ccccc6)c6nc(c(-c7ccccc7)c7ccc4[nH]7)C=C6)C=C5)cc3)CC2)C1
REMARK SMILES IDX 23 1 22 2 21 3 20 4 19 5 18 6 16 7 17 8 15 9 12 10 13 11
REMARK SMILES IDX 82 12 14 13 81 14 9 15 10 16 11 17 8 18 7 20 6 21 1 22 2 23
REMARK SMILES IDX 3 24 83 25 4 27 5 28 24 29 25 30 26 31 27 32 28 33 29 34
REMARK SMILES IDX 30 35 31 36 32 37 33 38 34 39 80 40 35 41 79 42 36 43 37 44
REMARK SMILES IDX 38 45 73 46 39 47 78 48 72 49 74 50 40 51 77 52 71 53 70 54
REMARK SMILES IDX 41 56 63 57 48 58 62 59 49 60 52 61 61 62 75 63 50 64 51 65
REMARK SMILES IDX 60 67 76 68 53 69 42 70 43 71 47 72 44 73 46 74 45 75 64 76
REMARK SMILES IDX 65 77 69 78 66 79 68 80 67 81 54 82 55 83 59 84 56 85 58 86
REMARK SMILES IDX 57 87
REMARK H PARENT 8 19 2 26 74 55 52 66
REMARK Flexibility Score: inf
ROOT
ATOM      1  C   UNL A   1      31.426  29.313  23.893  1.00  0.00     0.188 C 
ENDROOT
BRANCH   1   2
ATOM      2  C   UNL A   1      30.268  29.604  22.929  1.00  0.00     0.188 C 
BRANCH   2   3
ATOM      3  O   UNL A   1      29.513  28.543  22.365  1.00  0.00    -0.376 OA
BRANCH   3   4
ATOM      4  C   UNL A   1      28.534  27.859  23.131  1.00  0.00     0.202 C 
BRANCH   4   5
ATOM      5  C   UNL A   1      28.822  26.527  23.850  1.00  0.00     0.261 C 
BRANCH   5   6
ATOM      6  O   UNL A   1      29.814  26.529  24.891  1.00  0.00    -0.463 OA
BRANCH   6   7
ATOM      7  C   UNL A   1      30.916  25.774  24.663  1.00  0.00     0.309 C 
ATOM      8  O   UNL A   1      31.816  26.080  23.888  1.00  0.00    -0.252 OA
BRANCH   7   9
ATOM      9  C   UNL A   1      30.928  24.449  25.413  1.00  0.00     0.102 C 
ATOM     10  N   UNL A   1      32.489  22.144  26.292  1.00  0.00    -0.189 NA
ATOM     11  C   UNL A   1      32.215  23.234  27.263  1.00  0.00     0.104 C 
ATOM     12  C   UNL A   1      31.341  21.956  25.407  1.00  0.00     0.104 C 
ATOM     13  C   UNL A   1      31.951  24.560  26.548  1.00  0.00     0.032 C 
ATOM     14  C   UNL A   1      31.118  23.191  24.565  1.00  0.00     0.032 C 
BRANCH  10  15
ATOM     15  S   UNL A   1      34.065  22.044  25.728  1.00  0.00     0.279 S 
ATOM     16  O   UNL A   1      34.879  21.426  26.750  1.00  0.00    -0.195 OA
ATOM     17  O   UNL A   1      34.444  23.307  25.151  1.00  0.00    -0.195 OA
BRANCH  15  18
ATOM     18  N   UNL A   1      33.979  21.004  24.419  1.00  0.00    -0.199 NA
ATOM     19  H   UNL A   1      33.112  21.213  23.923  1.00  0.00     0.142 HD
BRANCH  18  20
ATOM     20  C   UNL A   1      33.994  19.548  24.676  1.00  0.00     0.138 C 
BRANCH  20  21
ATOM     21  C   UNL A   1      32.596  18.921  24.507  1.00  0.00     0.188 C 
ATOM     22  C   UNL A   1      34.543  16.677  23.198  1.00  0.00     0.332 C 
ATOM     23  N   UNL A   1      33.108  16.645  23.460  1.00  0.00    -0.333 N 
ATOM     24  C   UNL A   1      32.781  16.065  24.776  1.00  0.00     0.290 C 
ATOM     25  C   UNL A   1      32.437  17.945  23.319  1.00  0.00     0.295 C 
ATOM     26  H   UNL A   1      32.746  16.036  22.727  1.00  0.00     0.348 HD
ATOM     27  C   UNL A   1      32.886  17.046  25.959  1.00  0.00     0.222 C 
ATOM     28  O   UNL A   1      32.176  18.272  25.726  1.00  0.00    -0.365 OA
ENDBRANCH  20  21
ENDBRANCH  18  20
ENDBRANCH  15  18
ENDBRANCH  10  15
ENDBRANCH   7   9
ENDBRANCH   6   7
ENDBRANCH   5   6
ENDBRANCH   4   5
ENDBRANCH   3   4
ENDBRANCH   2   3
ENDBRANCH   1   2
BRANCH   1  29
ATOM     29  O   UNL A   1      31.354  29.975  25.136  1.00  0.00    -0.377 OA
BRANCH  29  30
ATOM     30  C   UNL A   1      31.922  29.289  26.241  1.00  0.00     0.188 C 
BRANCH  30  31
ATOM     31  C   UNL A   1      33.432  29.475  26.501  1.00  0.00     0.188 C 
BRANCH  31  32
ATOM     32  O   UNL A   1      33.751  30.511  27.422  1.00  0.00    -0.376 OA
BRANCH  32  33
ATOM     33  C   UNL A   1      32.841  31.584  27.611  1.00  0.00     0.202 C 
BRANCH  33  34
ATOM     34  C   UNL A   1      33.383  33.024  27.601  1.00  0.00     0.261 C 
BRANCH  34  35
ATOM     35  O   UNL A   1      32.481  34.063  28.010  1.00  0.00    -0.460 OA
BRANCH  35  36
ATOM     36  C   UNL A   1      32.963  35.076  28.758  1.00  0.00     0.338 C 
ATOM     37  O   UNL A   1      32.483  36.184  28.904  1.00  0.00    -0.246 OA
BRANCH  36  38
ATOM     38  C   UNL A   1      34.092  34.534  29.544  1.00  0.00     0.060 A 
ATOM     39  C   UNL A   1      35.393  34.620  29.030  1.00  0.00     0.016 A 
ATOM     40  C   UNL A   1      33.860  33.962  30.796  1.00  0.00     0.016 A 
ATOM     41  C   UNL A   1      36.469  34.103  29.754  1.00  0.00     0.010 A 
ATOM     42  C   UNL A   1      34.931  33.417  31.505  1.00  0.00     0.010 A 
ATOM     43  C   UNL A   1      36.233  33.454  30.971  1.00  0.00    -0.014 A 
BRANCH  43  44
ATOM     44  C   UNL A   1      37.273  32.596  31.582  1.00  0.00     0.031 A 
ATOM     45  C   UNL A   1      37.856  33.040  32.895  1.00  0.00     0.074 A 
ATOM     46  C   UNL A   1      37.715  31.477  30.984  1.00  0.00     0.049 A 
ATOM     47  N   UNL A   1      38.894  32.584  33.542  1.00  0.00    -0.248 NA
ATOM     48  C   UNL A   1      37.172  34.163  33.563  1.00  0.00     0.031 C 
ATOM     49  C   UNL A   1      37.180  30.896  29.756  1.00  0.00     0.029 A 
ATOM     50  N   UNL A   1      38.747  30.640  31.333  1.00  0.00    -0.354 N 
ATOM     51  C   UNL A   1      39.000  33.372  34.682  1.00  0.00     0.074 A 
ATOM     52  C   UNL A   1      37.937  34.351  34.626  1.00  0.00     0.031 C 
ATOM     53  C   UNL A   1      37.904  29.808  29.438  1.00  0.00     0.029 A 
ATOM     54  C   UNL A   1      38.985  29.649  30.410  1.00  0.00     0.049 A 
ATOM     55  H   UNL A   1      39.266  30.740  32.163  1.00  0.00     0.167 HD
ATOM     56  C   UNL A   1      39.901  33.287  35.686  1.00  0.00     0.031 A 
ATOM     57  C   UNL A   1      39.988  28.751  30.343  1.00  0.00     0.031 A 
ATOM     58  C   UNL A   1      40.971  32.330  35.724  1.00  0.00     0.049 A 
ATOM     59  C   UNL A   1      41.058  28.760  31.408  1.00  0.00     0.074 A 
ATOM     60  C   UNL A   1      41.954  32.172  36.684  1.00  0.00     0.029 A 
ATOM     61  N   UNL A   1      41.198  31.368  34.751  1.00  0.00    -0.354 N 
ATOM     62  N   UNL A   1      41.157  29.512  32.478  1.00  0.00    -0.248 NA
ATOM     63  C   UNL A   1      42.156  27.794  31.253  1.00  0.00     0.031 C 
ATOM     64  C   UNL A   1      42.809  31.150  36.265  1.00  0.00     0.029 A 
ATOM     65  C   UNL A   1      42.315  30.624  35.082  1.00  0.00     0.049 A 
ATOM     66  H   UNL A   1      40.646  31.235  33.948  1.00  0.00     0.167 HD
ATOM     67  C   UNL A   1      42.298  29.077  33.146  1.00  0.00     0.074 A 
ATOM     68  C   UNL A   1      42.855  27.994  32.363  1.00  0.00     0.031 C 
ATOM     69  C   UNL A   1      42.834  29.528  34.306  1.00  0.00     0.031 A 
BRANCH  56  70
ATOM     70  C   UNL A   1      39.785  34.280  36.807  1.00  0.00    -0.014 A 
ATOM     71  C   UNL A   1      39.073  33.976  37.978  1.00  0.00     0.009 A 
ATOM     72  C   UNL A   1      40.423  35.526  36.704  1.00  0.00     0.009 A 
ATOM     73  C   UNL A   1      38.978  34.912  39.011  1.00  0.00     0.001 A 
ATOM     74  C   UNL A   1      40.354  36.446  37.751  1.00  0.00     0.001 A 
ATOM     75  C   UNL A   1      39.624  36.142  38.898  1.00  0.00     0.000 A 
ENDBRANCH  56  70
BRANCH  57  76
ATOM     76  C   UNL A   1      40.068  27.786  29.213  1.00  0.00    -0.014 A 
ATOM     77  C   UNL A   1      40.689  28.149  28.007  1.00  0.00     0.009 A 
ATOM     78  C   UNL A   1      39.473  26.518  29.308  1.00  0.00     0.009 A 
ATOM     79  C   UNL A   1      40.676  27.282  26.911  1.00  0.00     0.001 A 
ATOM     80  C   UNL A   1      39.493  25.638  28.223  1.00  0.00     0.001 A 
ATOM     81  C   UNL A   1      40.080  26.027  27.021  1.00  0.00     0.000 A 
ENDBRANCH  57  76
BRANCH  69  82
ATOM     82  C   UNL A   1      44.035  28.807  34.854  1.00  0.00    -0.014 A 
ATOM     83  C   UNL A   1      45.342  29.228  34.568  1.00  0.00     0.009 A 
ATOM     84  C   UNL A   1      43.843  27.739  35.745  1.00  0.00     0.009 A 
ATOM     85  C   UNL A   1      46.433  28.577  35.150  1.00  0.00     0.001 A 
ATOM     86  C   UNL A   1      44.933  27.112  36.349  1.00  0.00     0.001 A 
ATOM     87  C   UNL A   1      46.227  27.528  36.046  1.00  0.00     0.000 A 
ENDBRANCH  69  82
ENDBRANCH  43  44
ENDBRANCH  36  38
ENDBRANCH  35  36
ENDBRANCH  34  35
ENDBRANCH  33  34
ENDBRANCH  32  33
ENDBRANCH  31  32
ENDBRANCH  30  31
ENDBRANCH  29  30
ENDBRANCH   1  29
TORSDOF 24
ENDMDL
MODEL 2
REMARK VINA RESULT:      -9.6      3.786      9.833
REMARK SMILES C[N@H+]1CCO[C@@H](CNS(=O)(=O)N2CCC(C(=O)OCCOCCOCCOCCOC(=O)c3ccc(-c4c5nc(c(-c6ccccc6)c6ccc([nH]6)c(-c6ccccc6)c6nc(c(-c7ccccc7)c7ccc4[nH]7)C=C6)C=C5)cc3)CC2)C1
REMARK SMILES IDX 23 1 22 2 21 3 20 4 19 5 18 6 16 7 17 8 15 9 12 10 13 11
REMARK SMILES IDX 82 12 14 13 81 14 9 15 10 16 11 17 8 18 7 20 6 21 1 22 2 23
REMARK SMILES IDX 3 24 83 25 4 27 5 28 24 29 25 30 26 31 27 32 28 33 29 34
REMARK SMILES IDX 30 35 31 36 32 37 33 38 34 39 80 40 35 41 79 42 36 43 37 44
REMARK SMILES IDX 38 45 73 46 39 47 78 48 72 49 74 50 40 51 77 52 71 53 70 54
REMARK SMILES IDX 41 56 63 57 48 58 62 59 49 60 52 61 61 62 75 63 50 64 51 65
REMARK SMILES IDX 60 67 76 68 53 69 42 70 43 71 47 72 44 73 46 74 45 75 64 76
REMARK SMILES IDX 65 77 69 78 66 79 68 80 67 81 54 82 55 83 59 84 56 85 58 86
REMARK SMILES IDX 57 87
REMARK H PARENT 8 19 2 26 74 55 52 66
REMARK Flexibility Score: inf
ROOT
ATOM      1  C   UNL A   1      40.627  20.958  26.877  1.00  0.00     0.188 C 
ENDROOT
BRANCH   1   2
ATOM      2  C   UNL A   1      39.369  21.193  26.028  1.00  0.00     0.188 C 
BRANCH   2   3
ATOM      3  O   UNL A   1      38.684  22.434  26.080  1.00  0.00    -0.376 OA
BRANCH   3   4
ATOM      4  C   UNL A   1      37.479  22.631  25.356  1.00  0.00     0.202 C 
BRANCH   4   5
ATOM      5  C   UNL A   1      36.163  23.060  26.033  1.00  0.00     0.261 C 
BRANCH   5   6
ATOM      6  O   UNL A   1      35.551  24.283  25.591  1.00  0.00    -0.463 OA
BRANCH   6   7
ATOM      7  C   UNL A   1      34.483  24.150  24.767  1.00  0.00     0.309 C 
ATOM      8  O   UNL A   1      34.469  23.449  23.761  1.00  0.00    -0.252 OA
BRANCH   7   9
ATOM      9  C   UNL A   1      33.286  25.007  25.158  1.00  0.00     0.102 C 
ATOM     10  N   UNL A   1      31.792  27.476  24.715  1.00  0.00    -0.189 NA
ATOM     11  C   UNL A   1      31.292  26.218  24.103  1.00  0.00     0.104 C 
ATOM     12  C   UNL A   1      32.380  27.201  26.024  1.00  0.00     0.104 C 
ATOM     13  C   UNL A   1      32.424  25.208  23.907  1.00  0.00     0.032 C 
ATOM     14  C   UNL A   1      33.598  26.318  25.880  1.00  0.00     0.032 C 
BRANCH  10  15
ATOM     15  S   UNL A   1      32.470  28.586  23.658  1.00  0.00     0.279 S 
ATOM     16  O   UNL A   1      32.784  27.907  22.421  1.00  0.00    -0.195 OA
ATOM     17  O   UNL A   1      33.473  29.352  24.351  1.00  0.00    -0.195 OA
BRANCH  15  18
ATOM     18  N   UNL A   1      31.245  29.688  23.360  1.00  0.00    -0.199 NA
ATOM     19  H   UNL A   1      31.536  30.579  23.763  1.00  0.00     0.142 HD
BRANCH  18  20
ATOM     20  C   UNL A   1      29.893  29.394  23.882  1.00  0.00     0.138 C 
BRANCH  20  21
ATOM     21  C   UNL A   1      28.914  29.012  22.755  1.00  0.00     0.188 C 
ATOM     22  C   UNL A   1      27.741  31.860  23.780  1.00  0.00     0.332 C 
ATOM     23  N   UNL A   1      27.340  31.025  22.653  1.00  0.00    -0.333 N 
ATOM     24  C   UNL A   1      28.029  31.388  21.400  1.00  0.00     0.290 C 
ATOM     25  C   UNL A   1      27.483  29.581  22.887  1.00  0.00     0.295 C 
ATOM     26  H   UNL A   1      26.344  31.219  22.555  1.00  0.00     0.348 HD
ATOM     27  C   UNL A   1      29.436  30.782  21.236  1.00  0.00     0.222 C 
ATOM     28  O   UNL A   1      29.457  29.365  21.465  1.00  0.00    -0.365 OA
ENDBRANCH  20  21
ENDBRANCH  18  20
ENDBRANCH  15  18
ENDBRANCH  10  15
ENDBRANCH   7   9
ENDBRANCH   6   7
ENDBRANCH   5   6
ENDBRANCH   4   5
ENDBRANCH   3   4
ENDBRANCH   2   3
ENDBRANCH   1   2
BRANCH   1  29
ATOM     29  O   UNL A   1      41.630  20.182  26.262  1.00  0.00    -0.377 OA
BRANCH  29  30
ATOM     30  C   UNL A   1      42.927  20.758  26.221  1.00  0.00     0.188 C 
BRANCH  30  31
ATOM     31  C   UNL A   1      43.104  22.068  25.424  1.00  0.00     0.188 C 
BRANCH  31  32
ATOM     32  O   UNL A   1      43.746  21.911  24.164  1.00  0.00    -0.376 OA
BRANCH  32  33
ATOM     33  C   UNL A   1      45.063  22.411  23.982  1.00  0.00     0.202 C 
BRANCH  33  34
ATOM     34  C   UNL A   1      45.494  23.662  24.768  1.00  0.00     0.261 C 
BRANCH  34  35
ATOM     35  O   UNL A   1      44.681  24.835  24.622  1.00  0.00    -0.460 OA
BRANCH  35  36
ATOM     36  C   UNL A   1      45.181  26.020  25.029  1.00  0.00     0.338 C 
ATOM     37  O   UNL A   1      46.118  26.632  24.555  1.00  0.00    -0.246 OA
BRANCH  36  38
ATOM     38  C   UNL A   1      44.251  26.554  26.046  1.00  0.00     0.060 A 
ATOM     39  C   UNL A   1      44.380  27.886  26.467  1.00  0.00     0.016 A 
ATOM     40  C   UNL A   1      43.242  25.741  26.566  1.00  0.00     0.016 A 
ATOM     41  C   UNL A   1      43.517  28.403  27.434  1.00  0.00     0.010 A 
ATOM     42  C   UNL A   1      42.401  26.249  27.557  1.00  0.00     0.010 A 
ATOM     43  C   UNL A   1      42.557  27.568  28.019  1.00  0.00    -0.014 A 
BRANCH  43  44
ATOM     44  C   UNL A   1      41.879  27.964  29.274  1.00  0.00     0.031 A 
ATOM     45  C   UNL A   1      40.517  28.591  29.158  1.00  0.00     0.074 A 
ATOM     46  C   UNL A   1      42.456  27.807  30.477  1.00  0.00     0.049 A 
ATOM     47  N   UNL A   1      39.797  29.191  30.067  1.00  0.00    -0.248 NA
ATOM     48  C   UNL A   1      39.890  28.540  27.825  1.00  0.00     0.031 C 
ATOM     49  C   UNL A   1      43.732  27.143  30.732  1.00  0.00     0.029 A 
ATOM     50  N   UNL A   1      42.039  28.227  31.716  1.00  0.00    -0.354 N 
ATOM     51  C   UNL A   1      38.641  29.602  29.415  1.00  0.00     0.074 A 
ATOM     52  C   UNL A   1      38.766  29.208  28.030  1.00  0.00     0.031 C 
ATOM     53  C   UNL A   1      44.007  27.221  32.046  1.00  0.00     0.029 A 
ATOM     54  C   UNL A   1      42.955  27.987  32.713  1.00  0.00     0.049 A 
ATOM     55  H   UNL A   1      41.169  28.658  31.876  1.00  0.00     0.167 HD
ATOM     56  C   UNL A   1      37.569  30.250  29.925  1.00  0.00     0.031 A 
ATOM     57  C   UNL A   1      42.956  28.381  34.002  1.00  0.00     0.031 A 
ATOM     58  C   UNL A   1      37.461  30.664  31.296  1.00  0.00     0.049 A 
ATOM     59  C   UNL A   1      41.809  29.217  34.517  1.00  0.00     0.074 A 
ATOM     60  C   UNL A   1      36.428  31.347  31.912  1.00  0.00     0.029 A 
ATOM     61  N   UNL A   1      38.426  30.433  32.264  1.00  0.00    -0.354 N 
ATOM     62  N   UNL A   1      40.723  29.610  33.896  1.00  0.00    -0.248 NA
ATOM     63  C   UNL A   1      41.890  29.664  35.916  1.00  0.00     0.031 C 
ATOM     64  C   UNL A   1      36.793  31.578  33.241  1.00  0.00     0.029 A 
ATOM     65  C   UNL A   1      38.019  30.974  33.469  1.00  0.00     0.049 A 
ATOM     66  H   UNL A   1      39.273  29.954  32.115  1.00  0.00     0.167 HD
ATOM     67  C   UNL A   1      39.973  30.305  34.839  1.00  0.00     0.074 A 
ATOM     68  C   UNL A   1      40.725  30.279  36.075  1.00  0.00     0.031 C 
ATOM     69  C   UNL A   1      38.768  30.908  34.697  1.00  0.00     0.031 A 
BRANCH  56  70
ATOM     70  C   UNL A   1      36.446  30.581  28.984  1.00  0.00    -0.014 A 
ATOM     71  C   UNL A   1      35.570  29.587  28.518  1.00  0.00     0.009 A 
ATOM     72  C   UNL A   1      36.242  31.909  28.581  1.00  0.00     0.009 A 
ATOM     73  C   UNL A   1      34.531  29.914  27.645  1.00  0.00     0.001 A 
ATOM     74  C   UNL A   1      35.182  32.239  27.735  1.00  0.00     0.001 A 
ATOM     75  C   UNL A   1      34.334  31.239  27.260  1.00  0.00     0.000 A 
ENDBRANCH  56  70
BRANCH  57  76
ATOM     76  C   UNL A   1      44.090  28.035  34.901  1.00  0.00    -0.014 A 
ATOM     77  C   UNL A   1      45.180  28.910  35.044  1.00  0.00     0.009 A 
ATOM     78  C   UNL A   1      44.122  26.804  35.576  1.00  0.00     0.009 A 
ATOM     79  C   UNL A   1      46.291  28.542  35.807  1.00  0.00     0.001 A 
ATOM     80  C   UNL A   1      45.218  26.454  36.368  1.00  0.00     0.001 A 
ATOM     81  C   UNL A   1      46.309  27.316  36.470  1.00  0.00     0.000 A 
ENDBRANCH  57  76
BRANCH  69  82
ATOM     82  C   UNL A   1      38.137  31.516  35.919  1.00  0.00    -0.014 A 
ATOM     83  C   UNL A   1      37.777  30.738  37.029  1.00  0.00     0.009 A 
ATOM     84  C   UNL A   1      37.984  32.911  35.987  1.00  0.00     0.009 A 
ATOM     85  C   UNL A   1      37.257  31.345  38.175  1.00  0.00     0.001 A 
ATOM     86  C   UNL A   1      37.495  33.517  37.145  1.00  0.00     0.001 A 
ATOM     87  C   UNL A   1      37.126  32.733  38.236  1.00  0.00     0.000 A 
ENDBRANCH  69  82
ENDBRANCH  43  44
ENDBRANCH  36  38
ENDBRANCH  35  36
ENDBRANCH  34  35
ENDBRANCH  33  34
ENDBRANCH  32  33
ENDBRANCH  31  32
ENDBRANCH  30  31
ENDBRANCH  29  30
ENDBRANCH   1  29
TORSDOF 24
ENDMDL
MODEL 3
REMARK VINA RESULT:      -9.6      1.052      5.763
REMARK SMILES C[N@H+]1CCO[C@@H](CNS(=O)(=O)N2CCC(C(=O)OCCOCCOCCOCCOC(=O)c3ccc(-c4c5nc(c(-c6ccccc6)c6ccc([nH]6)c(-c6ccccc6)c6nc(c(-c7ccccc7)c7ccc4[nH]7)C=C6)C=C5)cc3)CC2)C1
REMARK SMILES IDX 23 1 22 2 21 3 20 4 19 5 18 6 16 7 17 8 15 9 12 10 13 11
REMARK SMILES IDX 82 12 14 13 81 14 9 15 10 16 11 17 8 18 7 20 6 21 1 22 2 23
REMARK SMILES IDX 3 24 83 25 4 27 5 28 24 29 25 30 26 31 27 32 28 33 29 34
REMARK SMILES IDX 30 35 31 36 32 37 33 38 34 39 80 40 35 41 79 42 36 43 37 44
REMARK SMILES IDX 38 45 73 46 39 47 78 48 72 49 74 50 40 51 77 52 71 53 70 54
REMARK SMILES IDX 41 56 63 57 48 58 62 59 49 60 52 61 61 62 75 63 50 64 51 65
REMARK SMILES IDX 60 67 76 68 53 69 42 70 43 71 47 72 44 73 46 74 45 75 64 76
REMARK SMILES IDX 65 77 69 78 66 79 68 80 67 81 54 82 55 83 59 84 56 85 58 86
REMARK SMILES IDX 57 87
REMARK H PARENT 8 19 2 26 74 55 52 66
REMARK Flexibility Score: inf
ROOT
ATOM      1  C   UNL A   1      32.419  28.829  23.056  1.00  0.00     0.188 C 
ENDROOT
BRANCH   1   2
ATOM      2  C   UNL A   1      30.962  29.308  22.990  1.00  0.00     0.188 C 
BRANCH   2   3
ATOM      3  O   UNL A   1      29.949  28.468  22.460  1.00  0.00    -0.376 OA
BRANCH   3   4
ATOM      4  C   UNL A   1      29.144  27.670  23.314  1.00  0.00     0.202 C 
BRANCH   4   5
ATOM      5  C   UNL A   1      29.723  26.535  24.179  1.00  0.00     0.261 C 
BRANCH   5   6
ATOM      6  O   UNL A   1      30.038  25.291  23.529  1.00  0.00    -0.463 OA
BRANCH   6   7
ATOM      7  C   UNL A   1      31.342  24.923  23.550  1.00  0.00     0.309 C 
ATOM      8  O   UNL A   1      32.042  24.801  22.551  1.00  0.00    -0.252 OA
BRANCH   7   9
ATOM      9  C   UNL A   1      31.874  24.601  24.940  1.00  0.00     0.102 C 
ATOM     10  N   UNL A   1      33.624  22.922  26.566  1.00  0.00    -0.189 NA
ATOM     11  C   UNL A   1      34.089  24.282  26.185  1.00  0.00     0.104 C 
ATOM     12  C   UNL A   1      32.184  22.931  26.811  1.00  0.00     0.104 C 
ATOM     13  C   UNL A   1      33.397  24.767  24.910  1.00  0.00     0.032 C 
ATOM     14  C   UNL A   1      31.435  23.266  25.542  1.00  0.00     0.032 C 
BRANCH  10  15
ATOM     15  S   UNL A   1      34.379  21.645  25.784  1.00  0.00     0.279 S 
ATOM     16  O   UNL A   1      35.746  21.567  26.248  1.00  0.00    -0.195 OA
ATOM     17  O   UNL A   1      34.084  21.708  24.377  1.00  0.00    -0.195 OA
BRANCH  15  18
ATOM     18  N   UNL A   1      33.561  20.283  26.315  1.00  0.00    -0.199 NA
ATOM     19  H   UNL A   1      34.258  19.644  26.699  1.00  0.00     0.142 HD
BRANCH  18  20
ATOM     20  C   UNL A   1      32.762  19.518  25.335  1.00  0.00     0.138 C 
BRANCH  20  21
ATOM     21  C   UNL A   1      32.824  18.002  25.603  1.00  0.00     0.188 C 
ATOM     22  C   UNL A   1      32.271  18.135  22.407  1.00  0.00     0.332 C 
ATOM     23  N   UNL A   1      32.552  16.992  23.269  1.00  0.00    -0.333 N 
ATOM     24  C   UNL A   1      33.990  16.669  23.337  1.00  0.00     0.290 C 
ATOM     25  C   UNL A   1      32.013  17.113  24.631  1.00  0.00     0.295 C 
ATOM     26  H   UNL A   1      32.058  16.225  22.815  1.00  0.00     0.348 HD
ATOM     27  C   UNL A   1      34.795  17.514  24.342  1.00  0.00     0.222 C 
ATOM     28  O   UNL A   1      34.193  17.546  25.645  1.00  0.00    -0.365 OA
ENDBRANCH  20  21
ENDBRANCH  18  20
ENDBRANCH  15  18
ENDBRANCH  10  15
ENDBRANCH   7   9
ENDBRANCH   6   7
ENDBRANCH   5   6
ENDBRANCH   4   5
ENDBRANCH   3   4
ENDBRANCH   2   3
ENDBRANCH   1   2
BRANCH   1  29
ATOM     29  O   UNL A   1      33.152  29.285  24.170  1.00  0.00    -0.377 OA
BRANCH  29  30
ATOM     30  C   UNL A   1      33.194  28.413  25.289  1.00  0.00     0.188 C 
BRANCH  30  31
ATOM     31  C   UNL A   1      32.156  28.634  26.410  1.00  0.00     0.188 C 
BRANCH  31  32
ATOM     32  O   UNL A   1      32.255  29.890  27.068  1.00  0.00    -0.376 OA
BRANCH  32  33
ATOM     33  C   UNL A   1      33.536  30.418  27.380  1.00  0.00     0.202 C 
BRANCH  33  34
ATOM     34  C   UNL A   1      33.756  31.938  27.271  1.00  0.00     0.261 C 
BRANCH  34  35
ATOM     35  O   UNL A   1      32.818  32.783  27.953  1.00  0.00    -0.460 OA
BRANCH  35  36
ATOM     36  C   UNL A   1      33.234  33.991  28.383  1.00  0.00     0.338 C 
ATOM     37  O   UNL A   1      32.657  35.056  28.274  1.00  0.00    -0.246 OA
BRANCH  36  38
ATOM     38  C   UNL A   1      34.444  33.765  29.202  1.00  0.00     0.060 A 
ATOM     39  C   UNL A   1      35.667  34.313  28.789  1.00  0.00     0.016 A 
ATOM     40  C   UNL A   1      34.360  33.028  30.385  1.00  0.00     0.016 A 
ATOM     41  C   UNL A   1      36.821  34.100  29.544  1.00  0.00     0.010 A 
ATOM     42  C   UNL A   1      35.520  32.788  31.122  1.00  0.00     0.010 A 
ATOM     43  C   UNL A   1      36.759  33.293  30.687  1.00  0.00    -0.014 A 
BRANCH  43  44
ATOM     44  C   UNL A   1      37.996  32.758  31.299  1.00  0.00     0.031 A 
ATOM     45  C   UNL A   1      38.632  31.562  30.645  1.00  0.00     0.074 A 
ATOM     46  C   UNL A   1      38.526  33.287  32.414  1.00  0.00     0.049 A 
ATOM     47  N   UNL A   1      39.596  30.793  31.076  1.00  0.00    -0.248 NA
ATOM     48  C   UNL A   1      38.095  31.180  29.327  1.00  0.00     0.031 C 
ATOM     49  C   UNL A   1      38.055  34.490  33.096  1.00  0.00     0.029 A 
ATOM     50  N   UNL A   1      39.577  32.850  33.184  1.00  0.00    -0.354 N 
ATOM     51  C   UNL A   1      39.770  29.828  30.091  1.00  0.00     0.074 A 
ATOM     52  C   UNL A   1      38.797  30.091  29.055  1.00  0.00     0.031 C 
ATOM     53  C   UNL A   1      38.800  34.683  34.200  1.00  0.00     0.029 A 
ATOM     54  C   UNL A   1      39.762  33.588  34.328  1.00  0.00     0.049 A 
ATOM     55  H   UNL A   1      40.143  32.083  32.939  1.00  0.00     0.167 HD
ATOM     56  C   UNL A   1      40.662  28.812  30.053  1.00  0.00     0.031 A 
ATOM     57  C   UNL A   1      40.585  33.374  35.374  1.00  0.00     0.031 A 
ATOM     58  C   UNL A   1      41.609  28.538  31.097  1.00  0.00     0.049 A 
ATOM     59  C   UNL A   1      41.480  32.158  35.369  1.00  0.00     0.074 A 
ATOM     60  C   UNL A   1      42.542  27.520  31.169  1.00  0.00     0.029 A 
ATOM     61  N   UNL A   1      41.738  29.288  32.256  1.00  0.00    -0.354 N 
ATOM     62  N   UNL A   1      41.635  31.245  34.441  1.00  0.00    -0.248 NA
ATOM     63  C   UNL A   1      42.316  31.945  36.561  1.00  0.00     0.031 C 
ATOM     64  C   UNL A   1      43.200  27.622  32.398  1.00  0.00     0.029 A 
ATOM     65  C   UNL A   1      42.726  28.745  33.056  1.00  0.00     0.049 A 
ATOM     66  H   UNL A   1      41.206  30.087  32.475  1.00  0.00     0.167 HD
ATOM     67  C   UNL A   1      42.617  30.381  34.915  1.00  0.00     0.074 A 
ATOM     68  C   UNL A   1      43.024  30.879  36.211  1.00  0.00     0.031 C 
ATOM     69  C   UNL A   1      43.139  29.277  34.328  1.00  0.00     0.031 A 
BRANCH  56  70
ATOM     70  C   UNL A   1      40.627  27.904  28.857  1.00  0.00    -0.014 A 
ATOM     71  C   UNL A   1      39.817  26.757  28.837  1.00  0.00     0.009 A 
ATOM     72  C   UNL A   1      41.392  28.215  27.723  1.00  0.00     0.009 A 
ATOM     73  C   UNL A   1      39.796  25.926  27.715  1.00  0.00     0.001 A 
ATOM     74  C   UNL A   1      41.345  27.400  26.591  1.00  0.00     0.001 A 
ATOM     75  C   UNL A   1      40.555  26.251  26.592  1.00  0.00     0.000 A 
ENDBRANCH  56  70
BRANCH  57  76
ATOM     76  C   UNL A   1      40.585  34.296  36.542  1.00  0.00    -0.014 A 
ATOM     77  C   UNL A   1      39.703  34.089  37.616  1.00  0.00     0.009 A 
ATOM     78  C   UNL A   1      41.422  35.423  36.566  1.00  0.00     0.009 A 
ATOM     79  C   UNL A   1      39.631  35.010  38.665  1.00  0.00     0.001 A 
ATOM     80  C   UNL A   1      41.374  36.323  37.633  1.00  0.00     0.001 A 
ATOM     81  C   UNL A   1      40.468  36.125  38.674  1.00  0.00     0.000 A 
ENDBRANCH  57  76
BRANCH  69  82
ATOM     82  C   UNL A   1      44.268  28.573  35.032  1.00  0.00    -0.014 A 
ATOM     83  C   UNL A   1      44.033  27.551  35.963  1.00  0.00     0.009 A 
ATOM     84  C   UNL A   1      45.592  28.886  34.684  1.00  0.00     0.009 A 
ATOM     85  C   UNL A   1      45.106  26.871  36.546  1.00  0.00     0.001 A 
ATOM     86  C   UNL A   1      46.659  28.184  35.243  1.00  0.00     0.001 A 
ATOM     87  C   UNL A   1      46.415  27.181  36.179  1.00  0.00     0.000 A 
ENDBRANCH  69  82
ENDBRANCH  43  44
ENDBRANCH  36  38
ENDBRANCH  35  36
ENDBRANCH  34  35
ENDBRANCH  33  34
ENDBRANCH  32  33
ENDBRANCH  31  32
ENDBRANCH  30  31
ENDBRANCH  29  30
ENDBRANCH   1  29
TORSDOF 24
ENDMDL
