MODEL 1
REMARK VINA RESULT:      -8.5      0.000      0.000
REMARK SMILES C[C@H](CCC(=O)OCCOCCOCCOCCOC(=O)c1ccc(-c2c3nc(c(-c4ccccc4)c4ccc([nH]4)c(-c4ccccc4)c4nc(c(-c5ccccc5)c5ccc2[nH]5)C=C4)C=C3)cc1)NC(=O)OC(C)(C)C
REMARK SMILES IDX 11 1 10 2 9 3 8 4 7 5 5 6 6 7 4 8 3 9 2 10 1 11 70 12 71 13
REMARK SMILES IDX 72 15 73 16 74 17 75 18 76 19 77 20 12 21 13 22 14 23 15 24
REMARK SMILES IDX 16 25 17 26 18 27 19 28 20 29 21 30 22 31 23 32 69 33 24 34
REMARK SMILES IDX 68 35 25 36 26 37 27 38 62 39 28 40 67 41 61 42 63 43 29 44
REMARK SMILES IDX 66 45 60 46 59 47 30 49 52 50 37 51 51 52 38 53 41 54 50 55
REMARK SMILES IDX 64 56 39 57 40 58 49 60 65 61 42 62 31 63 32 64 36 65 33 66
REMARK SMILES IDX 35 67 34 68 53 69 54 70 58 71 55 72 57 73 56 74 43 75 44 76
REMARK SMILES IDX 48 77 45 78 47 79 46 80
REMARK H PARENT 70 14 63 48 41 59
REMARK Flexibility Score: inf
ROOT
ATOM      1  C   UNL A   1      38.092  21.517  25.497  1.00  0.00     0.188 C 
ENDROOT
BRANCH   1   2
ATOM      2  O   UNL A   1      36.880  22.236  25.333  1.00  0.00    -0.376 OA
BRANCH   2   3
ATOM      3  C   UNL A   1      35.807  21.568  24.693  1.00  0.00     0.202 C 
BRANCH   3   4
ATOM      4  C   UNL A   1      34.560  21.271  25.542  1.00  0.00     0.261 C 
BRANCH   4   5
ATOM      5  O   UNL A   1      33.304  21.710  24.994  1.00  0.00    -0.463 OA
BRANCH   5   6
ATOM      6  C   UNL A   1      32.971  23.003  25.188  1.00  0.00     0.305 C 
ATOM      7  O   UNL A   1      32.971  23.554  26.282  1.00  0.00    -0.252 OA
BRANCH   6   8
ATOM      8  C   UNL A   1      32.603  23.740  23.911  1.00  0.00     0.125 C 
BRANCH   8   9
ATOM      9  C   UNL A   1      31.161  24.154  23.577  1.00  0.00     0.036 C 
BRANCH   9  10
ATOM     10  C   UNL A   1      30.662  25.566  23.924  1.00  0.00     0.083 C 
ATOM     11  C   UNL A   1      29.143  25.714  23.941  1.00  0.00     0.031 C 
BRANCH  10  12
ATOM     12  N   UNL A   1      31.152  25.931  25.256  1.00  0.00    -0.319 N 
ATOM     13  C   UNL A   1      32.071  26.874  25.600  1.00  0.00     0.407 C 
ATOM     14  H   UNL A   1      30.763  25.423  26.004  1.00  0.00     0.167 HD
ATOM     15  O   UNL A   1      32.196  27.219  26.764  1.00  0.00    -0.225 OA
BRANCH  13  16
ATOM     16  O   UNL A   1      32.763  27.357  24.548  1.00  0.00    -0.444 OA
BRANCH  16  17
ATOM     17  C   UNL A   1      32.493  28.696  24.079  1.00  0.00     0.106 C 
ATOM     18  C   UNL A   1      33.245  28.947  22.773  1.00  0.00     0.056 C 
ATOM     19  C   UNL A   1      31.005  29.055  23.972  1.00  0.00     0.056 C 
ATOM     20  C   UNL A   1      33.069  29.607  25.151  1.00  0.00     0.056 C 
ENDBRANCH  16  17
ENDBRANCH  13  16
ENDBRANCH  10  12
ENDBRANCH   9  10
ENDBRANCH   8   9
ENDBRANCH   6   8
ENDBRANCH   5   6
ENDBRANCH   4   5
ENDBRANCH   3   4
ENDBRANCH   2   3
ENDBRANCH   1   2
BRANCH   1  21
ATOM     21  C   UNL A   1      39.155  22.226  26.358  1.00  0.00     0.188 C 
BRANCH  21  22
ATOM     22  O   UNL A   1      40.506  21.801  26.376  1.00  0.00    -0.377 OA
BRANCH  22  23
ATOM     23  C   UNL A   1      40.810  20.599  27.045  1.00  0.00     0.188 C 
BRANCH  23  24
ATOM     24  C   UNL A   1      41.451  19.518  26.169  1.00  0.00     0.188 C 
BRANCH  24  25
ATOM     25  O   UNL A   1      42.840  19.237  26.276  1.00  0.00    -0.376 OA
BRANCH  25  26
ATOM     26  C   UNL A   1      43.722  19.638  25.240  1.00  0.00     0.202 C 
BRANCH  26  27
ATOM     27  C   UNL A   1      44.439  20.993  25.316  1.00  0.00     0.261 C 
BRANCH  27  28
ATOM     28  O   UNL A   1      43.612  22.154  25.415  1.00  0.00    -0.460 OA
BRANCH  28  29
ATOM     29  C   UNL A   1      44.161  23.338  25.039  1.00  0.00     0.338 C 
ATOM     30  O   UNL A   1      44.763  23.600  24.023  1.00  0.00    -0.246 OA
BRANCH  29  31
ATOM     31  C   UNL A   1      43.779  24.302  26.098  1.00  0.00     0.060 A 
ATOM     32  C   UNL A   1      44.203  25.636  26.019  1.00  0.00     0.016 A 
ATOM     33  C   UNL A   1      42.865  23.915  27.075  1.00  0.00     0.016 A 
ATOM     34  C   UNL A   1      43.663  26.602  26.885  1.00  0.00     0.010 A 
ATOM     35  C   UNL A   1      42.313  24.885  27.917  1.00  0.00     0.010 A 
ATOM     36  C   UNL A   1      42.700  26.242  27.834  1.00  0.00    -0.014 A 
BRANCH  36  37
ATOM     37  C   UNL A   1      42.176  27.191  28.866  1.00  0.00     0.031 A 
ATOM     38  C   UNL A   1      42.796  27.121  30.239  1.00  0.00     0.074 A 
ATOM     39  C   UNL A   1      41.141  28.036  28.667  1.00  0.00     0.049 A 
ATOM     40  N   UNL A   1      42.407  27.671  31.360  1.00  0.00    -0.248 NA
ATOM     41  C   UNL A   1      44.009  26.291  30.363  1.00  0.00     0.031 C 
ATOM     42  C   UNL A   1      40.445  28.275  27.404  1.00  0.00     0.029 A 
ATOM     43  N   UNL A   1      40.454  28.825  29.569  1.00  0.00    -0.354 N 
ATOM     44  C   UNL A   1      43.311  27.230  32.318  1.00  0.00     0.074 A 
ATOM     45  C   UNL A   1      44.213  26.309  31.668  1.00  0.00     0.031 C 
ATOM     46  C   UNL A   1      39.395  29.091  27.623  1.00  0.00     0.029 A 
ATOM     47  C   UNL A   1      39.333  29.432  29.043  1.00  0.00     0.049 A 
ATOM     48  H   UNL A   1      40.740  28.944  30.503  1.00  0.00     0.167 HD
ATOM     49  C   UNL A   1      43.421  27.590  33.616  1.00  0.00     0.031 A 
ATOM     50  C   UNL A   1      38.358  30.153  29.637  1.00  0.00     0.031 A 
ATOM     51  C   UNL A   1      42.576  28.543  34.270  1.00  0.00     0.049 A 
ATOM     52  C   UNL A   1      38.443  30.465  31.114  1.00  0.00     0.074 A 
ATOM     53  C   UNL A   1      42.686  29.042  35.556  1.00  0.00     0.029 A 
ATOM     54  N   UNL A   1      41.467  29.138  33.698  1.00  0.00    -0.354 N 
ATOM     55  N   UNL A   1      39.370  30.132  31.979  1.00  0.00    -0.248 NA
ATOM     56  C   UNL A   1      37.359  31.281  31.692  1.00  0.00     0.031 C 
ATOM     57  C   UNL A   1      41.601  29.892  35.785  1.00  0.00     0.029 A 
ATOM     58  C   UNL A   1      40.854  29.966  34.621  1.00  0.00     0.049 A 
ATOM     59  H   UNL A   1      41.161  28.994  32.773  1.00  0.00     0.167 HD
ATOM     60  C   UNL A   1      39.012  30.745  33.176  1.00  0.00     0.074 A 
ATOM     61  C   UNL A   1      37.786  31.470  32.932  1.00  0.00     0.031 C 
ATOM     62  C   UNL A   1      39.652  30.714  34.370  1.00  0.00     0.031 A 
BRANCH  49  63
ATOM     63  C   UNL A   1      44.518  26.951  34.411  1.00  0.00    -0.014 A 
ATOM     64  C   UNL A   1      45.791  27.537  34.495  1.00  0.00     0.009 A 
ATOM     65  C   UNL A   1      44.264  25.761  35.108  1.00  0.00     0.009 A 
ATOM     66  C   UNL A   1      46.801  26.923  35.232  1.00  0.00     0.001 A 
ATOM     67  C   UNL A   1      45.268  25.167  35.872  1.00  0.00     0.001 A 
ATOM     68  C   UNL A   1      46.537  25.741  35.926  1.00  0.00     0.000 A 
ENDBRANCH  49  63
BRANCH  50  69
ATOM     69  C   UNL A   1      37.175  30.640  28.868  1.00  0.00    -0.014 A 
ATOM     70  C   UNL A   1      37.040  32.000  28.543  1.00  0.00     0.009 A 
ATOM     71  C   UNL A   1      36.116  29.769  28.567  1.00  0.00     0.009 A 
ATOM     72  C   UNL A   1      35.852  32.485  27.987  1.00  0.00     0.001 A 
ATOM     73  C   UNL A   1      34.940  30.252  27.983  1.00  0.00     0.001 A 
ATOM     74  C   UNL A   1      34.802  31.612  27.711  1.00  0.00     0.000 A 
ENDBRANCH  50  69
BRANCH  62  75
ATOM     75  C   UNL A   1      39.091  31.528  35.502  1.00  0.00    -0.014 A 
ATOM     76  C   UNL A   1      38.206  30.971  36.437  1.00  0.00     0.009 A 
ATOM     77  C   UNL A   1      39.531  32.849  35.688  1.00  0.00     0.009 A 
ATOM     78  C   UNL A   1      37.761  31.726  37.525  1.00  0.00     0.001 A 
ATOM     79  C   UNL A   1      39.110  33.590  36.792  1.00  0.00     0.001 A 
ATOM     80  C   UNL A   1      38.222  33.031  37.707  1.00  0.00     0.000 A 
ENDBRANCH  62  75
ENDBRANCH  36  37
ENDBRANCH  29  31
ENDBRANCH  28  29
ENDBRANCH  27  28
ENDBRANCH  26  27
ENDBRANCH  25  26
ENDBRANCH  24  25
ENDBRANCH  23  24
ENDBRANCH  22  23
ENDBRANCH  21  22
ENDBRANCH   1  21
TORSDOF 25
ENDMDL
MODEL 2
REMARK VINA RESULT:      -8.0      4.552      6.529
REMARK SMILES C[C@H](CCC(=O)OCCOCCOCCOCCOC(=O)c1ccc(-c2c3nc(c(-c4ccccc4)c4ccc([nH]4)c(-c4ccccc4)c4nc(c(-c5ccccc5)c5ccc2[nH]5)C=C4)C=C3)cc1)NC(=O)OC(C)(C)C
REMARK SMILES IDX 11 1 10 2 9 3 8 4 7 5 5 6 6 7 4 8 3 9 2 10 1 11 70 12 71 13
REMARK SMILES IDX 72 15 73 16 74 17 75 18 76 19 77 20 12 21 13 22 14 23 15 24
REMARK SMILES IDX 16 25 17 26 18 27 19 28 20 29 21 30 22 31 23 32 69 33 24 34
REMARK SMILES IDX 68 35 25 36 26 37 27 38 62 39 28 40 67 41 61 42 63 43 29 44
REMARK SMILES IDX 66 45 60 46 59 47 30 49 52 50 37 51 51 52 38 53 41 54 50 55
REMARK SMILES IDX 64 56 39 57 40 58 49 60 65 61 42 62 31 63 32 64 36 65 33 66
REMARK SMILES IDX 35 67 34 68 53 69 54 70 58 71 55 72 57 73 56 74 43 75 44 76
REMARK SMILES IDX 48 77 45 78 47 79 46 80
REMARK H PARENT 70 14 63 48 41 59
REMARK Flexibility Score: inf
ROOT
ATOM      1  C   UNL A   1      39.238  27.905  28.803  1.00  0.00     0.188 C 
ENDROOT
BRANCH   1   2
ATOM      2  O   UNL A   1      39.119  28.689  29.980  1.00  0.00    -0.376 OA
BRANCH   2   3
ATOM      3  C   UNL A   1      39.292  28.031  31.223  1.00  0.00     0.202 C 
BRANCH   3   4
ATOM      4  C   UNL A   1      39.353  28.914  32.480  1.00  0.00     0.261 C 
BRANCH   4   5
ATOM      5  O   UNL A   1      38.121  29.056  33.211  1.00  0.00    -0.463 OA
BRANCH   5   6
ATOM      6  C   UNL A   1      37.233  29.958  32.744  1.00  0.00     0.305 C 
ATOM      7  O   UNL A   1      36.349  29.694  31.939  1.00  0.00    -0.252 OA
BRANCH   6   8
ATOM      8  C   UNL A   1      37.414  31.353  33.320  1.00  0.00     0.125 C 
BRANCH   8   9
ATOM      9  C   UNL A   1      38.261  32.433  32.630  1.00  0.00     0.036 C 
BRANCH   9  10
ATOM     10  C   UNL A   1      37.650  33.304  31.521  1.00  0.00     0.083 C 
ATOM     11  C   UNL A   1      38.556  33.521  30.313  1.00  0.00     0.031 C 
BRANCH  10  12
ATOM     12  N   UNL A   1      36.422  32.667  31.037  1.00  0.00    -0.319 N 
ATOM     13  C   UNL A   1      35.195  33.219  30.833  1.00  0.00     0.407 C 
ATOM     14  H   UNL A   1      36.495  31.707  30.831  1.00  0.00     0.167 HD
ATOM     15  O   UNL A   1      34.342  32.614  30.204  1.00  0.00    -0.225 OA
BRANCH  13  16
ATOM     16  O   UNL A   1      35.066  34.451  31.367  1.00  0.00    -0.444 OA
BRANCH  16  17
ATOM     17  C   UNL A   1      34.374  34.607  32.625  1.00  0.00     0.106 C 
ATOM     18  C   UNL A   1      33.187  35.552  32.447  1.00  0.00     0.056 C 
ATOM     19  C   UNL A   1      33.976  33.293  33.309  1.00  0.00     0.056 C 
ATOM     20  C   UNL A   1      35.386  35.270  33.545  1.00  0.00     0.056 C 
ENDBRANCH  16  17
ENDBRANCH  13  16
ENDBRANCH  10  12
ENDBRANCH   9  10
ENDBRANCH   8   9
ENDBRANCH   6   8
ENDBRANCH   5   6
ENDBRANCH   4   5
ENDBRANCH   3   4
ENDBRANCH   2   3
ENDBRANCH   1   2
BRANCH   1  21
ATOM     21  C   UNL A   1      40.325  26.815  28.857  1.00  0.00     0.188 C 
BRANCH  21  22
ATOM     22  O   UNL A   1      40.112  25.522  28.320  1.00  0.00    -0.377 OA
BRANCH  22  23
ATOM     23  C   UNL A   1      40.572  25.266  27.014  1.00  0.00     0.188 C 
BRANCH  23  24
ATOM     24  C   UNL A   1      41.101  23.848  26.781  1.00  0.00     0.188 C 
BRANCH  24  25
ATOM     25  O   UNL A   1      42.492  23.621  26.599  1.00  0.00    -0.376 OA
BRANCH  25  26
ATOM     26  C   UNL A   1      42.966  23.102  25.366  1.00  0.00     0.202 C 
BRANCH  26  27
ATOM     27  C   UNL A   1      44.217  23.701  24.706  1.00  0.00     0.261 C 
BRANCH  27  28
ATOM     28  O   UNL A   1      44.321  25.125  24.697  1.00  0.00    -0.460 OA
BRANCH  28  29
ATOM     29  C   UNL A   1      45.494  25.663  25.121  1.00  0.00     0.338 C 
ATOM     30  O   UNL A   1      46.585  25.595  24.601  1.00  0.00    -0.246 OA
BRANCH  29  31
ATOM     31  C   UNL A   1      45.151  26.456  26.324  1.00  0.00     0.060 A 
ATOM     32  C   UNL A   1      46.164  26.904  27.182  1.00  0.00     0.016 A 
ATOM     33  C   UNL A   1      43.839  26.893  26.501  1.00  0.00     0.016 A 
ATOM     34  C   UNL A   1      45.876  27.841  28.190  1.00  0.00     0.010 A 
ATOM     35  C   UNL A   1      43.564  27.844  27.488  1.00  0.00     0.010 A 
ATOM     36  C   UNL A   1      44.575  28.335  28.345  1.00  0.00    -0.014 A 
BRANCH  36  37
ATOM     37  C   UNL A   1      44.174  29.237  29.469  1.00  0.00     0.031 A 
ATOM     38  C   UNL A   1      43.839  28.582  30.786  1.00  0.00     0.074 A 
ATOM     39  C   UNL A   1      44.017  30.573  29.354  1.00  0.00     0.049 A 
ATOM     40  N   UNL A   1      43.275  29.090  31.851  1.00  0.00    -0.248 NA
ATOM     41  C   UNL A   1      44.164  27.148  30.900  1.00  0.00     0.031 C 
ATOM     42  C   UNL A   1      44.331  31.387  28.181  1.00  0.00     0.029 A 
ATOM     43  N   UNL A   1      43.490  31.485  30.248  1.00  0.00    -0.354 N 
ATOM     44  C   UNL A   1      43.156  28.032  32.743  1.00  0.00     0.074 A 
ATOM     45  C   UNL A   1      43.628  26.845  32.070  1.00  0.00     0.031 C 
ATOM     46  C   UNL A   1      43.930  32.654  28.399  1.00  0.00     0.029 A 
ATOM     47  C   UNL A   1      43.322  32.750  29.725  1.00  0.00     0.049 A 
ATOM     48  H   UNL A   1      43.255  31.252  31.175  1.00  0.00     0.167 HD
ATOM     49  C   UNL A   1      42.739  28.043  34.028  1.00  0.00     0.031 A 
ATOM     50  C   UNL A   1      42.726  33.847  30.240  1.00  0.00     0.031 A 
ATOM     51  C   UNL A   1      42.319  29.214  34.738  1.00  0.00     0.049 A 
ATOM     52  C   UNL A   1      42.172  33.814  31.647  1.00  0.00     0.074 A 
ATOM     53  C   UNL A   1      41.979  29.329  36.074  1.00  0.00     0.029 A 
ATOM     54  N   UNL A   1      42.177  30.469  34.174  1.00  0.00    -0.354 N 
ATOM     55  N   UNL A   1      42.174  32.833  32.516  1.00  0.00    -0.248 NA
ATOM     56  C   UNL A   1      41.561  35.056  32.157  1.00  0.00     0.031 C 
ATOM     57  C   UNL A   1      41.567  30.643  36.305  1.00  0.00     0.029 A 
ATOM     58  C   UNL A   1      41.709  31.356  35.126  1.00  0.00     0.049 A 
ATOM     59  H   UNL A   1      42.379  30.695  33.237  1.00  0.00     0.167 HD
ATOM     60  C   UNL A   1      41.624  33.355  33.683  1.00  0.00     0.074 A 
ATOM     61  C   UNL A   1      41.298  34.738  33.417  1.00  0.00     0.031 C 
ATOM     62  C   UNL A   1      41.415  32.741  34.872  1.00  0.00     0.031 A 
BRANCH  49  63
ATOM     63  C   UNL A   1      42.732  26.733  34.756  1.00  0.00    -0.014 A 
ATOM     64  C   UNL A   1      41.550  25.991  34.904  1.00  0.00     0.009 A 
ATOM     65  C   UNL A   1      43.931  26.223  35.274  1.00  0.00     0.009 A 
ATOM     66  C   UNL A   1      41.562  24.779  35.592  1.00  0.00     0.001 A 
ATOM     67  C   UNL A   1      43.946  24.994  35.933  1.00  0.00     0.001 A 
ATOM     68  C   UNL A   1      42.761  24.278  36.100  1.00  0.00     0.000 A 
ENDBRANCH  49  63
BRANCH  50  69
ATOM     69  C   UNL A   1      42.581  35.098  29.441  1.00  0.00    -0.014 A 
ATOM     70  C   UNL A   1      41.490  35.274  28.573  1.00  0.00     0.009 A 
ATOM     71  C   UNL A   1      43.596  36.067  29.447  1.00  0.00     0.009 A 
ATOM     72  C   UNL A   1      41.447  36.358  27.691  1.00  0.00     0.001 A 
ATOM     73  C   UNL A   1      43.537  37.168  28.584  1.00  0.00     0.001 A 
ATOM     74  C   UNL A   1      42.472  37.302  27.696  1.00  0.00     0.000 A 
ENDBRANCH  50  69
BRANCH  62  75
ATOM     75  C   UNL A   1      40.866  33.555  36.010  1.00  0.00    -0.014 A 
ATOM     76  C   UNL A   1      39.488  33.632  36.257  1.00  0.00     0.009 A 
ATOM     77  C   UNL A   1      41.752  34.178  36.905  1.00  0.00     0.009 A 
ATOM     78  C   UNL A   1      39.008  34.331  37.367  1.00  0.00     0.001 A 
ATOM     79  C   UNL A   1      41.272  34.848  38.030  1.00  0.00     0.001 A 
ATOM     80  C   UNL A   1      39.900  34.929  38.258  1.00  0.00     0.000 A 
ENDBRANCH  62  75
ENDBRANCH  36  37
ENDBRANCH  29  31
ENDBRANCH  28  29
ENDBRANCH  27  28
ENDBRANCH  26  27
ENDBRANCH  25  26
ENDBRANCH  24  25
ENDBRANCH  23  24
ENDBRANCH  22  23
ENDBRANCH  21  22
ENDBRANCH   1  21
TORSDOF 25
ENDMDL
MODEL 3
REMARK VINA RESULT:      -8.0      2.823      8.510
REMARK SMILES C[C@H](CCC(=O)OCCOCCOCCOCCOC(=O)c1ccc(-c2c3nc(c(-c4ccccc4)c4ccc([nH]4)c(-c4ccccc4)c4nc(c(-c5ccccc5)c5ccc2[nH]5)C=C4)C=C3)cc1)NC(=O)OC(C)(C)C
REMARK SMILES IDX 11 1 10 2 9 3 8 4 7 5 5 6 6 7 4 8 3 9 2 10 1 11 70 12 71 13
REMARK SMILES IDX 72 15 73 16 74 17 75 18 76 19 77 20 12 21 13 22 14 23 15 24
REMARK SMILES IDX 16 25 17 26 18 27 19 28 20 29 21 30 22 31 23 32 69 33 24 34
REMARK SMILES IDX 68 35 25 36 26 37 27 38 62 39 28 40 67 41 61 42 63 43 29 44
REMARK SMILES IDX 66 45 60 46 59 47 30 49 52 50 37 51 51 52 38 53 41 54 50 55
REMARK SMILES IDX 64 56 39 57 40 58 49 60 65 61 42 62 31 63 32 64 36 65 33 66
REMARK SMILES IDX 35 67 34 68 53 69 54 70 58 71 55 72 57 73 56 74 43 75 44 76
REMARK SMILES IDX 48 77 45 78 47 79 46 80
REMARK H PARENT 70 14 63 48 41 59
REMARK Flexibility Score: inf
ROOT
ATOM      1  C   UNL A   1      29.876  25.898  25.706  1.00  0.00     0.188 C 
ENDROOT
BRANCH   1   2
ATOM      2  O   UNL A   1      31.213  26.299  25.962  1.00  0.00    -0.376 OA
BRANCH   2   3
ATOM      3  C   UNL A   1      32.215  25.299  25.916  1.00  0.00     0.202 C 
BRANCH   3   4
ATOM      4  C   UNL A   1      33.677  25.770  25.975  1.00  0.00     0.261 C 
BRANCH   4   5
ATOM      5  O   UNL A   1      34.496  25.429  24.842  1.00  0.00    -0.463 OA
BRANCH   5   6
ATOM      6  C   UNL A   1      35.045  24.196  24.832  1.00  0.00     0.305 C 
ATOM      7  O   UNL A   1      35.507  23.645  25.824  1.00  0.00    -0.252 OA
BRANCH   6   8
ATOM      8  C   UNL A   1      35.029  23.527  23.468  1.00  0.00     0.125 C 
BRANCH   8   9
ATOM      9  C   UNL A   1      33.742  23.340  22.650  1.00  0.00     0.036 C 
BRANCH   9  10
ATOM     10  C   UNL A   1      32.554  22.566  23.244  1.00  0.00     0.083 C 
ATOM     11  C   UNL A   1      31.190  23.200  22.985  1.00  0.00     0.031 C 
BRANCH  10  12
ATOM     12  N   UNL A   1      32.527  21.219  22.669  1.00  0.00    -0.319 N 
ATOM     13  C   UNL A   1      32.222  20.037  23.271  1.00  0.00     0.407 C 
ATOM     14  H   UNL A   1      32.762  21.161  21.714  1.00  0.00     0.167 HD
ATOM     15  O   UNL A   1      32.016  19.038  22.602  1.00  0.00    -0.225 OA
BRANCH  13  16
ATOM     16  O   UNL A   1      32.164  20.120  24.616  1.00  0.00    -0.444 OA
BRANCH  16  17
ATOM     17  C   UNL A   1      33.225  19.540  25.406  1.00  0.00     0.106 C 
ATOM     18  C   UNL A   1      32.789  18.173  25.931  1.00  0.00     0.056 C 
ATOM     19  C   UNL A   1      34.592  19.489  24.712  1.00  0.00     0.056 C 
ATOM     20  C   UNL A   1      33.389  20.482  26.588  1.00  0.00     0.056 C 
ENDBRANCH  16  17
ENDBRANCH  13  16
ENDBRANCH  10  12
ENDBRANCH   9  10
ENDBRANCH   8   9
ENDBRANCH   6   8
ENDBRANCH   5   6
ENDBRANCH   4   5
ENDBRANCH   3   4
ENDBRANCH   2   3
ENDBRANCH   1   2
BRANCH   1  21
ATOM     21  C   UNL A   1      29.411  26.081  24.249  1.00  0.00     0.188 C 
BRANCH  21  22
ATOM     22  O   UNL A   1      30.316  26.421  23.214  1.00  0.00    -0.377 OA
BRANCH  22  23
ATOM     23  C   UNL A   1      30.166  27.677  22.595  1.00  0.00     0.188 C 
BRANCH  23  24
ATOM     24  C   UNL A   1      29.787  28.822  23.539  1.00  0.00     0.188 C 
BRANCH  24  25
ATOM     25  O   UNL A   1      30.791  29.672  24.076  1.00  0.00    -0.376 OA
BRANCH  25  26
ATOM     26  C   UNL A   1      32.160  29.332  23.923  1.00  0.00     0.202 C 
BRANCH  26  27
ATOM     27  C   UNL A   1      33.049  29.131  25.158  1.00  0.00     0.261 C 
BRANCH  27  28
ATOM     28  O   UNL A   1      32.478  29.466  26.423  1.00  0.00    -0.460 OA
BRANCH  28  29
ATOM     29  C   UNL A   1      32.638  30.743  26.856  1.00  0.00     0.338 C 
ATOM     30  O   UNL A   1      31.835  31.649  26.843  1.00  0.00    -0.246 OA
BRANCH  29  31
ATOM     31  C   UNL A   1      33.992  30.788  27.458  1.00  0.00     0.060 A 
ATOM     32  C   UNL A   1      34.596  32.022  27.734  1.00  0.00     0.016 A 
ATOM     33  C   UNL A   1      34.581  29.605  27.897  1.00  0.00     0.016 A 
ATOM     34  C   UNL A   1      35.769  32.078  28.506  1.00  0.00     0.010 A 
ATOM     35  C   UNL A   1      35.734  29.669  28.687  1.00  0.00     0.010 A 
ATOM     36  C   UNL A   1      36.344  30.903  29.007  1.00  0.00    -0.014 A 
BRANCH  36  37
ATOM     37  C   UNL A   1      37.654  30.879  29.729  1.00  0.00     0.031 A 
ATOM     38  C   UNL A   1      38.764  30.069  29.107  1.00  0.00     0.074 A 
ATOM     39  C   UNL A   1      37.872  31.463  30.927  1.00  0.00     0.049 A 
ATOM     40  N   UNL A   1      39.917  29.710  29.609  1.00  0.00    -0.248 NA
ATOM     41  C   UNL A   1      38.521  29.576  27.739  1.00  0.00     0.031 C 
ATOM     42  C   UNL A   1      36.941  32.318  31.660  1.00  0.00     0.029 A 
ATOM     43  N   UNL A   1      38.960  31.371  31.773  1.00  0.00    -0.354 N 
ATOM     44  C   UNL A   1      40.517  28.931  28.629  1.00  0.00     0.074 A 
ATOM     45  C   UNL A   1      39.574  28.802  27.543  1.00  0.00     0.031 C 
ATOM     46  C   UNL A   1      37.464  32.613  32.866  1.00  0.00     0.029 A 
ATOM     47  C   UNL A   1      38.767  31.965  33.002  1.00  0.00     0.049 A 
ATOM     48  H   UNL A   1      39.799  30.921  31.521  1.00  0.00     0.167 HD
ATOM     49  C   UNL A   1      41.762  28.405  28.601  1.00  0.00     0.031 A 
ATOM     50  C   UNL A   1      39.534  31.966  34.114  1.00  0.00     0.031 A 
ATOM     51  C   UNL A   1      42.736  28.565  29.638  1.00  0.00     0.049 A 
ATOM     52  C   UNL A   1      40.884  31.285  34.100  1.00  0.00     0.074 A 
ATOM     53  C   UNL A   1      44.056  28.151  29.642  1.00  0.00     0.029 A 
ATOM     54  N   UNL A   1      42.501  29.182  30.853  1.00  0.00    -0.354 N 
ATOM     55  N   UNL A   1      41.482  30.650  33.121  1.00  0.00    -0.248 NA
ATOM     56  C   UNL A   1      41.682  31.349  35.339  1.00  0.00     0.031 C 
ATOM     57  C   UNL A   1      44.603  28.460  30.889  1.00  0.00     0.029 A 
ATOM     58  C   UNL A   1      43.640  29.118  31.635  1.00  0.00     0.049 A 
ATOM     59  H   UNL A   1      41.651  29.602  31.120  1.00  0.00     0.167 HD
ATOM     60  C   UNL A   1      42.737  30.297  33.606  1.00  0.00     0.074 A 
ATOM     61  C   UNL A   1      42.821  30.784  34.964  1.00  0.00     0.031 C 
ATOM     62  C   UNL A   1      43.735  29.632  32.975  1.00  0.00     0.031 A 
BRANCH  49  63
ATOM     63  C   UNL A   1      42.141  27.611  27.387  1.00  0.00    -0.014 A 
ATOM     64  C   UNL A   1      42.659  28.238  26.243  1.00  0.00     0.009 A 
ATOM     65  C   UNL A   1      42.003  26.216  27.402  1.00  0.00     0.009 A 
ATOM     66  C   UNL A   1      42.997  27.485  25.121  1.00  0.00     0.001 A 
ATOM     67  C   UNL A   1      42.374  25.462  26.289  1.00  0.00     0.001 A 
ATOM     68  C   UNL A   1      42.861  26.096  25.147  1.00  0.00     0.000 A 
ENDBRANCH  49  63
BRANCH  50  69
ATOM     69  C   UNL A   1      39.069  32.611  35.377  1.00  0.00    -0.014 A 
ATOM     70  C   UNL A   1      39.350  33.963  35.637  1.00  0.00     0.009 A 
ATOM     71  C   UNL A   1      38.455  31.847  36.381  1.00  0.00     0.009 A 
ATOM     72  C   UNL A   1      39.078  34.518  36.891  1.00  0.00     0.001 A 
ATOM     73  C   UNL A   1      38.158  32.413  37.626  1.00  0.00     0.001 A 
ATOM     74  C   UNL A   1      38.485  33.743  37.885  1.00  0.00     0.000 A 
ENDBRANCH  50  69
BRANCH  62  75
ATOM     75  C   UNL A   1      45.035  29.436  33.704  1.00  0.00    -0.014 A 
ATOM     76  C   UNL A   1      46.031  30.422  33.703  1.00  0.00     0.009 A 
ATOM     77  C   UNL A   1      45.224  28.280  34.481  1.00  0.00     0.009 A 
ATOM     78  C   UNL A   1      47.197  30.248  34.454  1.00  0.00     0.001 A 
ATOM     79  C   UNL A   1      46.374  28.124  35.254  1.00  0.00     0.001 A 
ATOM     80  C   UNL A   1      47.362  29.105  35.236  1.00  0.00     0.000 A 
ENDBRANCH  62  75
ENDBRANCH  36  37
ENDBRANCH  29  31
ENDBRANCH  28  29
ENDBRANCH  27  28
ENDBRANCH  26  27
ENDBRANCH  25  26
ENDBRANCH  24  25
ENDBRANCH  23  24
ENDBRANCH  22  23
ENDBRANCH  21  22
ENDBRANCH   1  21
TORSDOF 25
ENDMDL
