MODEL 1
REMARK VINA RESULT:     -10.1      0.000      0.000
REMARK SMILES Cc1c(C[NH2+]Cc2cccc(F)c2)c(C(=O)OCCOCCOCCOCCOC(=O)c2ccc(-c3c4nc(c(-c5ccccc5)c5ccc([nH]5)c(-c5ccccc5)c5nc(c(-c6ccccc6)c6ccc3[nH]6)C=C5)C=C4)cc2)c(C)n1Cc1c(F)cccc1Cl
REMARK SMILES IDX 22 1 21 2 20 3 19 4 18 5 17 6 15 7 16 8 14 9 1 10 2 11 3 12
REMARK SMILES IDX 82 13 80 14 81 15 4 16 5 17 6 20 7 21 8 22 13 23 9 24 11 25
REMARK SMILES IDX 10 26 12 27 83 28 84 29 85 30 90 31 86 32 87 33 89 34 91 35
REMARK SMILES IDX 88 36 23 37 24 38 25 39 26 40 27 41 28 42 29 43 30 44 31 45
REMARK SMILES IDX 32 46 33 47 79 48 34 49 78 50 35 51 36 52 37 53 72 54 38 55
REMARK SMILES IDX 77 56 71 57 73 58 39 59 76 60 70 61 69 62 40 64 62 65 47 66
REMARK SMILES IDX 61 67 48 68 51 69 60 70 74 71 49 72 50 73 59 75 75 76 52 77
REMARK SMILES IDX 41 78 42 79 46 80 43 81 45 82 44 83 63 84 64 85 68 86 65 87
REMARK SMILES IDX 67 88 66 89 53 90 54 91 58 92 55 93 57 94 56 95
REMARK H PARENT 5 18 5 19 73 63 51 74
REMARK Flexibility Score: inf
ROOT
ATOM      1  C   UNL A   1      32.914  24.502  25.112  1.00  0.00     0.188 C 
ENDROOT
BRANCH   1   2
ATOM      2  C   UNL A   1      34.146  23.570  25.169  1.00  0.00     0.188 C 
BRANCH   2   3
ATOM      3  O   UNL A   1      35.197  23.965  24.291  1.00  0.00    -0.376 OA
BRANCH   3   4
ATOM      4  C   UNL A   1      36.511  23.496  24.567  1.00  0.00     0.202 C 
BRANCH   4   5
ATOM      5  C   UNL A   1      36.864  23.222  26.035  1.00  0.00     0.261 C 
BRANCH   5   6
ATOM      6  O   UNL A   1      38.194  23.576  26.407  1.00  0.00    -0.460 OA
BRANCH   6   7
ATOM      7  C   UNL A   1      39.194  22.667  26.275  1.00  0.00     0.340 C 
ATOM      8  O   UNL A   1      39.114  21.670  25.558  1.00  0.00    -0.246 OA
BRANCH   7   9
ATOM      9  C   UNL A   1      40.369  23.078  27.059  1.00  0.00     0.089 A 
ATOM     10  C   UNL A   1      43.108  22.850  29.574  1.00  0.00     0.065 C 
ATOM     11  C   UNL A   1      42.163  23.157  28.455  1.00  0.00     0.025 A 
ATOM     12  C   UNL A   1      41.210  22.291  27.909  1.00  0.00     0.042 A 
ATOM     13  N   UNL A   1      42.089  24.373  27.778  1.00  0.00    -0.343 N 
ATOM     14  C   UNL A   1      40.928  24.357  27.017  1.00  0.00     0.030 A 
ATOM     15  C   UNL A   1      40.396  25.517  26.241  1.00  0.00     0.065 C 
BRANCH  12  16
ATOM     16  C   UNL A   1      41.117  20.803  28.142  1.00  0.00     0.300 C 
BRANCH  16  17
ATOM     17  N   UNL A   1      42.285  20.146  27.592  1.00  0.00    -0.339 N 
ATOM     18  H   UNL A   1      42.238  19.156  27.833  1.00  0.00     0.346 HD
ATOM     19  H   UNL A   1      43.099  20.612  27.992  1.00  0.00     0.346 HD
BRANCH  17  20
ATOM     20  C   UNL A   1      42.408  20.258  26.143  1.00  0.00     0.297 C 
BRANCH  20  21
ATOM     21  C   UNL A   1      43.812  20.172  25.578  1.00  0.00     0.009 A 
ATOM     22  C   UNL A   1      44.507  18.961  25.414  1.00  0.00     0.010 A 
ATOM     23  C   UNL A   1      44.449  21.359  25.182  1.00  0.00     0.048 A 
ATOM     24  C   UNL A   1      45.822  18.941  24.945  1.00  0.00     0.004 A 
ATOM     25  C   UNL A   1      45.753  21.326  24.695  1.00  0.00     0.123 A 
ATOM     26  C   UNL A   1      46.451  20.130  24.590  1.00  0.00     0.039 A 
ATOM     27  F   UNL A   1      46.349  22.469  24.329  1.00  0.00    -0.207 F 
ENDBRANCH  20  21
ENDBRANCH  17  20
ENDBRANCH  16  17
ENDBRANCH  12  16
BRANCH  13  28
ATOM     28  C   UNL A   1      42.963  25.551  27.985  1.00  0.00     0.162 C 
BRANCH  28  29
ATOM     29  C   UNL A   1      44.461  25.295  27.976  1.00  0.00     0.026 A 
ATOM     30  C   UNL A   1      45.093  24.814  26.817  1.00  0.00     0.129 A 
ATOM     31  C   UNL A   1      45.320  25.634  29.035  1.00  0.00     0.048 A 
ATOM     32  F   UNL A   1      44.401  24.651  25.688  1.00  0.00    -0.207 F 
ATOM     33  C   UNL A   1      46.468  24.588  26.728  1.00  0.00     0.040 A 
ATOM     34  C   UNL A   1      46.714  25.444  28.943  1.00  0.00     0.021 A 
ATOM     35  Cl  UNL A   1      44.759  26.393  30.482  1.00  0.00    -0.084 Cl
ATOM     36  C   UNL A   1      47.288  24.901  27.798  1.00  0.00     0.005 A 
ENDBRANCH  28  29
ENDBRANCH  13  28
ENDBRANCH   7   9
ENDBRANCH   6   7
ENDBRANCH   5   6
ENDBRANCH   4   5
ENDBRANCH   3   4
ENDBRANCH   2   3
ENDBRANCH   1   2
BRANCH   1  37
ATOM     37  O   UNL A   1      33.047  25.892  25.394  1.00  0.00    -0.377 OA
BRANCH  37  38
ATOM     38  C   UNL A   1      32.092  26.487  26.252  1.00  0.00     0.188 C 
BRANCH  38  39
ATOM     39  C   UNL A   1      32.209  28.018  26.333  1.00  0.00     0.188 C 
BRANCH  39  40
ATOM     40  O   UNL A   1      32.903  28.588  27.430  1.00  0.00    -0.376 OA
BRANCH  40  41
ATOM     41  C   UNL A   1      33.990  29.477  27.181  1.00  0.00     0.202 C 
BRANCH  41  42
ATOM     42  C   UNL A   1      34.124  30.835  27.943  1.00  0.00     0.261 C 
BRANCH  42  43
ATOM     43  O   UNL A   1      34.300  32.158  27.297  1.00  0.00    -0.460 OA
BRANCH  43  44
ATOM     44  C   UNL A   1      34.512  33.231  28.148  1.00  0.00     0.338 C 
ATOM     45  O   UNL A   1      33.708  34.154  28.238  1.00  0.00    -0.246 OA
BRANCH  44  46
ATOM     46  C   UNL A   1      35.811  33.278  29.008  1.00  0.00     0.060 A 
ATOM     47  C   UNL A   1      36.988  32.710  28.530  1.00  0.00     0.016 A 
ATOM     48  C   UNL A   1      35.850  33.521  30.405  1.00  0.00     0.016 A 
ATOM     49  C   UNL A   1      38.142  32.470  29.389  1.00  0.00     0.010 A 
ATOM     50  C   UNL A   1      37.017  33.211  31.294  1.00  0.00     0.010 A 
ATOM     51  C   UNL A   1      38.230  32.663  30.827  1.00  0.00    -0.014 A 
BRANCH  51  52
ATOM     52  C   UNL A   1      39.433  31.811  31.660  1.00  0.00     0.031 A 
ATOM     53  C   UNL A   1      40.360  32.919  32.013  1.00  0.00     0.074 A 
ATOM     54  C   UNL A   1      39.992  30.554  32.015  1.00  0.00     0.049 A 
ATOM     55  N   UNL A   1      40.829  33.649  31.044  1.00  0.00    -0.248 NA
ATOM     56  C   UNL A   1      40.502  33.502  33.345  1.00  0.00     0.031 C 
ATOM     57  C   UNL A   1      39.539  29.199  31.638  1.00  0.00     0.029 A 
ATOM     58  N   UNL A   1      41.148  30.166  32.822  1.00  0.00    -0.354 N 
ATOM     59  C   UNL A   1      41.602  34.614  31.626  1.00  0.00     0.074 A 
ATOM     60  C   UNL A   1      41.171  34.617  33.020  1.00  0.00     0.031 C 
ATOM     61  C   UNL A   1      40.237  28.208  32.282  1.00  0.00     0.029 A 
ATOM     62  C   UNL A   1      41.302  28.746  33.133  1.00  0.00     0.049 A 
ATOM     63  H   UNL A   1      41.797  30.833  33.144  1.00  0.00     0.167 HD
ATOM     64  C   UNL A   1      42.862  34.720  31.111  1.00  0.00     0.031 A 
ATOM     65  C   UNL A   1      42.234  28.032  33.913  1.00  0.00     0.031 A 
ATOM     66  C   UNL A   1      43.839  34.101  31.965  1.00  0.00     0.049 A 
ATOM     67  C   UNL A   1      43.483  28.804  33.888  1.00  0.00     0.074 A 
ATOM     68  C   UNL A   1      44.014  34.060  33.333  1.00  0.00     0.029 A 
ATOM     69  N   UNL A   1      44.519  33.022  31.443  1.00  0.00    -0.354 N 
ATOM     70  N   UNL A   1      44.273  28.747  32.859  1.00  0.00    -0.248 NA
ATOM     71  C   UNL A   1      44.029  29.488  35.056  1.00  0.00     0.031 C 
ATOM     72  C   UNL A   1      44.333  32.716  33.612  1.00  0.00     0.029 A 
ATOM     73  C   UNL A   1      44.724  32.091  32.435  1.00  0.00     0.049 A 
ATOM     74  H   UNL A   1      44.812  32.931  30.507  1.00  0.00     0.167 HD
ATOM     75  C   UNL A   1      45.086  29.819  33.047  1.00  0.00     0.074 A 
ATOM     76  C   UNL A   1      45.104  30.036  34.483  1.00  0.00     0.031 C 
ATOM     77  C   UNL A   1      45.051  30.740  32.052  1.00  0.00     0.031 A 
BRANCH  64  78
ATOM     78  C   UNL A   1      42.933  34.649  29.600  1.00  0.00    -0.014 A 
ATOM     79  C   UNL A   1      43.840  33.781  28.990  1.00  0.00     0.009 A 
ATOM     80  C   UNL A   1      42.170  35.500  28.767  1.00  0.00     0.009 A 
ATOM     81  C   UNL A   1      44.036  33.824  27.604  1.00  0.00     0.001 A 
ATOM     82  C   UNL A   1      42.400  35.582  27.396  1.00  0.00     0.001 A 
ATOM     83  C   UNL A   1      43.342  34.745  26.814  1.00  0.00     0.000 A 
ENDBRANCH  64  78
BRANCH  65  84
ATOM     84  C   UNL A   1      42.626  26.653  34.590  1.00  0.00    -0.014 A 
ATOM     85  C   UNL A   1      41.696  25.993  35.478  1.00  0.00     0.009 A 
ATOM     86  C   UNL A   1      43.575  25.777  34.039  1.00  0.00     0.009 A 
ATOM     87  C   UNL A   1      41.635  24.593  35.688  1.00  0.00     0.001 A 
ATOM     88  C   UNL A   1      43.542  24.367  34.284  1.00  0.00     0.001 A 
ATOM     89  C   UNL A   1      42.555  23.771  35.071  1.00  0.00     0.000 A 
ENDBRANCH  65  84
BRANCH  77  90
ATOM     90  C   UNL A   1      45.051  30.227  30.622  1.00  0.00    -0.014 A 
ATOM     91  C   UNL A   1      43.922  30.159  29.773  1.00  0.00     0.009 A 
ATOM     92  C   UNL A   1      46.264  29.752  30.107  1.00  0.00     0.009 A 
ATOM     93  C   UNL A   1      43.998  29.604  28.490  1.00  0.00     0.001 A 
ATOM     94  C   UNL A   1      46.352  29.241  28.807  1.00  0.00     0.001 A 
ATOM     95  C   UNL A   1      45.217  29.153  28.004  1.00  0.00     0.000 A 
ENDBRANCH  77  90
ENDBRANCH  51  52
ENDBRANCH  44  46
ENDBRANCH  43  44
ENDBRANCH  42  43
ENDBRANCH  41  42
ENDBRANCH  40  41
ENDBRANCH  39  40
ENDBRANCH  38  39
ENDBRANCH  37  38
ENDBRANCH   1  37
TORSDOF 26
ENDMDL
MODEL 2
REMARK VINA RESULT:     -10.1      6.182     11.276
REMARK SMILES Cc1c(C[NH2+]Cc2cccc(F)c2)c(C(=O)OCCOCCOCCOCCOC(=O)c2ccc(-c3c4nc(c(-c5ccccc5)c5ccc([nH]5)c(-c5ccccc5)c5nc(c(-c6ccccc6)c6ccc3[nH]6)C=C5)C=C4)cc2)c(C)n1Cc1c(F)cccc1Cl
REMARK SMILES IDX 22 1 21 2 20 3 19 4 18 5 17 6 15 7 16 8 14 9 1 10 2 11 3 12
REMARK SMILES IDX 82 13 80 14 81 15 4 16 5 17 6 20 7 21 8 22 13 23 9 24 11 25
REMARK SMILES IDX 10 26 12 27 83 28 84 29 85 30 90 31 86 32 87 33 89 34 91 35
REMARK SMILES IDX 88 36 23 37 24 38 25 39 26 40 27 41 28 42 29 43 30 44 31 45
REMARK SMILES IDX 32 46 33 47 79 48 34 49 78 50 35 51 36 52 37 53 72 54 38 55
REMARK SMILES IDX 77 56 71 57 73 58 39 59 76 60 70 61 69 62 40 64 62 65 47 66
REMARK SMILES IDX 61 67 48 68 51 69 60 70 74 71 49 72 50 73 59 75 75 76 52 77
REMARK SMILES IDX 41 78 42 79 46 80 43 81 45 82 44 83 63 84 64 85 68 86 65 87
REMARK SMILES IDX 67 88 66 89 53 90 54 91 58 92 55 93 57 94 56 95
REMARK H PARENT 5 18 5 19 73 63 51 74
REMARK Flexibility Score: inf
ROOT
ATOM      1  C   UNL A   1      39.698  25.975  28.004  1.00  0.00     0.188 C 
ENDROOT
BRANCH   1   2
ATOM      2  C   UNL A   1      39.487  24.483  27.660  1.00  0.00     0.188 C 
BRANCH   2   3
ATOM      3  O   UNL A   1      38.461  24.261  26.697  1.00  0.00    -0.376 OA
BRANCH   3   4
ATOM      4  C   UNL A   1      38.377  22.977  26.091  1.00  0.00     0.202 C 
BRANCH   4   5
ATOM      5  C   UNL A   1      37.500  22.850  24.838  1.00  0.00     0.261 C 
BRANCH   5   6
ATOM      6  O   UNL A   1      36.287  23.599  24.878  1.00  0.00    -0.460 OA
BRANCH   6   7
ATOM      7  C   UNL A   1      35.314  23.352  23.964  1.00  0.00     0.340 C 
ATOM      8  O   UNL A   1      35.534  22.882  22.849  1.00  0.00    -0.246 OA
BRANCH   7   9
ATOM      9  C   UNL A   1      33.991  23.676  24.521  1.00  0.00     0.089 A 
ATOM     10  C   UNL A   1      30.999  23.408  26.725  1.00  0.00     0.065 C 
ATOM     11  C   UNL A   1      32.100  23.778  25.782  1.00  0.00     0.025 A 
ATOM     12  C   UNL A   1      33.375  23.204  25.724  1.00  0.00     0.042 A 
ATOM     13  N   UNL A   1      32.020  24.766  24.803  1.00  0.00    -0.343 N 
ATOM     14  C   UNL A   1      33.121  24.620  23.970  1.00  0.00     0.030 A 
ATOM     15  C   UNL A   1      33.353  25.391  22.713  1.00  0.00     0.065 C 
BRANCH  12  16
ATOM     16  C   UNL A   1      33.993  22.295  26.757  1.00  0.00     0.300 C 
BRANCH  16  17
ATOM     17  N   UNL A   1      34.222  20.985  26.184  1.00  0.00    -0.339 N 
ATOM     18  H   UNL A   1      34.858  20.474  26.796  1.00  0.00     0.346 HD
ATOM     19  H   UNL A   1      34.608  21.137  25.251  1.00  0.00     0.346 HD
BRANCH  17  20
ATOM     20  C   UNL A   1      33.014  20.187  26.011  1.00  0.00     0.297 C 
BRANCH  20  21
ATOM     21  C   UNL A   1      32.818  19.548  24.651  1.00  0.00     0.009 A 
ATOM     22  C   UNL A   1      33.059  18.188  24.392  1.00  0.00     0.010 A 
ATOM     23  C   UNL A   1      32.357  20.349  23.594  1.00  0.00     0.048 A 
ATOM     24  C   UNL A   1      32.922  17.661  23.106  1.00  0.00     0.004 A 
ATOM     25  C   UNL A   1      32.202  19.810  22.320  1.00  0.00     0.123 A 
ATOM     26  C   UNL A   1      32.497  18.477  22.064  1.00  0.00     0.039 A 
ATOM     27  F   UNL A   1      31.767  20.590  21.322  1.00  0.00    -0.207 F 
ENDBRANCH  20  21
ENDBRANCH  17  20
ENDBRANCH  16  17
ENDBRANCH  12  16
BRANCH  13  28
ATOM     28  C   UNL A   1      30.874  25.672  24.558  1.00  0.00     0.162 C 
BRANCH  28  29
ATOM     29  C   UNL A   1      31.064  27.129  24.948  1.00  0.00     0.026 A 
ATOM     30  C   UNL A   1      31.736  27.464  26.135  1.00  0.00     0.129 A 
ATOM     31  C   UNL A   1      30.721  28.213  24.122  1.00  0.00     0.048 A 
ATOM     32  F   UNL A   1      32.283  26.513  26.894  1.00  0.00    -0.207 F 
ATOM     33  C   UNL A   1      31.975  28.780  26.539  1.00  0.00     0.040 A 
ATOM     34  C   UNL A   1      30.990  29.543  24.502  1.00  0.00     0.021 A 
ATOM     35  Cl  UNL A   1      30.039  28.004  22.548  1.00  0.00    -0.084 Cl
ATOM     36  C   UNL A   1      31.598  29.830  25.720  1.00  0.00     0.005 A 
ENDBRANCH  28  29
ENDBRANCH  13  28
ENDBRANCH   7   9
ENDBRANCH   6   7
ENDBRANCH   5   6
ENDBRANCH   4   5
ENDBRANCH   3   4
ENDBRANCH   2   3
ENDBRANCH   1   2
BRANCH   1  37
ATOM     37  O   UNL A   1      38.920  26.598  29.023  1.00  0.00    -0.377 OA
BRANCH  37  38
ATOM     38  C   UNL A   1      39.269  27.912  29.411  1.00  0.00     0.188 C 
BRANCH  38  39
ATOM     39  C   UNL A   1      40.075  28.674  28.346  1.00  0.00     0.188 C 
BRANCH  39  40
ATOM     40  O   UNL A   1      41.262  29.341  28.742  1.00  0.00    -0.376 OA
BRANCH  40  41
ATOM     41  C   UNL A   1      42.464  29.117  28.009  1.00  0.00     0.202 C 
BRANCH  41  42
ATOM     42  C   UNL A   1      43.316  27.823  28.215  1.00  0.00     0.261 C 
BRANCH  42  43
ATOM     43  O   UNL A   1      43.872  27.368  29.512  1.00  0.00    -0.460 OA
BRANCH  43  44
ATOM     44  C   UNL A   1      44.422  26.096  29.530  1.00  0.00     0.338 C 
ATOM     45  O   UNL A   1      45.051  25.649  28.576  1.00  0.00    -0.246 OA
BRANCH  44  46
ATOM     46  C   UNL A   1      44.228  25.200  30.791  1.00  0.00     0.060 A 
ATOM     47  C   UNL A   1      44.443  25.724  32.062  1.00  0.00     0.016 A 
ATOM     48  C   UNL A   1      44.205  23.782  30.782  1.00  0.00     0.016 A 
ATOM     49  C   UNL A   1      44.557  24.878  33.245  1.00  0.00     0.010 A 
ATOM     50  C   UNL A   1      44.389  22.916  31.992  1.00  0.00     0.010 A 
ATOM     51  C   UNL A   1      44.578  23.425  33.294  1.00  0.00    -0.014 A 
BRANCH  51  52
ATOM     52  C   UNL A   1      45.266  22.697  34.659  1.00  0.00     0.031 A 
ATOM     53  C   UNL A   1      46.019  23.844  35.232  1.00  0.00     0.074 A 
ATOM     54  C   UNL A   1      45.551  21.502  35.373  1.00  0.00     0.049 A 
ATOM     55  N   UNL A   1      46.893  24.435  34.472  1.00  0.00    -0.248 NA
ATOM     56  C   UNL A   1      45.618  24.605  36.413  1.00  0.00     0.031 C 
ATOM     57  C   UNL A   1      45.222  20.106  35.012  1.00  0.00     0.029 A 
ATOM     58  N   UNL A   1      46.233  21.230  36.637  1.00  0.00    -0.354 N 
ATOM     59  C   UNL A   1      47.402  25.472  35.202  1.00  0.00     0.074 A 
ATOM     60  C   UNL A   1      46.424  25.666  36.267  1.00  0.00     0.031 C 
ATOM     61  C   UNL A   1      45.525  19.214  36.010  1.00  0.00     0.029 A 
ATOM     62  C   UNL A   1      46.161  19.867  37.158  1.00  0.00     0.049 A 
ATOM     63  H   UNL A   1      46.723  21.936  37.118  1.00  0.00     0.167 HD
ATOM     64  C   UNL A   1      48.765  25.509  35.264  1.00  0.00     0.031 A 
ATOM     65  C   UNL A   1      46.635  19.268  38.343  1.00  0.00     0.031 A 
ATOM     66  C   UNL A   1      49.254  25.015  36.522  1.00  0.00     0.049 A 
ATOM     67  C   UNL A   1      47.819  20.032  38.756  1.00  0.00     0.074 A 
ATOM     68  C   UNL A   1      48.833  25.163  37.828  1.00  0.00     0.029 A 
ATOM     69  N   UNL A   1      50.028  23.875  36.479  1.00  0.00    -0.354 N 
ATOM     70  N   UNL A   1      48.965  19.835  38.177  1.00  0.00    -0.248 NA
ATOM     71  C   UNL A   1      47.859  20.869  39.950  1.00  0.00     0.031 C 
ATOM     72  C   UNL A   1      48.927  23.869  38.382  1.00  0.00     0.029 A 
ATOM     73  C   UNL A   1      49.742  23.089  37.572  1.00  0.00     0.049 A 
ATOM     74  H   UNL A   1      50.683  23.657  35.776  1.00  0.00     0.167 HD
ATOM     75  C   UNL A   1      49.682  20.924  38.558  1.00  0.00     0.074 A 
ATOM     76  C   UNL A   1      49.105  21.336  39.825  1.00  0.00     0.031 C 
ATOM     77  C   UNL A   1      50.123  21.699  37.537  1.00  0.00     0.031 A 
BRANCH  64  78
ATOM     78  C   UNL A   1      49.463  25.231  33.948  1.00  0.00    -0.014 A 
ATOM     79  C   UNL A   1      50.119  24.013  33.758  1.00  0.00     0.009 A 
ATOM     80  C   UNL A   1      49.556  26.201  32.923  1.00  0.00     0.009 A 
ATOM     81  C   UNL A   1      50.907  23.808  32.618  1.00  0.00     0.001 A 
ATOM     82  C   UNL A   1      50.381  26.018  31.816  1.00  0.00     0.001 A 
ATOM     83  C   UNL A   1      51.064  24.820  31.667  1.00  0.00     0.000 A 
ENDBRANCH  64  78
BRANCH  65  84
ATOM     84  C   UNL A   1      46.625  17.995  39.290  1.00  0.00    -0.014 A 
ATOM     85  C   UNL A   1      47.690  17.798  40.247  1.00  0.00     0.009 A 
ATOM     86  C   UNL A   1      45.449  17.307  39.626  1.00  0.00     0.009 A 
ATOM     87  C   UNL A   1      47.555  17.102  41.473  1.00  0.00     0.001 A 
ATOM     88  C   UNL A   1      45.324  16.564  40.844  1.00  0.00     0.001 A 
ATOM     89  C   UNL A   1      46.355  16.494  41.782  1.00  0.00     0.000 A 
ENDBRANCH  65  84
BRANCH  77  90
ATOM     90  C   UNL A   1      50.697  20.995  36.319  1.00  0.00    -0.014 A 
ATOM     91  C   UNL A   1      52.037  20.570  36.171  1.00  0.00     0.009 A 
ATOM     92  C   UNL A   1      49.836  20.773  35.237  1.00  0.00     0.009 A 
ATOM     93  C   UNL A   1      52.500  19.992  34.983  1.00  0.00     0.001 A 
ATOM     94  C   UNL A   1      50.284  20.151  34.066  1.00  0.00     0.001 A 
ATOM     95  C   UNL A   1      51.618  19.773  33.933  1.00  0.00     0.000 A 
ENDBRANCH  77  90
ENDBRANCH  51  52
ENDBRANCH  44  46
ENDBRANCH  43  44
ENDBRANCH  42  43
ENDBRANCH  41  42
ENDBRANCH  40  41
ENDBRANCH  39  40
ENDBRANCH  38  39
ENDBRANCH  37  38
ENDBRANCH   1  37
TORSDOF 26
ENDMDL
MODEL 3
REMARK VINA RESULT:      -9.5      6.170     12.156
REMARK SMILES Cc1c(C[NH2+]Cc2cccc(F)c2)c(C(=O)OCCOCCOCCOCCOC(=O)c2ccc(-c3c4nc(c(-c5ccccc5)c5ccc([nH]5)c(-c5ccccc5)c5nc(c(-c6ccccc6)c6ccc3[nH]6)C=C5)C=C4)cc2)c(C)n1Cc1c(F)cccc1Cl
REMARK SMILES IDX 22 1 21 2 20 3 19 4 18 5 17 6 15 7 16 8 14 9 1 10 2 11 3 12
REMARK SMILES IDX 82 13 80 14 81 15 4 16 5 17 6 20 7 21 8 22 13 23 9 24 11 25
REMARK SMILES IDX 10 26 12 27 83 28 84 29 85 30 90 31 86 32 87 33 89 34 91 35
REMARK SMILES IDX 88 36 23 37 24 38 25 39 26 40 27 41 28 42 29 43 30 44 31 45
REMARK SMILES IDX 32 46 33 47 79 48 34 49 78 50 35 51 36 52 37 53 72 54 38 55
REMARK SMILES IDX 77 56 71 57 73 58 39 59 76 60 70 61 69 62 40 64 62 65 47 66
REMARK SMILES IDX 61 67 48 68 51 69 60 70 74 71 49 72 50 73 59 75 75 76 52 77
REMARK SMILES IDX 41 78 42 79 46 80 43 81 45 82 44 83 63 84 64 85 68 86 65 87
REMARK SMILES IDX 67 88 66 89 53 90 54 91 58 92 55 93 57 94 56 95
REMARK H PARENT 5 18 5 19 73 63 51 74
REMARK Flexibility Score: inf
ROOT
ATOM      1  C   UNL A   1      35.752  31.346  28.107  1.00  0.00     0.188 C 
ENDROOT
BRANCH   1   2
ATOM      2  C   UNL A   1      34.474  30.495  27.924  1.00  0.00     0.188 C 
BRANCH   2   3
ATOM      3  O   UNL A   1      33.912  30.589  26.618  1.00  0.00    -0.376 OA
BRANCH   3   4
ATOM      4  C   UNL A   1      33.260  29.442  26.086  1.00  0.00     0.202 C 
BRANCH   4   5
ATOM      5  C   UNL A   1      33.460  28.115  26.829  1.00  0.00     0.261 C 
BRANCH   5   6
ATOM      6  O   UNL A   1      33.358  26.951  26.011  1.00  0.00    -0.460 OA
BRANCH   6   7
ATOM      7  C   UNL A   1      32.151  26.350  25.845  1.00  0.00     0.340 C 
ATOM      8  O   UNL A   1      31.088  26.850  26.210  1.00  0.00    -0.246 OA
BRANCH   7   9
ATOM      9  C   UNL A   1      32.307  25.072  25.133  1.00  0.00     0.089 A 
ATOM     10  C   UNL A   1      32.807  22.736  22.274  1.00  0.00     0.065 C 
ATOM     11  C   UNL A   1      32.677  23.447  23.584  1.00  0.00     0.025 A 
ATOM     12  C   UNL A   1      32.740  24.830  23.791  1.00  0.00     0.042 A 
ATOM     13  N   UNL A   1      32.469  22.830  24.816  1.00  0.00    -0.343 N 
ATOM     14  C   UNL A   1      32.130  23.820  25.728  1.00  0.00     0.030 A 
ATOM     15  C   UNL A   1      31.696  23.576  27.136  1.00  0.00     0.065 C 
BRANCH  12  16
ATOM     16  C   UNL A   1      33.214  25.861  22.796  1.00  0.00     0.300 C 
BRANCH  16  17
ATOM     17  N   UNL A   1      32.074  26.488  22.159  1.00  0.00    -0.339 N 
ATOM     18  H   UNL A   1      31.244  25.934  22.370  1.00  0.00     0.346 HD
ATOM     19  H   UNL A   1      32.281  26.525  21.160  1.00  0.00     0.346 HD
BRANCH  17  20
ATOM     20  C   UNL A   1      31.829  27.860  22.587  1.00  0.00     0.297 C 
BRANCH  20  21
ATOM     21  C   UNL A   1      30.380  28.300  22.641  1.00  0.00     0.009 A 
ATOM     22  C   UNL A   1      29.368  27.556  23.272  1.00  0.00     0.010 A 
ATOM     23  C   UNL A   1      30.027  29.521  22.044  1.00  0.00     0.048 A 
ATOM     24  C   UNL A   1      28.036  27.976  23.242  1.00  0.00     0.004 A 
ATOM     25  C   UNL A   1      28.700  29.942  22.038  1.00  0.00     0.123 A 
ATOM     26  C   UNL A   1      27.700  29.171  22.616  1.00  0.00     0.039 A 
ATOM     27  F   UNL A   1      28.380  31.106  21.458  1.00  0.00    -0.207 F 
ENDBRANCH  20  21
ENDBRANCH  17  20
ENDBRANCH  16  17
ENDBRANCH  12  16
BRANCH  13  28
ATOM     28  C   UNL A   1      32.408  21.372  25.071  1.00  0.00     0.162 C 
BRANCH  28  29
ATOM     29  C   UNL A   1      33.708  20.600  24.911  1.00  0.00     0.026 A 
ATOM     30  C   UNL A   1      34.935  21.199  25.240  1.00  0.00     0.129 A 
ATOM     31  C   UNL A   1      33.773  19.239  24.568  1.00  0.00     0.048 A 
ATOM     32  F   UNL A   1      34.970  22.423  25.771  1.00  0.00    -0.207 F 
ATOM     33  C   UNL A   1      36.162  20.538  25.149  1.00  0.00     0.040 A 
ATOM     34  C   UNL A   1      35.003  18.552  24.507  1.00  0.00     0.021 A 
ATOM     35  Cl  UNL A   1      32.363  18.280  24.289  1.00  0.00    -0.084 Cl
ATOM     36  C   UNL A   1      36.201  19.205  24.777  1.00  0.00     0.005 A 
ENDBRANCH  28  29
ENDBRANCH  13  28
ENDBRANCH   7   9
ENDBRANCH   6   7
ENDBRANCH   5   6
ENDBRANCH   4   5
ENDBRANCH   3   4
ENDBRANCH   2   3
ENDBRANCH   1   2
BRANCH   1  37
ATOM     37  O   UNL A   1      36.948  30.754  28.605  1.00  0.00    -0.377 OA
BRANCH  37  38
ATOM     38  C   UNL A   1      36.898  30.129  29.874  1.00  0.00     0.188 C 
BRANCH  38  39
ATOM     39  C   UNL A   1      36.491  31.080  31.011  1.00  0.00     0.188 C 
BRANCH  39  40
ATOM     40  O   UNL A   1      37.467  31.441  31.975  1.00  0.00    -0.376 OA
BRANCH  40  41
ATOM     41  C   UNL A   1      38.767  31.830  31.537  1.00  0.00     0.202 C 
BRANCH  41  42
ATOM     42  C   UNL A   1      40.051  31.087  32.030  1.00  0.00     0.261 C 
BRANCH  42  43
ATOM     43  O   UNL A   1      41.109  31.688  32.877  1.00  0.00    -0.460 OA
BRANCH  43  44
ATOM     44  C   UNL A   1      41.157  33.073  32.905  1.00  0.00     0.338 C 
ATOM     45  O   UNL A   1      40.433  33.731  33.647  1.00  0.00    -0.246 OA
BRANCH  44  46
ATOM     46  C   UNL A   1      42.148  33.822  31.963  1.00  0.00     0.060 A 
ATOM     47  C   UNL A   1      42.713  35.030  32.359  1.00  0.00     0.016 A 
ATOM     48  C   UNL A   1      42.273  33.591  30.569  1.00  0.00     0.016 A 
ATOM     49  C   UNL A   1      43.411  35.907  31.425  1.00  0.00     0.010 A 
ATOM     50  C   UNL A   1      42.933  34.529  29.603  1.00  0.00     0.010 A 
ATOM     51  C   UNL A   1      43.538  35.744  29.986  1.00  0.00    -0.014 A 
BRANCH  51  52
ATOM     52  C   UNL A   1      43.884  37.125  29.069  1.00  0.00     0.031 A 
ATOM     53  C   UNL A   1      45.291  37.380  29.475  1.00  0.00     0.074 A 
ATOM     54  C   UNL A   1      43.399  38.178  28.246  1.00  0.00     0.049 A 
ATOM     55  N   UNL A   1      45.537  37.534  30.743  1.00  0.00    -0.248 NA
ATOM     56  C   UNL A   1      46.466  37.106  28.652  1.00  0.00     0.031 C 
ATOM     57  C   UNL A   1      42.012  38.457  27.821  1.00  0.00     0.029 A 
ATOM     58  N   UNL A   1      44.050  39.300  27.570  1.00  0.00    -0.354 N 
ATOM     59  C   UNL A   1      46.888  37.701  30.858  1.00  0.00     0.074 A 
ATOM     60  C   UNL A   1      47.414  37.194  29.595  1.00  0.00     0.031 C 
ATOM     61  C   UNL A   1      41.932  39.478  26.907  1.00  0.00     0.029 A 
ATOM     62  C   UNL A   1      43.241  40.078  26.635  1.00  0.00     0.049 A 
ATOM     63  H   UNL A   1      44.994  39.523  27.738  1.00  0.00     0.167 HD
ATOM     64  C   UNL A   1      47.267  38.801  31.571  1.00  0.00     0.031 A 
ATOM     65  C   UNL A   1      43.539  41.161  25.783  1.00  0.00     0.031 A 
ATOM     66  C   UNL A   1      47.693  39.872  30.711  1.00  0.00     0.049 A 
ATOM     67  C   UNL A   1      44.651  41.892  26.404  1.00  0.00     0.074 A 
ATOM     68  C   UNL A   1      48.445  39.919  29.556  1.00  0.00     0.029 A 
ATOM     69  N   UNL A   1      46.941  41.027  30.745  1.00  0.00    -0.354 N 
ATOM     70  N   UNL A   1      44.435  42.705  27.393  1.00  0.00    -0.248 NA
ATOM     71  C   UNL A   1      45.996  41.939  25.841  1.00  0.00     0.031 C 
ATOM     72  C   UNL A   1      47.748  40.809  28.713  1.00  0.00     0.029 A 
ATOM     73  C   UNL A   1      46.862  41.556  29.478  1.00  0.00     0.049 A 
ATOM     74  H   UNL A   1      46.525  41.412  31.551  1.00  0.00     0.167 HD
ATOM     75  C   UNL A   1      45.680  42.892  27.903  1.00  0.00     0.074 A 
ATOM     76  C   UNL A   1      46.584  42.674  26.788  1.00  0.00     0.031 C 
ATOM     77  C   UNL A   1      45.825  42.517  29.198  1.00  0.00     0.031 A 
BRANCH  64  78
ATOM     78  C   UNL A   1      46.469  39.036  32.838  1.00  0.00    -0.014 A 
ATOM     79  C   UNL A   1      45.080  39.155  32.768  1.00  0.00     0.009 A 
ATOM     80  C   UNL A   1      47.088  39.232  34.094  1.00  0.00     0.009 A 
ATOM     81  C   UNL A   1      44.347  39.538  33.899  1.00  0.00     0.001 A 
ATOM     82  C   UNL A   1      46.368  39.663  35.205  1.00  0.00     0.001 A 
ATOM     83  C   UNL A   1      44.994  39.824  35.105  1.00  0.00     0.000 A 
ENDBRANCH  64  78
BRANCH  65  84
ATOM     84  C   UNL A   1      43.056  42.096  24.596  1.00  0.00    -0.014 A 
ATOM     85  C   UNL A   1      44.027  42.780  23.773  1.00  0.00     0.009 A 
ATOM     86  C   UNL A   1      41.811  41.941  23.965  1.00  0.00     0.009 A 
ATOM     87  C   UNL A   1      43.822  43.149  22.421  1.00  0.00     0.001 A 
ATOM     88  C   UNL A   1      41.588  42.352  22.611  1.00  0.00     0.001 A 
ATOM     89  C   UNL A   1      42.598  42.917  21.829  1.00  0.00     0.000 A 
ENDBRANCH  65  84
BRANCH  77  90
ATOM     90  C   UNL A   1      44.715  42.892  30.165  1.00  0.00    -0.014 A 
ATOM     91  C   UNL A   1      43.546  42.134  30.408  1.00  0.00     0.009 A 
ATOM     92  C   UNL A   1      44.842  44.104  30.855  1.00  0.00     0.009 A 
ATOM     93  C   UNL A   1      42.537  42.590  31.264  1.00  0.00     0.001 A 
ATOM     94  C   UNL A   1      43.857  44.539  31.749  1.00  0.00     0.001 A 
ATOM     95  C   UNL A   1      42.699  43.790  31.943  1.00  0.00     0.000 A 
ENDBRANCH  77  90
ENDBRANCH  51  52
ENDBRANCH  44  46
ENDBRANCH  43  44
ENDBRANCH  42  43
ENDBRANCH  41  42
ENDBRANCH  40  41
ENDBRANCH  39  40
ENDBRANCH  38  39
ENDBRANCH  37  38
ENDBRANCH   1  37
TORSDOF 26
ENDMDL
