MODEL 1
REMARK VINA RESULT:      -6.8      0.000      0.000
REMARK SMILES CC(=O)Oc1ccc([C@H]2Nc3c(C(=O)OCCOCCOCCOCCOC(=O)c4ccc(-c5c6nc(c(-c7ccccc7)c7ccc([nH]7)c(-c7ccccc7)c7nc(c(-c8ccccc8)c8ccc5[nH]8)C=C7)C=C6)cc4)ccc([N+](=O)[O-])c3[C@H]3C=CC[C@@H]32)cc1
REMARK SMILES IDX 20 1 19 2 18 3 17 4 16 5 15 6 13 7 14 8 12 9 9 10 10 11
REMARK SMILES IDX 89 12 11 13 85 15 88 16 84 17 86 18 87 19 78 20 80 21 79 22
REMARK SMILES IDX 8 23 5 24 6 25 91 26 7 27 90 28 4 29 2 30 1 31 3 32 81 33
REMARK SMILES IDX 82 34 83 35 21 36 22 37 23 38 24 39 25 40 26 41 27 42 28 43
REMARK SMILES IDX 29 44 30 45 31 46 77 47 32 48 76 49 33 50 34 51 35 52 70 53
REMARK SMILES IDX 36 54 75 55 69 56 71 57 37 58 74 59 68 60 67 61 38 63 60 64
REMARK SMILES IDX 45 65 59 66 46 67 49 68 58 69 72 70 47 71 48 72 57 74 73 75
REMARK SMILES IDX 50 76 39 77 40 78 44 79 41 80 43 81 42 82 61 83 62 84 66 85
REMARK SMILES IDX 63 86 65 87 64 88 51 89 52 90 56 91 53 92 55 93 54 94
REMARK H PARENT 10 14 71 62 49 73
REMARK Flexibility Score: inf
ROOT
ATOM      1  C   UNL A   1      49.170  21.069  40.309  1.00  0.00     0.188 C 
ENDROOT
BRANCH   1   2
ATOM      2  C   UNL A   1      48.031  20.331  39.571  1.00  0.00     0.188 C 
BRANCH   2   3
ATOM      3  O   UNL A   1      47.083  21.224  38.991  1.00  0.00    -0.376 OA
BRANCH   3   4
ATOM      4  C   UNL A   1      46.840  21.122  37.599  1.00  0.00     0.202 C 
BRANCH   4   5
ATOM      5  C   UNL A   1      48.061  20.818  36.739  1.00  0.00     0.261 C 
BRANCH   5   6
ATOM      6  O   UNL A   1      48.069  21.393  35.425  1.00  0.00    -0.460 OA
BRANCH   6   7
ATOM      7  C   UNL A   1      48.415  20.708  34.306  1.00  0.00     0.340 C 
ATOM      8  O   UNL A   1      47.750  19.894  33.695  1.00  0.00    -0.246 OA
BRANCH   7   9
ATOM      9  C   UNL A   1      49.786  21.192  33.988  1.00  0.00     0.084 A 
ATOM     10  C   UNL A   1      49.799  25.013  33.361  1.00  0.00     0.114 C 
ATOM     11  N   UNL A   1      49.288  23.648  33.697  1.00  0.00    -0.377 N 
ATOM     12  C   UNL A   1      51.003  24.789  32.436  1.00  0.00     0.031 C 
ATOM     13  C   UNL A   1      50.187  22.539  33.757  1.00  0.00     0.060 A 
ATOM     14  H   UNL A   1      48.330  23.513  33.877  1.00  0.00     0.161 HD
ATOM     15  C   UNL A   1      52.059  24.198  33.383  1.00  0.00     0.056 C 
ATOM     16  C   UNL A   1      51.693  25.885  31.630  1.00  0.00     0.034 C 
ATOM     17  C   UNL A   1      51.611  22.767  33.593  1.00  0.00     0.061 A 
ATOM     18  C   UNL A   1      53.328  24.595  32.707  1.00  0.00    -0.022 C 
ATOM     19  C   UNL A   1      53.132  25.518  31.761  1.00  0.00    -0.030 C 
ATOM     20  C   UNL A   1      50.733  20.135  34.002  1.00  0.00     0.025 A 
ATOM     21  C   UNL A   1      52.504  21.675  33.641  1.00  0.00     0.275 A 
ATOM     22  C   UNL A   1      52.081  20.368  33.837  1.00  0.00     0.087 A 
BRANCH  10  23
ATOM     23  C   UNL A   1      48.800  26.084  32.907  1.00  0.00    -0.025 A 
ATOM     24  C   UNL A   1      47.401  28.104  31.472  1.00  0.00     0.130 A 
ATOM     25  C   UNL A   1      48.457  28.449  32.312  1.00  0.00     0.047 A 
ATOM     26  C   UNL A   1      47.021  26.771  31.361  1.00  0.00     0.047 A 
ATOM     27  C   UNL A   1      49.145  27.449  33.026  1.00  0.00     0.010 A 
ATOM     28  C   UNL A   1      47.682  25.781  32.110  1.00  0.00     0.010 A 
BRANCH  24  29
ATOM     29  O   UNL A   1      46.824  29.147  30.708  1.00  0.00    -0.427 OA
BRANCH  29  30
ATOM     30  C   UNL A   1      47.575  29.883  29.786  1.00  0.00     0.308 C 
ATOM     31  C   UNL A   1      47.160  29.522  28.387  1.00  0.00     0.139 C 
ATOM     32  O   UNL A   1      48.450  30.698  30.039  1.00  0.00    -0.252 OA
ENDBRANCH  29  30
ENDBRANCH  24  29
ENDBRANCH  10  23
BRANCH  21  33
ATOM     33  N   UNL A   1      53.926  21.825  33.433  1.00  0.00     0.063 N 
ATOM     34  O   UNL A   1      54.619  22.011  34.441  1.00  0.00    -0.258 OA
ATOM     35  O   UNL A   1      54.327  21.802  32.262  1.00  0.00    -0.258 OA
ENDBRANCH  21  33
ENDBRANCH   7   9
ENDBRANCH   6   7
ENDBRANCH   5   6
ENDBRANCH   4   5
ENDBRANCH   3   4
ENDBRANCH   2   3
ENDBRANCH   1   2
BRANCH   1  36
ATOM     36  O   UNL A   1      49.801  22.201  39.710  1.00  0.00    -0.377 OA
BRANCH  36  37
ATOM     37  C   UNL A   1      50.965  21.955  38.935  1.00  0.00     0.188 C 
BRANCH  37  38
ATOM     38  C   UNL A   1      51.064  22.889  37.712  1.00  0.00     0.188 C 
BRANCH  38  39
ATOM     39  O   UNL A   1      50.812  24.252  38.003  1.00  0.00    -0.376 OA
BRANCH  39  40
ATOM     40  C   UNL A   1      50.382  25.155  36.998  1.00  0.00     0.202 C 
BRANCH  40  41
ATOM     41  C   UNL A   1      49.151  26.071  37.132  1.00  0.00     0.261 C 
BRANCH  41  42
ATOM     42  O   UNL A   1      48.125  25.963  36.142  1.00  0.00    -0.460 OA
BRANCH  42  43
ATOM     43  C   UNL A   1      46.924  25.487  36.522  1.00  0.00     0.338 C 
ATOM     44  O   UNL A   1      46.662  24.830  37.511  1.00  0.00    -0.246 OA
BRANCH  43  45
ATOM     45  C   UNL A   1      45.934  26.089  35.605  1.00  0.00     0.060 A 
ATOM     46  C   UNL A   1      46.093  27.426  35.217  1.00  0.00     0.016 A 
ATOM     47  C   UNL A   1      44.879  25.323  35.102  1.00  0.00     0.016 A 
ATOM     48  C   UNL A   1      45.178  28.012  34.347  1.00  0.00     0.010 A 
ATOM     49  C   UNL A   1      43.941  25.919  34.258  1.00  0.00     0.010 A 
ATOM     50  C   UNL A   1      44.071  27.275  33.910  1.00  0.00    -0.014 A 
BRANCH  50  51
ATOM     51  C   UNL A   1      42.928  27.988  33.302  1.00  0.00     0.031 A 
ATOM     52  C   UNL A   1      42.658  27.758  31.841  1.00  0.00     0.074 A 
ATOM     53  C   UNL A   1      42.132  28.790  34.029  1.00  0.00     0.049 A 
ATOM     54  N   UNL A   1      41.737  28.280  31.075  1.00  0.00    -0.248 NA
ATOM     55  C   UNL A   1      43.550  26.809  31.155  1.00  0.00     0.031 C 
ATOM     56  C   UNL A   1      42.263  29.044  35.462  1.00  0.00     0.029 A 
ATOM     57  N   UNL A   1      41.050  29.541  33.647  1.00  0.00    -0.354 N 
ATOM     58  C   UNL A   1      41.944  27.727  29.817  1.00  0.00     0.074 A 
ATOM     59  C   UNL A   1      43.093  26.856  29.914  1.00  0.00     0.031 C 
ATOM     60  C   UNL A   1      41.299  29.903  35.838  1.00  0.00     0.029 A 
ATOM     61  C   UNL A   1      40.509  30.281  34.667  1.00  0.00     0.049 A 
ATOM     62  H   UNL A   1      40.696  29.548  32.728  1.00  0.00     0.167 HD
ATOM     63  C   UNL A   1      41.237  27.927  28.681  1.00  0.00     0.031 A 
ATOM     64  C   UNL A   1      39.504  31.178  34.647  1.00  0.00     0.031 A 
ATOM     65  C   UNL A   1      40.111  28.813  28.582  1.00  0.00     0.049 A 
ATOM     66  C   UNL A   1      38.791  31.453  33.349  1.00  0.00     0.074 A 
ATOM     67  C   UNL A   1      39.322  29.084  27.480  1.00  0.00     0.029 A 
ATOM     68  N   UNL A   1      39.623  29.582  29.627  1.00  0.00    -0.354 N 
ATOM     69  N   UNL A   1      38.977  30.908  32.169  1.00  0.00    -0.248 NA
ATOM     70  C   UNL A   1      37.722  32.461  33.383  1.00  0.00     0.031 C 
ATOM     71  C   UNL A   1      38.393  30.066  27.842  1.00  0.00     0.029 A 
ATOM     72  C   UNL A   1      38.560  30.353  29.187  1.00  0.00     0.049 A 
ATOM     73  H   UNL A   1      39.979  29.581  30.545  1.00  0.00     0.167 HD
ATOM     74  C   UNL A   1      38.029  31.484  31.331  1.00  0.00     0.074 A 
ATOM     75  C   UNL A   1      37.261  32.408  32.140  1.00  0.00     0.031 C 
ATOM     76  C   UNL A   1      37.810  31.266  30.010  1.00  0.00     0.031 A 
BRANCH  63  77
ATOM     77  C   UNL A   1      41.699  27.202  27.448  1.00  0.00    -0.014 A 
ATOM     78  C   UNL A   1      41.222  25.920  27.130  1.00  0.00     0.009 A 
ATOM     79  C   UNL A   1      42.616  27.820  26.585  1.00  0.00     0.009 A 
ATOM     80  C   UNL A   1      41.683  25.258  25.990  1.00  0.00     0.001 A 
ATOM     81  C   UNL A   1      43.051  27.168  25.429  1.00  0.00     0.001 A 
ATOM     82  C   UNL A   1      42.592  25.885  25.138  1.00  0.00     0.000 A 
ENDBRANCH  63  77
BRANCH  64  83
ATOM     83  C   UNL A   1      39.122  31.901  35.888  1.00  0.00    -0.014 A 
ATOM     84  C   UNL A   1      39.794  33.072  36.272  1.00  0.00     0.009 A 
ATOM     85  C   UNL A   1      38.099  31.408  36.713  1.00  0.00     0.009 A 
ATOM     86  C   UNL A   1      39.467  33.717  37.468  1.00  0.00     0.001 A 
ATOM     87  C   UNL A   1      37.753  32.071  37.892  1.00  0.00     0.001 A 
ATOM     88  C   UNL A   1      38.445  33.218  38.274  1.00  0.00     0.000 A 
ENDBRANCH  64  83
BRANCH  76  89
ATOM     89  C   UNL A   1      36.667  32.004  29.368  1.00  0.00    -0.014 A 
ATOM     90  C   UNL A   1      36.734  33.384  29.117  1.00  0.00     0.009 A 
ATOM     91  C   UNL A   1      35.524  31.294  28.967  1.00  0.00     0.009 A 
ATOM     92  C   UNL A   1      35.662  34.042  28.509  1.00  0.00     0.001 A 
ATOM     93  C   UNL A   1      34.469  31.949  28.330  1.00  0.00     0.001 A 
ATOM     94  C   UNL A   1      34.535  33.324  28.112  1.00  0.00     0.000 A 
ENDBRANCH  76  89
ENDBRANCH  50  51
ENDBRANCH  43  45
ENDBRANCH  42  43
ENDBRANCH  41  42
ENDBRANCH  40  41
ENDBRANCH  39  40
ENDBRANCH  38  39
ENDBRANCH  37  38
ENDBRANCH  36  37
ENDBRANCH   1  36
TORSDOF 24
ENDMDL
MODEL 2
REMARK VINA RESULT:      -6.8      6.525     11.452
REMARK SMILES CC(=O)Oc1ccc([C@H]2Nc3c(C(=O)OCCOCCOCCOCCOC(=O)c4ccc(-c5c6nc(c(-c7ccccc7)c7ccc([nH]7)c(-c7ccccc7)c7nc(c(-c8ccccc8)c8ccc5[nH]8)C=C7)C=C6)cc4)ccc([N+](=O)[O-])c3[C@H]3C=CC[C@@H]32)cc1
REMARK SMILES IDX 20 1 19 2 18 3 17 4 16 5 15 6 13 7 14 8 12 9 9 10 10 11
REMARK SMILES IDX 89 12 11 13 85 15 88 16 84 17 86 18 87 19 78 20 80 21 79 22
REMARK SMILES IDX 8 23 5 24 6 25 91 26 7 27 90 28 4 29 2 30 1 31 3 32 81 33
REMARK SMILES IDX 82 34 83 35 21 36 22 37 23 38 24 39 25 40 26 41 27 42 28 43
REMARK SMILES IDX 29 44 30 45 31 46 77 47 32 48 76 49 33 50 34 51 35 52 70 53
REMARK SMILES IDX 36 54 75 55 69 56 71 57 37 58 74 59 68 60 67 61 38 63 60 64
REMARK SMILES IDX 45 65 59 66 46 67 49 68 58 69 72 70 47 71 48 72 57 74 73 75
REMARK SMILES IDX 50 76 39 77 40 78 44 79 41 80 43 81 42 82 61 83 62 84 66 85
REMARK SMILES IDX 63 86 65 87 64 88 51 89 52 90 56 91 53 92 55 93 54 94
REMARK H PARENT 10 14 71 62 49 73
REMARK Flexibility Score: inf
ROOT
ATOM      1  C   UNL A   1      39.306  27.077  27.831  1.00  0.00     0.188 C 
ENDROOT
BRANCH   1   2
ATOM      2  C   UNL A   1      39.657  25.699  28.437  1.00  0.00     0.188 C 
BRANCH   2   3
ATOM      3  O   UNL A   1      40.625  24.992  27.667  1.00  0.00    -0.376 OA
BRANCH   3   4
ATOM      4  C   UNL A   1      40.174  24.271  26.534  1.00  0.00     0.202 C 
BRANCH   4   5
ATOM      5  C   UNL A   1      39.786  22.820  26.788  1.00  0.00     0.261 C 
BRANCH   5   6
ATOM      6  O   UNL A   1      40.478  22.156  27.854  1.00  0.00    -0.460 OA
BRANCH   6   7
ATOM      7  C   UNL A   1      41.133  20.977  27.707  1.00  0.00     0.340 C 
ATOM      8  O   UNL A   1      40.771  19.874  28.069  1.00  0.00    -0.246 OA
BRANCH   7   9
ATOM      9  C   UNL A   1      42.385  21.338  26.989  1.00  0.00     0.084 A 
ATOM     10  C   UNL A   1      44.096  24.397  28.638  1.00  0.00     0.114 C 
ATOM     11  N   UNL A   1      43.109  23.297  28.406  1.00  0.00    -0.377 N 
ATOM     12  C   UNL A   1      44.672  24.734  27.255  1.00  0.00     0.031 C 
ATOM     13  C   UNL A   1      43.307  22.368  27.339  1.00  0.00     0.060 A 
ATOM     14  H   UNL A   1      42.322  23.213  28.991  1.00  0.00     0.161 HD
ATOM     15  C   UNL A   1      45.530  23.501  26.931  1.00  0.00     0.056 C 
ATOM     16  C   UNL A   1      45.525  25.961  26.947  1.00  0.00     0.034 C 
ATOM     17  C   UNL A   1      44.522  22.437  26.550  1.00  0.00     0.061 A 
ATOM     18  C   UNL A   1      46.545  24.074  26.001  1.00  0.00    -0.022 C 
ATOM     19  C   UNL A   1      46.549  25.410  26.015  1.00  0.00    -0.030 C 
ATOM     20  C   UNL A   1      42.633  20.472  25.894  1.00  0.00     0.025 A 
ATOM     21  C   UNL A   1      44.720  21.529  25.488  1.00  0.00     0.275 A 
ATOM     22  C   UNL A   1      43.790  20.556  25.150  1.00  0.00     0.087 A 
BRANCH  10  23
ATOM     23  C   UNL A   1      43.676  25.597  29.495  1.00  0.00    -0.025 A 
ATOM     24  C   UNL A   1      43.570  28.078  30.883  1.00  0.00     0.130 A 
ATOM     25  C   UNL A   1      44.159  26.968  31.482  1.00  0.00     0.047 A 
ATOM     26  C   UNL A   1      43.012  27.957  29.615  1.00  0.00     0.047 A 
ATOM     27  C   UNL A   1      44.207  25.739  30.797  1.00  0.00     0.010 A 
ATOM     28  C   UNL A   1      43.022  26.718  28.952  1.00  0.00     0.010 A 
BRANCH  24  29
ATOM     29  O   UNL A   1      43.651  29.304  31.588  1.00  0.00    -0.427 OA
BRANCH  29  30
ATOM     30  C   UNL A   1      44.285  29.394  32.831  1.00  0.00     0.308 C 
ATOM     31  C   UNL A   1      45.628  30.049  32.672  1.00  0.00     0.139 C 
ATOM     32  O   UNL A   1      43.849  29.003  33.905  1.00  0.00    -0.252 OA
ENDBRANCH  29  30
ENDBRANCH  24  29
ENDBRANCH  10  23
BRANCH  21  33
ATOM     33  N   UNL A   1      45.881  21.576  24.631  1.00  0.00     0.063 N 
ATOM     34  O   UNL A   1      46.774  20.749  24.857  1.00  0.00    -0.258 OA
ATOM     35  O   UNL A   1      45.910  22.469  23.773  1.00  0.00    -0.258 OA
ENDBRANCH  21  33
ENDBRANCH   7   9
ENDBRANCH   6   7
ENDBRANCH   5   6
ENDBRANCH   4   5
ENDBRANCH   3   4
ENDBRANCH   2   3
ENDBRANCH   1   2
BRANCH   1  36
ATOM     36  O   UNL A   1      39.084  28.202  28.683  1.00  0.00    -0.377 OA
BRANCH  36  37
ATOM     37  C   UNL A   1      38.675  27.931  30.015  1.00  0.00     0.188 C 
BRANCH  37  38
ATOM     38  C   UNL A   1      37.959  29.132  30.664  1.00  0.00     0.188 C 
BRANCH  38  39
ATOM     39  O   UNL A   1      38.181  30.365  30.002  1.00  0.00    -0.376 OA
BRANCH  39  40
ATOM     40  C   UNL A   1      37.283  31.452  30.147  1.00  0.00     0.202 C 
BRANCH  40  41
ATOM     41  C   UNL A   1      37.230  32.367  31.385  1.00  0.00     0.261 C 
BRANCH  41  42
ATOM     42  O   UNL A   1      37.223  33.781  31.174  1.00  0.00    -0.460 OA
BRANCH  42  43
ATOM     43  C   UNL A   1      38.076  34.535  31.892  1.00  0.00     0.338 C 
ATOM     44  O   UNL A   1      37.903  35.007  32.999  1.00  0.00    -0.246 OA
BRANCH  43  45
ATOM     45  C   UNL A   1      39.360  34.515  31.159  1.00  0.00     0.060 A 
ATOM     46  C   UNL A   1      40.545  34.292  31.872  1.00  0.00     0.016 A 
ATOM     47  C   UNL A   1      39.383  34.674  29.771  1.00  0.00     0.016 A 
ATOM     48  C   UNL A   1      41.764  34.260  31.201  1.00  0.00     0.010 A 
ATOM     49  C   UNL A   1      40.607  34.677  29.102  1.00  0.00     0.010 A 
ATOM     50  C   UNL A   1      41.802  34.507  29.823  1.00  0.00    -0.014 A 
BRANCH  50  51
ATOM     51  C   UNL A   1      43.096  34.835  29.188  1.00  0.00     0.031 A 
ATOM     52  C   UNL A   1      44.119  33.739  29.082  1.00  0.00     0.074 A 
ATOM     53  C   UNL A   1      43.344  36.057  28.689  1.00  0.00     0.049 A 
ATOM     54  N   UNL A   1      45.330  33.779  28.592  1.00  0.00    -0.248 NA
ATOM     55  C   UNL A   1      43.719  32.420  29.599  1.00  0.00     0.031 C 
ATOM     56  C   UNL A   1      42.408  37.179  28.685  1.00  0.00     0.029 A 
ATOM     57  N   UNL A   1      44.473  36.552  28.088  1.00  0.00    -0.354 N 
ATOM     58  C   UNL A   1      45.837  32.495  28.748  1.00  0.00     0.074 A 
ATOM     59  C   UNL A   1      44.817  31.708  29.405  1.00  0.00     0.031 C 
ATOM     60  C   UNL A   1      43.008  38.240  28.115  1.00  0.00     0.029 A 
ATOM     61  C   UNL A   1      44.376  37.877  27.747  1.00  0.00     0.049 A 
ATOM     62  H   UNL A   1      45.276  36.009  27.919  1.00  0.00     0.167 HD
ATOM     63  C   UNL A   1      47.044  32.013  28.375  1.00  0.00     0.031 A 
ATOM     64  C   UNL A   1      45.298  38.704  27.217  1.00  0.00     0.031 A 
ATOM     65  C   UNL A   1      48.064  32.804  27.746  1.00  0.00     0.049 A 
ATOM     66  C   UNL A   1      46.668  38.167  26.895  1.00  0.00     0.074 A 
ATOM     67  C   UNL A   1      49.321  32.412  27.323  1.00  0.00     0.029 A 
ATOM     68  N   UNL A   1      47.945  34.156  27.460  1.00  0.00    -0.354 N 
ATOM     69  N   UNL A   1      47.131  36.946  27.025  1.00  0.00    -0.248 NA
ATOM     70  C   UNL A   1      47.640  39.123  26.347  1.00  0.00     0.031 C 
ATOM     71  C   UNL A   1      49.987  33.542  26.837  1.00  0.00     0.029 A 
ATOM     72  C   UNL A   1      49.119  34.621  26.893  1.00  0.00     0.049 A 
ATOM     73  H   UNL A   1      47.145  34.702  27.634  1.00  0.00     0.167 HD
ATOM     74  C   UNL A   1      48.435  36.981  26.544  1.00  0.00     0.074 A 
ATOM     75  C   UNL A   1      48.683  38.339  26.107  1.00  0.00     0.031 C 
ATOM     76  C   UNL A   1      49.345  35.978  26.466  1.00  0.00     0.031 A 
BRANCH  63  77
ATOM     77  C   UNL A   1      47.334  30.571  28.685  1.00  0.00    -0.014 A 
ATOM     78  C   UNL A   1      47.014  29.547  27.779  1.00  0.00     0.009 A 
ATOM     79  C   UNL A   1      47.950  30.235  29.901  1.00  0.00     0.009 A 
ATOM     80  C   UNL A   1      47.275  28.214  28.100  1.00  0.00     0.001 A 
ATOM     81  C   UNL A   1      48.237  28.903  30.205  1.00  0.00     0.001 A 
ATOM     82  C   UNL A   1      47.890  27.893  29.309  1.00  0.00     0.000 A 
ENDBRANCH  63  77
BRANCH  64  83
ATOM     83  C   UNL A   1      44.970  40.134  26.977  1.00  0.00    -0.014 A 
ATOM     84  C   UNL A   1      45.128  41.088  27.994  1.00  0.00     0.009 A 
ATOM     85  C   UNL A   1      44.469  40.549  25.732  1.00  0.00     0.009 A 
ATOM     86  C   UNL A   1      44.766  42.420  27.779  1.00  0.00     0.001 A 
ATOM     87  C   UNL A   1      44.137  41.887  25.510  1.00  0.00     0.001 A 
ATOM     88  C   UNL A   1      44.275  42.819  26.536  1.00  0.00     0.000 A 
ENDBRANCH  64  83
BRANCH  76  89
ATOM     89  C   UNL A   1      50.677  36.301  25.846  1.00  0.00    -0.014 A 
ATOM     90  C   UNL A   1      51.757  36.752  26.621  1.00  0.00     0.009 A 
ATOM     91  C   UNL A   1      50.864  36.103  24.468  1.00  0.00     0.009 A 
ATOM     92  C   UNL A   1      52.987  37.034  26.021  1.00  0.00     0.001 A 
ATOM     93  C   UNL A   1      52.104  36.354  23.878  1.00  0.00     0.001 A 
ATOM     94  C   UNL A   1      53.160  36.829  24.653  1.00  0.00     0.000 A 
ENDBRANCH  76  89
ENDBRANCH  50  51
ENDBRANCH  43  45
ENDBRANCH  42  43
ENDBRANCH  41  42
ENDBRANCH  40  41
ENDBRANCH  39  40
ENDBRANCH  38  39
ENDBRANCH  37  38
ENDBRANCH  36  37
ENDBRANCH   1  36
TORSDOF 24
ENDMDL
MODEL 3
REMARK VINA RESULT:      -6.7      5.644     10.977
REMARK SMILES CC(=O)Oc1ccc([C@H]2Nc3c(C(=O)OCCOCCOCCOCCOC(=O)c4ccc(-c5c6nc(c(-c7ccccc7)c7ccc([nH]7)c(-c7ccccc7)c7nc(c(-c8ccccc8)c8ccc5[nH]8)C=C7)C=C6)cc4)ccc([N+](=O)[O-])c3[C@H]3C=CC[C@@H]32)cc1
REMARK SMILES IDX 20 1 19 2 18 3 17 4 16 5 15 6 13 7 14 8 12 9 9 10 10 11
REMARK SMILES IDX 89 12 11 13 85 15 88 16 84 17 86 18 87 19 78 20 80 21 79 22
REMARK SMILES IDX 8 23 5 24 6 25 91 26 7 27 90 28 4 29 2 30 1 31 3 32 81 33
REMARK SMILES IDX 82 34 83 35 21 36 22 37 23 38 24 39 25 40 26 41 27 42 28 43
REMARK SMILES IDX 29 44 30 45 31 46 77 47 32 48 76 49 33 50 34 51 35 52 70 53
REMARK SMILES IDX 36 54 75 55 69 56 71 57 37 58 74 59 68 60 67 61 38 63 60 64
REMARK SMILES IDX 45 65 59 66 46 67 49 68 58 69 72 70 47 71 48 72 57 74 73 75
REMARK SMILES IDX 50 76 39 77 40 78 44 79 41 80 43 81 42 82 61 83 62 84 66 85
REMARK SMILES IDX 63 86 65 87 64 88 51 89 52 90 56 91 53 92 55 93 54 94
REMARK H PARENT 10 14 71 62 49 73
REMARK Flexibility Score: inf
ROOT
ATOM      1  C   UNL A   1      46.110  18.255  45.559  1.00  0.00     0.188 C 
ENDROOT
BRANCH   1   2
ATOM      2  C   UNL A   1      47.577  17.976  45.163  1.00  0.00     0.188 C 
BRANCH   2   3
ATOM      3  O   UNL A   1      47.831  18.227  43.784  1.00  0.00    -0.376 OA
BRANCH   3   4
ATOM      4  C   UNL A   1      48.930  19.057  43.451  1.00  0.00     0.202 C 
BRANCH   4   5
ATOM      5  C   UNL A   1      49.934  18.459  42.473  1.00  0.00     0.261 C 
BRANCH   5   6
ATOM      6  O   UNL A   1      49.955  19.030  41.158  1.00  0.00    -0.460 OA
BRANCH   6   7
ATOM      7  C   UNL A   1      50.773  18.600  40.164  1.00  0.00     0.340 C 
ATOM      8  O   UNL A   1      51.796  17.953  40.270  1.00  0.00    -0.246 OA
BRANCH   7   9
ATOM      9  C   UNL A   1      50.124  19.087  38.917  1.00  0.00     0.084 A 
ATOM     10  C   UNL A   1      46.268  18.824  39.166  1.00  0.00     0.114 C 
ATOM     11  N   UNL A   1      47.709  18.745  39.561  1.00  0.00    -0.377 N 
ATOM     12  C   UNL A   1      46.249  18.660  37.639  1.00  0.00     0.031 C 
ATOM     13  C   UNL A   1      48.725  19.195  38.664  1.00  0.00     0.060 A 
ATOM     14  H   UNL A   1      47.956  18.383  40.442  1.00  0.00     0.161 HD
ATOM     15  C   UNL A   1      46.863  19.978  37.145  1.00  0.00     0.056 C 
ATOM     16  C   UNL A   1      44.992  18.416  36.809  1.00  0.00     0.034 C 
ATOM     17  C   UNL A   1      48.345  19.822  37.413  1.00  0.00     0.061 A 
ATOM     18  C   UNL A   1      46.260  20.103  35.786  1.00  0.00    -0.022 C 
ATOM     19  C   UNL A   1      45.238  19.261  35.606  1.00  0.00    -0.030 C 
ATOM     20  C   UNL A   1      51.079  19.526  37.964  1.00  0.00     0.025 A 
ATOM     21  C   UNL A   1      49.344  20.260  36.517  1.00  0.00     0.275 A 
ATOM     22  C   UNL A   1      50.700  20.113  36.776  1.00  0.00     0.087 A 
BRANCH  10  23
ATOM     23  C   UNL A   1      45.243  17.985  39.938  1.00  0.00    -0.025 A 
ATOM     24  C   UNL A   1      43.928  15.978  41.466  1.00  0.00     0.130 A 
ATOM     25  C   UNL A   1      44.034  15.845  40.084  1.00  0.00     0.047 A 
ATOM     26  C   UNL A   1      44.445  17.109  42.088  1.00  0.00     0.047 A 
ATOM     27  C   UNL A   1      44.681  16.842  39.328  1.00  0.00     0.010 A 
ATOM     28  C   UNL A   1      45.050  18.122  41.325  1.00  0.00     0.010 A 
BRANCH  24  29
ATOM     29  O   UNL A   1      43.358  14.890  42.170  1.00  0.00    -0.427 OA
BRANCH  29  30
ATOM     30  C   UNL A   1      42.365  15.082  43.137  1.00  0.00     0.308 C 
ATOM     31  C   UNL A   1      42.951  14.913  44.511  1.00  0.00     0.139 C 
ATOM     32  O   UNL A   1      41.187  15.340  42.934  1.00  0.00    -0.252 OA
ENDBRANCH  29  30
ENDBRANCH  24  29
ENDBRANCH  10  23
BRANCH  21  33
ATOM     33  N   UNL A   1      49.035  20.844  35.233  1.00  0.00     0.063 N 
ATOM     34  O   UNL A   1      48.706  22.037  35.228  1.00  0.00    -0.258 OA
ATOM     35  O   UNL A   1      49.078  20.093  34.249  1.00  0.00    -0.258 OA
ENDBRANCH  21  33
ENDBRANCH   7   9
ENDBRANCH   6   7
ENDBRANCH   5   6
ENDBRANCH   4   5
ENDBRANCH   3   4
ENDBRANCH   2   3
ENDBRANCH   1   2
BRANCH   1  36
ATOM     36  O   UNL A   1      45.793  19.337  46.434  1.00  0.00    -0.377 OA
BRANCH  36  37
ATOM     37  C   UNL A   1      46.208  20.635  46.031  1.00  0.00     0.188 C 
BRANCH  37  38
ATOM     38  C   UNL A   1      47.397  21.155  46.863  1.00  0.00     0.188 C 
BRANCH  38  39
ATOM     39  O   UNL A   1      48.328  21.925  46.123  1.00  0.00    -0.376 OA
BRANCH  39  40
ATOM     40  C   UNL A   1      49.681  21.522  45.991  1.00  0.00     0.202 C 
BRANCH  40  41
ATOM     41  C   UNL A   1      50.748  22.322  45.221  1.00  0.00     0.261 C 
BRANCH  41  42
ATOM     42  O   UNL A   1      50.775  22.204  43.796  1.00  0.00    -0.460 OA
BRANCH  42  43
ATOM     43  C   UNL A   1      51.643  22.973  43.112  1.00  0.00     0.338 C 
ATOM     44  O   UNL A   1      52.803  23.211  43.385  1.00  0.00    -0.246 OA
BRANCH  43  45
ATOM     45  C   UNL A   1      50.973  23.319  41.841  1.00  0.00     0.060 A 
ATOM     46  C   UNL A   1      50.575  22.286  40.981  1.00  0.00     0.016 A 
ATOM     47  C   UNL A   1      50.703  24.653  41.523  1.00  0.00     0.016 A 
ATOM     48  C   UNL A   1      49.933  22.588  39.783  1.00  0.00     0.010 A 
ATOM     49  C   UNL A   1      50.093  24.958  40.307  1.00  0.00     0.010 A 
ATOM     50  C   UNL A   1      49.741  23.926  39.420  1.00  0.00    -0.014 A 
BRANCH  50  51
ATOM     51  C   UNL A   1      49.406  24.248  38.016  1.00  0.00     0.031 A 
ATOM     52  C   UNL A   1      50.545  24.434  37.053  1.00  0.00     0.074 A 
ATOM     53  C   UNL A   1      48.133  24.340  37.600  1.00  0.00     0.049 A 
ATOM     54  N   UNL A   1      50.515  24.743  35.783  1.00  0.00    -0.248 NA
ATOM     55  C   UNL A   1      51.900  24.246  37.598  1.00  0.00     0.031 C 
ATOM     56  C   UNL A   1      46.950  24.125  38.430  1.00  0.00     0.029 A 
ATOM     57  N   UNL A   1      47.629  24.643  36.361  1.00  0.00    -0.354 N 
ATOM     58  C   UNL A   1      51.845  24.791  35.381  1.00  0.00     0.074 A 
ATOM     59  C   UNL A   1      52.655  24.512  36.545  1.00  0.00     0.031 C 
ATOM     60  C   UNL A   1      45.852  24.312  37.676  1.00  0.00     0.029 A 
ATOM     61  C   UNL A   1      46.259  24.692  36.324  1.00  0.00     0.049 A 
ATOM     62  H   UNL A   1      48.197  24.811  35.574  1.00  0.00     0.167 HD
ATOM     63  C   UNL A   1      52.347  25.044  34.151  1.00  0.00     0.031 A 
ATOM     64  C   UNL A   1      45.432  25.028  35.315  1.00  0.00     0.031 A 
ATOM     65  C   UNL A   1      51.538  25.347  33.002  1.00  0.00     0.049 A 
ATOM     66  C   UNL A   1      46.018  25.396  33.976  1.00  0.00     0.074 A 
ATOM     67  C   UNL A   1      51.946  25.614  31.708  1.00  0.00     0.029 A 
ATOM     68  N   UNL A   1      50.155  25.434  33.016  1.00  0.00    -0.354 N 
ATOM     69  N   UNL A   1      47.274  25.416  33.599  1.00  0.00    -0.248 NA
ATOM     70  C   UNL A   1      45.068  25.780  32.923  1.00  0.00     0.031 C 
ATOM     71  C   UNL A   1      50.811  25.924  30.952  1.00  0.00     0.029 A 
ATOM     72  C   UNL A   1      49.694  25.781  31.758  1.00  0.00     0.049 A 
ATOM     73  H   UNL A   1      49.586  25.273  33.803  1.00  0.00     0.167 HD
ATOM     74  C   UNL A   1      47.263  25.783  32.258  1.00  0.00     0.074 A 
ATOM     75  C   UNL A   1      45.875  25.961  31.885  1.00  0.00     0.031 C 
ATOM     76  C   UNL A   1      48.307  25.953  31.409  1.00  0.00     0.031 A 
BRANCH  63  77
ATOM     77  C   UNL A   1      53.842  25.046  34.005  1.00  0.00    -0.014 A 
ATOM     78  C   UNL A   1      54.543  23.893  33.620  1.00  0.00     0.009 A 
ATOM     79  C   UNL A   1      54.559  26.229  34.246  1.00  0.00     0.009 A 
ATOM     80  C   UNL A   1      55.935  23.915  33.513  1.00  0.00     0.001 A 
ATOM     81  C   UNL A   1      55.948  26.256  34.108  1.00  0.00     0.001 A 
ATOM     82  C   UNL A   1      56.635  25.097  33.751  1.00  0.00     0.000 A 
ENDBRANCH  63  77
BRANCH  64  83
ATOM     83  C   UNL A   1      43.961  25.055  35.530  1.00  0.00    -0.014 A 
ATOM     84  C   UNL A   1      43.187  23.899  35.344  1.00  0.00     0.009 A 
ATOM     85  C   UNL A   1      43.318  26.247  35.899  1.00  0.00     0.009 A 
ATOM     86  C   UNL A   1      41.798  23.944  35.495  1.00  0.00     0.001 A 
ATOM     87  C   UNL A   1      41.934  26.282  36.079  1.00  0.00     0.001 A 
ATOM     88  C   UNL A   1      41.174  25.134  35.867  1.00  0.00     0.000 A 
ENDBRANCH  64  83
BRANCH  76  89
ATOM     89  C   UNL A   1      47.986  26.308  29.982  1.00  0.00    -0.014 A 
ATOM     90  C   UNL A   1      48.204  27.601  29.481  1.00  0.00     0.009 A 
ATOM     91  C   UNL A   1      47.502  25.315  29.116  1.00  0.00     0.009 A 
ATOM     92  C   UNL A   1      47.908  27.899  28.149  1.00  0.00     0.001 A 
ATOM     93  C   UNL A   1      47.239  25.609  27.777  1.00  0.00     0.001 A 
ATOM     94  C   UNL A   1      47.432  26.903  27.298  1.00  0.00     0.000 A 
ENDBRANCH  76  89
ENDBRANCH  50  51
ENDBRANCH  43  45
ENDBRANCH  42  43
ENDBRANCH  41  42
ENDBRANCH  40  41
ENDBRANCH  39  40
ENDBRANCH  38  39
ENDBRANCH  37  38
ENDBRANCH  36  37
ENDBRANCH   1  36
TORSDOF 24
ENDMDL
