MODEL 1
REMARK VINA RESULT:      -8.9      0.000      0.000
REMARK SMILES COc1ccc(C(=O)OCCOCCOCCOCCOC(=O)c2ccc(-c3c4nc(c(-c5ccccc5)c5ccc([nH]5)c(-c5ccccc5)c5nc(c(-c6ccccc6)c6ccc3[nH]6)C=C5)C=C4)cc2)cc1CN1CC(=O)N(C)CC1=O
REMARK SMILES IDX 15 1 14 2 13 3 12 4 11 5 10 6 9 7 7 8 8 9 6 10 3 11 4 12
REMARK SMILES IDX 73 13 5 14 72 15 2 16 1 17 74 18 75 19 76 20 82 21 77 22
REMARK SMILES IDX 81 23 83 24 78 25 79 26 80 27 16 28 17 29 18 30 19 31 20 32
REMARK SMILES IDX 21 33 22 34 23 35 24 36 25 37 71 38 26 39 70 40 27 41 28 42
REMARK SMILES IDX 29 43 64 44 30 45 69 46 63 47 65 48 31 49 68 50 62 51 61 52
REMARK SMILES IDX 32 54 54 55 39 56 53 57 40 58 43 59 52 60 66 61 41 62 42 63
REMARK SMILES IDX 51 65 67 66 44 67 33 68 34 69 38 70 35 71 37 72 36 73 55 74
REMARK SMILES IDX 56 75 60 76 57 77 59 78 58 79 45 80 46 81 50 82 47 83 49 84
REMARK SMILES IDX 48 85
REMARK H PARENT 65 53 43 64
REMARK Flexibility Score: inf
ROOT
ATOM      1  O   UNL A   1      35.482  23.823  24.072  1.00  0.00    -0.377 OA
ENDROOT
BRANCH   1   2
ATOM      2  C   UNL A   1      35.301  24.305  25.403  1.00  0.00     0.188 C 
BRANCH   2   3
ATOM      3  C   UNL A   1      35.121  23.361  26.618  1.00  0.00     0.188 C 
BRANCH   3   4
ATOM      4  O   UNL A   1      33.781  23.002  26.901  1.00  0.00    -0.376 OA
BRANCH   4   5
ATOM      5  C   UNL A   1      33.424  21.636  26.947  1.00  0.00     0.202 C 
BRANCH   5   6
ATOM      6  C   UNL A   1      33.230  20.918  25.608  1.00  0.00     0.261 C 
BRANCH   6   7
ATOM      7  O   UNL A   1      31.884  20.863  25.126  1.00  0.00    -0.460 OA
BRANCH   7   8
ATOM      8  C   UNL A   1      31.088  21.919  25.403  1.00  0.00     0.338 C 
ATOM      9  O   UNL A   1      30.359  22.049  26.370  1.00  0.00    -0.246 OA
BRANCH   8  10
ATOM     10  C   UNL A   1      31.386  22.987  24.419  1.00  0.00     0.060 A 
ATOM     11  C   UNL A   1      31.931  24.961  22.535  1.00  0.00     0.123 A 
ATOM     12  C   UNL A   1      32.496  23.688  22.396  1.00  0.00     0.047 A 
ATOM     13  C   UNL A   1      31.027  25.248  23.566  1.00  0.00     0.014 A 
ATOM     14  C   UNL A   1      32.233  22.702  23.346  1.00  0.00     0.019 A 
ATOM     15  C   UNL A   1      30.774  24.244  24.517  1.00  0.00     0.025 A 
BRANCH  11  16
ATOM     16  O   UNL A   1      32.280  25.916  21.618  1.00  0.00    -0.496 OA
ATOM     17  C   UNL A   1      33.531  26.505  21.994  1.00  0.00     0.278 C 
ENDBRANCH  11  16
BRANCH  13  18
ATOM     18  C   UNL A   1      30.268  26.552  23.645  1.00  0.00     0.159 C 
BRANCH  18  19
ATOM     19  N   UNL A   1      30.948  27.503  24.513  1.00  0.00    -0.327 N 
ATOM     20  C   UNL A   1      30.758  27.377  25.951  1.00  0.00     0.220 C 
ATOM     21  C   UNL A   1      31.399  28.711  23.993  1.00  0.00     0.242 C 
ATOM     22  C   UNL A   1      31.712  28.166  26.851  1.00  0.00     0.242 C 
ATOM     23  C   UNL A   1      32.484  29.365  24.845  1.00  0.00     0.219 C 
ATOM     24  O   UNL A   1      31.153  29.089  22.849  1.00  0.00    -0.273 OA
ATOM     25  O   UNL A   1      31.805  27.919  28.053  1.00  0.00    -0.273 OA
ATOM     26  N   UNL A   1      32.231  29.320  26.278  1.00  0.00    -0.335 N 
ATOM     27  C   UNL A   1      32.917  30.274  27.126  1.00  0.00     0.147 C 
ENDBRANCH  18  19
ENDBRANCH  13  18
ENDBRANCH   8  10
ENDBRANCH   7   8
ENDBRANCH   6   7
ENDBRANCH   5   6
ENDBRANCH   4   5
ENDBRANCH   3   4
ENDBRANCH   2   3
ENDBRANCH   1   2
BRANCH   1  28
ATOM     28  C   UNL A   1      36.590  22.988  23.761  1.00  0.00     0.188 C 
BRANCH  28  29
ATOM     29  C   UNL A   1      36.514  21.490  24.127  1.00  0.00     0.188 C 
BRANCH  29  30
ATOM     30  O   UNL A   1      37.569  21.062  24.972  1.00  0.00    -0.376 OA
BRANCH  30  31
ATOM     31  C   UNL A   1      37.883  19.682  24.989  1.00  0.00     0.202 C 
BRANCH  31  32
ATOM     32  C   UNL A   1      39.221  19.248  25.608  1.00  0.00     0.261 C 
BRANCH  32  33
ATOM     33  O   UNL A   1      40.269  20.228  25.638  1.00  0.00    -0.460 OA
BRANCH  33  34
ATOM     34  C   UNL A   1      41.458  19.859  26.158  1.00  0.00     0.338 C 
ATOM     35  O   UNL A   1      41.964  18.748  26.137  1.00  0.00    -0.246 OA
BRANCH  34  36
ATOM     36  C   UNL A   1      42.141  21.090  26.604  1.00  0.00     0.060 A 
ATOM     37  C   UNL A   1      42.230  21.372  27.975  1.00  0.00     0.016 A 
ATOM     38  C   UNL A   1      42.711  21.952  25.666  1.00  0.00     0.016 A 
ATOM     39  C   UNL A   1      42.865  22.537  28.408  1.00  0.00     0.010 A 
ATOM     40  C   UNL A   1      43.326  23.128  26.098  1.00  0.00     0.010 A 
ATOM     41  C   UNL A   1      43.376  23.442  27.469  1.00  0.00    -0.014 A 
BRANCH  41  42
ATOM     42  C   UNL A   1      43.777  24.804  27.894  1.00  0.00     0.031 A 
ATOM     43  C   UNL A   1      42.693  25.801  28.199  1.00  0.00     0.074 A 
ATOM     44  C   UNL A   1      45.069  25.151  28.018  1.00  0.00     0.049 A 
ATOM     45  N   UNL A   1      42.791  27.059  28.542  1.00  0.00    -0.248 NA
ATOM     46  C   UNL A   1      41.309  25.309  28.093  1.00  0.00     0.031 C 
ATOM     47  C   UNL A   1      46.211  24.264  27.811  1.00  0.00     0.029 A 
ATOM     48  N   UNL A   1      45.632  26.358  28.352  1.00  0.00    -0.354 N 
ATOM     49  C   UNL A   1      41.484  27.512  28.679  1.00  0.00     0.074 A 
ATOM     50  C   UNL A   1      40.614  26.405  28.349  1.00  0.00     0.031 C 
ATOM     51  C   UNL A   1      47.344  24.957  28.027  1.00  0.00     0.029 A 
ATOM     52  C   UNL A   1      47.005  26.343  28.347  1.00  0.00     0.049 A 
ATOM     53  H   UNL A   1      45.102  27.157  28.574  1.00  0.00     0.167 HD
ATOM     54  C   UNL A   1      41.046  28.739  29.050  1.00  0.00     0.031 A 
ATOM     55  C   UNL A   1      47.884  27.341  28.559  1.00  0.00     0.031 A 
ATOM     56  C   UNL A   1      41.912  29.846  29.353  1.00  0.00     0.049 A 
ATOM     57  C   UNL A   1      47.372  28.726  28.863  1.00  0.00     0.074 A 
ATOM     58  C   UNL A   1      41.571  31.125  29.753  1.00  0.00     0.029 A 
ATOM     59  N   UNL A   1      43.297  29.808  29.272  1.00  0.00    -0.354 N 
ATOM     60  N   UNL A   1      46.137  29.139  29.020  1.00  0.00    -0.248 NA
ATOM     61  C   UNL A   1      48.383  29.782  29.025  1.00  0.00     0.031 C 
ATOM     62  C   UNL A   1      42.743  31.882  29.843  1.00  0.00     0.029 A 
ATOM     63  C   UNL A   1      43.822  31.052  29.577  1.00  0.00     0.049 A 
ATOM     64  H   UNL A   1      43.827  29.014  29.035  1.00  0.00     0.167 HD
ATOM     65  C   UNL A   1      46.224  30.490  29.335  1.00  0.00     0.074 A 
ATOM     66  C   UNL A   1      47.633  30.824  29.357  1.00  0.00     0.031 C 
ATOM     67  C   UNL A   1      45.227  31.373  29.592  1.00  0.00     0.031 A 
BRANCH  54  68
ATOM     68  C   UNL A   1      39.557  28.953  29.085  1.00  0.00    -0.014 A 
ATOM     69  C   UNL A   1      38.847  29.392  27.956  1.00  0.00     0.009 A 
ATOM     70  C   UNL A   1      38.853  28.716  30.276  1.00  0.00     0.009 A 
ATOM     71  C   UNL A   1      37.474  29.640  28.034  1.00  0.00     0.001 A 
ATOM     72  C   UNL A   1      37.475  28.928  30.342  1.00  0.00     0.001 A 
ATOM     73  C   UNL A   1      36.789  29.405  29.226  1.00  0.00     0.000 A 
ENDBRANCH  54  68
BRANCH  55  74
ATOM     74  C   UNL A   1      49.347  27.077  28.492  1.00  0.00    -0.014 A 
ATOM     75  C   UNL A   1      50.056  26.715  29.647  1.00  0.00     0.009 A 
ATOM     76  C   UNL A   1      50.045  27.203  27.281  1.00  0.00     0.009 A 
ATOM     77  C   UNL A   1      51.436  26.504  29.597  1.00  0.00     0.001 A 
ATOM     78  C   UNL A   1      51.420  26.962  27.227  1.00  0.00     0.001 A 
ATOM     79  C   UNL A   1      52.116  26.622  28.386  1.00  0.00     0.000 A 
ENDBRANCH  55  74
BRANCH  67  80
ATOM     80  C   UNL A   1      45.624  32.777  29.965  1.00  0.00    -0.014 A 
ATOM     81  C   UNL A   1      45.747  33.790  29.001  1.00  0.00     0.009 A 
ATOM     82  C   UNL A   1      45.833  33.099  31.316  1.00  0.00     0.009 A 
ATOM     83  C   UNL A   1      46.110  35.085  29.378  1.00  0.00     0.001 A 
ATOM     84  C   UNL A   1      46.161  34.402  31.694  1.00  0.00     0.001 A 
ATOM     85  C   UNL A   1      46.310  35.391  30.724  1.00  0.00     0.000 A 
ENDBRANCH  67  80
ENDBRANCH  41  42
ENDBRANCH  34  36
ENDBRANCH  33  34
ENDBRANCH  32  33
ENDBRANCH  31  32
ENDBRANCH  30  31
ENDBRANCH  29  30
ENDBRANCH  28  29
ENDBRANCH   1  28
TORSDOF 23
ENDMDL
MODEL 2
REMARK VINA RESULT:      -8.8      2.209      6.538
REMARK SMILES COc1ccc(C(=O)OCCOCCOCCOCCOC(=O)c2ccc(-c3c4nc(c(-c5ccccc5)c5ccc([nH]5)c(-c5ccccc5)c5nc(c(-c6ccccc6)c6ccc3[nH]6)C=C5)C=C4)cc2)cc1CN1CC(=O)N(C)CC1=O
REMARK SMILES IDX 15 1 14 2 13 3 12 4 11 5 10 6 9 7 7 8 8 9 6 10 3 11 4 12
REMARK SMILES IDX 73 13 5 14 72 15 2 16 1 17 74 18 75 19 76 20 82 21 77 22
REMARK SMILES IDX 81 23 83 24 78 25 79 26 80 27 16 28 17 29 18 30 19 31 20 32
REMARK SMILES IDX 21 33 22 34 23 35 24 36 25 37 71 38 26 39 70 40 27 41 28 42
REMARK SMILES IDX 29 43 64 44 30 45 69 46 63 47 65 48 31 49 68 50 62 51 61 52
REMARK SMILES IDX 32 54 54 55 39 56 53 57 40 58 43 59 52 60 66 61 41 62 42 63
REMARK SMILES IDX 51 65 67 66 44 67 33 68 34 69 38 70 35 71 37 72 36 73 55 74
REMARK SMILES IDX 56 75 60 76 57 77 59 78 58 79 45 80 46 81 50 82 47 83 49 84
REMARK SMILES IDX 48 85
REMARK H PARENT 65 53 43 64
REMARK Flexibility Score: inf
ROOT
ATOM      1  O   UNL A   1      35.720  23.761  24.795  1.00  0.00    -0.377 OA
ENDROOT
BRANCH   1   2
ATOM      2  C   UNL A   1      35.352  23.972  26.157  1.00  0.00     0.188 C 
BRANCH   2   3
ATOM      3  C   UNL A   1      34.636  22.892  27.008  1.00  0.00     0.188 C 
BRANCH   3   4
ATOM      4  O   UNL A   1      34.256  21.728  26.297  1.00  0.00    -0.376 OA
BRANCH   4   5
ATOM      5  C   UNL A   1      32.884  21.441  26.121  1.00  0.00     0.202 C 
BRANCH   5   6
ATOM      6  C   UNL A   1      32.130  22.251  25.062  1.00  0.00     0.261 C 
BRANCH   6   7
ATOM      7  O   UNL A   1      30.772  22.571  25.382  1.00  0.00    -0.460 OA
BRANCH   7   8
ATOM      8  C   UNL A   1      30.568  23.485  26.356  1.00  0.00     0.338 C 
ATOM      9  O   UNL A   1      30.154  23.271  27.481  1.00  0.00    -0.246 OA
BRANCH   8  10
ATOM     10  C   UNL A   1      31.108  24.783  25.886  1.00  0.00     0.060 A 
ATOM     11  C   UNL A   1      32.170  27.201  25.010  1.00  0.00     0.123 A 
ATOM     12  C   UNL A   1      32.595  26.652  26.225  1.00  0.00     0.047 A 
ATOM     13  C   UNL A   1      31.271  26.521  24.178  1.00  0.00     0.014 A 
ATOM     14  C   UNL A   1      32.055  25.445  26.670  1.00  0.00     0.019 A 
ATOM     15  C   UNL A   1      30.734  25.308  24.641  1.00  0.00     0.025 A 
BRANCH  11  16
ATOM     16  O   UNL A   1      32.674  28.424  24.653  1.00  0.00    -0.496 OA
ATOM     17  C   UNL A   1      32.585  29.321  25.767  1.00  0.00     0.278 C 
ENDBRANCH  11  16
BRANCH  13  18
ATOM     18  C   UNL A   1      30.926  27.001  22.787  1.00  0.00     0.159 C 
BRANCH  18  19
ATOM     19  N   UNL A   1      30.045  28.159  22.835  1.00  0.00    -0.327 N 
ATOM     20  C   UNL A   1      28.607  27.928  22.841  1.00  0.00     0.220 C 
ATOM     21  C   UNL A   1      30.529  29.409  22.465  1.00  0.00     0.242 C 
ATOM     22  C   UNL A   1      27.713  29.115  23.208  1.00  0.00     0.242 C 
ATOM     23  C   UNL A   1      29.694  30.564  23.014  1.00  0.00     0.219 C 
ATOM     24  O   UNL A   1      31.644  29.586  21.977  1.00  0.00    -0.273 OA
ATOM     25  O   UNL A   1      26.528  28.954  23.499  1.00  0.00    -0.273 OA
ATOM     26  N   UNL A   1      28.255  30.362  22.922  1.00  0.00    -0.335 N 
ATOM     27  C   UNL A   1      27.394  31.526  22.972  1.00  0.00     0.147 C 
ENDBRANCH  18  19
ENDBRANCH  13  18
ENDBRANCH   8  10
ENDBRANCH   7   8
ENDBRANCH   6   7
ENDBRANCH   5   6
ENDBRANCH   4   5
ENDBRANCH   3   4
ENDBRANCH   2   3
ENDBRANCH   1   2
BRANCH   1  28
ATOM     28  C   UNL A   1      36.957  23.134  24.480  1.00  0.00     0.188 C 
BRANCH  28  29
ATOM     29  C   UNL A   1      36.944  21.663  24.014  1.00  0.00     0.188 C 
BRANCH  29  30
ATOM     30  O   UNL A   1      37.180  20.737  25.062  1.00  0.00    -0.376 OA
BRANCH  30  31
ATOM     31  C   UNL A   1      38.361  19.961  25.002  1.00  0.00     0.202 C 
BRANCH  31  32
ATOM     32  C   UNL A   1      39.533  20.346  25.919  1.00  0.00     0.261 C 
BRANCH  32  33
ATOM     33  O   UNL A   1      39.750  21.747  26.138  1.00  0.00    -0.460 OA
BRANCH  33  34
ATOM     34  C   UNL A   1      41.023  22.195  26.121  1.00  0.00     0.338 C 
ATOM     35  O   UNL A   1      41.996  21.647  25.629  1.00  0.00    -0.246 OA
BRANCH  34  36
ATOM     36  C   UNL A   1      41.008  23.575  26.649  1.00  0.00     0.060 A 
ATOM     37  C   UNL A   1      40.846  24.651  25.764  1.00  0.00     0.016 A 
ATOM     38  C   UNL A   1      41.135  23.799  28.021  1.00  0.00     0.016 A 
ATOM     39  C   UNL A   1      40.840  25.959  26.250  1.00  0.00     0.010 A 
ATOM     40  C   UNL A   1      41.151  25.109  28.504  1.00  0.00     0.010 A 
ATOM     41  C   UNL A   1      41.037  26.195  27.617  1.00  0.00    -0.014 A 
BRANCH  41  42
ATOM     42  C   UNL A   1      41.330  27.566  28.097  1.00  0.00     0.031 A 
ATOM     43  C   UNL A   1      42.766  28.013  28.137  1.00  0.00     0.074 A 
ATOM     44  C   UNL A   1      40.351  28.402  28.482  1.00  0.00     0.049 A 
ATOM     45  N   UNL A   1      43.276  29.142  28.558  1.00  0.00    -0.248 NA
ATOM     46  C   UNL A   1      43.760  27.049  27.639  1.00  0.00     0.031 C 
ATOM     47  C   UNL A   1      38.920  28.113  28.435  1.00  0.00     0.029 A 
ATOM     48  N   UNL A   1      40.425  29.675  28.990  1.00  0.00    -0.354 N 
ATOM     49  C   UNL A   1      44.649  29.017  28.389  1.00  0.00     0.074 A 
ATOM     50  C   UNL A   1      44.894  27.694  27.861  1.00  0.00     0.031 C 
ATOM     51  C   UNL A   1      38.246  29.183  28.893  1.00  0.00     0.029 A 
ATOM     52  C   UNL A   1      39.200  30.213  29.302  1.00  0.00     0.049 A 
ATOM     53  H   UNL A   1      41.273  30.157  29.117  1.00  0.00     0.167 HD
ATOM     54  C   UNL A   1      45.621  29.924  28.648  1.00  0.00     0.031 A 
ATOM     55  C   UNL A   1      38.891  31.394  29.870  1.00  0.00     0.031 A 
ATOM     56  C   UNL A   1      45.379  31.231  29.197  1.00  0.00     0.049 A 
ATOM     57  C   UNL A   1      39.997  32.345  30.250  1.00  0.00     0.074 A 
ATOM     58  C   UNL A   1      46.291  32.231  29.483  1.00  0.00     0.029 A 
ATOM     59  N   UNL A   1      44.129  31.713  29.561  1.00  0.00    -0.354 N 
ATOM     60  N   UNL A   1      41.290  32.232  30.060  1.00  0.00    -0.248 NA
ATOM     61  C   UNL A   1      39.595  33.591  30.920  1.00  0.00     0.031 C 
ATOM     62  C   UNL A   1      45.604  33.289  30.087  1.00  0.00     0.029 A 
ATOM     63  C   UNL A   1      44.252  32.980  30.105  1.00  0.00     0.049 A 
ATOM     64  H   UNL A   1      43.282  31.225  29.449  1.00  0.00     0.167 HD
ATOM     65  C   UNL A   1      41.851  33.405  30.552  1.00  0.00     0.074 A 
ATOM     66  C   UNL A   1      40.757  34.220  31.038  1.00  0.00     0.031 C 
ATOM     67  C   UNL A   1      43.154  33.779  30.589  1.00  0.00     0.031 A 
BRANCH  54  68
ATOM     68  C   UNL A   1      47.042  29.498  28.391  1.00  0.00    -0.014 A 
ATOM     69  C   UNL A   1      47.821  28.885  29.387  1.00  0.00     0.009 A 
ATOM     70  C   UNL A   1      47.613  29.723  27.129  1.00  0.00     0.009 A 
ATOM     71  C   UNL A   1      49.155  28.555  29.138  1.00  0.00     0.001 A 
ATOM     72  C   UNL A   1      48.935  29.359  26.872  1.00  0.00     0.001 A 
ATOM     73  C   UNL A   1      49.710  28.789  27.881  1.00  0.00     0.000 A 
ENDBRANCH  54  68
BRANCH  55  74
ATOM     74  C   UNL A   1      37.469  31.756  30.118  1.00  0.00    -0.014 A 
ATOM     75  C   UNL A   1      36.719  32.408  29.129  1.00  0.00     0.009 A 
ATOM     76  C   UNL A   1      36.860  31.468  31.350  1.00  0.00     0.009 A 
ATOM     77  C   UNL A   1      35.396  32.784  29.373  1.00  0.00     0.001 A 
ATOM     78  C   UNL A   1      35.527  31.818  31.581  1.00  0.00     0.001 A 
ATOM     79  C   UNL A   1      34.799  32.484  30.596  1.00  0.00     0.000 A 
ENDBRANCH  55  74
BRANCH  67  80
ATOM     80  C   UNL A   1      43.468  35.148  31.133  1.00  0.00    -0.014 A 
ATOM     81  C   UNL A   1      43.596  36.264  30.292  1.00  0.00     0.009 A 
ATOM     82  C   UNL A   1      43.592  35.327  32.521  1.00  0.00     0.009 A 
ATOM     83  C   UNL A   1      43.881  37.523  30.827  1.00  0.00     0.001 A 
ATOM     84  C   UNL A   1      43.842  36.593  33.054  1.00  0.00     0.001 A 
ATOM     85  C   UNL A   1      43.997  37.687  32.206  1.00  0.00     0.000 A 
ENDBRANCH  67  80
ENDBRANCH  41  42
ENDBRANCH  34  36
ENDBRANCH  33  34
ENDBRANCH  32  33
ENDBRANCH  31  32
ENDBRANCH  30  31
ENDBRANCH  29  30
ENDBRANCH  28  29
ENDBRANCH   1  28
TORSDOF 23
ENDMDL
MODEL 3
REMARK VINA RESULT:      -8.7      5.220     12.538
REMARK SMILES COc1ccc(C(=O)OCCOCCOCCOCCOC(=O)c2ccc(-c3c4nc(c(-c5ccccc5)c5ccc([nH]5)c(-c5ccccc5)c5nc(c(-c6ccccc6)c6ccc3[nH]6)C=C5)C=C4)cc2)cc1CN1CC(=O)N(C)CC1=O
REMARK SMILES IDX 15 1 14 2 13 3 12 4 11 5 10 6 9 7 7 8 8 9 6 10 3 11 4 12
REMARK SMILES IDX 73 13 5 14 72 15 2 16 1 17 74 18 75 19 76 20 82 21 77 22
REMARK SMILES IDX 81 23 83 24 78 25 79 26 80 27 16 28 17 29 18 30 19 31 20 32
REMARK SMILES IDX 21 33 22 34 23 35 24 36 25 37 71 38 26 39 70 40 27 41 28 42
REMARK SMILES IDX 29 43 64 44 30 45 69 46 63 47 65 48 31 49 68 50 62 51 61 52
REMARK SMILES IDX 32 54 54 55 39 56 53 57 40 58 43 59 52 60 66 61 41 62 42 63
REMARK SMILES IDX 51 65 67 66 44 67 33 68 34 69 38 70 35 71 37 72 36 73 55 74
REMARK SMILES IDX 56 75 60 76 57 77 59 78 58 79 45 80 46 81 50 82 47 83 49 84
REMARK SMILES IDX 48 85
REMARK H PARENT 65 53 43 64
REMARK Flexibility Score: inf
ROOT
ATOM      1  O   UNL A   1      46.254  23.393  23.932  1.00  0.00    -0.377 OA
ENDROOT
BRANCH   1   2
ATOM      2  C   UNL A   1      46.233  24.291  25.040  1.00  0.00     0.188 C 
BRANCH   2   3
ATOM      3  C   UNL A   1      45.313  25.537  25.090  1.00  0.00     0.188 C 
BRANCH   3   4
ATOM      4  O   UNL A   1      45.993  26.777  25.165  1.00  0.00    -0.376 OA
BRANCH   4   5
ATOM      5  C   UNL A   1      47.299  26.821  25.701  1.00  0.00     0.202 C 
BRANCH   5   6
ATOM      6  C   UNL A   1      48.456  26.985  24.711  1.00  0.00     0.261 C 
BRANCH   6   7
ATOM      7  O   UNL A   1      48.149  26.684  23.346  1.00  0.00    -0.460 OA
BRANCH   7   8
ATOM      8  C   UNL A   1      47.967  27.730  22.511  1.00  0.00     0.338 C 
ATOM      9  O   UNL A   1      47.127  28.606  22.611  1.00  0.00    -0.246 OA
BRANCH   8  10
ATOM     10  C   UNL A   1      49.087  27.740  21.540  1.00  0.00     0.060 A 
ATOM     11  C   UNL A   1      51.156  27.768  19.680  1.00  0.00     0.123 A 
ATOM     12  C   UNL A   1      50.048  26.937  19.479  1.00  0.00     0.047 A 
ATOM     13  C   UNL A   1      51.216  28.652  20.765  1.00  0.00     0.014 A 
ATOM     14  C   UNL A   1      49.016  26.914  20.416  1.00  0.00     0.019 A 
ATOM     15  C   UNL A   1      50.169  28.616  21.702  1.00  0.00     0.025 A 
BRANCH  11  16
ATOM     16  O   UNL A   1      52.177  27.699  18.770  1.00  0.00    -0.496 OA
ATOM     17  C   UNL A   1      51.826  26.783  17.725  1.00  0.00     0.278 C 
ENDBRANCH  11  16
BRANCH  13  18
ATOM     18  C   UNL A   1      52.311  29.683  20.916  1.00  0.00     0.159 C 
BRANCH  18  19
ATOM     19  N   UNL A   1      53.153  29.387  22.067  1.00  0.00    -0.327 N 
ATOM     20  C   UNL A   1      53.783  28.076  22.137  1.00  0.00     0.220 C 
ATOM     21  C   UNL A   1      53.021  30.138  23.230  1.00  0.00     0.242 C 
ATOM     22  C   UNL A   1      54.900  27.896  23.169  1.00  0.00     0.242 C 
ATOM     23  C   UNL A   1      54.246  30.062  24.138  1.00  0.00     0.219 C 
ATOM     24  O   UNL A   1      52.139  30.980  23.395  1.00  0.00    -0.273 OA
ATOM     25  O   UNL A   1      55.661  26.930  23.121  1.00  0.00    -0.273 OA
ATOM     26  N   UNL A   1      54.806  28.726  24.278  1.00  0.00    -0.335 N 
ATOM     27  C   UNL A   1      55.642  28.450  25.429  1.00  0.00     0.147 C 
ENDBRANCH  18  19
ENDBRANCH  13  18
ENDBRANCH   8  10
ENDBRANCH   7   8
ENDBRANCH   6   7
ENDBRANCH   5   6
ENDBRANCH   4   5
ENDBRANCH   3   4
ENDBRANCH   2   3
ENDBRANCH   1   2
BRANCH   1  28
ATOM     28  C   UNL A   1      45.350  22.296  23.886  1.00  0.00     0.188 C 
BRANCH  28  29
ATOM     29  C   UNL A   1      45.694  21.020  24.685  1.00  0.00     0.188 C 
BRANCH  29  30
ATOM     30  O   UNL A   1      44.963  19.879  24.267  1.00  0.00    -0.376 OA
BRANCH  30  31
ATOM     31  C   UNL A   1      44.754  18.846  25.211  1.00  0.00     0.202 C 
BRANCH  31  32
ATOM     32  C   UNL A   1      43.350  18.685  25.814  1.00  0.00     0.261 C 
BRANCH  32  33
ATOM     33  O   UNL A   1      42.283  19.397  25.170  1.00  0.00    -0.460 OA
BRANCH  33  34
ATOM     34  C   UNL A   1      41.290  19.878  25.947  1.00  0.00     0.338 C 
ATOM     35  O   UNL A   1      40.249  19.319  26.251  1.00  0.00    -0.246 OA
BRANCH  34  36
ATOM     36  C   UNL A   1      41.768  21.148  26.531  1.00  0.00     0.060 A 
ATOM     37  C   UNL A   1      41.742  21.322  27.922  1.00  0.00     0.016 A 
ATOM     38  C   UNL A   1      42.258  22.158  25.700  1.00  0.00     0.016 A 
ATOM     39  C   UNL A   1      42.182  22.521  28.484  1.00  0.00     0.010 A 
ATOM     40  C   UNL A   1      42.677  23.365  26.261  1.00  0.00     0.010 A 
ATOM     41  C   UNL A   1      42.609  23.565  27.652  1.00  0.00    -0.014 A 
BRANCH  41  42
ATOM     42  C   UNL A   1      42.791  24.927  28.206  1.00  0.00     0.031 A 
ATOM     43  C   UNL A   1      44.168  25.335  28.654  1.00  0.00     0.074 A 
ATOM     44  C   UNL A   1      41.765  25.789  28.305  1.00  0.00     0.049 A 
ATOM     45  N   UNL A   1      44.567  26.448  29.210  1.00  0.00    -0.248 NA
ATOM     46  C   UNL A   1      45.237  24.343  28.449  1.00  0.00     0.031 C 
ATOM     47  C   UNL A   1      40.399  25.539  27.854  1.00  0.00     0.029 A 
ATOM     48  N   UNL A   1      41.726  27.060  28.823  1.00  0.00    -0.354 N 
ATOM     49  C   UNL A   1      45.929  26.287  29.436  1.00  0.00     0.074 A 
ATOM     50  C   UNL A   1      46.278  24.957  28.988  1.00  0.00     0.031 C 
ATOM     51  C   UNL A   1      39.650  26.627  28.112  1.00  0.00     0.029 A 
ATOM     52  C   UNL A   1      40.477  27.631  28.782  1.00  0.00     0.049 A 
ATOM     53  H   UNL A   1      42.515  27.518  29.190  1.00  0.00     0.167 HD
ATOM     54  C   UNL A   1      46.812  27.167  29.966  1.00  0.00     0.031 A 
ATOM     55  C   UNL A   1      40.051  28.820  29.248  1.00  0.00     0.031 A 
ATOM     56  C   UNL A   1      46.458  28.480  30.434  1.00  0.00     0.049 A 
ATOM     57  C   UNL A   1      41.029  29.740  29.933  1.00  0.00     0.074 A 
ATOM     58  C   UNL A   1      47.278  29.454  30.974  1.00  0.00     0.029 A 
ATOM     59  N   UNL A   1      45.169  28.995  30.434  1.00  0.00    -0.354 N 
ATOM     60  N   UNL A   1      42.320  29.592  30.115  1.00  0.00    -0.248 NA
ATOM     61  C   UNL A   1      40.487  30.996  30.472  1.00  0.00     0.031 C 
ATOM     62  C   UNL A   1      46.476  30.530  31.367  1.00  0.00     0.029 A 
ATOM     63  C   UNL A   1      45.167  30.259  31.001  1.00  0.00     0.049 A 
ATOM     64  H   UNL A   1      44.376  28.531  30.083  1.00  0.00     0.167 HD
ATOM     65  C   UNL A   1      42.749  30.749  30.754  1.00  0.00     0.074 A 
ATOM     66  C   UNL A   1      41.584  31.593  30.919  1.00  0.00     0.031 C 
ATOM     67  C   UNL A   1      43.998  31.087  31.162  1.00  0.00     0.031 A 
BRANCH  54  68
ATOM     68  C   UNL A   1      48.235  26.702  30.117  1.00  0.00    -0.014 A 
ATOM     69  C   UNL A   1      49.199  26.940  29.123  1.00  0.00     0.009 A 
ATOM     70  C   UNL A   1      48.615  26.005  31.274  1.00  0.00     0.009 A 
ATOM     71  C   UNL A   1      50.498  26.445  29.264  1.00  0.00     0.001 A 
ATOM     72  C   UNL A   1      49.923  25.544  31.429  1.00  0.00     0.001 A 
ATOM     73  C   UNL A   1      50.859  25.750  30.417  1.00  0.00     0.000 A 
ENDBRANCH  54  68
BRANCH  55  74
ATOM     74  C   UNL A   1      38.627  29.220  29.088  1.00  0.00    -0.014 A 
ATOM     75  C   UNL A   1      38.176  29.775  27.880  1.00  0.00     0.009 A 
ATOM     76  C   UNL A   1      37.716  29.068  30.145  1.00  0.00     0.009 A 
ATOM     77  C   UNL A   1      36.850  30.187  27.740  1.00  0.00     0.001 A 
ATOM     78  C   UNL A   1      36.381  29.454  29.991  1.00  0.00     0.001 A 
ATOM     79  C   UNL A   1      35.952  30.022  28.793  1.00  0.00     0.000 A 
ENDBRANCH  55  74
BRANCH  67  80
ATOM     80  C   UNL A   1      44.181  32.447  31.783  1.00  0.00    -0.014 A 
ATOM     81  C   UNL A   1      44.385  33.594  31.000  1.00  0.00     0.009 A 
ATOM     82  C   UNL A   1      44.102  32.584  33.178  1.00  0.00     0.009 A 
ATOM     83  C   UNL A   1      44.545  34.843  31.605  1.00  0.00     0.001 A 
ATOM     84  C   UNL A   1      44.227  33.839  33.777  1.00  0.00     0.001 A 
ATOM     85  C   UNL A   1      44.460  34.965  32.991  1.00  0.00     0.000 A 
ENDBRANCH  67  80
ENDBRANCH  41  42
ENDBRANCH  34  36
ENDBRANCH  33  34
ENDBRANCH  32  33
ENDBRANCH  31  32
ENDBRANCH  30  31
ENDBRANCH  29  30
ENDBRANCH  28  29
ENDBRANCH   1  28
TORSDOF 23
ENDMDL
