MODEL 1
REMARK VINA RESULT:      -8.1      0.000      0.000
REMARK SMILES CC(C)n1c2c(c3ccccc31)[C@@H](c1ccccc1)N(CC(=O)OCCOCCOCCOCCOC(=O)c1ccc(-c3c4nc(c(-c5ccccc5)c5ccc([nH]5)c(-c5ccccc5)c5nc(c(-c6ccccc6)c6ccc3[nH]6)C=C5)C=C4)cc1)C2=O
REMARK SMILES IDX 30 1 29 2 28 3 27 4 26 5 25 6 24 7 22 8 23 9 21 10 20 11
REMARK SMILES IDX 4 12 5 13 12 14 6 15 87 16 7 17 11 18 13 19 88 20 8 21 10 22
REMARK SMILES IDX 9 23 2 24 1 25 3 26 14 27 15 28 19 29 16 30 18 31 17 32
REMARK SMILES IDX 31 33 32 34 33 35 34 36 35 37 36 38 37 39 38 40 39 41 40 42
REMARK SMILES IDX 86 43 41 44 85 45 42 46 43 47 44 48 79 49 45 50 84 51 78 52
REMARK SMILES IDX 80 53 46 54 83 55 77 56 76 57 47 59 69 60 54 61 68 62 55 63
REMARK SMILES IDX 58 64 67 65 81 66 56 67 57 68 66 70 82 71 59 72 48 73 49 74
REMARK SMILES IDX 53 75 50 76 52 77 51 78 70 79 71 80 75 81 72 82 74 83 73 84
REMARK SMILES IDX 60 85 61 86 65 87 62 88 64 89 63 90
REMARK H PARENT 80 58 58 69
REMARK Flexibility Score: inf
ROOT
ATOM      1  O   UNL A   1      33.889  26.808  26.065  1.00  0.00    -0.377 OA
ENDROOT
BRANCH   1   2
ATOM      2  C   UNL A   1      33.998  25.839  25.059  1.00  0.00     0.188 C 
BRANCH   2   3
ATOM      3  C   UNL A   1      34.350  24.448  25.561  1.00  0.00     0.188 C 
BRANCH   3   4
ATOM      4  O   UNL A   1      35.508  23.809  25.063  1.00  0.00    -0.376 OA
BRANCH   4   5
ATOM      5  C   UNL A   1      36.261  22.927  25.890  1.00  0.00     0.202 C 
BRANCH   5   6
ATOM      6  C   UNL A   1      37.778  23.078  26.149  1.00  0.00     0.261 C 
BRANCH   6   7
ATOM      7  O   UNL A   1      38.579  21.869  26.077  1.00  0.00    -0.462 OA
BRANCH   7   8
ATOM      8  C   UNL A   1      39.834  21.936  26.578  1.00  0.00     0.325 C 
ATOM      9  O   UNL A   1      40.141  21.478  27.679  1.00  0.00    -0.250 OA
BRANCH   8  10
ATOM     10  C   UNL A   1      40.918  22.591  25.686  1.00  0.00     0.243 C 
BRANCH  10  11
ATOM     11  N   UNL A   1      42.073  23.397  26.094  1.00  0.00    -0.315 N 
ATOM     12  N   UNL A   1      45.444  24.631  25.945  1.00  0.00    -0.334 N 
ATOM     13  C   UNL A   1      44.156  24.218  26.035  1.00  0.00     0.114 A 
ATOM     14  C   UNL A   1      45.810  25.133  27.195  1.00  0.00     0.049 A 
ATOM     15  C   UNL A   1      43.596  24.723  27.176  1.00  0.00     0.018 A 
ATOM     16  C   UNL A   1      43.245  23.379  25.321  1.00  0.00     0.272 C 
ATOM     17  C   UNL A   1      44.629  25.312  27.938  1.00  0.00     0.006 A 
ATOM     18  C   UNL A   1      47.072  25.431  27.736  1.00  0.00     0.027 A 
ATOM     19  C   UNL A   1      42.172  24.283  27.307  1.00  0.00     0.150 C 
ATOM     20  O   UNL A   1      43.438  22.752  24.303  1.00  0.00    -0.267 OA
ATOM     21  C   UNL A   1      44.718  25.923  29.202  1.00  0.00     0.011 A 
ATOM     22  C   UNL A   1      47.134  25.916  29.046  1.00  0.00     0.002 A 
ATOM     23  C   UNL A   1      45.973  26.185  29.761  1.00  0.00     0.001 A 
BRANCH  12  24
ATOM     24  C   UNL A   1      46.330  24.572  24.787  1.00  0.00     0.082 C 
ATOM     25  C   UNL A   1      47.526  25.500  24.955  1.00  0.00     0.031 C 
ATOM     26  C   UNL A   1      46.747  23.150  24.403  1.00  0.00     0.031 C 
ENDBRANCH  12  24
BRANCH  19  27
ATOM     27  C   UNL A   1      41.226  25.482  27.403  1.00  0.00    -0.021 A 
ATOM     28  C   UNL A   1      40.265  25.519  28.437  1.00  0.00     0.006 A 
ATOM     29  C   UNL A   1      41.329  26.652  26.625  1.00  0.00     0.006 A 
ATOM     30  C   UNL A   1      39.464  26.639  28.687  1.00  0.00     0.000 A 
ATOM     31  C   UNL A   1      40.544  27.787  26.884  1.00  0.00     0.000 A 
ATOM     32  C   UNL A   1      39.612  27.781  27.915  1.00  0.00     0.000 A 
ENDBRANCH  19  27
ENDBRANCH  10  11
ENDBRANCH   8  10
ENDBRANCH   7   8
ENDBRANCH   6   7
ENDBRANCH   5   6
ENDBRANCH   4   5
ENDBRANCH   3   4
ENDBRANCH   2   3
ENDBRANCH   1   2
BRANCH   1  33
ATOM     33  C   UNL A   1      32.776  27.673  26.122  1.00  0.00     0.188 C 
BRANCH  33  34
ATOM     34  C   UNL A   1      32.713  28.716  27.241  1.00  0.00     0.188 C 
BRANCH  34  35
ATOM     35  O   UNL A   1      32.203  29.959  26.796  1.00  0.00    -0.376 OA
BRANCH  35  36
ATOM     36  C   UNL A   1      32.806  31.168  27.228  1.00  0.00     0.202 C 
BRANCH  36  37
ATOM     37  C   UNL A   1      34.293  31.253  27.617  1.00  0.00     0.261 C 
BRANCH  37  38
ATOM     38  O   UNL A   1      34.557  31.503  29.001  1.00  0.00    -0.460 OA
BRANCH  38  39
ATOM     39  C   UNL A   1      34.708  32.743  29.501  1.00  0.00     0.338 C 
ATOM     40  O   UNL A   1      33.837  33.534  29.798  1.00  0.00    -0.246 OA
BRANCH  39  41
ATOM     41  C   UNL A   1      36.116  32.752  29.981  1.00  0.00     0.060 A 
ATOM     42  C   UNL A   1      37.202  32.962  29.119  1.00  0.00     0.016 A 
ATOM     43  C   UNL A   1      36.317  32.191  31.249  1.00  0.00     0.016 A 
ATOM     44  C   UNL A   1      38.470  32.512  29.503  1.00  0.00     0.010 A 
ATOM     45  C   UNL A   1      37.569  31.695  31.601  1.00  0.00     0.010 A 
ATOM     46  C   UNL A   1      38.643  31.816  30.717  1.00  0.00    -0.014 A 
BRANCH  46  47
ATOM     47  C   UNL A   1      40.005  31.451  31.150  1.00  0.00     0.031 A 
ATOM     48  C   UNL A   1      40.810  32.648  31.519  1.00  0.00     0.074 A 
ATOM     49  C   UNL A   1      40.477  30.208  31.408  1.00  0.00     0.049 A 
ATOM     50  N   UNL A   1      41.950  33.027  31.047  1.00  0.00    -0.248 NA
ATOM     51  C   UNL A   1      40.193  33.601  32.461  1.00  0.00     0.031 C 
ATOM     52  C   UNL A   1      39.725  28.952  31.400  1.00  0.00     0.029 A 
ATOM     53  N   UNL A   1      41.723  29.807  31.830  1.00  0.00    -0.354 N 
ATOM     54  C   UNL A   1      42.275  34.186  31.747  1.00  0.00     0.074 A 
ATOM     55  C   UNL A   1      41.098  34.575  32.480  1.00  0.00     0.031 C 
ATOM     56  C   UNL A   1      40.464  27.972  31.970  1.00  0.00     0.029 A 
ATOM     57  C   UNL A   1      41.775  28.497  32.309  1.00  0.00     0.049 A 
ATOM     58  H   UNL A   1      42.512  30.395  31.797  1.00  0.00     0.167 HD
ATOM     59  C   UNL A   1      43.555  34.622  31.869  1.00  0.00     0.031 A 
ATOM     60  C   UNL A   1      42.782  27.883  32.987  1.00  0.00     0.031 A 
ATOM     61  C   UNL A   1      44.410  34.084  30.850  1.00  0.00     0.049 A 
ATOM     62  C   UNL A   1      44.021  28.652  32.757  1.00  0.00     0.074 A 
ATOM     63  C   UNL A   1      44.442  34.169  29.473  1.00  0.00     0.029 A 
ATOM     64  N   UNL A   1      45.211  33.022  31.186  1.00  0.00    -0.354 N 
ATOM     65  N   UNL A   1      44.623  28.731  31.607  1.00  0.00    -0.248 NA
ATOM     66  C   UNL A   1      44.365  29.678  33.724  1.00  0.00     0.031 C 
ATOM     67  C   UNL A   1      44.881  32.888  29.034  1.00  0.00     0.029 A 
ATOM     68  C   UNL A   1      45.152  32.112  30.164  1.00  0.00     0.049 A 
ATOM     69  H   UNL A   1      45.734  32.930  32.015  1.00  0.00     0.167 HD
ATOM     70  C   UNL A   1      45.064  30.044  31.540  1.00  0.00     0.074 A 
ATOM     71  C   UNL A   1      44.956  30.551  32.906  1.00  0.00     0.031 C 
ATOM     72  C   UNL A   1      45.211  30.677  30.341  1.00  0.00     0.031 A 
BRANCH  59  73
ATOM     73  C   UNL A   1      44.079  35.236  33.143  1.00  0.00    -0.014 A 
ATOM     74  C   UNL A   1      44.664  34.478  34.179  1.00  0.00     0.009 A 
ATOM     75  C   UNL A   1      44.233  36.630  33.219  1.00  0.00     0.009 A 
ATOM     76  C   UNL A   1      45.353  35.069  35.239  1.00  0.00     0.001 A 
ATOM     77  C   UNL A   1      44.964  37.224  34.257  1.00  0.00     0.001 A 
ATOM     78  C   UNL A   1      45.522  36.444  35.267  1.00  0.00     0.000 A 
ENDBRANCH  59  73
BRANCH  60  79
ATOM     79  C   UNL A   1      42.690  26.885  34.088  1.00  0.00    -0.014 A 
ATOM     80  C   UNL A   1      43.601  25.814  34.139  1.00  0.00     0.009 A 
ATOM     81  C   UNL A   1      41.555  26.802  34.916  1.00  0.00     0.009 A 
ATOM     82  C   UNL A   1      43.374  24.692  34.946  1.00  0.00     0.001 A 
ATOM     83  C   UNL A   1      41.324  25.675  35.725  1.00  0.00     0.001 A 
ATOM     84  C   UNL A   1      42.226  24.615  35.726  1.00  0.00     0.000 A 
ENDBRANCH  60  79
BRANCH  72  85
ATOM     85  C   UNL A   1      45.155  29.855  29.072  1.00  0.00    -0.014 A 
ATOM     86  C   UNL A   1      46.374  29.539  28.449  1.00  0.00     0.009 A 
ATOM     87  C   UNL A   1      43.964  29.589  28.376  1.00  0.00     0.009 A 
ATOM     88  C   UNL A   1      46.408  29.020  27.153  1.00  0.00     0.001 A 
ATOM     89  C   UNL A   1      43.999  29.040  27.087  1.00  0.00     0.001 A 
ATOM     90  C   UNL A   1      45.221  28.776  26.470  1.00  0.00     0.000 A 
ENDBRANCH  72  85
ENDBRANCH  46  47
ENDBRANCH  39  41
ENDBRANCH  38  39
ENDBRANCH  37  38
ENDBRANCH  36  37
ENDBRANCH  35  36
ENDBRANCH  34  35
ENDBRANCH  33  34
ENDBRANCH   1  33
TORSDOF 23
ENDMDL
MODEL 2
REMARK VINA RESULT:      -7.9      3.411      9.384
REMARK SMILES CC(C)n1c2c(c3ccccc31)[C@@H](c1ccccc1)N(CC(=O)OCCOCCOCCOCCOC(=O)c1ccc(-c3c4nc(c(-c5ccccc5)c5ccc([nH]5)c(-c5ccccc5)c5nc(c(-c6ccccc6)c6ccc3[nH]6)C=C5)C=C4)cc1)C2=O
REMARK SMILES IDX 30 1 29 2 28 3 27 4 26 5 25 6 24 7 22 8 23 9 21 10 20 11
REMARK SMILES IDX 4 12 5 13 12 14 6 15 87 16 7 17 11 18 13 19 88 20 8 21 10 22
REMARK SMILES IDX 9 23 2 24 1 25 3 26 14 27 15 28 19 29 16 30 18 31 17 32
REMARK SMILES IDX 31 33 32 34 33 35 34 36 35 37 36 38 37 39 38 40 39 41 40 42
REMARK SMILES IDX 86 43 41 44 85 45 42 46 43 47 44 48 79 49 45 50 84 51 78 52
REMARK SMILES IDX 80 53 46 54 83 55 77 56 76 57 47 59 69 60 54 61 68 62 55 63
REMARK SMILES IDX 58 64 67 65 81 66 56 67 57 68 66 70 82 71 59 72 48 73 49 74
REMARK SMILES IDX 53 75 50 76 52 77 51 78 70 79 71 80 75 81 72 82 74 83 73 84
REMARK SMILES IDX 60 85 61 86 65 87 62 88 64 89 63 90
REMARK H PARENT 80 58 58 69
REMARK Flexibility Score: inf
ROOT
ATOM      1  O   UNL A   1      38.597  31.126  29.310  1.00  0.00    -0.377 OA
ENDROOT
BRANCH   1   2
ATOM      2  C   UNL A   1      37.396  30.415  29.434  1.00  0.00     0.188 C 
BRANCH   2   3
ATOM      3  C   UNL A   1      37.180  29.353  28.368  1.00  0.00     0.188 C 
BRANCH   3   4
ATOM      4  O   UNL A   1      36.015  29.407  27.569  1.00  0.00    -0.376 OA
BRANCH   4   5
ATOM      5  C   UNL A   1      35.145  30.533  27.631  1.00  0.00     0.202 C 
BRANCH   5   6
ATOM      6  C   UNL A   1      33.604  30.432  27.564  1.00  0.00     0.261 C 
BRANCH   6   7
ATOM      7  O   UNL A   1      32.956  31.053  26.422  1.00  0.00    -0.462 OA
BRANCH   7   8
ATOM      8  C   UNL A   1      31.779  30.519  26.021  1.00  0.00     0.325 C 
ATOM      9  O   UNL A   1      30.954  31.141  25.352  1.00  0.00    -0.250 OA
BRANCH   8  10
ATOM     10  C   UNL A   1      31.504  29.043  26.406  1.00  0.00     0.243 C 
BRANCH  10  11
ATOM     11  N   UNL A   1      31.569  27.850  25.558  1.00  0.00    -0.315 N 
ATOM     12  N   UNL A   1      31.823  24.342  24.825  1.00  0.00    -0.334 N 
ATOM     13  C   UNL A   1      31.702  25.675  25.043  1.00  0.00     0.114 A 
ATOM     14  C   UNL A   1      32.296  24.173  23.522  1.00  0.00     0.049 A 
ATOM     15  C   UNL A   1      31.769  26.338  23.848  1.00  0.00     0.018 A 
ATOM     16  C   UNL A   1      31.578  26.575  26.146  1.00  0.00     0.272 C 
ATOM     17  C   UNL A   1      32.150  25.404  22.859  1.00  0.00     0.006 A 
ATOM     18  C   UNL A   1      32.851  23.053  22.880  1.00  0.00     0.027 A 
ATOM     19  C   UNL A   1      31.641  27.814  24.055  1.00  0.00     0.150 C 
ATOM     20  O   UNL A   1      31.534  26.316  27.328  1.00  0.00    -0.267 OA
ATOM     21  C   UNL A   1      32.448  25.466  21.486  1.00  0.00     0.011 A 
ATOM     22  C   UNL A   1      33.258  23.186  21.549  1.00  0.00     0.002 A 
ATOM     23  C   UNL A   1      33.037  24.368  20.851  1.00  0.00     0.001 A 
BRANCH  12  24
ATOM     24  C   UNL A   1      31.538  23.248  25.748  1.00  0.00     0.082 C 
ATOM     25  C   UNL A   1      32.737  22.944  26.636  1.00  0.00     0.031 C 
ATOM     26  C   UNL A   1      30.252  23.443  26.554  1.00  0.00     0.031 C 
ENDBRANCH  12  24
BRANCH  19  27
ATOM     27  C   UNL A   1      30.462  28.386  23.263  1.00  0.00    -0.021 A 
ATOM     28  C   UNL A   1      29.155  27.944  23.561  1.00  0.00     0.006 A 
ATOM     29  C   UNL A   1      30.551  29.448  22.342  1.00  0.00     0.006 A 
ATOM     30  C   UNL A   1      28.013  28.520  22.991  1.00  0.00     0.000 A 
ATOM     31  C   UNL A   1      29.410  30.044  21.784  1.00  0.00     0.000 A 
ATOM     32  C   UNL A   1      28.141  29.581  22.108  1.00  0.00     0.000 A 
ENDBRANCH  19  27
ENDBRANCH  10  11
ENDBRANCH   8  10
ENDBRANCH   7   8
ENDBRANCH   6   7
ENDBRANCH   5   6
ENDBRANCH   4   5
ENDBRANCH   3   4
ENDBRANCH   2   3
ENDBRANCH   1   2
BRANCH   1  33
ATOM     33  C   UNL A   1      38.792  32.345  29.992  1.00  0.00     0.188 C 
BRANCH  33  34
ATOM     34  C   UNL A   1      37.737  33.445  29.848  1.00  0.00     0.188 C 
BRANCH  34  35
ATOM     35  O   UNL A   1      37.977  34.543  30.708  1.00  0.00    -0.376 OA
BRANCH  35  36
ATOM     36  C   UNL A   1      39.013  34.472  31.675  1.00  0.00     0.202 C 
BRANCH  36  37
ATOM     37  C   UNL A   1      38.747  34.071  33.137  1.00  0.00     0.261 C 
BRANCH  37  38
ATOM     38  O   UNL A   1      37.977  32.880  33.321  1.00  0.00    -0.460 OA
BRANCH  38  39
ATOM     39  C   UNL A   1      38.002  32.165  34.461  1.00  0.00     0.338 C 
ATOM     40  O   UNL A   1      37.206  32.199  35.376  1.00  0.00    -0.246 OA
BRANCH  39  41
ATOM     41  C   UNL A   1      38.957  31.065  34.157  1.00  0.00     0.060 A 
ATOM     42  C   UNL A   1      40.347  31.228  34.260  1.00  0.00     0.016 A 
ATOM     43  C   UNL A   1      38.423  29.996  33.427  1.00  0.00     0.016 A 
ATOM     44  C   UNL A   1      41.186  30.367  33.545  1.00  0.00     0.010 A 
ATOM     45  C   UNL A   1      39.260  29.179  32.673  1.00  0.00     0.010 A 
ATOM     46  C   UNL A   1      40.642  29.383  32.695  1.00  0.00    -0.014 A 
BRANCH  46  47
ATOM     47  C   UNL A   1      41.544  28.418  32.040  1.00  0.00     0.031 A 
ATOM     48  C   UNL A   1      42.459  27.762  33.014  1.00  0.00     0.074 A 
ATOM     49  C   UNL A   1      41.479  27.972  30.762  1.00  0.00     0.049 A 
ATOM     50  N   UNL A   1      43.749  27.721  33.005  1.00  0.00    -0.248 NA
ATOM     51  C   UNL A   1      41.840  27.174  34.217  1.00  0.00     0.031 C 
ATOM     52  C   UNL A   1      40.450  28.277  29.766  1.00  0.00     0.029 A 
ATOM     53  N   UNL A   1      42.274  27.065  30.102  1.00  0.00    -0.354 N 
ATOM     54  C   UNL A   1      44.105  26.963  34.117  1.00  0.00     0.074 A 
ATOM     55  C   UNL A   1      42.912  26.792  34.904  1.00  0.00     0.031 C 
ATOM     56  C   UNL A   1      40.572  27.439  28.710  1.00  0.00     0.029 A 
ATOM     57  C   UNL A   1      41.736  26.592  28.903  1.00  0.00     0.049 A 
ATOM     58  H   UNL A   1      43.149  26.774  30.445  1.00  0.00     0.167 HD
ATOM     59  C   UNL A   1      45.300  26.325  34.205  1.00  0.00     0.031 A 
ATOM     60  C   UNL A   1      42.159  25.549  28.139  1.00  0.00     0.031 A 
ATOM     61  C   UNL A   1      46.281  26.890  33.323  1.00  0.00     0.049 A 
ATOM     62  C   UNL A   1      43.557  25.252  28.508  1.00  0.00     0.074 A 
ATOM     63  C   UNL A   1      46.877  28.129  33.209  1.00  0.00     0.029 A 
ATOM     64  N   UNL A   1      46.525  26.238  32.141  1.00  0.00    -0.354 N 
ATOM     65  N   UNL A   1      44.556  26.049  28.265  1.00  0.00    -0.248 NA
ATOM     66  C   UNL A   1      43.785  24.243  29.525  1.00  0.00     0.031 C 
ATOM     67  C   UNL A   1      47.045  28.330  31.810  1.00  0.00     0.029 A 
ATOM     68  C   UNL A   1      46.602  27.182  31.151  1.00  0.00     0.049 A 
ATOM     69  H   UNL A   1      46.626  25.266  32.025  1.00  0.00     0.167 HD
ATOM     70  C   UNL A   1      45.361  25.942  29.389  1.00  0.00     0.074 A 
ATOM     71  C   UNL A   1      44.883  24.751  30.087  1.00  0.00     0.031 C 
ATOM     72  C   UNL A   1      46.151  26.978  29.790  1.00  0.00     0.031 A 
BRANCH  59  73
ATOM     73  C   UNL A   1      45.439  24.957  34.822  1.00  0.00    -0.014 A 
ATOM     74  C   UNL A   1      45.739  24.754  36.186  1.00  0.00     0.009 A 
ATOM     75  C   UNL A   1      45.013  23.832  34.098  1.00  0.00     0.009 A 
ATOM     76  C   UNL A   1      45.634  23.503  36.796  1.00  0.00     0.001 A 
ATOM     77  C   UNL A   1      44.861  22.584  34.718  1.00  0.00     0.001 A 
ATOM     78  C   UNL A   1      45.173  22.420  36.065  1.00  0.00     0.000 A 
ENDBRANCH  59  73
BRANCH  60  79
ATOM     79  C   UNL A   1      41.345  24.574  27.362  1.00  0.00    -0.014 A 
ATOM     80  C   UNL A   1      39.951  24.524  27.544  1.00  0.00     0.009 A 
ATOM     81  C   UNL A   1      41.941  23.505  26.666  1.00  0.00     0.009 A 
ATOM     82  C   UNL A   1      39.189  23.441  27.091  1.00  0.00     0.001 A 
ATOM     83  C   UNL A   1      41.177  22.416  26.213  1.00  0.00     0.001 A 
ATOM     84  C   UNL A   1      39.804  22.377  26.441  1.00  0.00     0.000 A 
ENDBRANCH  60  79
BRANCH  72  85
ATOM     85  C   UNL A   1      46.355  28.146  28.850  1.00  0.00    -0.014 A 
ATOM     86  C   UNL A   1      45.248  28.972  28.589  1.00  0.00     0.009 A 
ATOM     87  C   UNL A   1      47.508  28.312  28.064  1.00  0.00     0.009 A 
ATOM     88  C   UNL A   1      45.272  29.900  27.546  1.00  0.00     0.001 A 
ATOM     89  C   UNL A   1      47.540  29.265  27.038  1.00  0.00     0.001 A 
ATOM     90  C   UNL A   1      46.416  30.043  26.767  1.00  0.00     0.000 A 
ENDBRANCH  72  85
ENDBRANCH  46  47
ENDBRANCH  39  41
ENDBRANCH  38  39
ENDBRANCH  37  38
ENDBRANCH  36  37
ENDBRANCH  35  36
ENDBRANCH  34  35
ENDBRANCH  33  34
ENDBRANCH   1  33
TORSDOF 23
ENDMDL
MODEL 3
REMARK VINA RESULT:      -7.5      3.769      7.385
REMARK SMILES CC(C)n1c2c(c3ccccc31)[C@@H](c1ccccc1)N(CC(=O)OCCOCCOCCOCCOC(=O)c1ccc(-c3c4nc(c(-c5ccccc5)c5ccc([nH]5)c(-c5ccccc5)c5nc(c(-c6ccccc6)c6ccc3[nH]6)C=C5)C=C4)cc1)C2=O
REMARK SMILES IDX 30 1 29 2 28 3 27 4 26 5 25 6 24 7 22 8 23 9 21 10 20 11
REMARK SMILES IDX 4 12 5 13 12 14 6 15 87 16 7 17 11 18 13 19 88 20 8 21 10 22
REMARK SMILES IDX 9 23 2 24 1 25 3 26 14 27 15 28 19 29 16 30 18 31 17 32
REMARK SMILES IDX 31 33 32 34 33 35 34 36 35 37 36 38 37 39 38 40 39 41 40 42
REMARK SMILES IDX 86 43 41 44 85 45 42 46 43 47 44 48 79 49 45 50 84 51 78 52
REMARK SMILES IDX 80 53 46 54 83 55 77 56 76 57 47 59 69 60 54 61 68 62 55 63
REMARK SMILES IDX 58 64 67 65 81 66 56 67 57 68 66 70 82 71 59 72 48 73 49 74
REMARK SMILES IDX 53 75 50 76 52 77 51 78 70 79 71 80 75 81 72 82 74 83 73 84
REMARK SMILES IDX 60 85 61 86 65 87 62 88 64 89 63 90
REMARK H PARENT 80 58 58 69
REMARK Flexibility Score: inf
ROOT
ATOM      1  O   UNL A   1      38.601  28.174  29.740  1.00  0.00    -0.377 OA
ENDROOT
BRANCH   1   2
ATOM      2  C   UNL A   1      39.526  27.155  29.474  1.00  0.00     0.188 C 
BRANCH   2   3
ATOM      3  C   UNL A   1      39.408  26.545  28.087  1.00  0.00     0.188 C 
BRANCH   3   4
ATOM      4  O   UNL A   1      39.075  25.177  27.963  1.00  0.00    -0.376 OA
BRANCH   4   5
ATOM      5  C   UNL A   1      39.134  24.528  26.696  1.00  0.00     0.202 C 
BRANCH   5   6
ATOM      6  C   UNL A   1      38.017  23.611  26.148  1.00  0.00     0.261 C 
BRANCH   6   7
ATOM      7  O   UNL A   1      37.656  23.780  24.751  1.00  0.00    -0.462 OA
BRANCH   7   8
ATOM      8  C   UNL A   1      36.733  22.928  24.251  1.00  0.00     0.325 C 
ATOM      9  O   UNL A   1      36.793  21.707  24.407  1.00  0.00    -0.250 OA
BRANCH   8  10
ATOM     10  C   UNL A   1      35.539  23.548  23.483  1.00  0.00     0.243 C 
BRANCH  10  11
ATOM     11  N   UNL A   1      34.612  24.594  23.925  1.00  0.00    -0.315 N 
ATOM     12  N   UNL A   1      32.246  27.270  23.546  1.00  0.00    -0.334 N 
ATOM     13  C   UNL A   1      33.116  26.251  23.749  1.00  0.00     0.114 A 
ATOM     14  C   UNL A   1      32.231  28.046  24.706  1.00  0.00     0.049 A 
ATOM     15  C   UNL A   1      33.409  26.164  25.082  1.00  0.00     0.018 A 
ATOM     16  C   UNL A   1      33.845  25.292  22.979  1.00  0.00     0.272 C 
ATOM     17  C   UNL A   1      32.859  27.298  25.719  1.00  0.00     0.006 A 
ATOM     18  C   UNL A   1      31.737  29.339  24.947  1.00  0.00     0.027 A 
ATOM     19  C   UNL A   1      34.372  25.048  25.340  1.00  0.00     0.150 C 
ATOM     20  O   UNL A   1      33.845  25.133  21.779  1.00  0.00    -0.267 OA
ATOM     21  C   UNL A   1      32.868  27.815  27.027  1.00  0.00     0.011 A 
ATOM     22  C   UNL A   1      31.879  29.876  26.229  1.00  0.00     0.002 A 
ATOM     23  C   UNL A   1      32.413  29.116  27.264  1.00  0.00     0.001 A 
BRANCH  12  24
ATOM     24  C   UNL A   1      31.455  27.556  22.353  1.00  0.00     0.082 C 
ATOM     25  C   UNL A   1      31.297  26.318  21.480  1.00  0.00     0.031 C 
ATOM     26  C   UNL A   1      30.114  28.232  22.651  1.00  0.00     0.031 C 
ENDBRANCH  12  24
BRANCH  19  27
ATOM     27  C   UNL A   1      33.797  24.036  26.334  1.00  0.00    -0.021 A 
ATOM     28  C   UNL A   1      32.396  23.920  26.464  1.00  0.00     0.006 A 
ATOM     29  C   UNL A   1      34.555  23.082  27.041  1.00  0.00     0.006 A 
ATOM     30  C   UNL A   1      31.787  22.924  27.235  1.00  0.00     0.000 A 
ATOM     31  C   UNL A   1      33.950  22.067  27.799  1.00  0.00     0.000 A 
ATOM     32  C   UNL A   1      32.567  21.987  27.896  1.00  0.00     0.000 A 
ENDBRANCH  19  27
ENDBRANCH  10  11
ENDBRANCH   8  10
ENDBRANCH   7   8
ENDBRANCH   6   7
ENDBRANCH   5   6
ENDBRANCH   4   5
ENDBRANCH   3   4
ENDBRANCH   2   3
ENDBRANCH   1   2
BRANCH   1  33
ATOM     33  C   UNL A   1      38.106  28.993  28.705  1.00  0.00     0.188 C 
BRANCH  33  34
ATOM     34  C   UNL A   1      36.856  29.837  28.970  1.00  0.00     0.188 C 
BRANCH  34  35
ATOM     35  O   UNL A   1      36.704  30.889  28.035  1.00  0.00    -0.376 OA
BRANCH  35  36
ATOM     36  C   UNL A   1      35.406  31.296  27.632  1.00  0.00     0.202 C 
BRANCH  36  37
ATOM     37  C   UNL A   1      34.390  31.901  28.618  1.00  0.00     0.261 C 
BRANCH  37  38
ATOM     38  O   UNL A   1      34.599  33.275  28.956  1.00  0.00    -0.460 OA
BRANCH  38  39
ATOM     39  C   UNL A   1      34.475  33.744  30.211  1.00  0.00     0.338 C 
ATOM     40  O   UNL A   1      33.504  34.266  30.716  1.00  0.00    -0.246 OA
BRANCH  39  41
ATOM     41  C   UNL A   1      35.616  33.113  30.928  1.00  0.00     0.060 A 
ATOM     42  C   UNL A   1      35.448  32.390  32.119  1.00  0.00     0.016 A 
ATOM     43  C   UNL A   1      36.884  33.577  30.555  1.00  0.00     0.016 A 
ATOM     44  C   UNL A   1      36.544  32.226  32.973  1.00  0.00     0.010 A 
ATOM     45  C   UNL A   1      37.956  33.461  31.435  1.00  0.00     0.010 A 
ATOM     46  C   UNL A   1      37.785  32.821  32.666  1.00  0.00    -0.014 A 
BRANCH  46  47
ATOM     47  C   UNL A   1      38.950  32.541  33.524  1.00  0.00     0.031 A 
ATOM     48  C   UNL A   1      38.988  33.431  34.718  1.00  0.00     0.074 A 
ATOM     49  C   UNL A   1      39.808  31.498  33.427  1.00  0.00     0.049 A 
ATOM     50  N   UNL A   1      39.932  34.223  35.101  1.00  0.00    -0.248 NA
ATOM     51  C   UNL A   1      37.753  33.523  35.519  1.00  0.00     0.031 C 
ATOM     52  C   UNL A   1      39.726  30.363  32.506  1.00  0.00     0.029 A 
ATOM     53  N   UNL A   1      40.897  31.174  34.203  1.00  0.00    -0.354 N 
ATOM     54  C   UNL A   1      39.476  34.799  36.284  1.00  0.00     0.074 A 
ATOM     55  C   UNL A   1      38.083  34.458  36.405  1.00  0.00     0.031 C 
ATOM     56  C   UNL A   1      40.594  29.397  32.890  1.00  0.00     0.029 A 
ATOM     57  C   UNL A   1      41.360  29.868  34.030  1.00  0.00     0.049 A 
ATOM     58  H   UNL A   1      41.315  31.810  34.827  1.00  0.00     0.167 HD
ATOM     59  C   UNL A   1      40.324  35.319  37.209  1.00  0.00     0.031 A 
ATOM     60  C   UNL A   1      42.258  29.182  34.787  1.00  0.00     0.031 A 
ATOM     61  C   UNL A   1      41.603  35.646  36.646  1.00  0.00     0.049 A 
ATOM     62  C   UNL A   1      43.038  30.162  35.568  1.00  0.00     0.074 A 
ATOM     63  C   UNL A   1      42.033  36.516  35.666  1.00  0.00     0.029 A 
ATOM     64  N   UNL A   1      42.633  34.763  36.852  1.00  0.00    -0.354 N 
ATOM     65  N   UNL A   1      43.877  31.007  35.042  1.00  0.00    -0.248 NA
ATOM     66  C   UNL A   1      42.571  30.482  36.904  1.00  0.00     0.031 C 
ATOM     67  C   UNL A   1      43.101  35.839  35.013  1.00  0.00     0.029 A 
ATOM     68  C   UNL A   1      43.307  34.623  35.667  1.00  0.00     0.049 A 
ATOM     69  H   UNL A   1      42.849  34.311  37.699  1.00  0.00     0.167 HD
ATOM     70  C   UNL A   1      43.697  32.170  35.774  1.00  0.00     0.074 A 
ATOM     71  C   UNL A   1      42.949  31.760  36.961  1.00  0.00     0.031 C 
ATOM     72  C   UNL A   1      43.926  33.394  35.219  1.00  0.00     0.031 A 
BRANCH  59  73
ATOM     73  C   UNL A   1      40.090  35.169  38.691  1.00  0.00    -0.014 A 
ATOM     74  C   UNL A   1      39.277  36.049  39.436  1.00  0.00     0.009 A 
ATOM     75  C   UNL A   1      40.477  33.979  39.328  1.00  0.00     0.009 A 
ATOM     76  C   UNL A   1      38.879  35.771  40.744  1.00  0.00     0.001 A 
ATOM     77  C   UNL A   1      40.041  33.675  40.625  1.00  0.00     0.001 A 
ATOM     78  C   UNL A   1      39.245  34.571  41.332  1.00  0.00     0.000 A 
ENDBRANCH  59  73
BRANCH  60  79
ATOM     79  C   UNL A   1      42.265  27.736  35.141  1.00  0.00    -0.014 A 
ATOM     80  C   UNL A   1      42.014  27.340  36.467  1.00  0.00     0.009 A 
ATOM     81  C   UNL A   1      42.797  26.766  34.271  1.00  0.00     0.009 A 
ATOM     82  C   UNL A   1      42.315  26.049  36.919  1.00  0.00     0.001 A 
ATOM     83  C   UNL A   1      43.102  25.471  34.724  1.00  0.00     0.001 A 
ATOM     84  C   UNL A   1      42.876  25.119  36.052  1.00  0.00     0.000 A 
ENDBRANCH  60  79
BRANCH  72  85
ATOM     85  C   UNL A   1      44.643  33.467  33.889  1.00  0.00    -0.014 A 
ATOM     86  C   UNL A   1      46.006  33.811  33.902  1.00  0.00     0.009 A 
ATOM     87  C   UNL A   1      43.979  33.430  32.650  1.00  0.00     0.009 A 
ATOM     88  C   UNL A   1      46.673  34.156  32.726  1.00  0.00     0.001 A 
ATOM     89  C   UNL A   1      44.659  33.748  31.467  1.00  0.00     0.001 A 
ATOM     90  C   UNL A   1      45.999  34.130  31.509  1.00  0.00     0.000 A 
ENDBRANCH  72  85
ENDBRANCH  46  47
ENDBRANCH  39  41
ENDBRANCH  38  39
ENDBRANCH  37  38
ENDBRANCH  36  37
ENDBRANCH  35  36
ENDBRANCH  34  35
ENDBRANCH  33  34
ENDBRANCH   1  33
TORSDOF 23
ENDMDL
