MODEL 1
REMARK VINA RESULT:      -9.5      0.000      0.000
REMARK SMILES C[NH2+][C@@]1(C(=O)OCCOCCOCCOCCOC(=O)c2ccc(-c3c4nc(c(-c5ccccc5)c5ccc([nH]5)c(-c5ccccc5)c5nc(c(-c6ccccc6)c6ccc3[nH]6)C=C5)C=C4)cc2)CC[C@H]([NH+]2CC[NH+](C)CC2)C1
REMARK SMILES IDX 13 1 12 2 11 3 10 4 9 5 8 6 7 7 6 8 4 9 5 10 3 11 69 12
REMARK SMILES IDX 79 13 70 14 71 15 2 16 1 17 72 20 73 21 78 22 74 24 77 25
REMARK SMILES IDX 75 26 76 27 14 29 15 30 16 31 17 32 18 33 19 34 20 35 21 36
REMARK SMILES IDX 22 37 68 38 23 39 67 40 24 41 25 42 26 43 61 44 27 45 66 46
REMARK SMILES IDX 60 47 62 48 28 49 65 50 59 51 58 52 29 54 51 55 36 56 50 57
REMARK SMILES IDX 37 58 40 59 49 60 63 61 38 62 39 63 48 65 64 66 41 67 30 68
REMARK SMILES IDX 31 69 35 70 32 71 34 72 33 73 52 74 53 75 57 76 54 77 56 78
REMARK SMILES IDX 55 79 42 80 43 81 47 82 44 83 46 84 45 85
REMARK H PARENT 2 18 2 19 72 23 75 28 62 53 40 64
REMARK Flexibility Score: inf
ROOT
ATOM      1  C   UNL A   1      34.618  34.229  28.285  1.00  0.00     0.188 C 
ENDROOT
BRANCH   1   2
ATOM      2  O   UNL A   1      35.061  32.979  27.820  1.00  0.00    -0.377 OA
BRANCH   2   3
ATOM      3  C   UNL A   1      34.233  31.862  28.044  1.00  0.00     0.188 C 
BRANCH   3   4
ATOM      4  C   UNL A   1      33.468  31.130  26.941  1.00  0.00     0.188 C 
BRANCH   4   5
ATOM      5  O   UNL A   1      32.207  30.570  27.237  1.00  0.00    -0.376 OA
BRANCH   5   6
ATOM      6  C   UNL A   1      31.743  29.336  26.717  1.00  0.00     0.202 C 
BRANCH   6   7
ATOM      7  C   UNL A   1      31.566  28.059  27.551  1.00  0.00     0.261 C 
BRANCH   7   8
ATOM      8  O   UNL A   1      30.991  26.931  26.862  1.00  0.00    -0.459 OA
BRANCH   8   9
ATOM      9  C   UNL A   1      31.872  26.099  26.248  1.00  0.00     0.368 C 
ATOM     10  O   UNL A   1      33.082  26.332  26.210  1.00  0.00    -0.245 OA
BRANCH   9  11
ATOM     11  C   UNL A   1      31.292  24.765  25.638  1.00  0.00     0.200 C 
ATOM     12  C   UNL A   1      32.500  23.862  25.311  1.00  0.00     0.087 C 
ATOM     13  C   UNL A   1      30.521  24.689  24.303  1.00  0.00     0.146 C 
ATOM     14  C   UNL A   1      32.861  24.171  23.862  1.00  0.00     0.072 C 
ATOM     15  C   UNL A   1      31.544  24.514  23.157  1.00  0.00     0.191 C 
BRANCH  11  16
ATOM     16  N   UNL A   1      30.552  24.071  26.741  1.00  0.00    -0.334 N 
ATOM     17  C   UNL A   1      30.395  22.635  26.579  1.00  0.00     0.331 C 
ATOM     18  H   UNL A   1      31.058  24.236  27.612  1.00  0.00     0.347 HD
ATOM     19  H   UNL A   1      29.610  24.460  26.735  1.00  0.00     0.347 HD
ENDBRANCH  11  16
BRANCH  15  20
ATOM     20  N   UNL A   1      31.511  25.525  22.089  1.00  0.00    -0.323 N 
ATOM     21  C   UNL A   1      32.817  25.850  21.488  1.00  0.00     0.324 C 
ATOM     22  C   UNL A   1      30.806  26.784  22.340  1.00  0.00     0.324 C 
ATOM     23  H   UNL A   1      30.938  24.996  21.431  1.00  0.00     0.348 HD
ATOM     24  C   UNL A   1      33.659  26.904  22.251  1.00  0.00     0.324 C 
ATOM     25  C   UNL A   1      31.580  27.792  23.206  1.00  0.00     0.324 C 
ATOM     26  N   UNL A   1      32.924  28.106  22.699  1.00  0.00    -0.328 N 
ATOM     27  C   UNL A   1      33.689  28.818  23.725  1.00  0.00     0.333 C 
ATOM     28  H   UNL A   1      32.808  28.701  21.880  1.00  0.00     0.348 HD
ENDBRANCH  15  20
ENDBRANCH   9  11
ENDBRANCH   8   9
ENDBRANCH   7   8
ENDBRANCH   6   7
ENDBRANCH   5   6
ENDBRANCH   4   5
ENDBRANCH   3   4
ENDBRANCH   2   3
ENDBRANCH   1   2
BRANCH   1  29
ATOM     29  C   UNL A   1      34.874  34.442  29.783  1.00  0.00     0.188 C 
BRANCH  29  30
ATOM     30  O   UNL A   1      33.809  34.487  30.728  1.00  0.00    -0.376 OA
BRANCH  30  31
ATOM     31  C   UNL A   1      34.039  34.721  32.106  1.00  0.00     0.202 C 
BRANCH  31  32
ATOM     32  C   UNL A   1      34.111  33.548  33.100  1.00  0.00     0.261 C 
BRANCH  32  33
ATOM     33  O   UNL A   1      34.895  32.414  32.715  1.00  0.00    -0.460 OA
BRANCH  33  34
ATOM     34  C   UNL A   1      36.107  32.325  33.298  1.00  0.00     0.338 C 
ATOM     35  O   UNL A   1      36.441  32.751  34.397  1.00  0.00    -0.246 OA
BRANCH  34  36
ATOM     36  C   UNL A   1      36.989  31.503  32.453  1.00  0.00     0.060 A 
ATOM     37  C   UNL A   1      37.983  30.733  33.069  1.00  0.00     0.016 A 
ATOM     38  C   UNL A   1      36.883  31.544  31.061  1.00  0.00     0.016 A 
ATOM     39  C   UNL A   1      38.896  30.022  32.299  1.00  0.00     0.010 A 
ATOM     40  C   UNL A   1      37.823  30.861  30.286  1.00  0.00     0.010 A 
ATOM     41  C   UNL A   1      38.855  30.132  30.905  1.00  0.00    -0.014 A 
BRANCH  41  42
ATOM     42  C   UNL A   1      40.023  29.675  30.123  1.00  0.00     0.031 A 
ATOM     43  C   UNL A   1      41.166  30.632  29.931  1.00  0.00     0.074 A 
ATOM     44  C   UNL A   1      40.090  28.422  29.644  1.00  0.00     0.049 A 
ATOM     45  N   UNL A   1      42.278  30.476  29.261  1.00  0.00    -0.248 NA
ATOM     46  C   UNL A   1      41.037  31.945  30.587  1.00  0.00     0.031 C 
ATOM     47  C   UNL A   1      39.075  27.387  29.832  1.00  0.00     0.029 A 
ATOM     48  N   UNL A   1      41.065  27.811  28.899  1.00  0.00    -0.354 N 
ATOM     49  C   UNL A   1      42.971  31.672  29.402  1.00  0.00     0.074 A 
ATOM     50  C   UNL A   1      42.147  32.553  30.198  1.00  0.00     0.031 C 
ATOM     51  C   UNL A   1      39.478  26.267  29.206  1.00  0.00     0.029 A 
ATOM     52  C   UNL A   1      40.755  26.522  28.544  1.00  0.00     0.049 A 
ATOM     53  H   UNL A   1      41.906  28.254  28.643  1.00  0.00     0.167 HD
ATOM     54  C   UNL A   1      44.188  32.004  28.911  1.00  0.00     0.031 A 
ATOM     55  C   UNL A   1      41.419  25.661  27.749  1.00  0.00     0.031 A 
ATOM     56  C   UNL A   1      44.994  31.129  28.105  1.00  0.00     0.049 A 
ATOM     57  C   UNL A   1      42.725  26.090  27.134  1.00  0.00     0.074 A 
ATOM     58  C   UNL A   1      46.242  31.364  27.558  1.00  0.00     0.029 A 
ATOM     59  N   UNL A   1      44.621  29.848  27.722  1.00  0.00    -0.354 N 
ATOM     60  N   UNL A   1      43.380  27.218  27.279  1.00  0.00    -0.248 NA
ATOM     61  C   UNL A   1      43.388  25.123  26.247  1.00  0.00     0.031 C 
ATOM     62  C   UNL A   1      46.595  30.252  26.788  1.00  0.00     0.029 A 
ATOM     63  C   UNL A   1      45.602  29.294  26.917  1.00  0.00     0.049 A 
ATOM     64  H   UNL A   1      43.784  29.401  27.982  1.00  0.00     0.167 HD
ATOM     65  C   UNL A   1      44.544  27.083  26.532  1.00  0.00     0.074 A 
ATOM     66  C   UNL A   1      44.512  25.758  25.947  1.00  0.00     0.031 C 
ATOM     67  C   UNL A   1      45.550  27.972  26.346  1.00  0.00     0.031 A 
BRANCH  54  68
ATOM     68  C   UNL A   1      44.693  33.393  29.194  1.00  0.00    -0.014 A 
ATOM     69  C   UNL A   1      45.277  33.727  30.427  1.00  0.00     0.009 A 
ATOM     70  C   UNL A   1      44.601  34.378  28.198  1.00  0.00     0.009 A 
ATOM     71  C   UNL A   1      45.724  35.029  30.666  1.00  0.00     0.001 A 
ATOM     72  C   UNL A   1      45.078  35.669  28.429  1.00  0.00     0.001 A 
ATOM     73  C   UNL A   1      45.629  35.997  29.667  1.00  0.00     0.000 A 
ENDBRANCH  54  68
BRANCH  55  74
ATOM     74  C   UNL A   1      40.846  24.319  27.459  1.00  0.00    -0.014 A 
ATOM     75  C   UNL A   1      41.359  23.170  28.080  1.00  0.00     0.009 A 
ATOM     76  C   UNL A   1      39.794  24.180  26.540  1.00  0.00     0.009 A 
ATOM     77  C   UNL A   1      40.848  21.907  27.764  1.00  0.00     0.001 A 
ATOM     78  C   UNL A   1      39.264  22.921  26.252  1.00  0.00     0.001 A 
ATOM     79  C   UNL A   1      39.799  21.784  26.855  1.00  0.00     0.000 A 
ENDBRANCH  55  74
BRANCH  67  80
ATOM     80  C   UNL A   1      46.723  27.526  25.514  1.00  0.00    -0.014 A 
ATOM     81  C   UNL A   1      47.698  26.656  26.026  1.00  0.00     0.009 A 
ATOM     82  C   UNL A   1      46.824  27.950  24.179  1.00  0.00     0.009 A 
ATOM     83  C   UNL A   1      48.771  26.251  25.229  1.00  0.00     0.001 A 
ATOM     84  C   UNL A   1      47.876  27.516  23.374  1.00  0.00     0.001 A 
ATOM     85  C   UNL A   1      48.856  26.676  23.903  1.00  0.00     0.000 A 
ENDBRANCH  67  80
ENDBRANCH  41  42
ENDBRANCH  34  36
ENDBRANCH  33  34
ENDBRANCH  32  33
ENDBRANCH  31  32
ENDBRANCH  30  31
ENDBRANCH  29  30
ENDBRANCH   1  29
TORSDOF 22
ENDMDL
MODEL 2
REMARK VINA RESULT:      -9.2      1.342      2.602
REMARK SMILES C[NH2+][C@@]1(C(=O)OCCOCCOCCOCCOC(=O)c2ccc(-c3c4nc(c(-c5ccccc5)c5ccc([nH]5)c(-c5ccccc5)c5nc(c(-c6ccccc6)c6ccc3[nH]6)C=C5)C=C4)cc2)CC[C@H]([NH+]2CC[NH+](C)CC2)C1
REMARK SMILES IDX 13 1 12 2 11 3 10 4 9 5 8 6 7 7 6 8 4 9 5 10 3 11 69 12
REMARK SMILES IDX 79 13 70 14 71 15 2 16 1 17 72 20 73 21 78 22 74 24 77 25
REMARK SMILES IDX 75 26 76 27 14 29 15 30 16 31 17 32 18 33 19 34 20 35 21 36
REMARK SMILES IDX 22 37 68 38 23 39 67 40 24 41 25 42 26 43 61 44 27 45 66 46
REMARK SMILES IDX 60 47 62 48 28 49 65 50 59 51 58 52 29 54 51 55 36 56 50 57
REMARK SMILES IDX 37 58 40 59 49 60 63 61 38 62 39 63 48 65 64 66 41 67 30 68
REMARK SMILES IDX 31 69 35 70 32 71 34 72 33 73 52 74 53 75 57 76 54 77 56 78
REMARK SMILES IDX 55 79 42 80 43 81 47 82 44 83 46 84 45 85
REMARK H PARENT 2 18 2 19 72 23 75 28 62 53 40 64
REMARK Flexibility Score: inf
ROOT
ATOM      1  C   UNL A   1      34.315  33.598  28.345  1.00  0.00     0.188 C 
ENDROOT
BRANCH   1   2
ATOM      2  O   UNL A   1      35.230  32.675  27.813  1.00  0.00    -0.377 OA
BRANCH   2   3
ATOM      3  C   UNL A   1      35.001  31.306  28.054  1.00  0.00     0.188 C 
BRANCH   3   4
ATOM      4  C   UNL A   1      34.262  30.380  27.088  1.00  0.00     0.188 C 
BRANCH   4   5
ATOM      5  O   UNL A   1      32.907  30.642  26.788  1.00  0.00    -0.376 OA
BRANCH   5   6
ATOM      6  C   UNL A   1      32.074  29.766  26.049  1.00  0.00     0.202 C 
BRANCH   6   7
ATOM      7  C   UNL A   1      32.593  28.647  25.134  1.00  0.00     0.261 C 
BRANCH   7   8
ATOM      8  O   UNL A   1      31.812  27.435  25.116  1.00  0.00    -0.459 OA
BRANCH   8   9
ATOM      9  C   UNL A   1      31.194  27.145  23.941  1.00  0.00     0.368 C 
ATOM     10  O   UNL A   1      30.192  27.750  23.556  1.00  0.00    -0.245 OA
BRANCH   9  11
ATOM     11  C   UNL A   1      31.858  26.035  23.037  1.00  0.00     0.200 C 
ATOM     12  C   UNL A   1      30.919  24.812  23.069  1.00  0.00     0.087 C 
ATOM     13  C   UNL A   1      33.208  25.356  23.355  1.00  0.00     0.146 C 
ATOM     14  C   UNL A   1      31.419  23.941  24.215  1.00  0.00     0.072 C 
ATOM     15  C   UNL A   1      32.938  24.141  24.272  1.00  0.00     0.191 C 
BRANCH  11  16
ATOM     16  N   UNL A   1      31.817  26.545  21.628  1.00  0.00    -0.334 N 
ATOM     17  C   UNL A   1      32.520  25.730  20.650  1.00  0.00     0.331 C 
ATOM     18  H   UNL A   1      30.839  26.605  21.343  1.00  0.00     0.347 HD
ATOM     19  H   UNL A   1      32.296  27.445  21.640  1.00  0.00     0.347 HD
ENDBRANCH  11  16
BRANCH  15  20
ATOM     20  N   UNL A   1      33.645  24.124  25.563  1.00  0.00    -0.323 N 
ATOM     21  C   UNL A   1      35.092  24.388  25.492  1.00  0.00     0.324 C 
ATOM     22  C   UNL A   1      33.439  22.981  26.456  1.00  0.00     0.324 C 
ATOM     23  H   UNL A   1      33.158  24.915  25.985  1.00  0.00     0.348 HD
ATOM     24  C   UNL A   1      35.980  23.161  25.161  1.00  0.00     0.324 C 
ATOM     25  C   UNL A   1      34.217  21.713  26.067  1.00  0.00     0.324 C 
ATOM     26  N   UNL A   1      35.663  21.925  25.908  1.00  0.00    -0.328 N 
ATOM     27  C   UNL A   1      36.267  20.764  25.250  1.00  0.00     0.333 C 
ATOM     28  H   UNL A   1      36.057  22.037  26.841  1.00  0.00     0.348 HD
ENDBRANCH  15  20
ENDBRANCH   9  11
ENDBRANCH   8   9
ENDBRANCH   7   8
ENDBRANCH   6   7
ENDBRANCH   5   6
ENDBRANCH   4   5
ENDBRANCH   3   4
ENDBRANCH   2   3
ENDBRANCH   1   2
BRANCH   1  29
ATOM     29  C   UNL A   1      34.675  34.058  29.764  1.00  0.00     0.188 C 
BRANCH  29  30
ATOM     30  O   UNL A   1      33.865  33.727  30.889  1.00  0.00    -0.376 OA
BRANCH  30  31
ATOM     31  C   UNL A   1      34.117  34.261  32.177  1.00  0.00     0.202 C 
BRANCH  31  32
ATOM     32  C   UNL A   1      34.644  33.363  33.310  1.00  0.00     0.261 C 
BRANCH  32  33
ATOM     33  O   UNL A   1      35.559  32.323  32.946  1.00  0.00    -0.460 OA
BRANCH  33  34
ATOM     34  C   UNL A   1      36.859  32.589  33.183  1.00  0.00     0.338 C 
ATOM     35  O   UNL A   1      37.327  33.338  34.032  1.00  0.00    -0.246 OA
BRANCH  34  36
ATOM     36  C   UNL A   1      37.691  31.730  32.323  1.00  0.00     0.060 A 
ATOM     37  C   UNL A   1      38.627  30.882  32.926  1.00  0.00     0.016 A 
ATOM     38  C   UNL A   1      37.597  31.811  30.931  1.00  0.00     0.016 A 
ATOM     39  C   UNL A   1      39.496  30.129  32.144  1.00  0.00     0.010 A 
ATOM     40  C   UNL A   1      38.495  31.084  30.145  1.00  0.00     0.010 A 
ATOM     41  C   UNL A   1      39.472  30.274  30.752  1.00  0.00    -0.014 A 
BRANCH  41  42
ATOM     42  C   UNL A   1      40.612  29.758  29.966  1.00  0.00     0.031 A 
ATOM     43  C   UNL A   1      41.790  30.666  29.747  1.00  0.00     0.074 A 
ATOM     44  C   UNL A   1      40.624  28.496  29.507  1.00  0.00     0.049 A 
ATOM     45  N   UNL A   1      42.887  30.455  29.068  1.00  0.00    -0.248 NA
ATOM     46  C   UNL A   1      41.721  31.993  30.382  1.00  0.00     0.031 C 
ATOM     47  C   UNL A   1      39.570  27.506  29.722  1.00  0.00     0.029 A 
ATOM     48  N   UNL A   1      41.566  27.835  28.762  1.00  0.00    -0.354 N 
ATOM     49  C   UNL A   1      43.629  31.624  29.182  1.00  0.00     0.074 A 
ATOM     50  C   UNL A   1      42.849  32.550  29.973  1.00  0.00     0.031 C 
ATOM     51  C   UNL A   1      39.921  26.361  29.110  1.00  0.00     0.029 A 
ATOM     52  C   UNL A   1      41.201  26.555  28.431  1.00  0.00     0.049 A 
ATOM     53  H   UNL A   1      42.421  28.240  28.490  1.00  0.00     0.167 HD
ATOM     54  C   UNL A   1      44.853  31.900  28.674  1.00  0.00     0.031 A 
ATOM     55  C   UNL A   1      41.821  25.655  27.643  1.00  0.00     0.031 A 
ATOM     56  C   UNL A   1      45.614  30.980  27.874  1.00  0.00     0.049 A 
ATOM     57  C   UNL A   1      43.136  26.021  27.008  1.00  0.00     0.074 A 
ATOM     58  C   UNL A   1      46.865  31.157  27.311  1.00  0.00     0.029 A 
ATOM     59  N   UNL A   1      45.187  29.710  27.515  1.00  0.00    -0.354 N 
ATOM     60  N   UNL A   1      43.837  27.125  27.128  1.00  0.00    -0.248 NA
ATOM     61  C   UNL A   1      43.750  25.015  26.130  1.00  0.00     0.031 C 
ATOM     62  C   UNL A   1      47.165  30.020  26.555  1.00  0.00     0.029 A 
ATOM     63  C   UNL A   1      46.136  29.104  26.710  1.00  0.00     0.049 A 
ATOM     64  H   UNL A   1      44.335  29.301  27.791  1.00  0.00     0.167 HD
ATOM     65  C   UNL A   1      44.986  26.931  26.371  1.00  0.00     0.074 A 
ATOM     66  C   UNL A   1      44.895  25.599  25.808  1.00  0.00     0.031 C 
ATOM     67  C   UNL A   1      46.025  27.777  26.161  1.00  0.00     0.031 A 
BRANCH  54  68
ATOM     68  C   UNL A   1      45.416  33.271  28.929  1.00  0.00    -0.014 A 
ATOM     69  C   UNL A   1      45.154  34.347  28.064  1.00  0.00     0.009 A 
ATOM     70  C   UNL A   1      46.206  33.495  30.068  1.00  0.00     0.009 A 
ATOM     71  C   UNL A   1      45.701  35.607  28.318  1.00  0.00     0.001 A 
ATOM     72  C   UNL A   1      46.724  34.763  30.336  1.00  0.00     0.001 A 
ATOM     73  C   UNL A   1      46.481  35.815  29.455  1.00  0.00     0.000 A 
ENDBRANCH  54  68
BRANCH  55  74
ATOM     74  C   UNL A   1      41.192  24.333  27.381  1.00  0.00    -0.014 A 
ATOM     75  C   UNL A   1      39.929  24.245  26.775  1.00  0.00     0.009 A 
ATOM     76  C   UNL A   1      41.845  23.148  27.758  1.00  0.00     0.009 A 
ATOM     77  C   UNL A   1      39.324  23.001  26.577  1.00  0.00     0.001 A 
ATOM     78  C   UNL A   1      41.252  21.905  27.529  1.00  0.00     0.001 A 
ATOM     79  C   UNL A   1      39.986  21.833  26.950  1.00  0.00     0.000 A 
ENDBRANCH  55  74
BRANCH  67  80
ATOM     80  C   UNL A   1      47.170  27.271  25.324  1.00  0.00    -0.014 A 
ATOM     81  C   UNL A   1      47.321  27.648  23.981  1.00  0.00     0.009 A 
ATOM     82  C   UNL A   1      48.138  26.438  25.909  1.00  0.00     0.009 A 
ATOM     83  C   UNL A   1      48.398  27.170  23.231  1.00  0.00     0.001 A 
ATOM     84  C   UNL A   1      49.231  25.991  25.168  1.00  0.00     0.001 A 
ATOM     85  C   UNL A   1      49.355  26.348  23.826  1.00  0.00     0.000 A 
ENDBRANCH  67  80
ENDBRANCH  41  42
ENDBRANCH  34  36
ENDBRANCH  33  34
ENDBRANCH  32  33
ENDBRANCH  31  32
ENDBRANCH  30  31
ENDBRANCH  29  30
ENDBRANCH   1  29
TORSDOF 22
ENDMDL
MODEL 3
REMARK VINA RESULT:      -9.1      4.336      6.727
REMARK SMILES C[NH2+][C@@]1(C(=O)OCCOCCOCCOCCOC(=O)c2ccc(-c3c4nc(c(-c5ccccc5)c5ccc([nH]5)c(-c5ccccc5)c5nc(c(-c6ccccc6)c6ccc3[nH]6)C=C5)C=C4)cc2)CC[C@H]([NH+]2CC[NH+](C)CC2)C1
REMARK SMILES IDX 13 1 12 2 11 3 10 4 9 5 8 6 7 7 6 8 4 9 5 10 3 11 69 12
REMARK SMILES IDX 79 13 70 14 71 15 2 16 1 17 72 20 73 21 78 22 74 24 77 25
REMARK SMILES IDX 75 26 76 27 14 29 15 30 16 31 17 32 18 33 19 34 20 35 21 36
REMARK SMILES IDX 22 37 68 38 23 39 67 40 24 41 25 42 26 43 61 44 27 45 66 46
REMARK SMILES IDX 60 47 62 48 28 49 65 50 59 51 58 52 29 54 51 55 36 56 50 57
REMARK SMILES IDX 37 58 40 59 49 60 63 61 38 62 39 63 48 65 64 66 41 67 30 68
REMARK SMILES IDX 31 69 35 70 32 71 34 72 33 73 52 74 53 75 57 76 54 77 56 78
REMARK SMILES IDX 55 79 42 80 43 81 47 82 44 83 46 84 45 85
REMARK H PARENT 2 18 2 19 72 23 75 28 62 53 40 64
REMARK Flexibility Score: inf
ROOT
ATOM      1  C   UNL A   1      35.917  32.674  28.042  1.00  0.00     0.188 C 
ENDROOT
BRANCH   1   2
ATOM      2  O   UNL A   1      34.811  31.912  27.629  1.00  0.00    -0.377 OA
BRANCH   2   3
ATOM      3  C   UNL A   1      34.936  30.509  27.643  1.00  0.00     0.188 C 
BRANCH   3   4
ATOM      4  C   UNL A   1      33.920  29.554  27.016  1.00  0.00     0.188 C 
BRANCH   4   5
ATOM      5  O   UNL A   1      34.277  28.201  26.827  1.00  0.00    -0.376 OA
BRANCH   5   6
ATOM      6  C   UNL A   1      33.540  27.289  26.031  1.00  0.00     0.202 C 
BRANCH   6   7
ATOM      7  C   UNL A   1      34.129  26.014  25.410  1.00  0.00     0.261 C 
BRANCH   7   8
ATOM      8  O   UNL A   1      33.195  24.943  25.164  1.00  0.00    -0.459 OA
BRANCH   8   9
ATOM      9  C   UNL A   1      33.435  24.189  24.060  1.00  0.00     0.368 C 
ATOM     10  O   UNL A   1      34.342  23.356  24.015  1.00  0.00    -0.245 OA
BRANCH   9  11
ATOM     11  C   UNL A   1      32.449  24.369  22.842  1.00  0.00     0.200 C 
ATOM     12  C   UNL A   1      33.267  24.998  21.694  1.00  0.00     0.087 C 
ATOM     13  C   UNL A   1      31.223  25.308  22.854  1.00  0.00     0.146 C 
ATOM     14  C   UNL A   1      33.091  26.505  21.844  1.00  0.00     0.072 C 
ATOM     15  C   UNL A   1      31.682  26.716  22.411  1.00  0.00     0.191 C 
BRANCH  11  16
ATOM     16  N   UNL A   1      32.084  22.992  22.375  1.00  0.00    -0.334 N 
ATOM     17  C   UNL A   1      31.686  22.065  23.422  1.00  0.00     0.331 C 
ATOM     18  H   UNL A   1      31.308  23.078  21.718  1.00  0.00     0.347 HD
ATOM     19  H   UNL A   1      32.930  22.603  21.960  1.00  0.00     0.347 HD
ENDBRANCH  11  16
BRANCH  15  20
ATOM     20  N   UNL A   1      31.413  27.818  23.348  1.00  0.00    -0.323 N 
ATOM     21  C   UNL A   1      30.133  27.731  24.073  1.00  0.00     0.324 C 
ATOM     22  C   UNL A   1      31.567  29.194  22.871  1.00  0.00     0.324 C 
ATOM     23  H   UNL A   1      32.193  27.640  23.982  1.00  0.00     0.348 HD
ATOM     24  C   UNL A   1      28.897  28.277  23.312  1.00  0.00     0.324 C 
ATOM     25  C   UNL A   1      30.404  29.708  22.005  1.00  0.00     0.324 C 
ATOM     26  N   UNL A   1      29.085  29.582  22.643  1.00  0.00    -0.328 N 
ATOM     27  C   UNL A   1      28.030  29.802  21.652  1.00  0.00     0.333 C 
ATOM     28  H   UNL A   1      29.031  30.294  23.370  1.00  0.00     0.348 HD
ENDBRANCH  15  20
ENDBRANCH   9  11
ENDBRANCH   8   9
ENDBRANCH   7   8
ENDBRANCH   6   7
ENDBRANCH   5   6
ENDBRANCH   4   5
ENDBRANCH   3   4
ENDBRANCH   2   3
ENDBRANCH   1   2
BRANCH   1  29
ATOM     29  C   UNL A   1      35.538  33.844  28.960  1.00  0.00     0.188 C 
BRANCH  29  30
ATOM     30  O   UNL A   1      34.676  34.891  28.525  1.00  0.00    -0.376 OA
BRANCH  30  31
ATOM     31  C   UNL A   1      33.346  35.012  28.997  1.00  0.00     0.202 C 
BRANCH  31  32
ATOM     32  C   UNL A   1      32.872  36.304  29.687  1.00  0.00     0.261 C 
BRANCH  32  33
ATOM     33  O   UNL A   1      33.321  36.530  31.027  1.00  0.00    -0.460 OA
BRANCH  33  34
ATOM     34  C   UNL A   1      32.878  35.645  31.942  1.00  0.00     0.338 C 
ATOM     35  O   UNL A   1      31.718  35.329  32.177  1.00  0.00    -0.246 OA
BRANCH  34  36
ATOM     36  C   UNL A   1      34.034  34.985  32.574  1.00  0.00     0.060 A 
ATOM     37  C   UNL A   1      35.290  35.598  32.483  1.00  0.00     0.016 A 
ATOM     38  C   UNL A   1      33.894  33.740  33.190  1.00  0.00     0.016 A 
ATOM     39  C   UNL A   1      36.419  34.958  32.981  1.00  0.00     0.010 A 
ATOM     40  C   UNL A   1      35.033  33.079  33.657  1.00  0.00     0.010 A 
ATOM     41  C   UNL A   1      36.302  33.671  33.516  1.00  0.00    -0.014 A 
BRANCH  41  42
ATOM     42  C   UNL A   1      37.528  32.868  33.707  1.00  0.00     0.031 A 
ATOM     43  C   UNL A   1      38.319  33.071  34.970  1.00  0.00     0.074 A 
ATOM     44  C   UNL A   1      37.898  31.941  32.809  1.00  0.00     0.049 A 
ATOM     45  N   UNL A   1      39.439  32.514  35.348  1.00  0.00    -0.248 NA
ATOM     46  C   UNL A   1      37.768  34.036  35.938  1.00  0.00     0.031 C 
ATOM     47  C   UNL A   1      37.169  31.607  31.586  1.00  0.00     0.029 A 
ATOM     48  N   UNL A   1      38.987  31.109  32.794  1.00  0.00    -0.354 N 
ATOM     49  C   UNL A   1      39.734  33.069  36.587  1.00  0.00     0.074 A 
ATOM     50  C   UNL A   1      38.691  34.025  36.886  1.00  0.00     0.031 C 
ATOM     51  C   UNL A   1      37.840  30.643  30.931  1.00  0.00     0.029 A 
ATOM     52  C   UNL A   1      39.061  30.326  31.669  1.00  0.00     0.049 A 
ATOM     53  H   UNL A   1      39.651  31.077  33.519  1.00  0.00     0.167 HD
ATOM     54  C   UNL A   1      40.781  32.803  37.403  1.00  0.00     0.031 A 
ATOM     55  C   UNL A   1      40.024  29.472  31.273  1.00  0.00     0.031 A 
ATOM     56  C   UNL A   1      41.823  31.864  37.090  1.00  0.00     0.049 A 
ATOM     57  C   UNL A   1      41.229  29.267  32.152  1.00  0.00     0.074 A 
ATOM     58  C   UNL A   1      42.928  31.518  37.845  1.00  0.00     0.029 A 
ATOM     59  N   UNL A   1      41.891  31.128  35.916  1.00  0.00    -0.354 N 
ATOM     60  N   UNL A   1      41.497  29.787  33.327  1.00  0.00    -0.248 NA
ATOM     61  C   UNL A   1      42.265  28.351  31.653  1.00  0.00     0.031 C 
ATOM     62  C   UNL A   1      43.701  30.623  37.100  1.00  0.00     0.029 A 
ATOM     63  C   UNL A   1      43.038  30.354  35.912  1.00  0.00     0.049 A 
ATOM     64  H   UNL A   1      41.224  31.154  35.192  1.00  0.00     0.167 HD
ATOM     65  C   UNL A   1      42.711  29.237  33.720  1.00  0.00     0.074 A 
ATOM     66  C   UNL A   1      43.120  28.332  32.665  1.00  0.00     0.031 C 
ATOM     67  C   UNL A   1      43.425  29.458  34.852  1.00  0.00     0.031 A 
BRANCH  54  68
ATOM     68  C   UNL A   1      40.872  33.580  38.687  1.00  0.00    -0.014 A 
ATOM     69  C   UNL A   1      41.552  34.808  38.759  1.00  0.00     0.009 A 
ATOM     70  C   UNL A   1      40.247  33.084  39.842  1.00  0.00     0.009 A 
ATOM     71  C   UNL A   1      41.632  35.501  39.969  1.00  0.00     0.001 A 
ATOM     72  C   UNL A   1      40.302  33.796  41.042  1.00  0.00     0.001 A 
ATOM     73  C   UNL A   1      41.003  34.998  41.108  1.00  0.00     0.000 A 
ENDBRANCH  54  68
BRANCH  55  74
ATOM     74  C   UNL A   1      39.909  28.771  29.966  1.00  0.00    -0.014 A 
ATOM     75  C   UNL A   1      40.282  29.409  28.773  1.00  0.00     0.009 A 
ATOM     76  C   UNL A   1      39.402  27.462  29.904  1.00  0.00     0.009 A 
ATOM     77  C   UNL A   1      40.123  28.761  27.544  1.00  0.00     0.001 A 
ATOM     78  C   UNL A   1      39.275  26.806  28.678  1.00  0.00     0.001 A 
ATOM     79  C   UNL A   1      39.625  27.460  27.497  1.00  0.00     0.000 A 
ENDBRANCH  55  74
BRANCH  67  80
ATOM     80  C   UNL A   1      44.697  28.674  35.031  1.00  0.00    -0.014 A 
ATOM     81  C   UNL A   1      45.936  29.173  34.597  1.00  0.00     0.009 A 
ATOM     82  C   UNL A   1      44.657  27.434  35.688  1.00  0.00     0.009 A 
ATOM     83  C   UNL A   1      47.101  28.427  34.784  1.00  0.00     0.001 A 
ATOM     84  C   UNL A   1      45.828  26.707  35.906  1.00  0.00     0.001 A 
ATOM     85  C   UNL A   1      47.048  27.199  35.444  1.00  0.00     0.000 A 
ENDBRANCH  67  80
ENDBRANCH  41  42
ENDBRANCH  34  36
ENDBRANCH  33  34
ENDBRANCH  32  33
ENDBRANCH  31  32
ENDBRANCH  30  31
ENDBRANCH  29  30
ENDBRANCH   1  29
TORSDOF 22
ENDMDL
