MODEL 1
REMARK VINA RESULT:      -7.3      0.000      0.000
REMARK SMILES CC[C@H]1CC[C@](C(=O)OCCOCCOCCOCCOC(=O)c2ccc(-c3c4nc(c(-c5ccccc5)c5ccc([nH]5)c(-c5ccccc5)c5nc(c(-c6ccccc6)c6ccc3[nH]6)C=C5)C=C4)cc2)([C@H]2CCC[C@@H](S(C)(=O)=O)C2)CC1
REMARK SMILES IDX 15 1 14 2 13 3 12 4 11 5 10 6 9 7 7 8 8 9 6 10 3 11 83 12
REMARK SMILES IDX 4 13 82 14 5 15 2 16 1 17 72 18 73 19 81 20 74 21 76 22
REMARK SMILES IDX 75 23 77 24 78 25 79 26 80 27 16 28 17 29 18 30 19 31 20 32
REMARK SMILES IDX 21 33 22 34 23 35 24 36 25 37 71 38 26 39 70 40 27 41 28 42
REMARK SMILES IDX 29 43 64 44 30 45 69 46 63 47 65 48 31 49 68 50 62 51 61 52
REMARK SMILES IDX 32 54 54 55 39 56 53 57 40 58 43 59 52 60 66 61 41 62 42 63
REMARK SMILES IDX 51 65 67 66 44 67 33 68 34 69 38 70 35 71 37 72 36 73 55 74
REMARK SMILES IDX 56 75 60 76 57 77 59 78 58 79 45 80 46 81 50 82 47 83 49 84
REMARK SMILES IDX 48 85
REMARK H PARENT 65 53 43 64
REMARK Flexibility Score: inf
ROOT
ATOM      1  O   UNL A   1      45.991  20.285  24.797  1.00  0.00    -0.377 OA
ENDROOT
BRANCH   1   2
ATOM      2  C   UNL A   1      45.818  21.606  25.266  1.00  0.00     0.188 C 
BRANCH   2   3
ATOM      3  C   UNL A   1      46.125  22.757  24.286  1.00  0.00     0.188 C 
BRANCH   3   4
ATOM      4  O   UNL A   1      45.699  24.111  24.498  1.00  0.00    -0.376 OA
BRANCH   4   5
ATOM      5  C   UNL A   1      46.512  25.062  25.191  1.00  0.00     0.202 C 
BRANCH   5   6
ATOM      6  C   UNL A   1      45.992  25.590  26.560  1.00  0.00     0.261 C 
BRANCH   6   7
ATOM      7  O   UNL A   1      46.768  26.694  27.115  1.00  0.00    -0.463 OA
BRANCH   7   8
ATOM      8  C   UNL A   1      47.645  26.345  28.116  1.00  0.00     0.312 C 
ATOM      9  O   UNL A   1      47.698  25.203  28.568  1.00  0.00    -0.252 OA
BRANCH   8  10
ATOM     10  C   UNL A   1      48.486  27.534  28.721  1.00  0.00     0.071 C 
ATOM     11  C   UNL A   1      47.476  26.788  31.528  1.00  0.00    -0.011 C 
ATOM     12  C   UNL A   1      48.601  26.015  30.812  1.00  0.00     0.005 C 
ATOM     13  C   UNL A   1      46.779  27.860  30.685  1.00  0.00     0.005 C 
ATOM     14  C   UNL A   1      49.401  26.831  29.772  1.00  0.00     0.019 C 
ATOM     15  C   UNL A   1      47.609  28.502  29.578  1.00  0.00     0.019 C 
BRANCH  11  16
ATOM     16  C   UNL A   1      46.466  25.819  32.210  1.00  0.00    -0.000 C 
ATOM     17  C   UNL A   1      46.992  25.000  33.390  1.00  0.00     0.004 C 
ENDBRANCH  11  16
BRANCH  10  18
ATOM     18  C   UNL A   1      49.396  28.485  27.695  1.00  0.00     0.008 C 
ATOM     19  C   UNL A   1      50.726  29.195  28.136  1.00  0.00     0.005 C 
ATOM     20  C   UNL A   1      49.517  28.033  26.221  1.00  0.00     0.024 C 
ATOM     21  C   UNL A   1      52.021  29.129  27.245  1.00  0.00     0.002 C 
ATOM     22  C   UNL A   1      50.892  27.437  25.833  1.00  0.00     0.108 C 
ATOM     23  C   UNL A   1      51.929  28.510  25.855  1.00  0.00     0.020 C 
BRANCH  22  24
ATOM     24  S   UNL A   1      51.318  26.091  26.908  1.00  0.00     0.150 S 
ATOM     25  C   UNL A   1      52.665  25.147  26.283  1.00  0.00     0.158 C 
ATOM     26  O   UNL A   1      51.684  26.521  28.223  1.00  0.00    -0.229 OA
ATOM     27  O   UNL A   1      50.128  25.303  26.713  1.00  0.00    -0.229 OA
ENDBRANCH  22  24
ENDBRANCH  10  18
ENDBRANCH   8  10
ENDBRANCH   7   8
ENDBRANCH   6   7
ENDBRANCH   5   6
ENDBRANCH   4   5
ENDBRANCH   3   4
ENDBRANCH   2   3
ENDBRANCH   1   2
BRANCH   1  28
ATOM     28  C   UNL A   1      44.854  19.577  24.338  1.00  0.00     0.188 C 
BRANCH  28  29
ATOM     29  C   UNL A   1      43.942  18.881  25.357  1.00  0.00     0.188 C 
BRANCH  29  30
ATOM     30  O   UNL A   1      42.643  19.437  25.441  1.00  0.00    -0.376 OA
BRANCH  30  31
ATOM     31  C   UNL A   1      42.449  20.431  26.443  1.00  0.00     0.202 C 
BRANCH  31  32
ATOM     32  C   UNL A   1      41.531  21.609  26.074  1.00  0.00     0.261 C 
BRANCH  32  33
ATOM     33  O   UNL A   1      41.697  22.843  26.807  1.00  0.00    -0.460 OA
BRANCH  33  34
ATOM     34  C   UNL A   1      42.102  23.968  26.178  1.00  0.00     0.338 C 
ATOM     35  O   UNL A   1      42.564  24.060  25.056  1.00  0.00    -0.246 OA
BRANCH  34  36
ATOM     36  C   UNL A   1      41.605  25.124  26.972  1.00  0.00     0.060 A 
ATOM     37  C   UNL A   1      42.078  26.407  26.650  1.00  0.00     0.016 A 
ATOM     38  C   UNL A   1      40.636  24.965  27.969  1.00  0.00     0.016 A 
ATOM     39  C   UNL A   1      41.627  27.522  27.352  1.00  0.00     0.010 A 
ATOM     40  C   UNL A   1      40.228  26.075  28.716  1.00  0.00     0.010 A 
ATOM     41  C   UNL A   1      40.772  27.343  28.445  1.00  0.00    -0.014 A 
BRANCH  41  42
ATOM     42  C   UNL A   1      40.812  28.380  29.502  1.00  0.00     0.031 A 
ATOM     43  C   UNL A   1      39.718  29.419  29.459  1.00  0.00     0.074 A 
ATOM     44  C   UNL A   1      41.699  28.359  30.508  1.00  0.00     0.049 A 
ATOM     45  N   UNL A   1      39.459  30.395  30.288  1.00  0.00    -0.248 NA
ATOM     46  C   UNL A   1      38.775  29.327  28.327  1.00  0.00     0.031 C 
ATOM     47  C   UNL A   1      42.754  27.366  30.697  1.00  0.00     0.029 A 
ATOM     48  N   UNL A   1      41.837  29.209  31.578  1.00  0.00    -0.354 N 
ATOM     49  C   UNL A   1      38.324  31.020  29.782  1.00  0.00     0.074 A 
ATOM     50  C   UNL A   1      37.957  30.337  28.565  1.00  0.00     0.031 C 
ATOM     51  C   UNL A   1      43.438  27.667  31.818  1.00  0.00     0.029 A 
ATOM     52  C   UNL A   1      42.881  28.884  32.408  1.00  0.00     0.049 A 
ATOM     53  H   UNL A   1      41.243  29.978  31.734  1.00  0.00     0.167 HD
ATOM     54  C   UNL A   1      37.640  32.073  30.283  1.00  0.00     0.031 A 
ATOM     55  C   UNL A   1      43.335  29.515  33.508  1.00  0.00     0.031 A 
ATOM     56  C   UNL A   1      38.030  32.780  31.468  1.00  0.00     0.049 A 
ATOM     57  C   UNL A   1      42.620  30.751  33.993  1.00  0.00     0.074 A 
ATOM     58  C   UNL A   1      37.428  33.878  32.053  1.00  0.00     0.029 A 
ATOM     59  N   UNL A   1      39.136  32.462  32.239  1.00  0.00    -0.354 N 
ATOM     60  N   UNL A   1      41.542  31.326  33.515  1.00  0.00    -0.248 NA
ATOM     61  C   UNL A   1      43.180  31.418  35.178  1.00  0.00     0.031 C 
ATOM     62  C   UNL A   1      38.207  34.261  33.151  1.00  0.00     0.029 A 
ATOM     63  C   UNL A   1      39.253  33.360  33.283  1.00  0.00     0.049 A 
ATOM     64  H   UNL A   1      39.747  31.709  32.069  1.00  0.00     0.167 HD
ATOM     65  C   UNL A   1      41.280  32.404  34.354  1.00  0.00     0.074 A 
ATOM     66  C   UNL A   1      42.303  32.389  35.380  1.00  0.00     0.031 C 
ATOM     67  C   UNL A   1      40.285  33.323  34.288  1.00  0.00     0.031 A 
BRANCH  54  68
ATOM     68  C   UNL A   1      36.447  32.545  29.504  1.00  0.00    -0.014 A 
ATOM     69  C   UNL A   1      36.571  33.486  28.470  1.00  0.00     0.009 A 
ATOM     70  C   UNL A   1      35.173  32.053  29.825  1.00  0.00     0.009 A 
ATOM     71  C   UNL A   1      35.440  33.949  27.795  1.00  0.00     0.001 A 
ATOM     72  C   UNL A   1      34.047  32.496  29.130  1.00  0.00     0.001 A 
ATOM     73  C   UNL A   1      34.180  33.451  28.123  1.00  0.00     0.000 A 
ENDBRANCH  54  68
BRANCH  55  74
ATOM     74  C   UNL A   1      44.543  29.011  34.218  1.00  0.00    -0.014 A 
ATOM     75  C   UNL A   1      45.821  29.505  33.915  1.00  0.00     0.009 A 
ATOM     76  C   UNL A   1      44.423  28.002  35.188  1.00  0.00     0.009 A 
ATOM     77  C   UNL A   1      46.953  28.983  34.548  1.00  0.00     0.001 A 
ATOM     78  C   UNL A   1      45.551  27.502  35.841  1.00  0.00     0.001 A 
ATOM     79  C   UNL A   1      46.817  27.986  35.514  1.00  0.00     0.000 A 
ENDBRANCH  55  74
BRANCH  67  80
ATOM     80  C   UNL A   1      40.234  34.362  35.372  1.00  0.00    -0.014 A 
ATOM     81  C   UNL A   1      39.589  34.114  36.594  1.00  0.00     0.009 A 
ATOM     82  C   UNL A   1      40.882  35.592  35.181  1.00  0.00     0.009 A 
ATOM     83  C   UNL A   1      39.559  35.096  37.586  1.00  0.00     0.001 A 
ATOM     84  C   UNL A   1      40.880  36.558  36.186  1.00  0.00     0.001 A 
ATOM     85  C   UNL A   1      40.208  36.314  37.383  1.00  0.00     0.000 A 
ENDBRANCH  67  80
ENDBRANCH  41  42
ENDBRANCH  34  36
ENDBRANCH  33  34
ENDBRANCH  32  33
ENDBRANCH  31  32
ENDBRANCH  30  31
ENDBRANCH  29  30
ENDBRANCH  28  29
ENDBRANCH   1  28
TORSDOF 23
ENDMDL
MODEL 2
REMARK VINA RESULT:      -7.0      1.394      2.118
REMARK SMILES CC[C@H]1CC[C@](C(=O)OCCOCCOCCOCCOC(=O)c2ccc(-c3c4nc(c(-c5ccccc5)c5ccc([nH]5)c(-c5ccccc5)c5nc(c(-c6ccccc6)c6ccc3[nH]6)C=C5)C=C4)cc2)([C@H]2CCC[C@@H](S(C)(=O)=O)C2)CC1
REMARK SMILES IDX 15 1 14 2 13 3 12 4 11 5 10 6 9 7 7 8 8 9 6 10 3 11 83 12
REMARK SMILES IDX 4 13 82 14 5 15 2 16 1 17 72 18 73 19 81 20 74 21 76 22
REMARK SMILES IDX 75 23 77 24 78 25 79 26 80 27 16 28 17 29 18 30 19 31 20 32
REMARK SMILES IDX 21 33 22 34 23 35 24 36 25 37 71 38 26 39 70 40 27 41 28 42
REMARK SMILES IDX 29 43 64 44 30 45 69 46 63 47 65 48 31 49 68 50 62 51 61 52
REMARK SMILES IDX 32 54 54 55 39 56 53 57 40 58 43 59 52 60 66 61 41 62 42 63
REMARK SMILES IDX 51 65 67 66 44 67 33 68 34 69 38 70 35 71 37 72 36 73 55 74
REMARK SMILES IDX 56 75 60 76 57 77 59 78 58 79 45 80 46 81 50 82 47 83 49 84
REMARK SMILES IDX 48 85
REMARK H PARENT 65 53 43 64
REMARK Flexibility Score: inf
ROOT
ATOM      1  O   UNL A   1      44.356  21.317  24.592  1.00  0.00    -0.377 OA
ENDROOT
BRANCH   1   2
ATOM      2  C   UNL A   1      45.414  22.136  25.042  1.00  0.00     0.188 C 
BRANCH   2   3
ATOM      3  C   UNL A   1      45.426  23.607  24.577  1.00  0.00     0.188 C 
BRANCH   3   4
ATOM      4  O   UNL A   1      46.009  24.673  25.339  1.00  0.00    -0.376 OA
BRANCH   4   5
ATOM      5  C   UNL A   1      46.016  24.667  26.770  1.00  0.00     0.202 C 
BRANCH   5   6
ATOM      6  C   UNL A   1      45.503  25.946  27.495  1.00  0.00     0.261 C 
BRANCH   6   7
ATOM      7  O   UNL A   1      46.168  26.228  28.763  1.00  0.00    -0.463 OA
BRANCH   7   8
ATOM      8  C   UNL A   1      46.753  27.470  28.852  1.00  0.00     0.312 C 
ATOM      9  O   UNL A   1      46.450  28.389  28.093  1.00  0.00    -0.252 OA
BRANCH   8  10
ATOM     10  C   UNL A   1      47.918  27.594  29.907  1.00  0.00     0.071 C 
ATOM     11  C   UNL A   1      46.229  29.609  31.501  1.00  0.00    -0.011 C 
ATOM     12  C   UNL A   1      45.989  28.088  31.558  1.00  0.00     0.005 C 
ATOM     13  C   UNL A   1      47.266  30.071  30.471  1.00  0.00     0.005 C 
ATOM     14  C   UNL A   1      47.227  27.215  31.255  1.00  0.00     0.019 C 
ATOM     15  C   UNL A   1      48.367  29.074  30.121  1.00  0.00     0.019 C 
BRANCH  11  16
ATOM     16  C   UNL A   1      44.888  30.392  31.384  1.00  0.00    -0.000 C 
ATOM     17  C   UNL A   1      44.258  30.468  29.993  1.00  0.00     0.004 C 
ENDBRANCH  11  16
BRANCH  10  18
ATOM     18  C   UNL A   1      49.306  26.693  29.688  1.00  0.00     0.008 C 
ATOM     19  C   UNL A   1      49.325  25.313  28.939  1.00  0.00     0.005 C 
ATOM     20  C   UNL A   1      50.616  27.460  29.390  1.00  0.00     0.024 C 
ATOM     21  C   UNL A   1      50.407  24.994  27.843  1.00  0.00     0.002 C 
ATOM     22  C   UNL A   1      51.105  27.368  27.924  1.00  0.00     0.108 C 
ATOM     23  C   UNL A   1      51.554  25.975  27.631  1.00  0.00     0.020 C 
BRANCH  22  24
ATOM     24  S   UNL A   1      49.835  27.896  26.804  1.00  0.00     0.150 S 
ATOM     25  C   UNL A   1      50.470  28.243  25.199  1.00  0.00     0.158 C 
ATOM     26  O   UNL A   1      48.794  26.927  26.641  1.00  0.00    -0.229 OA
ATOM     27  O   UNL A   1      49.547  29.165  27.423  1.00  0.00    -0.229 OA
ENDBRANCH  22  24
ENDBRANCH  10  18
ENDBRANCH   8  10
ENDBRANCH   7   8
ENDBRANCH   6   7
ENDBRANCH   5   6
ENDBRANCH   4   5
ENDBRANCH   3   4
ENDBRANCH   2   3
ENDBRANCH   1   2
BRANCH   1  28
ATOM     28  C   UNL A   1      43.161  21.278  25.350  1.00  0.00     0.188 C 
BRANCH  28  29
ATOM     29  C   UNL A   1      42.736  19.961  26.012  1.00  0.00     0.188 C 
BRANCH  29  30
ATOM     30  O   UNL A   1      41.357  19.894  26.329  1.00  0.00    -0.376 OA
BRANCH  30  31
ATOM     31  C   UNL A   1      40.934  20.658  27.454  1.00  0.00     0.202 C 
BRANCH  31  32
ATOM     32  C   UNL A   1      40.328  22.041  27.158  1.00  0.00     0.261 C 
BRANCH  32  33
ATOM     33  O   UNL A   1      40.947  23.189  27.779  1.00  0.00    -0.460 OA
BRANCH  33  34
ATOM     34  C   UNL A   1      41.316  24.257  27.037  1.00  0.00     0.338 C 
ATOM     35  O   UNL A   1      41.672  24.259  25.874  1.00  0.00    -0.246 OA
BRANCH  34  36
ATOM     36  C   UNL A   1      40.924  25.478  27.791  1.00  0.00     0.060 A 
ATOM     37  C   UNL A   1      41.733  26.621  27.678  1.00  0.00     0.016 A 
ATOM     38  C   UNL A   1      39.742  25.529  28.539  1.00  0.00     0.016 A 
ATOM     39  C   UNL A   1      41.396  27.794  28.347  1.00  0.00     0.010 A 
ATOM     40  C   UNL A   1      39.434  26.687  29.262  1.00  0.00     0.010 A 
ATOM     41  C   UNL A   1      40.296  27.796  29.212  1.00  0.00    -0.014 A 
BRANCH  41  42
ATOM     42  C   UNL A   1      40.324  28.769  30.329  1.00  0.00     0.031 A 
ATOM     43  C   UNL A   1      39.308  29.883  30.269  1.00  0.00     0.074 A 
ATOM     44  C   UNL A   1      41.131  28.632  31.393  1.00  0.00     0.049 A 
ATOM     45  N   UNL A   1      39.052  30.829  31.133  1.00  0.00    -0.248 NA
ATOM     46  C   UNL A   1      38.449  29.919  29.070  1.00  0.00     0.031 C 
ATOM     47  C   UNL A   1      42.100  27.559  31.597  1.00  0.00     0.029 A 
ATOM     48  N   UNL A   1      41.243  29.411  32.517  1.00  0.00    -0.354 N 
ATOM     49  C   UNL A   1      38.003  31.559  30.585  1.00  0.00     0.074 A 
ATOM     50  C   UNL A   1      37.684  30.969  29.307  1.00  0.00     0.031 C 
ATOM     51  C   UNL A   1      42.716  27.751  32.780  1.00  0.00     0.029 A 
ATOM     52  C   UNL A   1      42.198  28.970  33.399  1.00  0.00     0.049 A 
ATOM     53  H   UNL A   1      40.691  30.211  32.676  1.00  0.00     0.167 HD
ATOM     54  C   UNL A   1      37.354  32.628  31.098  1.00  0.00     0.031 A 
ATOM     55  C   UNL A   1      42.609  29.507  34.565  1.00  0.00     0.031 A 
ATOM     56  C   UNL A   1      37.699  33.242  32.347  1.00  0.00     0.049 A 
ATOM     57  C   UNL A   1      41.943  30.762  35.069  1.00  0.00     0.074 A 
ATOM     58  C   UNL A   1      37.129  34.346  32.951  1.00  0.00     0.029 A 
ATOM     59  N   UNL A   1      38.721  32.806  33.175  1.00  0.00    -0.354 N 
ATOM     60  N   UNL A   1      40.944  31.437  34.550  1.00  0.00    -0.248 NA
ATOM     61  C   UNL A   1      42.455  31.323  36.328  1.00  0.00     0.031 C 
ATOM     62  C   UNL A   1      37.846  34.613  34.123  1.00  0.00     0.029 A 
ATOM     63  C   UNL A   1      38.818  33.635  34.276  1.00  0.00     0.049 A 
ATOM     64  H   UNL A   1      39.292  32.022  33.005  1.00  0.00     0.167 HD
ATOM     65  C   UNL A   1      40.691  32.484  35.430  1.00  0.00     0.074 A 
ATOM     66  C   UNL A   1      41.631  32.342  36.524  1.00  0.00     0.031 C 
ATOM     67  C   UNL A   1      39.767  33.472  35.347  1.00  0.00     0.031 A 
BRANCH  54  68
ATOM     68  C   UNL A   1      36.256  33.224  30.265  1.00  0.00    -0.014 A 
ATOM     69  C   UNL A   1      36.536  34.017  29.141  1.00  0.00     0.009 A 
ATOM     70  C   UNL A   1      34.918  33.003  30.624  1.00  0.00     0.009 A 
ATOM     71  C   UNL A   1      35.499  34.604  28.413  1.00  0.00     0.001 A 
ATOM     72  C   UNL A   1      33.882  33.567  29.878  1.00  0.00     0.001 A 
ATOM     73  C   UNL A   1      34.174  34.375  28.780  1.00  0.00     0.000 A 
ENDBRANCH  54  68
BRANCH  55  74
ATOM     74  C   UNL A   1      43.724  28.883  35.327  1.00  0.00    -0.014 A 
ATOM     75  C   UNL A   1      43.474  27.969  36.362  1.00  0.00     0.009 A 
ATOM     76  C   UNL A   1      45.056  29.228  35.040  1.00  0.00     0.009 A 
ATOM     77  C   UNL A   1      44.529  27.434  37.108  1.00  0.00     0.001 A 
ATOM     78  C   UNL A   1      46.110  28.670  35.767  1.00  0.00     0.001 A 
ATOM     79  C   UNL A   1      45.845  27.781  36.807  1.00  0.00     0.000 A 
ENDBRANCH  55  74
BRANCH  67  80
ATOM     80  C   UNL A   1      39.703  34.452  36.484  1.00  0.00    -0.014 A 
ATOM     81  C   UNL A   1      38.965  34.178  37.647  1.00  0.00     0.009 A 
ATOM     82  C   UNL A   1      40.431  35.649  36.406  1.00  0.00     0.009 A 
ATOM     83  C   UNL A   1      38.926  35.106  38.690  1.00  0.00     0.001 A 
ATOM     84  C   UNL A   1      40.417  36.559  37.463  1.00  0.00     0.001 A 
ATOM     85  C   UNL A   1      39.655  36.291  38.599  1.00  0.00     0.000 A 
ENDBRANCH  67  80
ENDBRANCH  41  42
ENDBRANCH  34  36
ENDBRANCH  33  34
ENDBRANCH  32  33
ENDBRANCH  31  32
ENDBRANCH  30  31
ENDBRANCH  29  30
ENDBRANCH  28  29
ENDBRANCH   1  28
TORSDOF 23
ENDMDL
MODEL 3
REMARK VINA RESULT:      -7.0      5.742     12.375
REMARK SMILES CC[C@H]1CC[C@](C(=O)OCCOCCOCCOCCOC(=O)c2ccc(-c3c4nc(c(-c5ccccc5)c5ccc([nH]5)c(-c5ccccc5)c5nc(c(-c6ccccc6)c6ccc3[nH]6)C=C5)C=C4)cc2)([C@H]2CCC[C@@H](S(C)(=O)=O)C2)CC1
REMARK SMILES IDX 15 1 14 2 13 3 12 4 11 5 10 6 9 7 7 8 8 9 6 10 3 11 83 12
REMARK SMILES IDX 4 13 82 14 5 15 2 16 1 17 72 18 73 19 81 20 74 21 76 22
REMARK SMILES IDX 75 23 77 24 78 25 79 26 80 27 16 28 17 29 18 30 19 31 20 32
REMARK SMILES IDX 21 33 22 34 23 35 24 36 25 37 71 38 26 39 70 40 27 41 28 42
REMARK SMILES IDX 29 43 64 44 30 45 69 46 63 47 65 48 31 49 68 50 62 51 61 52
REMARK SMILES IDX 32 54 54 55 39 56 53 57 40 58 43 59 52 60 66 61 41 62 42 63
REMARK SMILES IDX 51 65 67 66 44 67 33 68 34 69 38 70 35 71 37 72 36 73 55 74
REMARK SMILES IDX 56 75 60 76 57 77 59 78 58 79 45 80 46 81 50 82 47 83 49 84
REMARK SMILES IDX 48 85
REMARK H PARENT 65 53 43 64
REMARK Flexibility Score: inf
ROOT
ATOM      1  O   UNL A   1      45.619  30.091  41.903  1.00  0.00    -0.377 OA
ENDROOT
BRANCH   1   2
ATOM      2  C   UNL A   1      45.371  28.730  42.184  1.00  0.00     0.188 C 
BRANCH   2   3
ATOM      3  C   UNL A   1      45.184  27.775  40.987  1.00  0.00     0.188 C 
BRANCH   3   4
ATOM      4  O   UNL A   1      46.067  26.680  40.704  1.00  0.00    -0.376 OA
BRANCH   4   5
ATOM      5  C   UNL A   1      46.186  26.120  39.393  1.00  0.00     0.202 C 
BRANCH   5   6
ATOM      6  C   UNL A   1      46.806  24.697  39.274  1.00  0.00     0.261 C 
BRANCH   6   7
ATOM      7  O   UNL A   1      47.137  24.296  37.911  1.00  0.00    -0.463 OA
BRANCH   7   8
ATOM      8  C   UNL A   1      46.423  23.223  37.430  1.00  0.00     0.312 C 
ATOM      9  O   UNL A   1      45.252  23.023  37.747  1.00  0.00    -0.252 OA
BRANCH   8  10
ATOM     10  C   UNL A   1      47.244  22.207  36.545  1.00  0.00     0.071 C 
ATOM     11  C   UNL A   1      45.330  22.740  34.198  1.00  0.00    -0.011 C 
ATOM     12  C   UNL A   1      46.460  23.711  34.592  1.00  0.00     0.005 C 
ATOM     13  C   UNL A   1      45.118  21.560  35.153  1.00  0.00     0.005 C 
ATOM     14  C   UNL A   1      47.665  23.063  35.309  1.00  0.00     0.019 C 
ATOM     15  C   UNL A   1      46.340  21.090  35.935  1.00  0.00     0.019 C 
BRANCH  11  16
ATOM     16  C   UNL A   1      44.007  23.501  33.892  1.00  0.00    -0.000 C 
ATOM     17  C   UNL A   1      43.015  23.643  35.047  1.00  0.00     0.004 C 
ENDBRANCH  11  16
BRANCH  10  18
ATOM     18  C   UNL A   1      48.573  21.448  37.210  1.00  0.00     0.008 C 
ATOM     19  C   UNL A   1      49.404  22.054  38.397  1.00  0.00     0.005 C 
ATOM     20  C   UNL A   1      48.520  19.909  37.352  1.00  0.00     0.024 C 
ATOM     21  C   UNL A   1      49.810  21.180  39.640  1.00  0.00     0.002 C 
ATOM     22  C   UNL A   1      48.317  19.394  38.797  1.00  0.00     0.108 C 
ATOM     23  C   UNL A   1      49.536  19.680  39.608  1.00  0.00     0.020 C 
BRANCH  22  24
ATOM     24  S   UNL A   1      46.864  20.111  39.520  1.00  0.00     0.150 S 
ATOM     25  C   UNL A   1      46.293  19.190  40.908  1.00  0.00     0.158 C 
ATOM     26  O   UNL A   1      47.068  21.455  39.967  1.00  0.00    -0.229 OA
ATOM     27  O   UNL A   1      45.955  19.842  38.436  1.00  0.00    -0.229 OA
ENDBRANCH  22  24
ENDBRANCH  10  18
ENDBRANCH   8  10
ENDBRANCH   7   8
ENDBRANCH   6   7
ENDBRANCH   5   6
ENDBRANCH   4   5
ENDBRANCH   3   4
ENDBRANCH   2   3
ENDBRANCH   1   2
BRANCH   1  28
ATOM     28  C   UNL A   1      44.807  31.070  42.525  1.00  0.00     0.188 C 
BRANCH  28  29
ATOM     29  C   UNL A   1      43.287  30.863  42.573  1.00  0.00     0.188 C 
BRANCH  29  30
ATOM     30  O   UNL A   1      42.607  31.319  41.418  1.00  0.00    -0.376 OA
BRANCH  30  31
ATOM     31  C   UNL A   1      42.104  32.650  41.470  1.00  0.00     0.202 C 
BRANCH  31  32
ATOM     32  C   UNL A   1      40.669  32.863  40.957  1.00  0.00     0.261 C 
BRANCH  32  33
ATOM     33  O   UNL A   1      40.310  34.187  40.503  1.00  0.00    -0.460 OA
BRANCH  33  34
ATOM     34  C   UNL A   1      39.034  34.479  40.171  1.00  0.00     0.338 C 
ATOM     35  O   UNL A   1      38.230  35.119  40.823  1.00  0.00    -0.246 OA
BRANCH  34  36
ATOM     36  C   UNL A   1      38.861  34.144  38.732  1.00  0.00     0.060 A 
ATOM     37  C   UNL A   1      38.058  33.043  38.394  1.00  0.00     0.016 A 
ATOM     38  C   UNL A   1      39.417  34.940  37.724  1.00  0.00     0.016 A 
ATOM     39  C   UNL A   1      37.850  32.704  37.060  1.00  0.00     0.010 A 
ATOM     40  C   UNL A   1      39.261  34.565  36.385  1.00  0.00     0.010 A 
ATOM     41  C   UNL A   1      38.527  33.411  36.060  1.00  0.00    -0.014 A 
BRANCH  41  42
ATOM     42  C   UNL A   1      38.792  32.690  34.793  1.00  0.00     0.031 A 
ATOM     43  C   UNL A   1      39.948  31.720  34.807  1.00  0.00     0.074 A 
ATOM     44  C   UNL A   1      38.003  32.802  33.713  1.00  0.00     0.049 A 
ATOM     45  N   UNL A   1      40.367  30.904  33.876  1.00  0.00    -0.248 NA
ATOM     46  C   UNL A   1      40.728  31.652  36.058  1.00  0.00     0.031 C 
ATOM     47  C   UNL A   1      36.818  33.649  33.605  1.00  0.00     0.029 A 
ATOM     48  N   UNL A   1      38.085  32.175  32.495  1.00  0.00    -0.354 N 
ATOM     49  C   UNL A   1      41.445  30.226  34.434  1.00  0.00     0.074 A 
ATOM     50  C   UNL A   1      41.637  30.739  35.770  1.00  0.00     0.031 C 
ATOM     51  C   UNL A   1      36.283  33.492  32.379  1.00  0.00     0.029 A 
ATOM     52  C   UNL A   1      37.102  32.553  31.615  1.00  0.00     0.049 A 
ATOM     53  H   UNL A   1      38.783  31.516  32.274  1.00  0.00     0.167 HD
ATOM     54  C   UNL A   1      42.213  29.258  33.888  1.00  0.00     0.031 A 
ATOM     55  C   UNL A   1      36.905  32.185  30.333  1.00  0.00     0.031 A 
ATOM     56  C   UNL A   1      42.052  28.780  32.546  1.00  0.00     0.049 A 
ATOM     57  C   UNL A   1      37.838  31.180  29.707  1.00  0.00     0.074 A 
ATOM     58  C   UNL A   1      42.789  27.821  31.877  1.00  0.00     0.029 A 
ATOM     59  N   UNL A   1      41.088  29.241  31.663  1.00  0.00    -0.354 N 
ATOM     60  N   UNL A   1      38.847  30.536  30.247  1.00  0.00    -0.248 NA
ATOM     61  C   UNL A   1      37.597  30.842  28.296  1.00  0.00     0.031 C 
ATOM     62  C   UNL A   1      42.306  27.744  30.566  1.00  0.00     0.029 A 
ATOM     63  C   UNL A   1      41.227  28.606  30.443  1.00  0.00     0.049 A 
ATOM     64  H   UNL A   1      40.406  29.919  31.874  1.00  0.00     0.167 HD
ATOM     65  C   UNL A   1      39.342  29.700  29.252  1.00  0.00     0.074 A 
ATOM     66  C   UNL A   1      38.511  29.907  28.083  1.00  0.00     0.031 C 
ATOM     67  C   UNL A   1      40.387  28.836  29.296  1.00  0.00     0.031 A 
BRANCH  54  68
ATOM     68  C   UNL A   1      43.329  28.713  34.732  1.00  0.00    -0.014 A 
ATOM     69  C   UNL A   1      43.351  27.370  35.139  1.00  0.00     0.009 A 
ATOM     70  C   UNL A   1      44.364  29.565  35.144  1.00  0.00     0.009 A 
ATOM     71  C   UNL A   1      44.372  26.899  35.969  1.00  0.00     0.001 A 
ATOM     72  C   UNL A   1      45.398  29.086  35.949  1.00  0.00     0.001 A 
ATOM     73  C   UNL A   1      45.395  27.757  36.369  1.00  0.00     0.000 A 
ENDBRANCH  54  68
BRANCH  55  74
ATOM     74  C   UNL A   1      35.798  32.786  29.541  1.00  0.00    -0.014 A 
ATOM     75  C   UNL A   1      34.570  32.124  29.391  1.00  0.00     0.009 A 
ATOM     76  C   UNL A   1      35.979  34.023  28.900  1.00  0.00     0.009 A 
ATOM     77  C   UNL A   1      33.558  32.674  28.598  1.00  0.00     0.001 A 
ATOM     78  C   UNL A   1      34.957  34.585  28.131  1.00  0.00     0.001 A 
ATOM     79  C   UNL A   1      33.751  33.905  27.972  1.00  0.00     0.000 A 
ENDBRANCH  55  74
BRANCH  67  80
ATOM     80  C   UNL A   1      40.665  28.027  28.061  1.00  0.00    -0.014 A 
ATOM     81  C   UNL A   1      41.547  28.484  27.070  1.00  0.00     0.009 A 
ATOM     82  C   UNL A   1      40.065  26.767  27.911  1.00  0.00     0.009 A 
ATOM     83  C   UNL A   1      41.791  27.710  25.933  1.00  0.00     0.001 A 
ATOM     84  C   UNL A   1      40.336  25.982  26.790  1.00  0.00     0.001 A 
ATOM     85  C   UNL A   1      41.189  26.460  25.797  1.00  0.00     0.000 A 
ENDBRANCH  67  80
ENDBRANCH  41  42
ENDBRANCH  34  36
ENDBRANCH  33  34
ENDBRANCH  32  33
ENDBRANCH  31  32
ENDBRANCH  30  31
ENDBRANCH  29  30
ENDBRANCH  28  29
ENDBRANCH   1  28
TORSDOF 23
ENDMDL
