MODEL 1
REMARK VINA RESULT:      -8.5      0.000      0.000
REMARK SMILES CO[C@@H]1C[NH2+][C@@H](O[C@@H]2C[C@@H](C(=O)OCCOCCOCCOCCOC(=O)c3ccc(-c4c5nc(c(-c6ccccc6)c6ccc([nH]6)c(-c6ccccc6)c6nc(c(-c7ccccc7)c7ccc4[nH]7)C=C6)C=C5)cc3)N(C(=O)OC(C)(C)C)C2)c2cc(Cl)ccc21
REMARK SMILES IDX 18 1 17 2 16 3 15 4 14 5 13 6 11 7 12 8 10 9 8 10 9 11 84 12
REMARK SMILES IDX 76 13 7 14 6 15 3 16 4 17 91 18 5 19 85 20 90 21 86 24 89 25
REMARK SMILES IDX 87 26 88 27 2 28 1 29 77 30 78 31 79 32 80 33 81 34 82 35
REMARK SMILES IDX 83 36 19 37 20 38 21 39 22 40 23 41 24 42 25 43 26 44 27 45
REMARK SMILES IDX 28 46 29 47 75 48 30 49 74 50 31 51 32 52 33 53 68 54 34 55
REMARK SMILES IDX 73 56 67 57 69 58 35 59 72 60 66 61 65 62 36 64 58 65 43 66
REMARK SMILES IDX 57 67 44 68 47 69 56 70 70 71 45 72 46 73 55 75 71 76 48 77
REMARK SMILES IDX 37 78 38 79 42 80 39 81 41 82 40 83 59 84 60 85 64 86 61 87
REMARK SMILES IDX 63 88 62 89 49 90 50 91 54 92 51 93 53 94 52 95
REMARK H PARENT 5 22 5 23 69 63 47 74
REMARK Flexibility Score: inf
ROOT
ATOM      1  C   UNL A   1      35.858  31.227  27.758  1.00  0.00     0.188 C 
ENDROOT
BRANCH   1   2
ATOM      2  C   UNL A   1      34.397  31.224  28.212  1.00  0.00     0.188 C 
BRANCH   2   3
ATOM      3  O   UNL A   1      33.574  30.201  27.652  1.00  0.00    -0.376 OA
BRANCH   3   4
ATOM      4  C   UNL A   1      33.921  29.695  26.370  1.00  0.00     0.202 C 
BRANCH   4   5
ATOM      5  C   UNL A   1      34.331  28.238  26.448  1.00  0.00     0.261 C 
BRANCH   5   6
ATOM      6  O   UNL A   1      33.306  27.397  25.910  1.00  0.00    -0.462 OA
BRANCH   6   7
ATOM      7  C   UNL A   1      33.375  27.096  24.576  1.00  0.00     0.329 C 
ATOM      8  O   UNL A   1      33.967  27.729  23.715  1.00  0.00    -0.250 OA
BRANCH   7   9
ATOM      9  C   UNL A   1      32.564  25.827  24.356  1.00  0.00     0.201 C 
ATOM     10  C   UNL A   1      31.837  24.063  22.930  1.00  0.00     0.147 C 
ATOM     11  C   UNL A   1      33.021  24.996  23.169  1.00  0.00     0.071 C 
ATOM     12  C   UNL A   1      30.607  24.891  23.353  1.00  0.00     0.156 C 
ATOM     13  N   UNL A   1      31.135  25.974  24.166  1.00  0.00    -0.292 N 
BRANCH  10  14
ATOM     14  O   UNL A   1      31.932  22.732  23.421  1.00  0.00    -0.320 OA
BRANCH  14  15
ATOM     15  C   UNL A   1      32.852  21.708  23.068  1.00  0.00     0.354 C 
ATOM     16  C   UNL A   1      33.418  19.108  24.427  1.00  0.00     0.203 C 
ATOM     17  C   UNL A   1      32.174  19.388  23.528  1.00  0.00     0.300 C 
ATOM     18  C   UNL A   1      34.368  20.291  24.557  1.00  0.00    -0.002 A 
ATOM     19  N   UNL A   1      32.244  20.492  22.584  1.00  0.00    -0.315 N 
ATOM     20  C   UNL A   1      34.087  21.517  23.921  1.00  0.00     0.046 A 
ATOM     21  C   UNL A   1      35.528  20.177  25.347  1.00  0.00     0.009 A 
ATOM     22  H   UNL A   1      31.291  20.715  22.295  1.00  0.00     0.349 HD
ATOM     23  H   UNL A   1      32.847  20.167  21.828  1.00  0.00     0.349 HD
ATOM     24  C   UNL A   1      35.015  22.569  24.017  1.00  0.00     0.033 A 
ATOM     25  C   UNL A   1      36.436  21.234  25.443  1.00  0.00     0.021 A 
ATOM     26  C   UNL A   1      36.184  22.415  24.756  1.00  0.00     0.041 A 
ATOM     27  Cl  UNL A   1      37.321  23.699  24.791  1.00  0.00    -0.084 Cl
BRANCH  16  28
ATOM     28  O   UNL A   1      34.157  17.956  24.007  1.00  0.00    -0.371 OA
ATOM     29  C   UNL A   1      33.336  16.798  23.875  1.00  0.00     0.196 C 
ENDBRANCH  16  28
ENDBRANCH  14  15
ENDBRANCH  10  14
BRANCH  13  30
ATOM     30  C   UNL A   1      30.349  26.841  24.886  1.00  0.00     0.411 C 
ATOM     31  O   UNL A   1      30.317  26.884  26.108  1.00  0.00    -0.224 OA
BRANCH  30  32
ATOM     32  O   UNL A   1      29.604  27.615  24.059  1.00  0.00    -0.444 OA
BRANCH  32  33
ATOM     33  C   UNL A   1      30.085  28.863  23.502  1.00  0.00     0.106 C 
ATOM     34  C   UNL A   1      30.865  29.662  24.552  1.00  0.00     0.056 C 
ATOM     35  C   UNL A   1      30.882  28.624  22.224  1.00  0.00     0.056 C 
ATOM     36  C   UNL A   1      28.818  29.658  23.144  1.00  0.00     0.056 C 
ENDBRANCH  32  33
ENDBRANCH  30  32
ENDBRANCH  13  30
ENDBRANCH   7   9
ENDBRANCH   6   7
ENDBRANCH   5   6
ENDBRANCH   4   5
ENDBRANCH   3   4
ENDBRANCH   2   3
ENDBRANCH   1   2
BRANCH   1  37
ATOM     37  O   UNL A   1      36.846  31.352  28.774  1.00  0.00    -0.377 OA
BRANCH  37  38
ATOM     38  C   UNL A   1      37.569  32.574  28.843  1.00  0.00     0.188 C 
BRANCH  38  39
ATOM     39  C   UNL A   1      37.639  33.287  30.200  1.00  0.00     0.188 C 
BRANCH  39  40
ATOM     40  O   UNL A   1      36.441  33.850  30.705  1.00  0.00    -0.376 OA
BRANCH  40  41
ATOM     41  C   UNL A   1      36.120  33.771  32.092  1.00  0.00     0.202 C 
BRANCH  41  42
ATOM     42  C   UNL A   1      35.501  32.506  32.707  1.00  0.00     0.261 C 
BRANCH  42  43
ATOM     43  O   UNL A   1      36.468  31.571  33.217  1.00  0.00    -0.460 OA
BRANCH  43  44
ATOM     44  C   UNL A   1      36.706  30.493  32.429  1.00  0.00     0.338 C 
ATOM     45  O   UNL A   1      36.051  30.124  31.467  1.00  0.00    -0.246 OA
BRANCH  44  46
ATOM     46  C   UNL A   1      37.964  29.831  32.806  1.00  0.00     0.060 A 
ATOM     47  C   UNL A   1      38.110  28.458  32.626  1.00  0.00     0.016 A 
ATOM     48  C   UNL A   1      39.058  30.617  33.186  1.00  0.00     0.016 A 
ATOM     49  C   UNL A   1      39.360  27.866  32.827  1.00  0.00     0.010 A 
ATOM     50  C   UNL A   1      40.304  30.027  33.398  1.00  0.00     0.010 A 
ATOM     51  C   UNL A   1      40.469  28.652  33.188  1.00  0.00    -0.014 A 
BRANCH  51  52
ATOM     52  C   UNL A   1      41.833  28.081  33.100  1.00  0.00     0.031 A 
ATOM     53  C   UNL A   1      42.496  27.788  31.794  1.00  0.00     0.074 A 
ATOM     54  C   UNL A   1      42.465  27.811  34.258  1.00  0.00     0.049 A 
ATOM     55  N   UNL A   1      43.726  27.394  31.576  1.00  0.00    -0.248 NA
ATOM     56  C   UNL A   1      41.687  27.950  30.578  1.00  0.00     0.031 C 
ATOM     57  C   UNL A   1      41.895  28.027  35.590  1.00  0.00     0.029 A 
ATOM     58  N   UNL A   1      43.717  27.311  34.505  1.00  0.00    -0.354 N 
ATOM     59  C   UNL A   1      43.851  27.287  30.198  1.00  0.00     0.074 A 
ATOM     60  C   UNL A   1      42.557  27.614  29.633  1.00  0.00     0.031 C 
ATOM     61  C   UNL A   1      42.803  27.684  36.515  1.00  0.00     0.029 A 
ATOM     62  C   UNL A   1      44.009  27.211  35.843  1.00  0.00     0.049 A 
ATOM     63  H   UNL A   1      44.344  27.049  33.793  1.00  0.00     0.167 HD
ATOM     64  C   UNL A   1      44.954  26.963  29.481  1.00  0.00     0.031 A 
ATOM     65  C   UNL A   1      45.128  26.799  36.467  1.00  0.00     0.031 A 
ATOM     66  C   UNL A   1      46.226  26.606  30.061  1.00  0.00     0.049 A 
ATOM     67  C   UNL A   1      46.321  26.404  35.647  1.00  0.00     0.074 A 
ATOM     68  C   UNL A   1      47.413  26.314  29.410  1.00  0.00     0.029 A 
ATOM     69  N   UNL A   1      46.474  26.472  31.419  1.00  0.00    -0.354 N 
ATOM     70  N   UNL A   1      46.459  26.406  34.344  1.00  0.00    -0.248 NA
ATOM     71  C   UNL A   1      47.518  25.972  36.381  1.00  0.00     0.031 C 
ATOM     72  C   UNL A   1      48.356  25.933  30.368  1.00  0.00     0.029 A 
ATOM     73  C   UNL A   1      47.782  26.061  31.622  1.00  0.00     0.049 A 
ATOM     74  H   UNL A   1      45.818  26.645  32.133  1.00  0.00     0.167 HD
ATOM     75  C   UNL A   1      47.761  25.993  34.100  1.00  0.00     0.074 A 
ATOM     76  C   UNL A   1      48.379  25.770  35.391  1.00  0.00     0.031 C 
ATOM     77  C   UNL A   1      48.386  25.819  32.909  1.00  0.00     0.031 A 
BRANCH  64  78
ATOM     78  C   UNL A   1      44.857  26.983  27.980  1.00  0.00    -0.014 A 
ATOM     79  C   UNL A   1      44.524  25.812  27.281  1.00  0.00     0.009 A 
ATOM     80  C   UNL A   1      45.224  28.127  27.252  1.00  0.00     0.009 A 
ATOM     81  C   UNL A   1      44.579  25.780  25.885  1.00  0.00     0.001 A 
ATOM     82  C   UNL A   1      45.252  28.098  25.855  1.00  0.00     0.001 A 
ATOM     83  C   UNL A   1      44.941  26.923  25.174  1.00  0.00     0.000 A 
ENDBRANCH  64  78
BRANCH  65  84
ATOM     84  C   UNL A   1      45.169  26.800  37.952  1.00  0.00    -0.014 A 
ATOM     85  C   UNL A   1      44.733  25.679  38.678  1.00  0.00     0.009 A 
ATOM     86  C   UNL A   1      45.573  27.947  38.648  1.00  0.00     0.009 A 
ATOM     87  C   UNL A   1      44.677  25.719  40.072  1.00  0.00     0.001 A 
ATOM     88  C   UNL A   1      45.544  27.972  40.044  1.00  0.00     0.001 A 
ATOM     89  C   UNL A   1      45.087  26.863  40.754  1.00  0.00     0.000 A 
ENDBRANCH  65  84
BRANCH  77  90
ATOM     90  C   UNL A   1      49.817  25.356  32.933  1.00  0.00    -0.014 A 
ATOM     91  C   UNL A   1      50.109  23.985  33.020  1.00  0.00     0.009 A 
ATOM     92  C   UNL A   1      50.876  26.277  32.956  1.00  0.00     0.009 A 
ATOM     93  C   UNL A   1      51.428  23.546  33.144  1.00  0.00     0.001 A 
ATOM     94  C   UNL A   1      52.197  25.833  33.047  1.00  0.00     0.001 A 
ATOM     95  C   UNL A   1      52.471  24.470  33.152  1.00  0.00     0.000 A 
ENDBRANCH  77  90
ENDBRANCH  51  52
ENDBRANCH  44  46
ENDBRANCH  43  44
ENDBRANCH  42  43
ENDBRANCH  41  42
ENDBRANCH  40  41
ENDBRANCH  39  40
ENDBRANCH  38  39
ENDBRANCH  37  38
ENDBRANCH   1  37
TORSDOF 26
ENDMDL
MODEL 2
REMARK VINA RESULT:      -8.2      3.766      8.020
REMARK SMILES CO[C@@H]1C[NH2+][C@@H](O[C@@H]2C[C@@H](C(=O)OCCOCCOCCOCCOC(=O)c3ccc(-c4c5nc(c(-c6ccccc6)c6ccc([nH]6)c(-c6ccccc6)c6nc(c(-c7ccccc7)c7ccc4[nH]7)C=C6)C=C5)cc3)N(C(=O)OC(C)(C)C)C2)c2cc(Cl)ccc21
REMARK SMILES IDX 18 1 17 2 16 3 15 4 14 5 13 6 11 7 12 8 10 9 8 10 9 11 84 12
REMARK SMILES IDX 76 13 7 14 6 15 3 16 4 17 91 18 5 19 85 20 90 21 86 24 89 25
REMARK SMILES IDX 87 26 88 27 2 28 1 29 77 30 78 31 79 32 80 33 81 34 82 35
REMARK SMILES IDX 83 36 19 37 20 38 21 39 22 40 23 41 24 42 25 43 26 44 27 45
REMARK SMILES IDX 28 46 29 47 75 48 30 49 74 50 31 51 32 52 33 53 68 54 34 55
REMARK SMILES IDX 73 56 67 57 69 58 35 59 72 60 66 61 65 62 36 64 58 65 43 66
REMARK SMILES IDX 57 67 44 68 47 69 56 70 70 71 45 72 46 73 55 75 71 76 48 77
REMARK SMILES IDX 37 78 38 79 42 80 39 81 41 82 40 83 59 84 60 85 64 86 61 87
REMARK SMILES IDX 63 88 62 89 49 90 50 91 54 92 51 93 53 94 52 95
REMARK H PARENT 5 22 5 23 69 63 47 74
REMARK Flexibility Score: inf
ROOT
ATOM      1  C   UNL A   1      36.155  31.913  28.187  1.00  0.00     0.188 C 
ENDROOT
BRANCH   1   2
ATOM      2  C   UNL A   1      35.477  30.550  28.332  1.00  0.00     0.188 C 
BRANCH   2   3
ATOM      3  O   UNL A   1      35.525  29.706  27.182  1.00  0.00    -0.376 OA
BRANCH   3   4
ATOM      4  C   UNL A   1      34.384  28.910  26.893  1.00  0.00     0.202 C 
BRANCH   4   5
ATOM      5  C   UNL A   1      33.531  29.546  25.814  1.00  0.00     0.261 C 
BRANCH   5   6
ATOM      6  O   UNL A   1      32.942  28.544  24.979  1.00  0.00    -0.462 OA
BRANCH   6   7
ATOM      7  C   UNL A   1      31.768  27.981  25.406  1.00  0.00     0.329 C 
ATOM      8  O   UNL A   1      31.051  28.386  26.308  1.00  0.00    -0.250 OA
BRANCH   7   9
ATOM      9  C   UNL A   1      31.526  26.743  24.555  1.00  0.00     0.201 C 
ATOM     10  C   UNL A   1      32.296  25.156  22.954  1.00  0.00     0.147 C 
ATOM     11  C   UNL A   1      32.797  26.061  24.077  1.00  0.00     0.071 C 
ATOM     12  C   UNL A   1      31.101  25.921  22.351  1.00  0.00     0.156 C 
ATOM     13  N   UNL A   1      30.729  26.904  23.356  1.00  0.00    -0.292 N 
BRANCH  10  14
ATOM     14  O   UNL A   1      32.111  23.777  23.247  1.00  0.00    -0.320 OA
BRANCH  14  15
ATOM     15  C   UNL A   1      32.947  22.672  22.932  1.00  0.00     0.354 C 
ATOM     16  C   UNL A   1      32.992  19.925  24.107  1.00  0.00     0.203 C 
ATOM     17  C   UNL A   1      31.940  20.431  23.071  1.00  0.00     0.300 C 
ATOM     18  C   UNL A   1      34.043  20.962  24.481  1.00  0.00    -0.002 A 
ATOM     19  N   UNL A   1      32.282  21.585  22.255  1.00  0.00    -0.315 N 
ATOM     20  C   UNL A   1      34.007  22.259  23.930  1.00  0.00     0.046 A 
ATOM     21  C   UNL A   1      35.049  20.639  25.413  1.00  0.00     0.009 A 
ATOM     22  H   UNL A   1      31.417  21.951  21.856  1.00  0.00     0.349 HD
ATOM     23  H   UNL A   1      32.951  21.243  21.565  1.00  0.00     0.349 HD
ATOM     24  C   UNL A   1      35.027  23.171  24.255  1.00  0.00     0.033 A 
ATOM     25  C   UNL A   1      36.048  21.558  25.735  1.00  0.00     0.021 A 
ATOM     26  C   UNL A   1      36.043  22.812  25.134  1.00  0.00     0.041 A 
ATOM     27  Cl  UNL A   1      37.304  23.930  25.451  1.00  0.00    -0.084 Cl
BRANCH  16  28
ATOM     28  O   UNL A   1      33.646  18.722  23.689  1.00  0.00    -0.371 OA
ATOM     29  C   UNL A   1      32.779  17.849  22.971  1.00  0.00     0.196 C 
ENDBRANCH  16  28
ENDBRANCH  14  15
ENDBRANCH  10  14
BRANCH  13  30
ATOM     30  C   UNL A   1      29.594  27.675  23.285  1.00  0.00     0.411 C 
ATOM     31  O   UNL A   1      28.480  27.286  23.605  1.00  0.00    -0.224 OA
BRANCH  30  32
ATOM     32  O   UNL A   1      29.879  28.906  22.791  1.00  0.00    -0.444 OA
BRANCH  32  33
ATOM     33  C   UNL A   1      28.892  29.962  22.690  1.00  0.00     0.106 C 
ATOM     34  C   UNL A   1      29.001  30.681  21.341  1.00  0.00     0.056 C 
ATOM     35  C   UNL A   1      27.490  29.432  22.970  1.00  0.00     0.056 C 
ATOM     36  C   UNL A   1      29.263  30.965  23.795  1.00  0.00     0.056 C 
ENDBRANCH  32  33
ENDBRANCH  30  32
ENDBRANCH  13  30
ENDBRANCH   7   9
ENDBRANCH   6   7
ENDBRANCH   5   6
ENDBRANCH   4   5
ENDBRANCH   3   4
ENDBRANCH   2   3
ENDBRANCH   1   2
BRANCH   1  37
ATOM     37  O   UNL A   1      37.347  32.120  28.937  1.00  0.00    -0.377 OA
BRANCH  37  38
ATOM     38  C   UNL A   1      37.488  31.410  30.160  1.00  0.00     0.188 C 
BRANCH  38  39
ATOM     39  C   UNL A   1      38.693  30.472  30.306  1.00  0.00     0.188 C 
BRANCH  39  40
ATOM     40  O   UNL A   1      38.449  29.077  30.243  1.00  0.00    -0.376 OA
BRANCH  40  41
ATOM     41  C   UNL A   1      39.467  28.171  29.823  1.00  0.00     0.202 C 
BRANCH  41  42
ATOM     42  C   UNL A   1      39.275  27.247  28.611  1.00  0.00     0.261 C 
BRANCH  42  43
ATOM     43  O   UNL A   1      40.492  26.962  27.897  1.00  0.00    -0.460 OA
BRANCH  43  44
ATOM     44  C   UNL A   1      40.875  27.907  27.002  1.00  0.00     0.338 C 
ATOM     45  O   UNL A   1      40.185  28.795  26.526  1.00  0.00    -0.246 OA
BRANCH  44  46
ATOM     46  C   UNL A   1      42.316  27.815  26.722  1.00  0.00     0.060 A 
ATOM     47  C   UNL A   1      43.096  28.968  26.695  1.00  0.00     0.016 A 
ATOM     48  C   UNL A   1      42.914  26.552  26.651  1.00  0.00     0.016 A 
ATOM     49  C   UNL A   1      44.485  28.858  26.596  1.00  0.00     0.010 A 
ATOM     50  C   UNL A   1      44.301  26.438  26.541  1.00  0.00     0.010 A 
ATOM     51  C   UNL A   1      45.097  27.591  26.546  1.00  0.00    -0.014 A 
BRANCH  51  52
ATOM     52  C   UNL A   1      46.559  27.473  26.751  1.00  0.00     0.031 A 
ATOM     53  C   UNL A   1      47.169  27.329  28.107  1.00  0.00     0.074 A 
ATOM     54  C   UNL A   1      47.340  27.519  25.656  1.00  0.00     0.049 A 
ATOM     55  N   UNL A   1      48.422  27.104  28.415  1.00  0.00    -0.248 NA
ATOM     56  C   UNL A   1      46.272  27.454  29.264  1.00  0.00     0.031 C 
ATOM     57  C   UNL A   1      46.849  27.692  24.286  1.00  0.00     0.029 A 
ATOM     58  N   UNL A   1      48.700  27.416  25.515  1.00  0.00    -0.354 N 
ATOM     59  C   UNL A   1      48.464  27.031  29.800  1.00  0.00     0.074 A 
ATOM     60  C   UNL A   1      47.117  27.283  30.274  1.00  0.00     0.031 C 
ATOM     61  C   UNL A   1      47.890  27.660  23.441  1.00  0.00     0.029 A 
ATOM     62  C   UNL A   1      49.119  27.479  24.209  1.00  0.00     0.049 A 
ATOM     63  H   UNL A   1      49.315  27.307  26.276  1.00  0.00     0.167 HD
ATOM     64  C   UNL A   1      49.530  26.762  30.591  1.00  0.00     0.031 A 
ATOM     65  C   UNL A   1      50.353  27.388  23.679  1.00  0.00     0.031 A 
ATOM     66  C   UNL A   1      50.871  26.549  30.105  1.00  0.00     0.049 A 
ATOM     67  C   UNL A   1      51.522  27.133  24.584  1.00  0.00     0.074 A 
ATOM     68  C   UNL A   1      52.004  26.219  30.831  1.00  0.00     0.029 A 
ATOM     69  N   UNL A   1      51.267  26.665  28.782  1.00  0.00    -0.354 N 
ATOM     70  N   UNL A   1      51.532  26.964  25.884  1.00  0.00    -0.248 NA
ATOM     71  C   UNL A   1      52.843  27.033  23.950  1.00  0.00     0.031 C 
ATOM     72  C   UNL A   1      53.096  26.207  29.959  1.00  0.00     0.029 A 
ATOM     73  C   UNL A   1      52.633  26.453  28.677  1.00  0.00     0.049 A 
ATOM     74  H   UNL A   1      50.667  26.866  28.027  1.00  0.00     0.167 HD
ATOM     75  C   UNL A   1      52.856  26.721  26.223  1.00  0.00     0.074 A 
ATOM     76  C   UNL A   1      53.616  26.742  24.990  1.00  0.00     0.031 C 
ATOM     77  C   UNL A   1      53.389  26.497  27.449  1.00  0.00     0.031 A 
BRANCH  64  78
ATOM     78  C   UNL A   1      49.307  26.669  32.077  1.00  0.00    -0.014 A 
ATOM     79  C   UNL A   1      48.958  25.440  32.659  1.00  0.00     0.009 A 
ATOM     80  C   UNL A   1      49.313  27.822  32.878  1.00  0.00     0.009 A 
ATOM     81  C   UNL A   1      48.601  25.371  34.009  1.00  0.00     0.001 A 
ATOM     82  C   UNL A   1      48.981  27.744  34.233  1.00  0.00     0.001 A 
ATOM     83  C   UNL A   1      48.616  26.522  34.794  1.00  0.00     0.000 A 
ENDBRANCH  64  78
BRANCH  65  84
ATOM     84  C   UNL A   1      50.515  27.487  22.206  1.00  0.00    -0.014 A 
ATOM     85  C   UNL A   1      50.814  28.720  21.602  1.00  0.00     0.009 A 
ATOM     86  C   UNL A   1      50.298  26.366  21.392  1.00  0.00     0.009 A 
ATOM     87  C   UNL A   1      50.866  28.833  20.212  1.00  0.00     0.001 A 
ATOM     88  C   UNL A   1      50.381  26.476  20.002  1.00  0.00     0.001 A 
ATOM     89  C   UNL A   1      50.654  27.710  19.414  1.00  0.00     0.000 A 
ENDBRANCH  65  84
BRANCH  77  90
ATOM     90  C   UNL A   1      54.872  26.262  27.533  1.00  0.00    -0.014 A 
ATOM     91  C   UNL A   1      55.743  27.344  27.742  1.00  0.00     0.009 A 
ATOM     92  C   UNL A   1      55.416  24.986  27.322  1.00  0.00     0.009 A 
ATOM     93  C   UNL A   1      57.126  27.157  27.722  1.00  0.00     0.001 A 
ATOM     94  C   UNL A   1      56.800  24.796  27.335  1.00  0.00     0.001 A 
ATOM     95  C   UNL A   1      57.653  25.882  27.525  1.00  0.00     0.000 A 
ENDBRANCH  77  90
ENDBRANCH  51  52
ENDBRANCH  44  46
ENDBRANCH  43  44
ENDBRANCH  42  43
ENDBRANCH  41  42
ENDBRANCH  40  41
ENDBRANCH  39  40
ENDBRANCH  38  39
ENDBRANCH  37  38
ENDBRANCH   1  37
TORSDOF 26
ENDMDL
MODEL 3
REMARK VINA RESULT:      -8.2      3.764      6.076
REMARK SMILES CO[C@@H]1C[NH2+][C@@H](O[C@@H]2C[C@@H](C(=O)OCCOCCOCCOCCOC(=O)c3ccc(-c4c5nc(c(-c6ccccc6)c6ccc([nH]6)c(-c6ccccc6)c6nc(c(-c7ccccc7)c7ccc4[nH]7)C=C6)C=C5)cc3)N(C(=O)OC(C)(C)C)C2)c2cc(Cl)ccc21
REMARK SMILES IDX 18 1 17 2 16 3 15 4 14 5 13 6 11 7 12 8 10 9 8 10 9 11 84 12
REMARK SMILES IDX 76 13 7 14 6 15 3 16 4 17 91 18 5 19 85 20 90 21 86 24 89 25
REMARK SMILES IDX 87 26 88 27 2 28 1 29 77 30 78 31 79 32 80 33 81 34 82 35
REMARK SMILES IDX 83 36 19 37 20 38 21 39 22 40 23 41 24 42 25 43 26 44 27 45
REMARK SMILES IDX 28 46 29 47 75 48 30 49 74 50 31 51 32 52 33 53 68 54 34 55
REMARK SMILES IDX 73 56 67 57 69 58 35 59 72 60 66 61 65 62 36 64 58 65 43 66
REMARK SMILES IDX 57 67 44 68 47 69 56 70 70 71 45 72 46 73 55 75 71 76 48 77
REMARK SMILES IDX 37 78 38 79 42 80 39 81 41 82 40 83 59 84 60 85 64 86 61 87
REMARK SMILES IDX 63 88 62 89 49 90 50 91 54 92 51 93 53 94 52 95
REMARK H PARENT 5 22 5 23 69 63 47 74
REMARK Flexibility Score: inf
ROOT
ATOM      1  C   UNL A   1      36.179  31.901  28.200  1.00  0.00     0.188 C 
ENDROOT
BRANCH   1   2
ATOM      2  C   UNL A   1      35.502  30.535  28.329  1.00  0.00     0.188 C 
BRANCH   2   3
ATOM      3  O   UNL A   1      35.555  29.703  27.170  1.00  0.00    -0.376 OA
BRANCH   3   4
ATOM      4  C   UNL A   1      34.420  28.901  26.875  1.00  0.00     0.202 C 
BRANCH   4   5
ATOM      5  C   UNL A   1      33.574  29.528  25.784  1.00  0.00     0.261 C 
BRANCH   5   6
ATOM      6  O   UNL A   1      32.985  28.518  24.959  1.00  0.00    -0.462 OA
BRANCH   6   7
ATOM      7  C   UNL A   1      31.811  27.960  25.390  1.00  0.00     0.329 C 
ATOM      8  O   UNL A   1      31.098  28.368  26.294  1.00  0.00    -0.250 OA
BRANCH   7   9
ATOM      9  C   UNL A   1      31.561  26.721  24.542  1.00  0.00     0.201 C 
ATOM     10  C   UNL A   1      32.320  25.129  22.941  1.00  0.00     0.147 C 
ATOM     11  C   UNL A   1      32.828  26.033  24.061  1.00  0.00     0.071 C 
ATOM     12  C   UNL A   1      31.127  25.898  22.340  1.00  0.00     0.156 C 
ATOM     13  N   UNL A   1      30.761  26.884  23.345  1.00  0.00    -0.292 N 
BRANCH  10  14
ATOM     14  O   UNL A   1      32.130  23.751  23.236  1.00  0.00    -0.320 OA
BRANCH  14  15
ATOM     15  C   UNL A   1      32.963  22.643  22.924  1.00  0.00     0.354 C 
ATOM     16  C   UNL A   1      33.000  19.898  24.105  1.00  0.00     0.203 C 
ATOM     17  C   UNL A   1      31.950  20.405  23.068  1.00  0.00     0.300 C 
ATOM     18  C   UNL A   1      34.054  20.933  24.477  1.00  0.00    -0.002 A 
ATOM     19  N   UNL A   1      32.295  21.556  22.249  1.00  0.00    -0.315 N 
ATOM     20  C   UNL A   1      34.022  22.229  23.922  1.00  0.00     0.046 A 
ATOM     21  C   UNL A   1      35.059  20.609  25.409  1.00  0.00     0.009 A 
ATOM     22  H   UNL A   1      31.430  21.924  21.850  1.00  0.00     0.349 HD
ATOM     23  H   UNL A   1      32.962  21.211  21.560  1.00  0.00     0.349 HD
ATOM     24  C   UNL A   1      35.045  23.139  24.245  1.00  0.00     0.033 A 
ATOM     25  C   UNL A   1      36.061  21.527  25.729  1.00  0.00     0.021 A 
ATOM     26  C   UNL A   1      36.060  22.778  25.125  1.00  0.00     0.041 A 
ATOM     27  Cl  UNL A   1      37.324  23.894  25.439  1.00  0.00    -0.084 Cl
BRANCH  16  28
ATOM     28  O   UNL A   1      33.650  18.693  23.690  1.00  0.00    -0.371 OA
ATOM     29  C   UNL A   1      32.781  17.823  22.970  1.00  0.00     0.196 C 
ENDBRANCH  16  28
ENDBRANCH  14  15
ENDBRANCH  10  14
BRANCH  13  30
ATOM     30  C   UNL A   1      29.629  27.660  23.275  1.00  0.00     0.411 C 
ATOM     31  O   UNL A   1      28.513  27.272  23.590  1.00  0.00    -0.224 OA
BRANCH  30  32
ATOM     32  O   UNL A   1      29.920  28.893  22.792  1.00  0.00    -0.444 OA
BRANCH  32  33
ATOM     33  C   UNL A   1      28.937  29.952  22.692  1.00  0.00     0.106 C 
ATOM     34  C   UNL A   1      29.047  30.672  21.344  1.00  0.00     0.056 C 
ATOM     35  C   UNL A   1      27.533  29.427  22.973  1.00  0.00     0.056 C 
ATOM     36  C   UNL A   1      29.311  30.953  23.799  1.00  0.00     0.056 C 
ENDBRANCH  32  33
ENDBRANCH  30  32
ENDBRANCH  13  30
ENDBRANCH   7   9
ENDBRANCH   6   7
ENDBRANCH   5   6
ENDBRANCH   4   5
ENDBRANCH   3   4
ENDBRANCH   2   3
ENDBRANCH   1   2
BRANCH   1  37
ATOM     37  O   UNL A   1      37.381  32.093  28.938  1.00  0.00    -0.377 OA
BRANCH  37  38
ATOM     38  C   UNL A   1      37.552  31.336  30.128  1.00  0.00     0.188 C 
BRANCH  38  39
ATOM     39  C   UNL A   1      38.770  30.407  30.213  1.00  0.00     0.188 C 
BRANCH  39  40
ATOM     40  O   UNL A   1      38.542  29.014  30.084  1.00  0.00    -0.376 OA
BRANCH  40  41
ATOM     41  C   UNL A   1      39.567  28.143  29.610  1.00  0.00     0.202 C 
BRANCH  41  42
ATOM     42  C   UNL A   1      39.383  27.294  28.343  1.00  0.00     0.261 C 
BRANCH  42  43
ATOM     43  O   UNL A   1      40.605  27.046  27.625  1.00  0.00    -0.460 OA
BRANCH  43  44
ATOM     44  C   UNL A   1      41.027  28.060  26.828  1.00  0.00     0.338 C 
ATOM     45  O   UNL A   1      40.371  29.013  26.439  1.00  0.00    -0.246 OA
BRANCH  44  46
ATOM     46  C   UNL A   1      42.465  27.945  26.546  1.00  0.00     0.060 A 
ATOM     47  C   UNL A   1      43.302  29.043  26.733  1.00  0.00     0.016 A 
ATOM     48  C   UNL A   1      43.002  26.686  26.251  1.00  0.00     0.016 A 
ATOM     49  C   UNL A   1      44.686  28.880  26.625  1.00  0.00     0.010 A 
ATOM     50  C   UNL A   1      44.382  26.523  26.133  1.00  0.00     0.010 A 
ATOM     51  C   UNL A   1      45.234  27.614  26.351  1.00  0.00    -0.014 A 
BRANCH  51  52
ATOM     52  C   UNL A   1      46.685  27.386  26.541  1.00  0.00     0.031 A 
ATOM     53  C   UNL A   1      47.655  27.410  25.405  1.00  0.00     0.074 A 
ATOM     54  C   UNL A   1      47.112  27.134  27.793  1.00  0.00     0.049 A 
ATOM     55  N   UNL A   1      48.961  27.337  25.448  1.00  0.00    -0.248 NA
ATOM     56  C   UNL A   1      47.099  27.524  24.049  1.00  0.00     0.031 C 
ATOM     57  C   UNL A   1      46.244  27.055  28.970  1.00  0.00     0.029 A 
ATOM     58  N   UNL A   1      48.371  26.910  28.287  1.00  0.00    -0.354 N 
ATOM     59  C   UNL A   1      49.391  27.426  24.132  1.00  0.00     0.074 A 
ATOM     60  C   UNL A   1      48.201  27.510  23.308  1.00  0.00     0.031 C 
ATOM     61  C   UNL A   1      46.998  26.823  30.054  1.00  0.00     0.029 A 
ATOM     62  C   UNL A   1      48.397  26.722  29.647  1.00  0.00     0.049 A 
ATOM     63  H   UNL A   1      49.177  26.885  27.722  1.00  0.00     0.167 HD
ATOM     64  C   UNL A   1      50.663  27.450  23.667  1.00  0.00     0.031 A 
ATOM     65  C   UNL A   1      49.430  26.508  30.482  1.00  0.00     0.031 A 
ATOM     66  C   UNL A   1      51.836  27.330  24.498  1.00  0.00     0.049 A 
ATOM     67  C   UNL A   1      50.826  26.497  29.933  1.00  0.00     0.074 A 
ATOM     68  C   UNL A   1      53.166  27.397  24.118  1.00  0.00     0.029 A 
ATOM     69  N   UNL A   1      51.824  27.097  25.865  1.00  0.00    -0.354 N 
ATOM     70  N   UNL A   1      51.224  26.685  28.698  1.00  0.00    -0.248 NA
ATOM     71  C   UNL A   1      51.915  26.268  30.891  1.00  0.00     0.031 C 
ATOM     72  C   UNL A   1      53.956  27.133  25.240  1.00  0.00     0.029 A 
ATOM     73  C   UNL A   1      53.123  26.977  26.335  1.00  0.00     0.049 A 
ATOM     74  H   UNL A   1      51.013  27.029  26.420  1.00  0.00     0.167 HD
ATOM     75  C   UNL A   1      52.610  26.614  28.733  1.00  0.00     0.074 A 
ATOM     76  C   UNL A   1      52.984  26.389  30.114  1.00  0.00     0.031 C 
ATOM     77  C   UNL A   1      53.490  26.730  27.707  1.00  0.00     0.031 A 
BRANCH  64  78
ATOM     78  C   UNL A   1      50.875  27.625  22.187  1.00  0.00    -0.014 A 
ATOM     79  C   UNL A   1      51.014  28.911  21.643  1.00  0.00     0.009 A 
ATOM     80  C   UNL A   1      50.805  26.524  21.318  1.00  0.00     0.009 A 
ATOM     81  C   UNL A   1      51.060  29.095  20.259  1.00  0.00     0.001 A 
ATOM     82  C   UNL A   1      50.877  26.709  19.935  1.00  0.00     0.001 A 
ATOM     83  C   UNL A   1      50.994  27.994  19.407  1.00  0.00     0.000 A 
ENDBRANCH  64  78
BRANCH  65  84
ATOM     84  C   UNL A   1      49.163  26.343  31.934  1.00  0.00    -0.014 A 
ATOM     85  C   UNL A   1      49.008  25.063  32.490  1.00  0.00     0.009 A 
ATOM     86  C   UNL A   1      48.987  27.467  32.754  1.00  0.00     0.009 A 
ATOM     87  C   UNL A   1      48.657  24.912  33.833  1.00  0.00     0.001 A 
ATOM     88  C   UNL A   1      48.665  27.312  34.104  1.00  0.00     0.001 A 
ATOM     89  C   UNL A   1      48.491  26.037  34.639  1.00  0.00     0.000 A 
ENDBRANCH  65  84
BRANCH  77  90
ATOM     90  C   UNL A   1      54.954  26.608  28.028  1.00  0.00    -0.014 A 
ATOM     91  C   UNL A   1      55.593  25.362  27.929  1.00  0.00     0.009 A 
ATOM     92  C   UNL A   1      55.683  27.707  28.509  1.00  0.00     0.009 A 
ATOM     93  C   UNL A   1      56.925  25.213  28.318  1.00  0.00     0.001 A 
ATOM     94  C   UNL A   1      57.026  27.562  28.868  1.00  0.00     0.001 A 
ATOM     95  C   UNL A   1      57.642  26.314  28.782  1.00  0.00     0.000 A 
ENDBRANCH  77  90
ENDBRANCH  51  52
ENDBRANCH  44  46
ENDBRANCH  43  44
ENDBRANCH  42  43
ENDBRANCH  41  42
ENDBRANCH  40  41
ENDBRANCH  39  40
ENDBRANCH  38  39
ENDBRANCH  37  38
ENDBRANCH   1  37
TORSDOF 26
ENDMDL
