MODEL 1
REMARK VINA RESULT:      -9.2      0.000      0.000
REMARK SMILES O=C(OCCOCCOCCOCCOC(=O)c1ccc(-c2c3nc(c(-c4ccccc4)c4ccc([nH]4)c(-c4ccccc4)c4nc(c(-c5ccccc5)c5ccc2[nH]5)C=C4)C=C3)cc1)C1=Cc2cc(S(F)(F)(F)(F)F)ccc2O[C@H]1C(F)(F)F
REMARK SMILES IDX 10 1 9 2 8 3 7 4 6 5 5 6 4 7 3 8 2 9 1 10 66 11 67 12 81 13
REMARK SMILES IDX 68 14 80 15 69 16 79 17 70 18 78 19 77 20 82 21 83 22 84 23
REMARK SMILES IDX 85 24 71 25 72 26 73 27 74 28 75 29 76 30 11 31 12 32 13 33
REMARK SMILES IDX 14 34 15 35 16 36 17 37 18 38 19 39 65 40 20 41 64 42 21 43
REMARK SMILES IDX 22 44 23 45 58 46 24 47 63 48 57 49 59 50 25 51 62 52 56 53
REMARK SMILES IDX 55 54 26 56 48 57 33 58 47 59 34 60 37 61 46 62 60 63 35 64
REMARK SMILES IDX 36 65 45 67 61 68 38 69 27 70 28 71 32 72 29 73 31 74 30 75
REMARK SMILES IDX 49 76 50 77 54 78 51 79 53 80 52 81 39 82 40 83 44 84 41 85
REMARK SMILES IDX 43 86 42 87
REMARK H PARENT 59 55 37 66
REMARK Flexibility Score: inf
ROOT
ATOM      1  C   UNL A   1      43.932  18.543  25.099  1.00  0.00     0.188 C 
ENDROOT
BRANCH   1   2
ATOM      2  O   UNL A   1      45.062  17.932  25.704  1.00  0.00    -0.377 OA
BRANCH   2   3
ATOM      3  C   UNL A   1      46.185  18.795  25.591  1.00  0.00     0.188 C 
BRANCH   3   4
ATOM      4  C   UNL A   1      46.108  19.557  24.279  1.00  0.00     0.188 C 
BRANCH   4   5
ATOM      5  O   UNL A   1      46.390  20.930  24.511  1.00  0.00    -0.376 OA
BRANCH   5   6
ATOM      6  C   UNL A   1      45.363  21.727  23.941  1.00  0.00     0.202 C 
BRANCH   6   7
ATOM      7  C   UNL A   1      45.568  23.180  24.338  1.00  0.00     0.261 C 
BRANCH   7   8
ATOM      8  O   UNL A   1      45.903  23.250  25.716  1.00  0.00    -0.460 OA
BRANCH   8   9
ATOM      9  C   UNL A   1      45.198  24.135  26.574  1.00  0.00     0.338 C 
ATOM     10  O   UNL A   1      44.264  24.861  26.109  1.00  0.00    -0.246 OA
BRANCH   9  11
ATOM     11  C   UNL A   1      45.561  24.216  28.048  1.00  0.00     0.087 C 
ATOM     12  C   UNL A   1      46.727  24.803  28.430  1.00  0.00     0.027 C 
ATOM     13  C   UNL A   1      44.622  23.638  29.094  1.00  0.00     0.316 C 
ATOM     14  C   UNL A   1      47.666  25.379  27.383  1.00  0.00     0.019 A 
ATOM     15  O   UNL A   1      45.777  26.239  26.228  1.00  0.00    -0.475 OA
ATOM     16  C   UNL A   1      49.022  25.114  27.486  1.00  0.00     0.036 A 
ATOM     17  C   UNL A   1      47.182  26.120  26.395  1.00  0.00     0.128 A 
ATOM     18  C   UNL A   1      49.828  25.922  26.649  1.00  0.00     0.107 A 
ATOM     19  C   UNL A   1      48.028  26.774  25.531  1.00  0.00     0.048 A 
ATOM     20  C   UNL A   1      49.382  26.605  25.610  1.00  0.00     0.028 A 
BRANCH  13  21
ATOM     21  C   UNL A   1      43.401  23.045  28.409  1.00  0.00     0.430 C 
ATOM     22  F   UNL A   1      42.582  24.040  28.077  1.00  0.00    -0.167 F 
ATOM     23  F   UNL A   1      43.687  22.327  27.325  1.00  0.00    -0.167 F 
ATOM     24  F   UNL A   1      42.813  22.269  29.314  1.00  0.00    -0.167 F 
ENDBRANCH  13  21
BRANCH  18  25
ATOM     25  S   UNL A   1      51.595  26.028  27.030  1.00  0.00     0.310 S 
ATOM     26  F   UNL A   1      51.901  26.815  25.688  1.00  0.00    -0.094 F 
ATOM     27  F   UNL A   1      51.820  24.697  26.219  1.00  0.00    -0.094 F 
ATOM     28  F   UNL A   1      53.112  26.119  27.357  1.00  0.00    -0.094 F 
ATOM     29  F   UNL A   1      51.371  27.433  27.718  1.00  0.00    -0.094 F 
ATOM     30  F   UNL A   1      50.072  26.008  26.609  1.00  0.00    -0.094 F 
ENDBRANCH  18  25
ENDBRANCH   9  11
ENDBRANCH   8   9
ENDBRANCH   7   8
ENDBRANCH   6   7
ENDBRANCH   5   6
ENDBRANCH   4   5
ENDBRANCH   3   4
ENDBRANCH   2   3
ENDBRANCH   1   2
BRANCH   1  31
ATOM     31  C   UNL A   1      42.879  18.820  26.159  1.00  0.00     0.188 C 
BRANCH  31  32
ATOM     32  O   UNL A   1      41.856  19.637  25.609  1.00  0.00    -0.376 OA
BRANCH  32  33
ATOM     33  C   UNL A   1      40.781  19.734  26.532  1.00  0.00     0.202 C 
BRANCH  33  34
ATOM     34  C   UNL A   1      40.585  21.187  26.931  1.00  0.00     0.261 C 
BRANCH  34  35
ATOM     35  O   UNL A   1      39.894  21.873  25.898  1.00  0.00    -0.460 OA
BRANCH  35  36
ATOM     36  C   UNL A   1      38.963  22.895  26.221  1.00  0.00     0.338 C 
ATOM     37  O   UNL A   1      37.723  22.715  26.007  1.00  0.00    -0.246 OA
BRANCH  36  38
ATOM     38  C   UNL A   1      39.448  24.203  26.822  1.00  0.00     0.060 A 
ATOM     39  C   UNL A   1      39.172  24.461  28.155  1.00  0.00     0.016 A 
ATOM     40  C   UNL A   1      40.125  25.071  26.079  1.00  0.00     0.016 A 
ATOM     41  C   UNL A   1      39.405  25.802  28.540  1.00  0.00     0.010 A 
ATOM     42  C   UNL A   1      40.438  26.315  26.568  1.00  0.00     0.010 A 
ATOM     43  C   UNL A   1      40.143  26.660  27.858  1.00  0.00    -0.014 A 
BRANCH  43  44
ATOM     44  C   UNL A   1      40.635  27.958  28.474  1.00  0.00     0.031 A 
ATOM     45  C   UNL A   1      41.996  28.068  28.766  1.00  0.00     0.074 A 
ATOM     46  C   UNL A   1      39.709  28.960  28.712  1.00  0.00     0.049 A 
ATOM     47  N   UNL A   1      42.637  29.123  29.274  1.00  0.00    -0.248 NA
ATOM     48  C   UNL A   1      42.976  26.994  28.545  1.00  0.00     0.031 C 
ATOM     49  C   UNL A   1      38.337  28.861  28.412  1.00  0.00     0.029 A 
ATOM     50  N   UNL A   1      39.932  30.202  29.266  1.00  0.00    -0.354 N 
ATOM     51  C   UNL A   1      43.940  28.856  29.394  1.00  0.00     0.074 A 
ATOM     52  C   UNL A   1      44.175  27.480  28.933  1.00  0.00     0.031 C 
ATOM     53  C   UNL A   1      37.738  30.020  28.790  1.00  0.00     0.029 A 
ATOM     54  C   UNL A   1      38.726  30.864  29.332  1.00  0.00     0.049 A 
ATOM     55  H   UNL A   1      40.801  30.555  29.563  1.00  0.00     0.167 HD
ATOM     56  C   UNL A   1      44.940  29.706  29.868  1.00  0.00     0.031 A 
ATOM     57  C   UNL A   1      38.481  32.132  29.835  1.00  0.00     0.031 A 
ATOM     58  C   UNL A   1      44.701  30.990  30.331  1.00  0.00     0.049 A 
ATOM     59  C   UNL A   1      39.473  32.961  30.364  1.00  0.00     0.074 A 
ATOM     60  C   UNL A   1      45.699  31.863  30.804  1.00  0.00     0.029 A 
ATOM     61  N   UNL A   1      43.492  31.643  30.419  1.00  0.00    -0.354 N 
ATOM     62  N   UNL A   1      40.780  32.710  30.447  1.00  0.00    -0.248 NA
ATOM     63  C   UNL A   1      39.220  34.294  30.928  1.00  0.00     0.031 C 
ATOM     64  C   UNL A   1      45.099  33.024  31.182  1.00  0.00     0.029 A 
ATOM     65  C   UNL A   1      43.716  32.894  30.952  1.00  0.00     0.049 A 
ATOM     66  H   UNL A   1      42.618  31.280  30.149  1.00  0.00     0.167 HD
ATOM     67  C   UNL A   1      41.414  33.749  30.993  1.00  0.00     0.074 A 
ATOM     68  C   UNL A   1      40.419  34.781  31.318  1.00  0.00     0.031 C 
ATOM     69  C   UNL A   1      42.784  33.880  31.231  1.00  0.00     0.031 A 
BRANCH  56  70
ATOM     70  C   UNL A   1      46.371  29.195  29.877  1.00  0.00    -0.014 A 
ATOM     71  C   UNL A   1      47.201  29.476  28.805  1.00  0.00     0.009 A 
ATOM     72  C   UNL A   1      46.802  28.484  30.913  1.00  0.00     0.009 A 
ATOM     73  C   UNL A   1      48.393  28.713  28.786  1.00  0.00     0.001 A 
ATOM     74  C   UNL A   1      48.035  27.879  30.882  1.00  0.00     0.001 A 
ATOM     75  C   UNL A   1      48.883  28.065  29.826  1.00  0.00     0.000 A 
ENDBRANCH  56  70
BRANCH  57  76
ATOM     76  C   UNL A   1      37.052  32.649  29.810  1.00  0.00    -0.014 A 
ATOM     77  C   UNL A   1      36.212  32.378  30.878  1.00  0.00     0.009 A 
ATOM     78  C   UNL A   1      36.632  33.353  28.765  1.00  0.00     0.009 A 
ATOM     79  C   UNL A   1      34.848  32.650  30.618  1.00  0.00     0.001 A 
ATOM     80  C   UNL A   1      35.308  33.701  28.643  1.00  0.00     0.001 A 
ATOM     81  C   UNL A   1      34.410  33.413  29.633  1.00  0.00     0.000 A 
ENDBRANCH  57  76
BRANCH  69  82
ATOM     82  C   UNL A   1      43.281  35.185  31.832  1.00  0.00    -0.014 A 
ATOM     83  C   UNL A   1      43.240  35.339  33.208  1.00  0.00     0.009 A 
ATOM     84  C   UNL A   1      43.747  36.147  31.045  1.00  0.00     0.009 A 
ATOM     85  C   UNL A   1      43.447  36.669  33.643  1.00  0.00     0.001 A 
ATOM     86  C   UNL A   1      44.058  37.383  31.560  1.00  0.00     0.001 A 
ATOM     87  C   UNL A   1      43.983  37.624  32.904  1.00  0.00     0.000 A 
ENDBRANCH  69  82
ENDBRANCH  43  44
ENDBRANCH  36  38
ENDBRANCH  35  36
ENDBRANCH  34  35
ENDBRANCH  33  34
ENDBRANCH  32  33
ENDBRANCH  31  32
ENDBRANCH   1  31
TORSDOF 22
ENDMDL
MODEL 2
REMARK VINA RESULT:      -9.1      0.168      5.557
REMARK SMILES O=C(OCCOCCOCCOCCOC(=O)c1ccc(-c2c3nc(c(-c4ccccc4)c4ccc([nH]4)c(-c4ccccc4)c4nc(c(-c5ccccc5)c5ccc2[nH]5)C=C4)C=C3)cc1)C1=Cc2cc(S(F)(F)(F)(F)F)ccc2O[C@H]1C(F)(F)F
REMARK SMILES IDX 10 1 9 2 8 3 7 4 6 5 5 6 4 7 3 8 2 9 1 10 66 11 67 12 81 13
REMARK SMILES IDX 68 14 80 15 69 16 79 17 70 18 78 19 77 20 82 21 83 22 84 23
REMARK SMILES IDX 85 24 71 25 72 26 73 27 74 28 75 29 76 30 11 31 12 32 13 33
REMARK SMILES IDX 14 34 15 35 16 36 17 37 18 38 19 39 65 40 20 41 64 42 21 43
REMARK SMILES IDX 22 44 23 45 58 46 24 47 63 48 57 49 59 50 25 51 62 52 56 53
REMARK SMILES IDX 55 54 26 56 48 57 33 58 47 59 34 60 37 61 46 62 60 63 35 64
REMARK SMILES IDX 36 65 45 67 61 68 38 69 27 70 28 71 32 72 29 73 31 74 30 75
REMARK SMILES IDX 49 76 50 77 54 78 51 79 53 80 52 81 39 82 40 83 44 84 41 85
REMARK SMILES IDX 43 86 42 87
REMARK H PARENT 59 55 37 66
REMARK Flexibility Score: inf
ROOT
ATOM      1  C   UNL A   1      43.864  18.590  25.119  1.00  0.00     0.188 C 
ENDROOT
BRANCH   1   2
ATOM      2  O   UNL A   1      45.007  17.964  25.684  1.00  0.00    -0.377 OA
BRANCH   2   3
ATOM      3  C   UNL A   1      46.127  18.830  25.570  1.00  0.00     0.188 C 
BRANCH   3   4
ATOM      4  C   UNL A   1      46.026  19.622  24.276  1.00  0.00     0.188 C 
BRANCH   4   5
ATOM      5  O   UNL A   1      46.293  20.992  24.537  1.00  0.00    -0.376 OA
BRANCH   5   6
ATOM      6  C   UNL A   1      45.237  21.787  24.020  1.00  0.00     0.202 C 
BRANCH   6   7
ATOM      7  C   UNL A   1      45.453  23.238  24.415  1.00  0.00     0.261 C 
BRANCH   7   8
ATOM      8  O   UNL A   1      45.821  23.306  25.784  1.00  0.00    -0.460 OA
BRANCH   8   9
ATOM      9  C   UNL A   1      45.149  24.203  26.656  1.00  0.00     0.338 C 
ATOM     10  O   UNL A   1      44.214  24.940  26.212  1.00  0.00    -0.246 OA
BRANCH   9  11
ATOM     11  C   UNL A   1      45.548  24.280  28.121  1.00  0.00     0.087 C 
ATOM     12  C   UNL A   1      46.717  24.878  28.477  1.00  0.00     0.027 C 
ATOM     13  C   UNL A   1      44.641  23.689  29.188  1.00  0.00     0.316 C 
ATOM     14  C   UNL A   1      47.624  25.469  27.410  1.00  0.00     0.019 A 
ATOM     15  O   UNL A   1      45.697  26.314  26.306  1.00  0.00    -0.475 OA
ATOM     16  C   UNL A   1      48.984  25.218  27.477  1.00  0.00     0.036 A 
ATOM     17  C   UNL A   1      47.107  26.209  26.437  1.00  0.00     0.128 A 
ATOM     18  C   UNL A   1      49.761  26.038  26.624  1.00  0.00     0.107 A 
ATOM     19  C   UNL A   1      47.924  26.876  25.555  1.00  0.00     0.048 A 
ATOM     20  C   UNL A   1      49.282  26.720  25.600  1.00  0.00     0.028 A 
BRANCH  13  21
ATOM     21  C   UNL A   1      43.410  23.086  28.531  1.00  0.00     0.430 C 
ATOM     22  F   UNL A   1      42.603  24.077  28.164  1.00  0.00    -0.167 F 
ATOM     23  F   UNL A   1      43.682  22.323  27.475  1.00  0.00    -0.167 F 
ATOM     24  F   UNL A   1      42.816  22.352  29.467  1.00  0.00    -0.167 F 
ENDBRANCH  13  21
BRANCH  18  25
ATOM     25  S   UNL A   1      51.536  26.161  26.962  1.00  0.00     0.310 S 
ATOM     26  F   UNL A   1      51.824  26.804  25.541  1.00  0.00    -0.094 F 
ATOM     27  F   UNL A   1      51.732  24.752  26.286  1.00  0.00    -0.094 F 
ATOM     28  F   UNL A   1      53.059  26.266  27.251  1.00  0.00    -0.094 F 
ATOM     29  F   UNL A   1      51.338  27.631  27.507  1.00  0.00    -0.094 F 
ATOM     30  F   UNL A   1      50.004  26.116  26.571  1.00  0.00    -0.094 F 
ENDBRANCH  18  25
ENDBRANCH   9  11
ENDBRANCH   8   9
ENDBRANCH   7   8
ENDBRANCH   6   7
ENDBRANCH   5   6
ENDBRANCH   4   5
ENDBRANCH   3   4
ENDBRANCH   2   3
ENDBRANCH   1   2
BRANCH   1  31
ATOM     31  C   UNL A   1      42.875  18.930  26.222  1.00  0.00     0.188 C 
BRANCH  31  32
ATOM     32  O   UNL A   1      41.835  19.737  25.693  1.00  0.00    -0.376 OA
BRANCH  32  33
ATOM     33  C   UNL A   1      40.795  19.857  26.653  1.00  0.00     0.202 C 
BRANCH  33  34
ATOM     34  C   UNL A   1      40.557  21.325  26.963  1.00  0.00     0.261 C 
BRANCH  34  35
ATOM     35  O   UNL A   1      39.781  21.908  25.927  1.00  0.00    -0.460 OA
BRANCH  35  36
ATOM     36  C   UNL A   1      38.817  22.905  26.235  1.00  0.00     0.338 C 
ATOM     37  O   UNL A   1      37.584  22.684  26.021  1.00  0.00    -0.246 OA
BRANCH  36  38
ATOM     38  C   UNL A   1      39.261  24.236  26.817  1.00  0.00     0.060 A 
ATOM     39  C   UNL A   1      39.915  25.135  25.990  1.00  0.00     0.016 A 
ATOM     40  C   UNL A   1      39.019  24.524  28.091  1.00  0.00     0.016 A 
ATOM     41  C   UNL A   1      40.534  26.203  26.680  1.00  0.00     0.010 A 
ATOM     42  C   UNL A   1      39.544  25.656  28.664  1.00  0.00     0.010 A 
ATOM     43  C   UNL A   1      40.251  26.559  27.920  1.00  0.00    -0.014 A 
BRANCH  43  44
ATOM     44  C   UNL A   1      40.687  27.899  28.488  1.00  0.00     0.031 A 
ATOM     45  C   UNL A   1      39.712  28.883  28.664  1.00  0.00     0.074 A 
ATOM     46  C   UNL A   1      42.025  28.072  28.799  1.00  0.00     0.049 A 
ATOM     47  N   UNL A   1      39.872  30.105  29.173  1.00  0.00    -0.248 NA
ATOM     48  C   UNL A   1      38.297  28.713  28.303  1.00  0.00     0.031 C 
ATOM     49  C   UNL A   1      43.013  27.082  28.633  1.00  0.00     0.029 A 
ATOM     50  N   UNL A   1      42.636  29.196  29.310  1.00  0.00    -0.354 N 
ATOM     51  C   UNL A   1      38.704  30.751  29.198  1.00  0.00     0.074 A 
ATOM     52  C   UNL A   1      37.675  29.867  28.633  1.00  0.00     0.031 C 
ATOM     53  C   UNL A   1      44.204  27.604  29.027  1.00  0.00     0.029 A 
ATOM     54  C   UNL A   1      43.980  28.930  29.447  1.00  0.00     0.049 A 
ATOM     55  H   UNL A   1      42.189  30.042  29.539  1.00  0.00     0.167 HD
ATOM     56  C   UNL A   1      38.456  32.040  29.673  1.00  0.00     0.031 A 
ATOM     57  C   UNL A   1      44.972  29.782  29.907  1.00  0.00     0.031 A 
ATOM     58  C   UNL A   1      39.440  32.877  30.173  1.00  0.00     0.049 A 
ATOM     59  C   UNL A   1      44.733  31.093  30.327  1.00  0.00     0.074 A 
ATOM     60  C   UNL A   1      39.206  34.176  30.662  1.00  0.00     0.029 A 
ATOM     61  N   UNL A   1      40.789  32.619  30.287  1.00  0.00    -0.354 N 
ATOM     62  N   UNL A   1      43.559  31.723  30.390  1.00  0.00    -0.248 NA
ATOM     63  C   UNL A   1      45.780  32.015  30.787  1.00  0.00     0.031 C 
ATOM     64  C   UNL A   1      40.398  34.699  31.057  1.00  0.00     0.029 A 
ATOM     65  C   UNL A   1      41.396  33.734  30.819  1.00  0.00     0.049 A 
ATOM     66  H   UNL A   1      41.240  31.782  30.031  1.00  0.00     0.167 HD
ATOM     67  C   UNL A   1      43.727  32.961  30.860  1.00  0.00     0.074 A 
ATOM     68  C   UNL A   1      45.159  33.169  31.116  1.00  0.00     0.031 C 
ATOM     69  C   UNL A   1      42.742  33.923  31.090  1.00  0.00     0.031 A 
BRANCH  56  70
ATOM     70  C   UNL A   1      37.027  32.554  29.636  1.00  0.00    -0.014 A 
ATOM     71  C   UNL A   1      36.210  32.370  30.739  1.00  0.00     0.009 A 
ATOM     72  C   UNL A   1      36.583  33.172  28.547  1.00  0.00     0.009 A 
ATOM     73  C   UNL A   1      34.839  32.620  30.486  1.00  0.00     0.001 A 
ATOM     74  C   UNL A   1      35.257  33.509  28.424  1.00  0.00     0.001 A 
ATOM     75  C   UNL A   1      34.381  33.301  29.452  1.00  0.00     0.000 A 
ENDBRANCH  56  70
BRANCH  57  76
ATOM     76  C   UNL A   1      46.398  29.260  29.959  1.00  0.00    -0.014 A 
ATOM     77  C   UNL A   1      47.239  29.475  28.879  1.00  0.00     0.009 A 
ATOM     78  C   UNL A   1      46.815  28.608  31.037  1.00  0.00     0.009 A 
ATOM     79  C   UNL A   1      48.426  28.705  28.915  1.00  0.00     0.001 A 
ATOM     80  C   UNL A   1      48.045  27.993  31.052  1.00  0.00     0.001 A 
ATOM     81  C   UNL A   1      48.904  28.114  29.995  1.00  0.00     0.000 A 
ENDBRANCH  57  76
BRANCH  69  82
ATOM     82  C   UNL A   1      43.173  35.259  31.674  1.00  0.00    -0.014 A 
ATOM     83  C   UNL A   1      43.644  36.237  30.813  1.00  0.00     0.009 A 
ATOM     84  C   UNL A   1      43.092  35.473  32.982  1.00  0.00     0.009 A 
ATOM     85  C   UNL A   1      44.282  37.317  31.467  1.00  0.00     0.001 A 
ATOM     86  C   UNL A   1      43.617  36.616  33.537  1.00  0.00     0.001 A 
ATOM     87  C   UNL A   1      44.152  37.598  32.751  1.00  0.00     0.000 A 
ENDBRANCH  69  82
ENDBRANCH  43  44
ENDBRANCH  36  38
ENDBRANCH  35  36
ENDBRANCH  34  35
ENDBRANCH  33  34
ENDBRANCH  32  33
ENDBRANCH  31  32
ENDBRANCH   1  31
TORSDOF 22
ENDMDL
MODEL 3
REMARK VINA RESULT:      -8.7      5.679     11.286
REMARK SMILES O=C(OCCOCCOCCOCCOC(=O)c1ccc(-c2c3nc(c(-c4ccccc4)c4ccc([nH]4)c(-c4ccccc4)c4nc(c(-c5ccccc5)c5ccc2[nH]5)C=C4)C=C3)cc1)C1=Cc2cc(S(F)(F)(F)(F)F)ccc2O[C@H]1C(F)(F)F
REMARK SMILES IDX 10 1 9 2 8 3 7 4 6 5 5 6 4 7 3 8 2 9 1 10 66 11 67 12 81 13
REMARK SMILES IDX 68 14 80 15 69 16 79 17 70 18 78 19 77 20 82 21 83 22 84 23
REMARK SMILES IDX 85 24 71 25 72 26 73 27 74 28 75 29 76 30 11 31 12 32 13 33
REMARK SMILES IDX 14 34 15 35 16 36 17 37 18 38 19 39 65 40 20 41 64 42 21 43
REMARK SMILES IDX 22 44 23 45 58 46 24 47 63 48 57 49 59 50 25 51 62 52 56 53
REMARK SMILES IDX 55 54 26 56 48 57 33 58 47 59 34 60 37 61 46 62 60 63 35 64
REMARK SMILES IDX 36 65 45 67 61 68 38 69 27 70 28 71 32 72 29 73 31 74 30 75
REMARK SMILES IDX 49 76 50 77 54 78 51 79 53 80 52 81 39 82 40 83 44 84 41 85
REMARK SMILES IDX 43 86 42 87
REMARK H PARENT 59 55 37 66
REMARK Flexibility Score: inf
ROOT
ATOM      1  C   UNL A   1      31.392  26.818  26.346  1.00  0.00     0.188 C 
ENDROOT
BRANCH   1   2
ATOM      2  O   UNL A   1      31.545  25.487  25.876  1.00  0.00    -0.377 OA
BRANCH   2   3
ATOM      3  C   UNL A   1      30.347  24.761  26.111  1.00  0.00     0.188 C 
BRANCH   3   4
ATOM      4  C   UNL A   1      30.680  23.299  26.361  1.00  0.00     0.188 C 
BRANCH   4   5
ATOM      5  O   UNL A   1      31.363  23.174  27.600  1.00  0.00    -0.376 OA
BRANCH   5   6
ATOM      6  C   UNL A   1      32.558  22.433  27.409  1.00  0.00     0.202 C 
BRANCH   6   7
ATOM      7  C   UNL A   1      33.758  23.352  27.568  1.00  0.00     0.261 C 
BRANCH   7   8
ATOM      8  O   UNL A   1      34.935  22.668  27.165  1.00  0.00    -0.460 OA
BRANCH   8   9
ATOM      9  C   UNL A   1      35.607  23.052  25.975  1.00  0.00     0.338 C 
ATOM     10  O   UNL A   1      35.245  24.099  25.350  1.00  0.00    -0.246 OA
BRANCH   9  11
ATOM     11  C   UNL A   1      36.759  22.213  25.448  1.00  0.00     0.087 C 
ATOM     12  C   UNL A   1      36.510  21.023  24.838  1.00  0.00     0.027 C 
ATOM     13  C   UNL A   1      38.189  22.703  25.602  1.00  0.00     0.316 C 
ATOM     14  C   UNL A   1      35.079  20.532  24.684  1.00  0.00     0.019 A 
ATOM     15  O   UNL A   1      34.429  22.750  24.131  1.00  0.00    -0.475 OA
ATOM     16  C   UNL A   1      34.791  19.211  24.982  1.00  0.00     0.036 A 
ATOM     17  C   UNL A   1      34.133  21.368  24.272  1.00  0.00     0.128 A 
ATOM     18  C   UNL A   1      33.517  18.787  24.533  1.00  0.00     0.107 A 
ATOM     19  C   UNL A   1      32.872  20.908  23.981  1.00  0.00     0.048 A 
ATOM     20  C   UNL A   1      32.533  19.601  24.195  1.00  0.00     0.028 A 
BRANCH  13  21
ATOM     21  C   UNL A   1      38.191  24.048  26.311  1.00  0.00     0.430 C 
ATOM     22  F   UNL A   1      39.252  24.737  25.899  1.00  0.00    -0.167 F 
ATOM     23  F   UNL A   1      37.090  24.766  26.108  1.00  0.00    -0.167 F 
ATOM     24  F   UNL A   1      38.313  23.779  27.608  1.00  0.00    -0.167 F 
ENDBRANCH  13  21
BRANCH  18  25
ATOM     25  S   UNL A   1      33.216  17.006  24.415  1.00  0.00     0.310 S 
ATOM     26  F   UNL A   1      34.747  16.668  24.653  1.00  0.00    -0.094 F 
ATOM     27  F   UNL A   1      33.543  17.082  22.876  1.00  0.00    -0.094 F 
ATOM     28  F   UNL A   1      32.957  15.477  24.312  1.00  0.00    -0.094 F 
ATOM     29  F   UNL A   1      33.029  16.925  25.982  1.00  0.00    -0.094 F 
ATOM     30  F   UNL A   1      33.586  18.537  24.552  1.00  0.00    -0.094 F 
ENDBRANCH  18  25
ENDBRANCH   9  11
ENDBRANCH   8   9
ENDBRANCH   7   8
ENDBRANCH   6   7
ENDBRANCH   5   6
ENDBRANCH   4   5
ENDBRANCH   3   4
ENDBRANCH   2   3
ENDBRANCH   1   2
BRANCH   1  31
ATOM     31  C   UNL A   1      31.342  27.769  25.161  1.00  0.00     0.188 C 
BRANCH  31  32
ATOM     32  O   UNL A   1      32.145  28.908  25.434  1.00  0.00    -0.376 OA
BRANCH  32  33
ATOM     33  C   UNL A   1      32.960  28.651  26.567  1.00  0.00     0.202 C 
BRANCH  33  34
ATOM     34  C   UNL A   1      34.005  29.747  26.698  1.00  0.00     0.261 C 
BRANCH  34  35
ATOM     35  O   UNL A   1      33.541  30.738  27.602  1.00  0.00    -0.460 OA
BRANCH  35  36
ATOM     36  C   UNL A   1      34.469  31.558  28.298  1.00  0.00     0.338 C 
ATOM     37  O   UNL A   1      34.198  32.781  28.516  1.00  0.00    -0.246 OA
BRANCH  36  38
ATOM     38  C   UNL A   1      35.787  30.974  28.779  1.00  0.00     0.060 A 
ATOM     39  C   UNL A   1      35.754  29.878  29.626  1.00  0.00     0.016 A 
ATOM     40  C   UNL A   1      36.939  31.506  28.387  1.00  0.00     0.016 A 
ATOM     41  C   UNL A   1      36.995  29.591  30.241  1.00  0.00     0.010 A 
ATOM     42  C   UNL A   1      38.126  31.082  28.931  1.00  0.00     0.010 A 
ATOM     43  C   UNL A   1      38.162  30.044  29.819  1.00  0.00    -0.014 A 
BRANCH  43  44
ATOM     44  C   UNL A   1      39.474  29.442  30.296  1.00  0.00     0.031 A 
ATOM     45  C   UNL A   1      40.092  30.019  31.407  1.00  0.00     0.074 A 
ATOM     46  C   UNL A   1      39.984  28.357  29.604  1.00  0.00     0.049 A 
ATOM     47  N   UNL A   1      41.219  29.630  32.004  1.00  0.00    -0.248 NA
ATOM     48  C   UNL A   1      39.569  31.192  32.124  1.00  0.00     0.031 C 
ATOM     49  C   UNL A   1      39.363  27.764  28.488  1.00  0.00     0.029 A 
ATOM     50  N   UNL A   1      41.150  27.668  29.853  1.00  0.00    -0.354 N 
ATOM     51  C   UNL A   1      41.483  30.419  33.049  1.00  0.00     0.074 A 
ATOM     52  C   UNL A   1      40.428  31.438  33.137  1.00  0.00     0.031 C 
ATOM     53  C   UNL A   1      40.148  26.740  28.063  1.00  0.00     0.029 A 
ATOM     54  C   UNL A   1      41.274  26.675  28.907  1.00  0.00     0.049 A 
ATOM     55  H   UNL A   1      41.786  27.853  30.581  1.00  0.00     0.167 HD
ATOM     56  C   UNL A   1      42.559  30.325  33.934  1.00  0.00     0.031 A 
ATOM     57  C   UNL A   1      42.302  25.756  28.769  1.00  0.00     0.031 A 
ATOM     58  C   UNL A   1      43.565  29.379  33.821  1.00  0.00     0.049 A 
ATOM     59  C   UNL A   1      43.410  25.700  29.619  1.00  0.00     0.074 A 
ATOM     60  C   UNL A   1      44.653  29.267  34.708  1.00  0.00     0.029 A 
ATOM     61  N   UNL A   1      43.700  28.402  32.860  1.00  0.00    -0.354 N 
ATOM     62  N   UNL A   1      43.652  26.462  30.687  1.00  0.00    -0.248 NA
ATOM     63  C   UNL A   1      44.521  24.752  29.464  1.00  0.00     0.031 C 
ATOM     64  C   UNL A   1      45.438  28.241  34.283  1.00  0.00     0.029 A 
ATOM     65  C   UNL A   1      44.855  27.698  33.122  1.00  0.00     0.049 A 
ATOM     66  H   UNL A   1      43.080  28.235  32.115  1.00  0.00     0.167 HD
ATOM     67  C   UNL A   1      44.802  26.099  31.259  1.00  0.00     0.074 A 
ATOM     68  C   UNL A   1      45.381  24.999  30.476  1.00  0.00     0.031 C 
ATOM     69  C   UNL A   1      45.389  26.640  32.404  1.00  0.00     0.031 A 
BRANCH  56  70
ATOM     70  C   UNL A   1      42.631  31.317  35.082  1.00  0.00    -0.014 A 
ATOM     71  C   UNL A   1      42.024  31.007  36.288  1.00  0.00     0.009 A 
ATOM     72  C   UNL A   1      43.274  32.467  34.911  1.00  0.00     0.009 A 
ATOM     73  C   UNL A   1      41.902  32.108  37.169  1.00  0.00     0.001 A 
ATOM     74  C   UNL A   1      43.225  33.446  35.874  1.00  0.00     0.001 A 
ATOM     75  C   UNL A   1      42.592  33.229  37.065  1.00  0.00     0.000 A 
ENDBRANCH  56  70
BRANCH  57  76
ATOM     76  C   UNL A   1      42.221  24.754  27.630  1.00  0.00    -0.014 A 
ATOM     77  C   UNL A   1      41.631  23.520  27.851  1.00  0.00     0.009 A 
ATOM     78  C   UNL A   1      42.716  25.077  26.441  1.00  0.00     0.009 A 
ATOM     79  C   UNL A   1      41.871  22.577  26.824  1.00  0.00     0.001 A 
ATOM     80  C   UNL A   1      42.795  24.141  25.438  1.00  0.00     0.001 A 
ATOM     81  C   UNL A   1      42.285  22.884  25.608  1.00  0.00     0.000 A 
ENDBRANCH  57  76
BRANCH  69  82
ATOM     82  C   UNL A   1      46.692  26.029  32.893  1.00  0.00    -0.014 A 
ATOM     83  C   UNL A   1      47.886  26.550  32.422  1.00  0.00     0.009 A 
ATOM     84  C   UNL A   1      46.674  25.021  33.757  1.00  0.00     0.009 A 
ATOM     85  C   UNL A   1      49.014  25.744  32.701  1.00  0.00     0.001 A 
ATOM     86  C   UNL A   1      47.835  24.364  34.089  1.00  0.00     0.001 A 
ATOM     87  C   UNL A   1      49.044  24.788  33.612  1.00  0.00     0.000 A 
ENDBRANCH  69  82
ENDBRANCH  43  44
ENDBRANCH  36  38
ENDBRANCH  35  36
ENDBRANCH  34  35
ENDBRANCH  33  34
ENDBRANCH  32  33
ENDBRANCH  31  32
ENDBRANCH   1  31
TORSDOF 22
ENDMDL
