MODEL 1
REMARK VINA RESULT:     -10.3      0.000      0.000
REMARK SMILES O=C(OCCOCCOCCOCCOC(=O)[C@@H]1CN(C(=O)C[NH+]2CCOCC2)C[C@H]1c1ccc2c(c1)OCO2)c1ccc(-c2c3nc(c(-c4ccccc4)c4ccc([nH]4)c(-c4ccccc4)c4nc(c(-c5ccccc5)c5ccc2[nH]5)C=C4)C=C3)cc1
REMARK SMILES IDX 10 1 9 2 8 3 7 4 6 5 5 6 4 7 3 8 2 9 1 10 41 11 42 12 88 13
REMARK SMILES IDX 43 14 87 15 44 16 45 17 46 18 81 19 47 20 86 21 80 22 82 23
REMARK SMILES IDX 48 24 85 25 79 26 78 27 49 29 71 30 56 31 70 32 57 33 60 34
REMARK SMILES IDX 69 35 83 36 58 37 59 38 68 40 84 41 61 42 50 43 51 44 55 45
REMARK SMILES IDX 52 46 54 47 53 48 72 49 73 50 77 51 74 52 76 53 75 54 62 55
REMARK SMILES IDX 63 56 67 57 64 58 66 59 65 60 11 61 12 62 13 63 14 64 15 65
REMARK SMILES IDX 16 66 17 67 18 68 19 69 31 70 20 71 30 72 32 73 33 74 37 75
REMARK SMILES IDX 34 76 36 77 35 78 38 79 40 80 39 81 21 82 22 83 23 84 24 85
REMARK SMILES IDX 25 86 29 87 26 89 28 90 27 91
REMARK H PARENT 82 28 60 39 24 88
REMARK Flexibility Score: inf
ROOT
ATOM      1  C   UNL A   1      38.802  22.264  26.126  1.00  0.00     0.188 C 
ENDROOT
BRANCH   1   2
ATOM      2  O   UNL A   1      40.168  22.218  26.526  1.00  0.00    -0.377 OA
BRANCH   2   3
ATOM      3  C   UNL A   1      40.864  20.984  26.359  1.00  0.00     0.188 C 
BRANCH   3   4
ATOM      4  C   UNL A   1      41.512  20.463  27.634  1.00  0.00     0.188 C 
BRANCH   4   5
ATOM      5  O   UNL A   1      42.097  19.175  27.433  1.00  0.00    -0.376 OA
BRANCH   5   6
ATOM      6  C   UNL A   1      42.247  18.801  26.059  1.00  0.00     0.202 C 
BRANCH   6   7
ATOM      7  C   UNL A   1      43.558  18.087  25.742  1.00  0.00     0.261 C 
BRANCH   7   8
ATOM      8  O   UNL A   1      44.151  18.510  24.506  1.00  0.00    -0.460 OA
BRANCH   8   9
ATOM      9  C   UNL A   1      45.056  19.495  24.291  1.00  0.00     0.338 C 
ATOM     10  O   UNL A   1      46.096  19.201  23.703  1.00  0.00    -0.246 OA
BRANCH   9  11
ATOM     11  C   UNL A   1      44.898  20.919  24.736  1.00  0.00     0.060 A 
ATOM     12  C   UNL A   1      44.752  22.025  23.898  1.00  0.00     0.016 A 
ATOM     13  C   UNL A   1      44.836  21.148  26.123  1.00  0.00     0.016 A 
ATOM     14  C   UNL A   1      44.556  23.304  24.387  1.00  0.00     0.010 A 
ATOM     15  C   UNL A   1      44.681  22.440  26.637  1.00  0.00     0.010 A 
ATOM     16  C   UNL A   1      44.569  23.520  25.756  1.00  0.00    -0.014 A 
BRANCH  16  17
ATOM     17  C   UNL A   1      44.772  24.909  26.181  1.00  0.00     0.031 A 
ATOM     18  C   UNL A   1      46.128  25.496  25.931  1.00  0.00     0.074 A 
ATOM     19  C   UNL A   1      43.724  25.662  26.550  1.00  0.00     0.049 A 
ATOM     20  N   UNL A   1      46.587  26.681  26.220  1.00  0.00    -0.248 NA
ATOM     21  C   UNL A   1      47.095  24.630  25.226  1.00  0.00     0.031 C 
ATOM     22  C   UNL A   1      42.332  25.208  26.597  1.00  0.00     0.029 A 
ATOM     23  N   UNL A   1      43.663  26.980  26.905  1.00  0.00    -0.354 N 
ATOM     24  C   UNL A   1      47.901  26.687  25.770  1.00  0.00     0.074 A 
ATOM     25  C   UNL A   1      48.167  25.401  25.173  1.00  0.00     0.031 C 
ATOM     26  C   UNL A   1      41.551  26.239  26.959  1.00  0.00     0.029 A 
ATOM     27  C   UNL A   1      42.396  27.396  27.234  1.00  0.00     0.049 A 
ATOM     28  H   UNL A   1      44.448  27.571  26.924  1.00  0.00     0.167 HD
ATOM     29  C   UNL A   1      48.810  27.681  25.876  1.00  0.00     0.031 A 
ATOM     30  C   UNL A   1      41.995  28.572  27.747  1.00  0.00     0.031 A 
ATOM     31  C   UNL A   1      48.509  28.935  26.504  1.00  0.00     0.049 A 
ATOM     32  C   UNL A   1      43.052  29.614  27.997  1.00  0.00     0.074 A 
ATOM     33  C   UNL A   1      49.348  29.992  26.790  1.00  0.00     0.029 A 
ATOM     34  N   UNL A   1      47.239  29.290  26.945  1.00  0.00    -0.354 N 
ATOM     35  N   UNL A   1      44.330  29.582  27.691  1.00  0.00    -0.248 NA
ATOM     36  C   UNL A   1      42.625  30.840  28.679  1.00  0.00     0.031 C 
ATOM     37  C   UNL A   1      48.594  30.967  27.452  1.00  0.00     0.029 A 
ATOM     38  C   UNL A   1      47.273  30.543  27.521  1.00  0.00     0.049 A 
ATOM     39  H   UNL A   1      46.434  28.729  26.859  1.00  0.00     0.167 HD
ATOM     40  C   UNL A   1      44.859  30.785  28.130  1.00  0.00     0.074 A 
ATOM     41  C   UNL A   1      43.756  31.533  28.705  1.00  0.00     0.031 C 
ATOM     42  C   UNL A   1      46.137  31.238  28.075  1.00  0.00     0.031 A 
BRANCH  29  43
ATOM     43  C   UNL A   1      50.206  27.369  25.419  1.00  0.00    -0.014 A 
ATOM     44  C   UNL A   1      51.176  26.848  26.292  1.00  0.00     0.009 A 
ATOM     45  C   UNL A   1      50.580  27.688  24.104  1.00  0.00     0.009 A 
ATOM     46  C   UNL A   1      52.499  26.698  25.868  1.00  0.00     0.001 A 
ATOM     47  C   UNL A   1      51.897  27.512  23.676  1.00  0.00     0.001 A 
ATOM     48  C   UNL A   1      52.859  27.030  24.562  1.00  0.00     0.000 A 
ENDBRANCH  29  43
BRANCH  30  49
ATOM     49  C   UNL A   1      40.574  28.782  28.137  1.00  0.00    -0.014 A 
ATOM     50  C   UNL A   1      39.644  29.329  27.242  1.00  0.00     0.009 A 
ATOM     51  C   UNL A   1      40.139  28.433  29.429  1.00  0.00     0.009 A 
ATOM     52  C   UNL A   1      38.318  29.538  27.637  1.00  0.00     0.001 A 
ATOM     53  C   UNL A   1      38.807  28.613  29.810  1.00  0.00     0.001 A 
ATOM     54  C   UNL A   1      37.900  29.175  28.916  1.00  0.00     0.000 A 
ENDBRANCH  30  49
BRANCH  42  55
ATOM     55  C   UNL A   1      46.387  32.614  28.613  1.00  0.00    -0.014 A 
ATOM     56  C   UNL A   1      46.259  33.748  27.797  1.00  0.00     0.009 A 
ATOM     57  C   UNL A   1      46.691  32.774  29.974  1.00  0.00     0.009 A 
ATOM     58  C   UNL A   1      46.460  35.019  28.333  1.00  0.00     0.001 A 
ATOM     59  C   UNL A   1      46.860  34.048  30.511  1.00  0.00     0.001 A 
ATOM     60  C   UNL A   1      46.752  35.168  29.688  1.00  0.00     0.000 A 
ENDBRANCH  42  55
ENDBRANCH  16  17
ENDBRANCH   9  11
ENDBRANCH   8   9
ENDBRANCH   7   8
ENDBRANCH   6   7
ENDBRANCH   5   6
ENDBRANCH   4   5
ENDBRANCH   3   4
ENDBRANCH   2   3
ENDBRANCH   1   2
BRANCH   1  61
ATOM     61  C   UNL A   1      38.079  23.618  26.177  1.00  0.00     0.188 C 
BRANCH  61  62
ATOM     62  O   UNL A   1      37.194  23.833  25.087  1.00  0.00    -0.376 OA
BRANCH  62  63
ATOM     63  C   UNL A   1      37.031  22.714  24.213  1.00  0.00     0.202 C 
BRANCH  63  64
ATOM     64  C   UNL A   1      36.226  22.950  22.912  1.00  0.00     0.261 C 
BRANCH  64  65
ATOM     65  O   UNL A   1      35.016  23.687  23.141  1.00  0.00    -0.463 OA
BRANCH  65  66
ATOM     66  C   UNL A   1      33.851  23.355  22.531  1.00  0.00     0.311 C 
ATOM     67  O   UNL A   1      33.606  23.506  21.342  1.00  0.00    -0.252 OA
BRANCH  66  68
ATOM     68  C   UNL A   1      32.999  22.580  23.520  1.00  0.00     0.128 C 
ATOM     69  C   UNL A   1      31.919  23.487  24.055  1.00  0.00     0.135 C 
ATOM     70  C   UNL A   1      33.671  21.858  24.695  1.00  0.00     0.055 C 
ATOM     71  N   UNL A   1      31.899  23.338  25.478  1.00  0.00    -0.336 N 
ATOM     72  C   UNL A   1      32.956  22.444  25.940  1.00  0.00     0.129 C 
BRANCH  70  73
ATOM     73  C   UNL A   1      33.595  20.336  24.431  1.00  0.00    -0.038 A 
ATOM     74  C   UNL A   1      32.412  19.828  23.816  1.00  0.00     0.008 A 
ATOM     75  C   UNL A   1      34.572  19.405  24.823  1.00  0.00     0.054 A 
ATOM     76  C   UNL A   1      32.170  18.458  23.664  1.00  0.00     0.051 A 
ATOM     77  C   UNL A   1      34.320  18.051  24.630  1.00  0.00     0.166 A 
ATOM     78  C   UNL A   1      33.147  17.593  24.082  1.00  0.00     0.165 A 
ATOM     79  O   UNL A   1      35.158  17.029  24.962  1.00  0.00    -0.454 OA
ATOM     80  O   UNL A   1      33.087  16.236  24.017  1.00  0.00    -0.454 OA
ATOM     81  C   UNL A   1      34.402  15.891  24.493  1.00  0.00     0.468 C 
ENDBRANCH  70  73
BRANCH  71  82
ATOM     82  C   UNL A   1      31.073  24.026  26.355  1.00  0.00     0.277 C 
ATOM     83  O   UNL A   1      30.466  23.426  27.246  1.00  0.00    -0.268 OA
BRANCH  82  84
ATOM     84  C   UNL A   1      30.841  25.544  26.125  1.00  0.00     0.363 C 
BRANCH  84  85
ATOM     85  N   UNL A   1      31.850  26.426  26.768  1.00  0.00    -0.323 N 
ATOM     86  C   UNL A   1      31.399  27.841  26.761  1.00  0.00     0.291 C 
ATOM     87  C   UNL A   1      33.178  26.422  26.122  1.00  0.00     0.291 C 
ATOM     88  H   UNL A   1      31.939  26.041  27.709  1.00  0.00     0.348 HD
ATOM     89  C   UNL A   1      31.432  28.505  25.369  1.00  0.00     0.221 C 
ATOM     90  C   UNL A   1      33.165  27.031  24.705  1.00  0.00     0.221 C 
ATOM     91  O   UNL A   1      32.717  28.391  24.740  1.00  0.00    -0.370 OA
ENDBRANCH  84  85
ENDBRANCH  82  84
ENDBRANCH  71  82
ENDBRANCH  66  68
ENDBRANCH  65  66
ENDBRANCH  64  65
ENDBRANCH  63  64
ENDBRANCH  62  63
ENDBRANCH  61  62
ENDBRANCH   1  61
TORSDOF 24
ENDMDL
MODEL 2
REMARK VINA RESULT:     -10.0      4.421      8.981
REMARK SMILES O=C(OCCOCCOCCOCCOC(=O)[C@@H]1CN(C(=O)C[NH+]2CCOCC2)C[C@H]1c1ccc2c(c1)OCO2)c1ccc(-c2c3nc(c(-c4ccccc4)c4ccc([nH]4)c(-c4ccccc4)c4nc(c(-c5ccccc5)c5ccc2[nH]5)C=C4)C=C3)cc1
REMARK SMILES IDX 10 1 9 2 8 3 7 4 6 5 5 6 4 7 3 8 2 9 1 10 41 11 42 12 88 13
REMARK SMILES IDX 43 14 87 15 44 16 45 17 46 18 81 19 47 20 86 21 80 22 82 23
REMARK SMILES IDX 48 24 85 25 79 26 78 27 49 29 71 30 56 31 70 32 57 33 60 34
REMARK SMILES IDX 69 35 83 36 58 37 59 38 68 40 84 41 61 42 50 43 51 44 55 45
REMARK SMILES IDX 52 46 54 47 53 48 72 49 73 50 77 51 74 52 76 53 75 54 62 55
REMARK SMILES IDX 63 56 67 57 64 58 66 59 65 60 11 61 12 62 13 63 14 64 15 65
REMARK SMILES IDX 16 66 17 67 18 68 19 69 31 70 20 71 30 72 32 73 33 74 37 75
REMARK SMILES IDX 34 76 36 77 35 78 38 79 40 80 39 81 21 82 22 83 23 84 24 85
REMARK SMILES IDX 25 86 29 87 26 89 28 90 27 91
REMARK H PARENT 82 28 60 39 24 88
REMARK Flexibility Score: inf
ROOT
ATOM      1  C   UNL A   1      38.180  21.159  25.632  1.00  0.00     0.188 C 
ENDROOT
BRANCH   1   2
ATOM      2  O   UNL A   1      39.351  21.199  26.441  1.00  0.00    -0.377 OA
BRANCH   2   3
ATOM      3  C   UNL A   1      40.383  20.256  26.155  1.00  0.00     0.188 C 
BRANCH   3   4
ATOM      4  C   UNL A   1      41.790  20.807  26.335  1.00  0.00     0.188 C 
BRANCH   4   5
ATOM      5  O   UNL A   1      42.043  21.896  25.446  1.00  0.00    -0.376 OA
BRANCH   5   6
ATOM      6  C   UNL A   1      43.415  22.039  25.060  1.00  0.00     0.202 C 
BRANCH   6   7
ATOM      7  C   UNL A   1      44.369  22.297  26.223  1.00  0.00     0.261 C 
BRANCH   7   8
ATOM      8  O   UNL A   1      45.232  23.423  26.010  1.00  0.00    -0.460 OA
BRANCH   8   9
ATOM      9  C   UNL A   1      44.900  24.716  25.778  1.00  0.00     0.338 C 
ATOM     10  O   UNL A   1      45.265  25.221  24.717  1.00  0.00    -0.246 OA
BRANCH   9  11
ATOM     11  C   UNL A   1      44.135  25.590  26.728  1.00  0.00     0.060 A 
ATOM     12  C   UNL A   1      44.354  26.951  26.940  1.00  0.00     0.016 A 
ATOM     13  C   UNL A   1      43.068  24.991  27.423  1.00  0.00     0.016 A 
ATOM     14  C   UNL A   1      43.568  27.703  27.796  1.00  0.00     0.010 A 
ATOM     15  C   UNL A   1      42.289  25.725  28.324  1.00  0.00     0.010 A 
ATOM     16  C   UNL A   1      42.567  27.080  28.525  1.00  0.00    -0.014 A 
BRANCH  16  17
ATOM     17  C   UNL A   1      42.067  27.824  29.687  1.00  0.00     0.031 A 
ATOM     18  C   UNL A   1      40.741  28.504  29.527  1.00  0.00     0.074 A 
ATOM     19  C   UNL A   1      42.664  27.691  30.882  1.00  0.00     0.049 A 
ATOM     20  N   UNL A   1      40.078  29.240  30.374  1.00  0.00    -0.248 NA
ATOM     21  C   UNL A   1      40.052  28.299  28.237  1.00  0.00     0.031 C 
ATOM     22  C   UNL A   1      43.837  26.856  31.152  1.00  0.00     0.029 A 
ATOM     23  N   UNL A   1      42.334  28.217  32.098  1.00  0.00    -0.354 N 
ATOM     24  C   UNL A   1      38.919  29.616  29.707  1.00  0.00     0.074 A 
ATOM     25  C   UNL A   1      38.954  29.016  28.395  1.00  0.00     0.031 C 
ATOM     26  C   UNL A   1      44.125  26.925  32.463  1.00  0.00     0.029 A 
ATOM     27  C   UNL A   1      43.204  27.860  33.099  1.00  0.00     0.049 A 
ATOM     28  H   UNL A   1      41.552  28.796  32.243  1.00  0.00     0.167 HD
ATOM     29  C   UNL A   1      37.927  30.416  30.153  1.00  0.00     0.031 A 
ATOM     30  C   UNL A   1      43.260  28.293  34.371  1.00  0.00     0.031 A 
ATOM     31  C   UNL A   1      37.948  31.013  31.457  1.00  0.00     0.049 A 
ATOM     32  C   UNL A   1      42.231  29.302  34.803  1.00  0.00     0.074 A 
ATOM     33  C   UNL A   1      37.081  31.933  32.010  1.00  0.00     0.029 A 
ATOM     34  N   UNL A   1      38.913  30.731  32.418  1.00  0.00    -0.354 N 
ATOM     35  N   UNL A   1      41.198  29.765  34.135  1.00  0.00    -0.248 NA
ATOM     36  C   UNL A   1      42.381  29.867  36.148  1.00  0.00     0.031 C 
ATOM     37  C   UNL A   1      37.553  32.247  33.290  1.00  0.00     0.029 A 
ATOM     38  C   UNL A   1      38.677  31.475  33.555  1.00  0.00     0.049 A 
ATOM     39  H   UNL A   1      39.656  30.095  32.302  1.00  0.00     0.167 HD
ATOM     40  C   UNL A   1      40.567  30.664  34.980  1.00  0.00     0.074 A 
ATOM     41  C   UNL A   1      41.324  30.665  36.218  1.00  0.00     0.031 C 
ATOM     42  C   UNL A   1      39.468  31.429  34.761  1.00  0.00     0.031 A 
BRANCH  29  43
ATOM     43  C   UNL A   1      36.848  30.766  29.169  1.00  0.00    -0.014 A 
ATOM     44  C   UNL A   1      36.679  32.072  28.683  1.00  0.00     0.009 A 
ATOM     45  C   UNL A   1      35.926  29.777  28.789  1.00  0.00     0.009 A 
ATOM     46  C   UNL A   1      35.583  32.389  27.875  1.00  0.00     0.001 A 
ATOM     47  C   UNL A   1      34.848  30.091  27.960  1.00  0.00     0.001 A 
ATOM     48  C   UNL A   1      34.669  31.399  27.515  1.00  0.00     0.000 A 
ENDBRANCH  29  43
BRANCH  30  49
ATOM     49  C   UNL A   1      44.362  27.855  35.270  1.00  0.00    -0.014 A 
ATOM     50  C   UNL A   1      44.231  26.724  36.089  1.00  0.00     0.009 A 
ATOM     51  C   UNL A   1      45.565  28.582  35.317  1.00  0.00     0.009 A 
ATOM     52  C   UNL A   1      45.270  26.343  36.944  1.00  0.00     0.001 A 
ATOM     53  C   UNL A   1      46.614  28.182  36.148  1.00  0.00     0.001 A 
ATOM     54  C   UNL A   1      46.461  27.067  36.969  1.00  0.00     0.000 A 
ENDBRANCH  30  49
BRANCH  42  55
ATOM     55  C   UNL A   1      39.009  32.288  35.900  1.00  0.00    -0.014 A 
ATOM     56  C   UNL A   1      38.020  31.845  36.792  1.00  0.00     0.009 A 
ATOM     57  C   UNL A   1      39.625  33.530  36.115  1.00  0.00     0.009 A 
ATOM     58  C   UNL A   1      37.639  32.649  37.866  1.00  0.00     0.001 A 
ATOM     59  C   UNL A   1      39.263  34.316  37.206  1.00  0.00     0.001 A 
ATOM     60  C   UNL A   1      38.265  33.878  38.075  1.00  0.00     0.000 A 
ENDBRANCH  42  55
ENDBRANCH  16  17
ENDBRANCH   9  11
ENDBRANCH   8   9
ENDBRANCH   7   8
ENDBRANCH   6   7
ENDBRANCH   5   6
ENDBRANCH   4   5
ENDBRANCH   3   4
ENDBRANCH   2   3
ENDBRANCH   1   2
BRANCH   1  61
ATOM     61  C   UNL A   1      37.409  22.469  25.412  1.00  0.00     0.188 C 
BRANCH  61  62
ATOM     62  O   UNL A   1      36.049  22.276  25.047  1.00  0.00    -0.376 OA
BRANCH  62  63
ATOM     63  C   UNL A   1      35.211  21.775  26.091  1.00  0.00     0.202 C 
BRANCH  63  64
ATOM     64  C   UNL A   1      34.533  22.821  27.009  1.00  0.00     0.261 C 
BRANCH  64  65
ATOM     65  O   UNL A   1      33.120  22.605  27.138  1.00  0.00    -0.463 OA
BRANCH  65  66
ATOM     66  C   UNL A   1      32.217  23.564  26.813  1.00  0.00     0.311 C 
ATOM     67  O   UNL A   1      31.927  24.527  27.507  1.00  0.00    -0.252 OA
BRANCH  66  68
ATOM     68  C   UNL A   1      31.797  23.352  25.370  1.00  0.00     0.128 C 
ATOM     69  C   UNL A   1      31.609  21.875  25.123  1.00  0.00     0.135 C 
ATOM     70  C   UNL A   1      32.649  23.941  24.239  1.00  0.00     0.055 C 
ATOM     71  N   UNL A   1      32.288  21.553  23.906  1.00  0.00    -0.336 N 
ATOM     72  C   UNL A   1      32.989  22.710  23.359  1.00  0.00     0.129 C 
BRANCH  70  73
ATOM     73  C   UNL A   1      31.868  25.120  23.612  1.00  0.00    -0.038 A 
ATOM     74  C   UNL A   1      32.513  25.869  22.583  1.00  0.00     0.008 A 
ATOM     75  C   UNL A   1      30.601  25.556  24.033  1.00  0.00     0.054 A 
ATOM     76  C   UNL A   1      31.966  27.041  22.048  1.00  0.00     0.051 A 
ATOM     77  C   UNL A   1      30.066  26.706  23.461  1.00  0.00     0.166 A 
ATOM     78  C   UNL A   1      30.737  27.434  22.509  1.00  0.00     0.165 A 
ATOM     79  O   UNL A   1      28.859  27.260  23.766  1.00  0.00    -0.454 OA
ATOM     80  O   UNL A   1      30.055  28.540  22.110  1.00  0.00    -0.454 OA
ATOM     81  C   UNL A   1      28.828  28.373  22.845  1.00  0.00     0.468 C 
ENDBRANCH  70  73
BRANCH  71  82
ATOM     82  C   UNL A   1      32.389  20.289  23.343  1.00  0.00     0.277 C 
ATOM     83  O   UNL A   1      31.935  20.066  22.218  1.00  0.00    -0.268 OA
BRANCH  82  84
ATOM     84  C   UNL A   1      32.984  19.138  24.198  1.00  0.00     0.363 C 
BRANCH  84  85
ATOM     85  N   UNL A   1      32.340  17.815  23.983  1.00  0.00    -0.323 N 
ATOM     86  C   UNL A   1      32.384  16.997  25.222  1.00  0.00     0.291 C 
ATOM     87  C   UNL A   1      32.962  16.987  22.930  1.00  0.00     0.291 C 
ATOM     88  H   UNL A   1      31.390  18.055  23.698  1.00  0.00     0.348 HD
ATOM     89  C   UNL A   1      33.789  16.464  25.575  1.00  0.00     0.221 C 
ATOM     90  C   UNL A   1      34.390  16.527  23.283  1.00  0.00     0.221 C 
ATOM     91  O   UNL A   1      34.392  15.749  24.487  1.00  0.00    -0.370 OA
ENDBRANCH  84  85
ENDBRANCH  82  84
ENDBRANCH  71  82
ENDBRANCH  66  68
ENDBRANCH  65  66
ENDBRANCH  64  65
ENDBRANCH  63  64
ENDBRANCH  62  63
ENDBRANCH  61  62
ENDBRANCH   1  61
TORSDOF 24
ENDMDL
MODEL 3
REMARK VINA RESULT:      -9.9      0.709      5.561
REMARK SMILES O=C(OCCOCCOCCOCCOC(=O)[C@@H]1CN(C(=O)C[NH+]2CCOCC2)C[C@H]1c1ccc2c(c1)OCO2)c1ccc(-c2c3nc(c(-c4ccccc4)c4ccc([nH]4)c(-c4ccccc4)c4nc(c(-c5ccccc5)c5ccc2[nH]5)C=C4)C=C3)cc1
REMARK SMILES IDX 10 1 9 2 8 3 7 4 6 5 5 6 4 7 3 8 2 9 1 10 41 11 42 12 88 13
REMARK SMILES IDX 43 14 87 15 44 16 45 17 46 18 81 19 47 20 86 21 80 22 82 23
REMARK SMILES IDX 48 24 85 25 79 26 78 27 49 29 71 30 56 31 70 32 57 33 60 34
REMARK SMILES IDX 69 35 83 36 58 37 59 38 68 40 84 41 61 42 50 43 51 44 55 45
REMARK SMILES IDX 52 46 54 47 53 48 72 49 73 50 77 51 74 52 76 53 75 54 62 55
REMARK SMILES IDX 63 56 67 57 64 58 66 59 65 60 11 61 12 62 13 63 14 64 15 65
REMARK SMILES IDX 16 66 17 67 18 68 19 69 31 70 20 71 30 72 32 73 33 74 37 75
REMARK SMILES IDX 34 76 36 77 35 78 38 79 40 80 39 81 21 82 22 83 23 84 24 85
REMARK SMILES IDX 25 86 29 87 26 89 28 90 27 91
REMARK H PARENT 82 28 60 39 24 88
REMARK Flexibility Score: inf
ROOT
ATOM      1  C   UNL A   1      38.216  22.073  26.277  1.00  0.00     0.188 C 
ENDROOT
BRANCH   1   2
ATOM      2  O   UNL A   1      39.605  22.056  26.588  1.00  0.00    -0.377 OA
BRANCH   2   3
ATOM      3  C   UNL A   1      40.293  20.812  26.471  1.00  0.00     0.188 C 
BRANCH   3   4
ATOM      4  C   UNL A   1      41.359  20.592  27.535  1.00  0.00     0.188 C 
BRANCH   4   5
ATOM      5  O   UNL A   1      42.265  19.553  27.160  1.00  0.00    -0.376 OA
BRANCH   5   6
ATOM      6  C   UNL A   1      42.379  19.350  25.746  1.00  0.00     0.202 C 
BRANCH   6   7
ATOM      7  C   UNL A   1      43.619  18.567  25.323  1.00  0.00     0.261 C 
BRANCH   7   8
ATOM      8  O   UNL A   1      44.312  19.157  24.214  1.00  0.00    -0.460 OA
BRANCH   8   9
ATOM      9  C   UNL A   1      45.344  20.034  24.227  1.00  0.00     0.338 C 
ATOM     10  O   UNL A   1      46.436  19.641  23.816  1.00  0.00    -0.246 OA
BRANCH   9  11
ATOM     11  C   UNL A   1      45.266  21.447  24.724  1.00  0.00     0.060 A 
ATOM     12  C   UNL A   1      44.986  22.572  23.947  1.00  0.00     0.016 A 
ATOM     13  C   UNL A   1      45.436  21.644  26.107  1.00  0.00     0.016 A 
ATOM     14  C   UNL A   1      44.878  23.839  24.491  1.00  0.00     0.010 A 
ATOM     15  C   UNL A   1      45.371  22.924  26.669  1.00  0.00     0.010 A 
ATOM     16  C   UNL A   1      45.119  24.023  25.844  1.00  0.00    -0.014 A 
BRANCH  16  17
ATOM     17  C   UNL A   1      45.393  25.403  26.261  1.00  0.00     0.031 A 
ATOM     18  C   UNL A   1      44.263  26.144  26.908  1.00  0.00     0.074 A 
ATOM     19  C   UNL A   1      46.651  25.868  26.269  1.00  0.00     0.049 A 
ATOM     20  N   UNL A   1      44.219  27.370  27.351  1.00  0.00    -0.248 NA
ATOM     21  C   UNL A   1      43.013  25.384  27.113  1.00  0.00     0.031 C 
ATOM     22  C   UNL A   1      47.835  25.109  25.859  1.00  0.00     0.029 A 
ATOM     23  N   UNL A   1      47.147  27.073  26.681  1.00  0.00    -0.354 N 
ATOM     24  C   UNL A   1      42.931  27.536  27.846  1.00  0.00     0.074 A 
ATOM     25  C   UNL A   1      42.229  26.288  27.671  1.00  0.00     0.031 C 
ATOM     26  C   UNL A   1      48.926  25.872  26.047  1.00  0.00     0.029 A 
ATOM     27  C   UNL A   1      48.506  27.185  26.520  1.00  0.00     0.049 A 
ATOM     28  H   UNL A   1      46.585  27.788  27.055  1.00  0.00     0.167 HD
ATOM     29  C   UNL A   1      42.385  28.651  28.377  1.00  0.00     0.031 A 
ATOM     30  C   UNL A   1      49.295  28.260  26.694  1.00  0.00     0.031 A 
ATOM     31  C   UNL A   1      43.114  29.879  28.507  1.00  0.00     0.049 A 
ATOM     32  C   UNL A   1      48.636  29.536  27.144  1.00  0.00     0.074 A 
ATOM     33  C   UNL A   1      42.670  31.120  28.915  1.00  0.00     0.029 A 
ATOM     34  N   UNL A   1      44.469  30.004  28.218  1.00  0.00    -0.354 N 
ATOM     35  N   UNL A   1      47.386  29.740  27.495  1.00  0.00    -0.248 NA
ATOM     36  C   UNL A   1      49.482  30.733  27.201  1.00  0.00     0.031 C 
ATOM     37  C   UNL A   1      43.747  32.009  28.824  1.00  0.00     0.029 A 
ATOM     38  C   UNL A   1      44.875  31.307  28.419  1.00  0.00     0.049 A 
ATOM     39  H   UNL A   1      45.052  29.271  27.914  1.00  0.00     0.167 HD
ATOM     40  C   UNL A   1      47.295  31.082  27.828  1.00  0.00     0.074 A 
ATOM     41  C   UNL A   1      48.625  31.638  27.656  1.00  0.00     0.031 C 
ATOM     42  C   UNL A   1      46.218  31.800  28.233  1.00  0.00     0.031 A 
BRANCH  29  43
ATOM     43  C   UNL A   1      40.922  28.591  28.714  1.00  0.00    -0.014 A 
ATOM     44  C   UNL A   1      39.931  28.961  27.791  1.00  0.00     0.009 A 
ATOM     45  C   UNL A   1      40.537  28.236  30.016  1.00  0.00     0.009 A 
ATOM     46  C   UNL A   1      38.590  29.022  28.182  1.00  0.00     0.001 A 
ATOM     47  C   UNL A   1      39.194  28.273  30.396  1.00  0.00     0.001 A 
ATOM     48  C   UNL A   1      38.223  28.679  29.482  1.00  0.00     0.000 A 
ENDBRANCH  29  43
BRANCH  30  49
ATOM     49  C   UNL A   1      50.743  28.197  26.355  1.00  0.00    -0.014 A 
ATOM     50  C   UNL A   1      51.198  28.429  25.049  1.00  0.00     0.009 A 
ATOM     51  C   UNL A   1      51.688  27.897  27.352  1.00  0.00     0.009 A 
ATOM     52  C   UNL A   1      52.561  28.344  24.748  1.00  0.00     0.001 A 
ATOM     53  C   UNL A   1      53.052  27.843  27.055  1.00  0.00     0.001 A 
ATOM     54  C   UNL A   1      53.486  28.057  25.750  1.00  0.00     0.000 A 
ENDBRANCH  30  49
BRANCH  42  55
ATOM     55  C   UNL A   1      46.455  33.246  28.552  1.00  0.00    -0.014 A 
ATOM     56  C   UNL A   1      46.804  33.656  29.847  1.00  0.00     0.009 A 
ATOM     57  C   UNL A   1      46.388  34.196  27.521  1.00  0.00     0.009 A 
ATOM     58  C   UNL A   1      47.056  35.002  30.108  1.00  0.00     0.001 A 
ATOM     59  C   UNL A   1      46.670  35.535  27.780  1.00  0.00     0.001 A 
ATOM     60  C   UNL A   1      46.996  35.937  29.075  1.00  0.00     0.000 A 
ENDBRANCH  42  55
ENDBRANCH  16  17
ENDBRANCH   9  11
ENDBRANCH   8   9
ENDBRANCH   7   8
ENDBRANCH   6   7
ENDBRANCH   5   6
ENDBRANCH   4   5
ENDBRANCH   3   4
ENDBRANCH   2   3
ENDBRANCH   1   2
BRANCH   1  61
ATOM     61  C   UNL A   1      37.556  23.429  25.986  1.00  0.00     0.188 C 
BRANCH  61  62
ATOM     62  O   UNL A   1      37.516  23.758  24.604  1.00  0.00    -0.376 OA
BRANCH  62  63
ATOM     63  C   UNL A   1      36.816  22.822  23.782  1.00  0.00     0.202 C 
BRANCH  63  64
ATOM     64  C   UNL A   1      36.004  23.399  22.596  1.00  0.00     0.261 C 
BRANCH  64  65
ATOM     65  O   UNL A   1      34.693  23.832  22.987  1.00  0.00    -0.463 OA
BRANCH  65  66
ATOM     66  C   UNL A   1      33.574  23.355  22.387  1.00  0.00     0.311 C 
ATOM     67  O   UNL A   1      33.336  23.408  21.189  1.00  0.00    -0.252 OA
BRANCH  66  68
ATOM     68  C   UNL A   1      32.782  22.567  23.415  1.00  0.00     0.128 C 
ATOM     69  C   UNL A   1      31.680  23.440  23.962  1.00  0.00     0.135 C 
ATOM     70  C   UNL A   1      33.514  21.897  24.584  1.00  0.00     0.055 C 
ATOM     71  N   UNL A   1      31.705  23.320  25.387  1.00  0.00    -0.336 N 
ATOM     72  C   UNL A   1      32.809  22.479  25.837  1.00  0.00     0.129 C 
BRANCH  70  73
ATOM     73  C   UNL A   1      33.494  20.369  24.353  1.00  0.00    -0.038 A 
ATOM     74  C   UNL A   1      32.309  19.798  23.799  1.00  0.00     0.008 A 
ATOM     75  C   UNL A   1      34.526  19.488  24.720  1.00  0.00     0.054 A 
ATOM     76  C   UNL A   1      32.121  18.416  23.683  1.00  0.00     0.051 A 
ATOM     77  C   UNL A   1      34.325  18.121  24.563  1.00  0.00     0.166 A 
ATOM     78  C   UNL A   1      33.151  17.602  24.075  1.00  0.00     0.165 A 
ATOM     79  O   UNL A   1      35.220  17.142  24.879  1.00  0.00    -0.454 OA
ATOM     80  O   UNL A   1      33.148  16.243  24.038  1.00  0.00    -0.454 OA
ATOM     81  C   UNL A   1      34.495  15.964  24.464  1.00  0.00     0.468 C 
ENDBRANCH  70  73
BRANCH  71  82
ATOM     82  C   UNL A   1      30.875  23.992  26.273  1.00  0.00     0.277 C 
ATOM     83  O   UNL A   1      30.236  23.372  27.127  1.00  0.00    -0.268 OA
BRANCH  82  84
ATOM     84  C   UNL A   1      30.681  25.523  26.098  1.00  0.00     0.363 C 
BRANCH  84  85
ATOM     85  N   UNL A   1      31.716  26.355  26.766  1.00  0.00    -0.323 N 
ATOM     86  C   UNL A   1      31.361  27.796  26.698  1.00  0.00     0.291 C 
ATOM     87  C   UNL A   1      33.069  26.245  26.186  1.00  0.00     0.291 C 
ATOM     88  H   UNL A   1      31.734  25.994  27.720  1.00  0.00     0.348 HD
ATOM     89  C   UNL A   1      31.505  28.415  25.292  1.00  0.00     0.221 C 
ATOM     90  C   UNL A   1      33.164  26.810  24.754  1.00  0.00     0.221 C 
ATOM     91  O   UNL A   1      32.807  28.197  24.730  1.00  0.00    -0.370 OA
ENDBRANCH  84  85
ENDBRANCH  82  84
ENDBRANCH  71  82
ENDBRANCH  66  68
ENDBRANCH  65  66
ENDBRANCH  64  65
ENDBRANCH  63  64
ENDBRANCH  62  63
ENDBRANCH  61  62
ENDBRANCH   1  61
TORSDOF 24
ENDMDL
