MODEL 1
REMARK VINA RESULT:      -9.4      0.000      0.000
REMARK SMILES Cc1cscc1C(=O)N[C@H](C(=O)OCCOCCOCCOCCOC(=O)c1ccc(-c2c3nc(c(-c4ccccc4)c4ccc([nH]4)c(-c4ccccc4)c4nc(c(-c5ccccc5)c5ccc2[nH]5)C=C4)C=C3)cc1)c1ccccc1
REMARK SMILES IDX 19 1 18 2 17 3 16 4 15 5 14 6 13 7 11 8 12 9 10 10 9 11 7 12
REMARK SMILES IDX 8 13 6 15 1 16 2 17 3 18 4 19 5 20 76 21 77 22 81 23 78 24
REMARK SMILES IDX 80 25 79 26 20 27 21 28 22 29 23 30 24 31 25 32 26 33 27 34
REMARK SMILES IDX 28 35 29 36 75 37 30 38 74 39 31 40 32 41 33 42 68 43 34 44
REMARK SMILES IDX 73 45 67 46 69 47 35 48 72 49 66 50 65 51 36 53 58 54 43 55
REMARK SMILES IDX 57 56 44 57 47 58 56 59 70 60 45 61 46 62 55 64 71 65 48 66
REMARK SMILES IDX 37 67 38 68 42 69 39 70 41 71 40 72 59 73 60 74 64 75 61 76
REMARK SMILES IDX 63 77 62 78 49 79 50 80 54 81 51 82 53 83 52 84
REMARK H PARENT 9 14 69 52 47 63
REMARK Flexibility Score: inf
ROOT
ATOM      1  O   UNL A   1      35.877  24.403  25.306  1.00  0.00    -0.377 OA
ENDROOT
BRANCH   1   2
ATOM      2  C   UNL A   1      34.693  24.097  24.585  1.00  0.00     0.188 C 
BRANCH   2   3
ATOM      3  C   UNL A   1      33.503  23.500  25.342  1.00  0.00     0.188 C 
BRANCH   3   4
ATOM      4  O   UNL A   1      32.225  23.940  24.900  1.00  0.00    -0.376 OA
BRANCH   4   5
ATOM      5  C   UNL A   1      32.173  24.374  23.544  1.00  0.00     0.202 C 
BRANCH   5   6
ATOM      6  C   UNL A   1      30.911  25.170  23.186  1.00  0.00     0.261 C 
BRANCH   6   7
ATOM      7  O   UNL A   1      31.078  26.161  22.146  1.00  0.00    -0.461 OA
BRANCH   7   8
ATOM      8  C   UNL A   1      31.864  27.224  22.460  1.00  0.00     0.333 C 
ATOM      9  O   UNL A   1      33.037  27.287  22.106  1.00  0.00    -0.249 OA
BRANCH   8  10
ATOM     10  C   UNL A   1      31.187  28.220  23.436  1.00  0.00     0.223 C 
BRANCH  10  11
ATOM     11  N   UNL A   1      29.741  28.021  23.522  1.00  0.00    -0.335 N 
ATOM     12  C   UNL A   1      28.640  28.685  23.058  1.00  0.00     0.253 C 
ATOM     13  O   UNL A   1      27.596  28.027  23.122  1.00  0.00    -0.269 OA
ATOM     14  H   UNL A   1      29.505  27.218  24.036  1.00  0.00     0.165 HD
BRANCH  12  15
ATOM     15  C   UNL A   1      28.586  30.097  22.641  1.00  0.00     0.053 A 
ATOM     16  C   UNL A   1      29.674  31.668  24.509  1.00  0.00     0.046 C 
ATOM     17  C   UNL A   1      29.013  31.374  23.210  1.00  0.00    -0.028 A 
ATOM     18  C   UNL A   1      28.776  32.421  22.330  1.00  0.00     0.069 A 
ATOM     19  S   UNL A   1      28.095  31.936  20.856  1.00  0.00    -0.151 S 
ATOM     20  C   UNL A   1      28.100  30.315  21.354  1.00  0.00     0.079 A 
ENDBRANCH  12  15
ENDBRANCH  10  11
BRANCH  10  21
ATOM     21  C   UNL A   1      31.767  28.580  24.813  1.00  0.00    -0.014 A 
ATOM     22  C   UNL A   1      32.806  29.516  24.953  1.00  0.00     0.006 A 
ATOM     23  C   UNL A   1      31.211  28.077  26.009  1.00  0.00     0.006 A 
ATOM     24  C   UNL A   1      33.296  29.876  26.220  1.00  0.00     0.000 A 
ATOM     25  C   UNL A   1      31.718  28.405  27.269  1.00  0.00     0.000 A 
ATOM     26  C   UNL A   1      32.765  29.307  27.376  1.00  0.00     0.000 A 
ENDBRANCH  10  21
ENDBRANCH   8  10
ENDBRANCH   7   8
ENDBRANCH   6   7
ENDBRANCH   5   6
ENDBRANCH   4   5
ENDBRANCH   3   4
ENDBRANCH   2   3
ENDBRANCH   1   2
BRANCH   1  27
ATOM     27  C   UNL A   1      37.001  23.549  25.141  1.00  0.00     0.188 C 
BRANCH  27  28
ATOM     28  C   UNL A   1      36.893  22.411  24.114  1.00  0.00     0.188 C 
BRANCH  28  29
ATOM     29  O   UNL A   1      37.310  21.144  24.610  1.00  0.00    -0.376 OA
BRANCH  29  30
ATOM     30  C   UNL A   1      38.467  21.123  25.436  1.00  0.00     0.202 C 
BRANCH  30  31
ATOM     31  C   UNL A   1      39.295  19.831  25.398  1.00  0.00     0.261 C 
BRANCH  31  32
ATOM     32  O   UNL A   1      40.311  19.703  26.406  1.00  0.00    -0.460 OA
BRANCH  32  33
ATOM     33  C   UNL A   1      41.605  19.833  26.045  1.00  0.00     0.338 C 
ATOM     34  O   UNL A   1      42.247  19.123  25.294  1.00  0.00    -0.246 OA
BRANCH  33  35
ATOM     35  C   UNL A   1      42.064  21.138  26.564  1.00  0.00     0.060 A 
ATOM     36  C   UNL A   1      42.022  21.371  27.947  1.00  0.00     0.016 A 
ATOM     37  C   UNL A   1      42.592  22.098  25.697  1.00  0.00     0.016 A 
ATOM     38  C   UNL A   1      42.493  22.578  28.463  1.00  0.00     0.010 A 
ATOM     39  C   UNL A   1      43.032  23.318  26.210  1.00  0.00     0.010 A 
ATOM     40  C   UNL A   1      42.954  23.574  27.591  1.00  0.00    -0.014 A 
BRANCH  40  41
ATOM     41  C   UNL A   1      43.086  24.966  28.078  1.00  0.00     0.031 A 
ATOM     42  C   UNL A   1      44.457  25.420  28.499  1.00  0.00     0.074 A 
ATOM     43  C   UNL A   1      42.038  25.803  28.154  1.00  0.00     0.049 A 
ATOM     44  N   UNL A   1      44.835  26.565  29.002  1.00  0.00    -0.248 NA
ATOM     45  C   UNL A   1      45.548  24.444  28.329  1.00  0.00     0.031 C 
ATOM     46  C   UNL A   1      40.670  25.499  27.739  1.00  0.00     0.029 A 
ATOM     47  N   UNL A   1      41.970  27.090  28.625  1.00  0.00    -0.354 N 
ATOM     48  C   UNL A   1      46.204  26.445  29.209  1.00  0.00     0.074 A 
ATOM     49  C   UNL A   1      46.586  25.112  28.803  1.00  0.00     0.031 C 
ATOM     50  C   UNL A   1      39.893  26.570  27.986  1.00  0.00     0.029 A 
ATOM     51  C   UNL A   1      40.704  27.620  28.603  1.00  0.00     0.049 A 
ATOM     52  H   UNL A   1      42.757  27.588  28.947  1.00  0.00     0.167 HD
ATOM     53  C   UNL A   1      47.070  27.362  29.695  1.00  0.00     0.031 A 
ATOM     54  C   UNL A   1      40.254  28.808  29.052  1.00  0.00     0.031 A 
ATOM     55  C   UNL A   1      46.691  28.675  30.134  1.00  0.00     0.049 A 
ATOM     56  C   UNL A   1      41.224  29.781  29.674  1.00  0.00     0.074 A 
ATOM     57  C   UNL A   1      47.494  29.679  30.642  1.00  0.00     0.029 A 
ATOM     58  N   UNL A   1      45.392  29.157  30.130  1.00  0.00    -0.354 N 
ATOM     59  N   UNL A   1      42.520  29.671  29.835  1.00  0.00    -0.248 NA
ATOM     60  C   UNL A   1      40.664  31.046  30.175  1.00  0.00     0.031 C 
ATOM     61  C   UNL A   1      46.672  30.753  30.996  1.00  0.00     0.029 A 
ATOM     62  C   UNL A   1      45.367  30.437  30.653  1.00  0.00     0.049 A 
ATOM     63  H   UNL A   1      44.606  28.664  29.803  1.00  0.00     0.167 HD
ATOM     64  C   UNL A   1      42.934  30.860  30.424  1.00  0.00     0.074 A 
ATOM     65  C   UNL A   1      41.753  31.681  30.584  1.00  0.00     0.031 C 
ATOM     66  C   UNL A   1      44.181  31.240  30.799  1.00  0.00     0.031 A 
BRANCH  53  67
ATOM     67  C   UNL A   1      48.507  26.945  29.818  1.00  0.00    -0.014 A 
ATOM     68  C   UNL A   1      49.424  27.182  28.781  1.00  0.00     0.009 A 
ATOM     69  C   UNL A   1      48.948  26.307  30.987  1.00  0.00     0.009 A 
ATOM     70  C   UNL A   1      50.748  26.758  28.901  1.00  0.00     0.001 A 
ATOM     71  C   UNL A   1      50.279  25.908  31.114  1.00  0.00     0.001 A 
ATOM     72  C   UNL A   1      51.175  26.125  30.068  1.00  0.00     0.000 A 
ENDBRANCH  53  67
BRANCH  54  73
ATOM     73  C   UNL A   1      38.808  29.149  28.960  1.00  0.00    -0.014 A 
ATOM     74  C   UNL A   1      38.275  29.704  27.787  1.00  0.00     0.009 A 
ATOM     75  C   UNL A   1      37.962  28.957  30.064  1.00  0.00     0.009 A 
ATOM     76  C   UNL A   1      36.931  30.087  27.731  1.00  0.00     0.001 A 
ATOM     77  C   UNL A   1      36.614  29.316  29.996  1.00  0.00     0.001 A 
ATOM     78  C   UNL A   1      36.102  29.890  28.833  1.00  0.00     0.000 A 
ENDBRANCH  54  73
BRANCH  66  79
ATOM     79  C   UNL A   1      44.341  32.616  31.380  1.00  0.00    -0.014 A 
ATOM     80  C   UNL A   1      44.175  32.854  32.753  1.00  0.00     0.009 A 
ATOM     81  C   UNL A   1      44.724  33.680  30.546  1.00  0.00     0.009 A 
ATOM     82  C   UNL A   1      44.362  34.136  33.274  1.00  0.00     0.001 A 
ATOM     83  C   UNL A   1      44.938  34.952  31.074  1.00  0.00     0.001 A 
ATOM     84  C   UNL A   1      44.749  35.182  32.436  1.00  0.00     0.000 A 
ENDBRANCH  66  79
ENDBRANCH  40  41
ENDBRANCH  33  35
ENDBRANCH  32  33
ENDBRANCH  31  32
ENDBRANCH  30  31
ENDBRANCH  29  30
ENDBRANCH  28  29
ENDBRANCH  27  28
ENDBRANCH   1  27
TORSDOF 23
ENDMDL
MODEL 2
REMARK VINA RESULT:      -9.1      1.391      2.776
REMARK SMILES Cc1cscc1C(=O)N[C@H](C(=O)OCCOCCOCCOCCOC(=O)c1ccc(-c2c3nc(c(-c4ccccc4)c4ccc([nH]4)c(-c4ccccc4)c4nc(c(-c5ccccc5)c5ccc2[nH]5)C=C4)C=C3)cc1)c1ccccc1
REMARK SMILES IDX 19 1 18 2 17 3 16 4 15 5 14 6 13 7 11 8 12 9 10 10 9 11 7 12
REMARK SMILES IDX 8 13 6 15 1 16 2 17 3 18 4 19 5 20 76 21 77 22 81 23 78 24
REMARK SMILES IDX 80 25 79 26 20 27 21 28 22 29 23 30 24 31 25 32 26 33 27 34
REMARK SMILES IDX 28 35 29 36 75 37 30 38 74 39 31 40 32 41 33 42 68 43 34 44
REMARK SMILES IDX 73 45 67 46 69 47 35 48 72 49 66 50 65 51 36 53 58 54 43 55
REMARK SMILES IDX 57 56 44 57 47 58 56 59 70 60 45 61 46 62 55 64 71 65 48 66
REMARK SMILES IDX 37 67 38 68 42 69 39 70 41 71 40 72 59 73 60 74 64 75 61 76
REMARK SMILES IDX 63 77 62 78 49 79 50 80 54 81 51 82 53 83 52 84
REMARK H PARENT 9 14 69 52 47 63
REMARK Flexibility Score: inf
ROOT
ATOM      1  O   UNL A   1      34.889  24.300  25.297  1.00  0.00    -0.377 OA
ENDROOT
BRANCH   1   2
ATOM      2  C   UNL A   1      34.365  24.645  24.023  1.00  0.00     0.188 C 
BRANCH   2   3
ATOM      3  C   UNL A   1      33.274  23.761  23.411  1.00  0.00     0.188 C 
BRANCH   3   4
ATOM      4  O   UNL A   1      32.251  24.462  22.714  1.00  0.00    -0.376 OA
BRANCH   4   5
ATOM      5  C   UNL A   1      31.011  24.564  23.408  1.00  0.00     0.202 C 
BRANCH   5   6
ATOM      6  C   UNL A   1      30.681  25.980  23.901  1.00  0.00     0.261 C 
BRANCH   6   7
ATOM      7  O   UNL A   1      30.348  26.934  22.867  1.00  0.00    -0.461 OA
BRANCH   7   8
ATOM      8  C   UNL A   1      29.412  27.863  23.196  1.00  0.00     0.333 C 
ATOM      9  O   UNL A   1      28.232  27.565  23.347  1.00  0.00    -0.249 OA
BRANCH   8  10
ATOM     10  C   UNL A   1      29.956  29.314  23.175  1.00  0.00     0.223 C 
BRANCH  10  11
ATOM     11  N   UNL A   1      31.374  29.373  22.825  1.00  0.00    -0.335 N 
ATOM     12  C   UNL A   1      32.549  29.202  23.501  1.00  0.00     0.253 C 
ATOM     13  O   UNL A   1      33.534  29.070  22.767  1.00  0.00    -0.269 OA
ATOM     14  H   UNL A   1      31.516  29.588  21.876  1.00  0.00     0.165 HD
BRANCH  12  15
ATOM     15  C   UNL A   1      32.737  29.297  24.960  1.00  0.00     0.053 A 
ATOM     16  C   UNL A   1      31.292  31.311  25.961  1.00  0.00     0.046 C 
ATOM     17  C   UNL A   1      32.226  30.155  26.027  1.00  0.00    -0.028 A 
ATOM     18  C   UNL A   1      32.688  29.742  27.269  1.00  0.00     0.069 A 
ATOM     19  S   UNL A   1      33.675  28.366  27.210  1.00  0.00    -0.151 S 
ATOM     20  C   UNL A   1      33.512  28.287  25.523  1.00  0.00     0.079 A 
ENDBRANCH  12  15
ENDBRANCH  10  11
BRANCH  10  21
ATOM     21  C   UNL A   1      29.194  30.493  22.549  1.00  0.00    -0.014 A 
ATOM     22  C   UNL A   1      29.039  31.714  23.228  1.00  0.00     0.006 A 
ATOM     23  C   UNL A   1      28.713  30.449  21.223  1.00  0.00     0.006 A 
ATOM     24  C   UNL A   1      28.384  32.803  22.628  1.00  0.00     0.000 A 
ATOM     25  C   UNL A   1      28.030  31.517  20.635  1.00  0.00     0.000 A 
ATOM     26  C   UNL A   1      27.864  32.698  21.339  1.00  0.00     0.000 A 
ENDBRANCH  10  21
ENDBRANCH   8  10
ENDBRANCH   7   8
ENDBRANCH   6   7
ENDBRANCH   5   6
ENDBRANCH   4   5
ENDBRANCH   3   4
ENDBRANCH   2   3
ENDBRANCH   1   2
BRANCH   1  27
ATOM     27  C   UNL A   1      36.235  23.849  25.367  1.00  0.00     0.188 C 
BRANCH  27  28
ATOM     28  C   UNL A   1      36.499  22.347  25.178  1.00  0.00     0.188 C 
BRANCH  28  29
ATOM     29  O   UNL A   1      37.816  22.044  24.732  1.00  0.00    -0.376 OA
BRANCH  29  30
ATOM     30  C   UNL A   1      38.410  20.854  25.234  1.00  0.00     0.202 C 
BRANCH  30  31
ATOM     31  C   UNL A   1      39.572  21.047  26.219  1.00  0.00     0.261 C 
BRANCH  31  32
ATOM     32  O   UNL A   1      40.455  19.925  26.380  1.00  0.00    -0.460 OA
BRANCH  32  33
ATOM     33  C   UNL A   1      41.741  20.047  25.986  1.00  0.00     0.338 C 
ATOM     34  O   UNL A   1      42.370  19.313  25.249  1.00  0.00    -0.246 OA
BRANCH  33  35
ATOM     35  C   UNL A   1      42.202  21.374  26.445  1.00  0.00     0.060 A 
ATOM     36  C   UNL A   1      42.285  21.624  27.822  1.00  0.00     0.016 A 
ATOM     37  C   UNL A   1      42.613  22.338  25.521  1.00  0.00     0.016 A 
ATOM     38  C   UNL A   1      42.763  22.854  28.278  1.00  0.00     0.010 A 
ATOM     39  C   UNL A   1      43.058  23.579  25.976  1.00  0.00     0.010 A 
ATOM     40  C   UNL A   1      43.104  23.851  27.355  1.00  0.00    -0.014 A 
BRANCH  40  41
ATOM     41  C   UNL A   1      43.236  25.254  27.811  1.00  0.00     0.031 A 
ATOM     42  C   UNL A   1      44.627  25.771  28.054  1.00  0.00     0.074 A 
ATOM     43  C   UNL A   1      42.169  26.047  28.013  1.00  0.00     0.049 A 
ATOM     44  N   UNL A   1      45.015  26.937  28.498  1.00  0.00    -0.248 NA
ATOM     45  C   UNL A   1      45.730  24.840  27.756  1.00  0.00     0.031 C 
ATOM     46  C   UNL A   1      40.775  25.680  27.774  1.00  0.00     0.029 A 
ATOM     47  N   UNL A   1      42.105  27.336  28.479  1.00  0.00    -0.354 N 
ATOM     48  C   UNL A   1      46.403  26.877  28.533  1.00  0.00     0.074 A 
ATOM     49  C   UNL A   1      46.789  25.557  28.091  1.00  0.00     0.031 C 
ATOM     50  C   UNL A   1      39.990  26.720  28.110  1.00  0.00     0.029 A 
ATOM     51  C   UNL A   1      40.824  27.811  28.613  1.00  0.00     0.049 A 
ATOM     52  H   UNL A   1      42.903  27.870  28.697  1.00  0.00     0.167 HD
ATOM     53  C   UNL A   1      47.283  27.836  28.900  1.00  0.00     0.031 A 
ATOM     54  C   UNL A   1      40.382  28.984  29.106  1.00  0.00     0.031 A 
ATOM     55  C   UNL A   1      46.904  29.138  29.374  1.00  0.00     0.049 A 
ATOM     56  C   UNL A   1      41.379  30.005  29.595  1.00  0.00     0.074 A 
ATOM     57  C   UNL A   1      47.720  30.181  29.769  1.00  0.00     0.029 A 
ATOM     58  N   UNL A   1      45.595  29.564  29.529  1.00  0.00    -0.354 N 
ATOM     59  N   UNL A   1      42.689  29.952  29.592  1.00  0.00    -0.248 NA
ATOM     60  C   UNL A   1      40.832  31.252  30.154  1.00  0.00     0.031 C 
ATOM     61  C   UNL A   1      46.902  31.224  30.216  1.00  0.00     0.029 A 
ATOM     62  C   UNL A   1      45.580  30.848  30.042  1.00  0.00     0.049 A 
ATOM     63  H   UNL A   1      44.797  29.034  29.306  1.00  0.00     0.167 HD
ATOM     64  C   UNL A   1      43.121  31.165  30.117  1.00  0.00     0.074 A 
ATOM     65  C   UNL A   1      41.935  31.937  30.418  1.00  0.00     0.031 C 
ATOM     66  C   UNL A   1      44.387  31.602  30.330  1.00  0.00     0.031 A 
BRANCH  53  67
ATOM     67  C   UNL A   1      48.740  27.482  28.844  1.00  0.00    -0.014 A 
ATOM     68  C   UNL A   1      49.502  27.718  27.688  1.00  0.00     0.009 A 
ATOM     69  C   UNL A   1      49.358  26.906  29.964  1.00  0.00     0.009 A 
ATOM     70  C   UNL A   1      50.848  27.351  27.645  1.00  0.00     0.001 A 
ATOM     71  C   UNL A   1      50.710  26.566  29.926  1.00  0.00     0.001 A 
ATOM     72  C   UNL A   1      51.452  26.780  28.765  1.00  0.00     0.000 A 
ENDBRANCH  53  67
BRANCH  54  73
ATOM     73  C   UNL A   1      38.923  29.262  29.194  1.00  0.00    -0.014 A 
ATOM     74  C   UNL A   1      38.231  29.814  28.106  1.00  0.00     0.009 A 
ATOM     75  C   UNL A   1      38.223  29.014  30.385  1.00  0.00     0.009 A 
ATOM     76  C   UNL A   1      36.876  30.138  28.217  1.00  0.00     0.001 A 
ATOM     77  C   UNL A   1      36.864  29.315  30.486  1.00  0.00     0.001 A 
ATOM     78  C   UNL A   1      36.193  29.886  29.405  1.00  0.00     0.000 A 
ENDBRANCH  54  73
BRANCH  66  79
ATOM     79  C   UNL A   1      44.558  32.991  30.877  1.00  0.00    -0.014 A 
ATOM     80  C   UNL A   1      44.677  33.225  32.255  1.00  0.00     0.009 A 
ATOM     81  C   UNL A   1      44.665  34.076  29.991  1.00  0.00     0.009 A 
ATOM     82  C   UNL A   1      44.868  34.521  32.737  1.00  0.00     0.001 A 
ATOM     83  C   UNL A   1      44.885  35.365  30.472  1.00  0.00     0.001 A 
ATOM     84  C   UNL A   1      44.978  35.589  31.845  1.00  0.00     0.000 A 
ENDBRANCH  66  79
ENDBRANCH  40  41
ENDBRANCH  33  35
ENDBRANCH  32  33
ENDBRANCH  31  32
ENDBRANCH  30  31
ENDBRANCH  29  30
ENDBRANCH  28  29
ENDBRANCH  27  28
ENDBRANCH   1  27
TORSDOF 23
ENDMDL
MODEL 3
REMARK VINA RESULT:      -8.8      1.666      6.334
REMARK SMILES Cc1cscc1C(=O)N[C@H](C(=O)OCCOCCOCCOCCOC(=O)c1ccc(-c2c3nc(c(-c4ccccc4)c4ccc([nH]4)c(-c4ccccc4)c4nc(c(-c5ccccc5)c5ccc2[nH]5)C=C4)C=C3)cc1)c1ccccc1
REMARK SMILES IDX 19 1 18 2 17 3 16 4 15 5 14 6 13 7 11 8 12 9 10 10 9 11 7 12
REMARK SMILES IDX 8 13 6 15 1 16 2 17 3 18 4 19 5 20 76 21 77 22 81 23 78 24
REMARK SMILES IDX 80 25 79 26 20 27 21 28 22 29 23 30 24 31 25 32 26 33 27 34
REMARK SMILES IDX 28 35 29 36 75 37 30 38 74 39 31 40 32 41 33 42 68 43 34 44
REMARK SMILES IDX 73 45 67 46 69 47 35 48 72 49 66 50 65 51 36 53 58 54 43 55
REMARK SMILES IDX 57 56 44 57 47 58 56 59 70 60 45 61 46 62 55 64 71 65 48 66
REMARK SMILES IDX 37 67 38 68 42 69 39 70 41 71 40 72 59 73 60 74 64 75 61 76
REMARK SMILES IDX 63 77 62 78 49 79 50 80 54 81 51 82 53 83 52 84
REMARK H PARENT 9 14 69 52 47 63
REMARK Flexibility Score: inf
ROOT
ATOM      1  O   UNL A   1      35.162  22.825  23.418  1.00  0.00    -0.377 OA
ENDROOT
BRANCH   1   2
ATOM      2  C   UNL A   1      34.072  23.090  24.288  1.00  0.00     0.188 C 
BRANCH   2   3
ATOM      3  C   UNL A   1      33.448  24.489  24.284  1.00  0.00     0.188 C 
BRANCH   3   4
ATOM      4  O   UNL A   1      32.076  24.538  24.657  1.00  0.00    -0.376 OA
BRANCH   4   5
ATOM      5  C   UNL A   1      31.158  24.203  23.621  1.00  0.00     0.202 C 
BRANCH   5   6
ATOM      6  C   UNL A   1      30.530  25.416  22.922  1.00  0.00     0.261 C 
BRANCH   6   7
ATOM      7  O   UNL A   1      30.797  26.695  23.542  1.00  0.00    -0.461 OA
BRANCH   7   8
ATOM      8  C   UNL A   1      29.760  27.573  23.562  1.00  0.00     0.333 C 
ATOM      9  O   UNL A   1      28.594  27.197  23.511  1.00  0.00    -0.249 OA
BRANCH   8  10
ATOM     10  C   UNL A   1      30.210  29.054  23.473  1.00  0.00     0.223 C 
BRANCH  10  11
ATOM     11  N   UNL A   1      31.602  29.190  23.050  1.00  0.00    -0.335 N 
ATOM     12  C   UNL A   1      32.815  29.169  23.680  1.00  0.00     0.253 C 
ATOM     13  O   UNL A   1      33.776  29.047  22.912  1.00  0.00    -0.269 OA
ATOM     14  H   UNL A   1      31.687  29.330  22.081  1.00  0.00     0.165 HD
BRANCH  12  15
ATOM     15  C   UNL A   1      33.056  29.406  25.114  1.00  0.00     0.053 A 
ATOM     16  C   UNL A   1      31.366  31.251  26.055  1.00  0.00     0.046 C 
ATOM     17  C   UNL A   1      32.470  30.258  26.147  1.00  0.00    -0.028 A 
ATOM     18  C   UNL A   1      33.050  30.019  27.386  1.00  0.00     0.069 A 
ATOM     19  S   UNL A   1      34.234  28.808  27.365  1.00  0.00    -0.151 S 
ATOM     20  C   UNL A   1      34.004  28.571  25.701  1.00  0.00     0.079 A 
ENDBRANCH  12  15
ENDBRANCH  10  11
BRANCH  10  21
ATOM     21  C   UNL A   1      29.345  30.164  22.853  1.00  0.00    -0.014 A 
ATOM     22  C   UNL A   1      28.887  31.252  23.614  1.00  0.00     0.006 A 
ATOM     23  C   UNL A   1      29.065  30.204  21.471  1.00  0.00     0.006 A 
ATOM     24  C   UNL A   1      28.139  32.287  23.028  1.00  0.00     0.000 A 
ATOM     25  C   UNL A   1      28.292  31.213  20.889  1.00  0.00     0.000 A 
ATOM     26  C   UNL A   1      27.826  32.258  21.671  1.00  0.00     0.000 A 
ENDBRANCH  10  21
ENDBRANCH   8  10
ENDBRANCH   7   8
ENDBRANCH   6   7
ENDBRANCH   5   6
ENDBRANCH   4   5
ENDBRANCH   3   4
ENDBRANCH   2   3
ENDBRANCH   1   2
BRANCH   1  27
ATOM     27  C   UNL A   1      36.343  22.265  23.975  1.00  0.00     0.188 C 
BRANCH  27  28
ATOM     28  C   UNL A   1      36.184  21.169  25.041  1.00  0.00     0.188 C 
BRANCH  28  29
ATOM     29  O   UNL A   1      37.276  21.084  25.949  1.00  0.00    -0.376 OA
BRANCH  29  30
ATOM     30  C   UNL A   1      38.580  21.018  25.386  1.00  0.00     0.202 C 
BRANCH  30  31
ATOM     31  C   UNL A   1      39.245  19.635  25.393  1.00  0.00     0.261 C 
BRANCH  31  32
ATOM     32  O   UNL A   1      40.239  19.418  26.408  1.00  0.00    -0.460 OA
BRANCH  32  33
ATOM     33  C   UNL A   1      41.534  19.661  26.113  1.00  0.00     0.338 C 
ATOM     34  O   UNL A   1      42.289  18.981  25.444  1.00  0.00    -0.246 OA
BRANCH  33  35
ATOM     35  C   UNL A   1      41.825  21.034  26.574  1.00  0.00     0.060 A 
ATOM     36  C   UNL A   1      42.108  22.024  25.621  1.00  0.00     0.016 A 
ATOM     37  C   UNL A   1      41.753  21.354  27.932  1.00  0.00     0.016 A 
ATOM     38  C   UNL A   1      42.340  23.337  26.031  1.00  0.00     0.010 A 
ATOM     39  C   UNL A   1      42.018  22.660  28.344  1.00  0.00     0.010 A 
ATOM     40  C   UNL A   1      42.343  23.648  27.397  1.00  0.00    -0.014 A 
BRANCH  40  41
ATOM     41  C   UNL A   1      42.957  24.915  27.856  1.00  0.00     0.031 A 
ATOM     42  C   UNL A   1      42.025  26.016  28.281  1.00  0.00     0.074 A 
ATOM     43  C   UNL A   1      44.288  25.097  27.893  1.00  0.00     0.049 A 
ATOM     44  N   UNL A   1      42.298  27.231  28.677  1.00  0.00    -0.248 NA
ATOM     45  C   UNL A   1      40.585  25.699  28.252  1.00  0.00     0.031 C 
ATOM     46  C   UNL A   1      45.296  24.097  27.549  1.00  0.00     0.029 A 
ATOM     47  N   UNL A   1      45.016  26.209  28.234  1.00  0.00    -0.354 N 
ATOM     48  C   UNL A   1      41.068  27.821  28.941  1.00  0.00     0.074 A 
ATOM     49  C   UNL A   1      40.047  26.844  28.639  1.00  0.00     0.031 C 
ATOM     50  C   UNL A   1      46.517  24.648  27.684  1.00  0.00     0.029 A 
ATOM     51  C   UNL A   1      46.372  26.044  28.095  1.00  0.00     0.049 A 
ATOM     52  H   UNL A   1      44.604  27.046  28.550  1.00  0.00     0.167 HD
ATOM     53  C   UNL A   1      40.807  29.067  29.397  1.00  0.00     0.031 A 
ATOM     54  C   UNL A   1      47.374  26.930  28.262  1.00  0.00     0.031 A 
ATOM     55  C   UNL A   1      41.815  30.054  29.665  1.00  0.00     0.049 A 
ATOM     56  C   UNL A   1      47.052  28.342  28.682  1.00  0.00     0.074 A 
ATOM     57  C   UNL A   1      41.653  31.345  30.130  1.00  0.00     0.029 A 
ATOM     58  N   UNL A   1      43.173  29.858  29.476  1.00  0.00    -0.354 N 
ATOM     59  N   UNL A   1      45.889  28.880  28.962  1.00  0.00    -0.248 NA
ATOM     60  C   UNL A   1      48.187  29.270  28.814  1.00  0.00     0.031 C 
ATOM     61  C   UNL A   1      42.913  31.951  30.172  1.00  0.00     0.029 A 
ATOM     62  C   UNL A   1      43.861  31.016  29.788  1.00  0.00     0.049 A 
ATOM     63  H   UNL A   1      43.586  29.020  29.166  1.00  0.00     0.167 HD
ATOM     64  C   UNL A   1      46.155  30.194  29.330  1.00  0.00     0.074 A 
ATOM     65  C   UNL A   1      47.589  30.370  29.249  1.00  0.00     0.031 C 
ATOM     66  C   UNL A   1      45.290  31.169  29.704  1.00  0.00     0.031 A 
BRANCH  53  67
ATOM     67  C   UNL A   1      39.364  29.436  29.583  1.00  0.00    -0.014 A 
ATOM     68  C   UNL A   1      38.632  30.050  28.554  1.00  0.00     0.009 A 
ATOM     69  C   UNL A   1      38.731  29.166  30.805  1.00  0.00     0.009 A 
ATOM     70  C   UNL A   1      37.301  30.416  28.759  1.00  0.00     0.001 A 
ATOM     71  C   UNL A   1      37.392  29.509  30.997  1.00  0.00     0.001 A 
ATOM     72  C   UNL A   1      36.681  30.142  29.978  1.00  0.00     0.000 A 
ENDBRANCH  53  67
BRANCH  54  73
ATOM     73  C   UNL A   1      48.783  26.528  28.007  1.00  0.00    -0.014 A 
ATOM     74  C   UNL A   1      49.241  26.307  26.699  1.00  0.00     0.009 A 
ATOM     75  C   UNL A   1      49.668  26.324  29.077  1.00  0.00     0.009 A 
ATOM     76  C   UNL A   1      50.546  25.862  26.470  1.00  0.00     0.001 A 
ATOM     77  C   UNL A   1      50.980  25.905  28.844  1.00  0.00     0.001 A 
ATOM     78  C   UNL A   1      51.415  25.664  27.542  1.00  0.00     0.000 A 
ENDBRANCH  54  73
BRANCH  66  79
ATOM     79  C   UNL A   1      45.870  32.499  30.093  1.00  0.00    -0.014 A 
ATOM     80  C   UNL A   1      46.056  33.520  29.149  1.00  0.00     0.009 A 
ATOM     81  C   UNL A   1      46.177  32.754  31.440  1.00  0.00     0.009 A 
ATOM     82  C   UNL A   1      46.566  34.759  29.541  1.00  0.00     0.001 A 
ATOM     83  C   UNL A   1      46.659  34.001  31.834  1.00  0.00     0.001 A 
ATOM     84  C   UNL A   1      46.861  35.000  30.883  1.00  0.00     0.000 A 
ENDBRANCH  66  79
ENDBRANCH  40  41
ENDBRANCH  33  35
ENDBRANCH  32  33
ENDBRANCH  31  32
ENDBRANCH  30  31
ENDBRANCH  29  30
ENDBRANCH  28  29
ENDBRANCH  27  28
ENDBRANCH   1  27
TORSDOF 23
ENDMDL
