MODEL 1
REMARK VINA RESULT:     -11.6      0.000      0.000
REMARK SMILES O=C(OCCOCCOCCOCCOC(=O)[C@H]1Cc2c([nH]c3ccccc23)[C@H](c2c[nH]c3ccccc23)[NH2+]1)c1ccc(-c2c3nc(c(-c4ccccc4)c4ccc([nH]4)c(-c4ccccc4)c4nc(c(-c5ccccc5)c5ccc2[nH]5)C=C4)C=C3)cc1
REMARK SMILES IDX 8 1 7 2 6 3 5 4 4 5 3 6 2 7 1 8 40 9 41 10 87 11 42 12 86 13
REMARK SMILES IDX 43 14 44 15 45 16 80 17 46 18 85 19 79 20 81 21 47 22 84 23
REMARK SMILES IDX 78 24 77 25 48 27 70 28 55 29 69 30 56 31 59 32 68 33 82 34
REMARK SMILES IDX 57 35 58 36 67 38 83 39 60 40 49 41 50 42 54 43 51 44 53 45
REMARK SMILES IDX 52 46 71 47 72 48 76 49 73 50 75 51 74 52 61 53 62 54 66 55
REMARK SMILES IDX 63 56 65 57 64 58 9 59 10 60 11 61 12 62 13 63 14 64 15 65
REMARK SMILES IDX 16 66 17 67 18 68 19 69 39 70 20 71 29 72 21 75 28 76 22 77
REMARK SMILES IDX 23 78 27 79 24 81 26 82 25 83 30 84 31 85 38 86 32 87 33 88
REMARK SMILES IDX 37 89 34 91 36 92 35 93
REMARK H PARENT 81 26 59 37 39 73 39 74 22 80 32 90
REMARK Flexibility Score: inf
ROOT
ATOM      1  C   UNL A   1      44.514  18.641  25.376  1.00  0.00     0.188 C 
ENDROOT
BRANCH   1   2
ATOM      2  C   UNL A   1      45.077  19.217  24.094  1.00  0.00     0.188 C 
BRANCH   2   3
ATOM      3  O   UNL A   1      44.530  20.523  23.945  1.00  0.00    -0.376 OA
BRANCH   3   4
ATOM      4  C   UNL A   1      45.397  21.580  24.331  1.00  0.00     0.202 C 
BRANCH   4   5
ATOM      5  C   UNL A   1      44.916  22.944  23.839  1.00  0.00     0.261 C 
BRANCH   5   6
ATOM      6  O   UNL A   1      44.327  23.747  24.879  1.00  0.00    -0.460 OA
BRANCH   6   7
ATOM      7  C   UNL A   1      44.651  25.004  25.272  1.00  0.00     0.338 C 
ATOM      8  O   UNL A   1      45.599  25.564  24.716  1.00  0.00    -0.246 OA
BRANCH   7   9
ATOM      9  C   UNL A   1      43.932  25.775  26.334  1.00  0.00     0.060 A 
ATOM     10  C   UNL A   1      44.084  27.138  26.575  1.00  0.00     0.016 A 
ATOM     11  C   UNL A   1      42.972  25.087  27.099  1.00  0.00     0.016 A 
ATOM     12  C   UNL A   1      43.360  27.801  27.550  1.00  0.00     0.010 A 
ATOM     13  C   UNL A   1      42.231  25.742  28.091  1.00  0.00     0.010 A 
ATOM     14  C   UNL A   1      42.449  27.102  28.329  1.00  0.00    -0.014 A 
BRANCH  14  15
ATOM     15  C   UNL A   1      41.941  27.804  29.516  1.00  0.00     0.031 A 
ATOM     16  C   UNL A   1      40.592  28.447  29.406  1.00  0.00     0.074 A 
ATOM     17  C   UNL A   1      42.559  27.653  30.700  1.00  0.00     0.049 A 
ATOM     18  N   UNL A   1      39.924  29.131  30.291  1.00  0.00    -0.248 NA
ATOM     19  C   UNL A   1      39.876  28.271  28.126  1.00  0.00     0.031 C 
ATOM     20  C   UNL A   1      43.769  26.857  30.927  1.00  0.00     0.029 A 
ATOM     21  N   UNL A   1      42.224  28.111  31.945  1.00  0.00    -0.354 N 
ATOM     22  C   UNL A   1      38.736  29.494  29.665  1.00  0.00     0.074 A 
ATOM     23  C   UNL A   1      38.773  28.943  28.327  1.00  0.00     0.031 C 
ATOM     24  C   UNL A   1      44.058  26.863  32.240  1.00  0.00     0.029 A 
ATOM     25  C   UNL A   1      43.106  27.727  32.926  1.00  0.00     0.049 A 
ATOM     26  H   UNL A   1      41.428  28.664  32.121  1.00  0.00     0.167 HD
ATOM     27  C   UNL A   1      37.726  30.232  30.163  1.00  0.00     0.031 A 
ATOM     28  C   UNL A   1      43.150  28.083  34.222  1.00  0.00     0.031 A 
ATOM     29  C   UNL A   1      37.741  30.771  31.493  1.00  0.00     0.049 A 
ATOM     30  C   UNL A   1      42.091  29.032  34.714  1.00  0.00     0.074 A 
ATOM     31  C   UNL A   1      36.851  31.638  32.094  1.00  0.00     0.029 A 
ATOM     32  N   UNL A   1      38.719  30.473  32.434  1.00  0.00    -0.354 N 
ATOM     33  N   UNL A   1      41.033  29.488  34.081  1.00  0.00    -0.248 NA
ATOM     34  C   UNL A   1      42.241  29.539  36.082  1.00  0.00     0.031 C 
ATOM     35  C   UNL A   1      37.319  31.903  33.387  1.00  0.00     0.029 A 
ATOM     36  C   UNL A   1      38.468  31.155  33.607  1.00  0.00     0.049 A 
ATOM     37  H   UNL A   1      39.481  29.866  32.284  1.00  0.00     0.167 HD
ATOM     38  C   UNL A   1      40.389  30.329  34.975  1.00  0.00     0.074 A 
ATOM     39  C   UNL A   1      41.159  30.293  36.205  1.00  0.00     0.031 C 
ATOM     40  C   UNL A   1      39.270  31.076  34.801  1.00  0.00     0.031 A 
BRANCH  27  41
ATOM     41  C   UNL A   1      36.605  30.572  29.223  1.00  0.00    -0.014 A 
ATOM     42  C   UNL A   1      35.731  29.591  28.728  1.00  0.00     0.009 A 
ATOM     43  C   UNL A   1      36.468  31.894  28.772  1.00  0.00     0.009 A 
ATOM     44  C   UNL A   1      34.766  29.923  27.773  1.00  0.00     0.001 A 
ATOM     45  C   UNL A   1      35.489  32.227  27.834  1.00  0.00     0.001 A 
ATOM     46  C   UNL A   1      34.646  31.239  27.327  1.00  0.00     0.000 A 
ENDBRANCH  27  41
BRANCH  28  47
ATOM     47  C   UNL A   1      44.271  27.642  35.100  1.00  0.00    -0.014 A 
ATOM     48  C   UNL A   1      44.091  26.639  36.064  1.00  0.00     0.009 A 
ATOM     49  C   UNL A   1      45.528  28.263  35.005  1.00  0.00     0.009 A 
ATOM     50  C   UNL A   1      45.135  26.290  36.929  1.00  0.00     0.001 A 
ATOM     51  C   UNL A   1      46.578  27.891  35.847  1.00  0.00     0.001 A 
ATOM     52  C   UNL A   1      46.377  26.913  36.817  1.00  0.00     0.000 A 
ENDBRANCH  28  47
BRANCH  40  53
ATOM     53  C   UNL A   1      38.815  31.879  35.983  1.00  0.00    -0.014 A 
ATOM     54  C   UNL A   1      39.219  33.211  36.150  1.00  0.00     0.009 A 
ATOM     55  C   UNL A   1      37.934  31.302  36.909  1.00  0.00     0.009 A 
ATOM     56  C   UNL A   1      38.771  33.944  37.250  1.00  0.00     0.001 A 
ATOM     57  C   UNL A   1      37.465  32.047  37.990  1.00  0.00     0.001 A 
ATOM     58  C   UNL A   1      37.892  33.364  38.164  1.00  0.00     0.000 A 
ENDBRANCH  40  53
ENDBRANCH  14  15
ENDBRANCH   7   9
ENDBRANCH   6   7
ENDBRANCH   5   6
ENDBRANCH   4   5
ENDBRANCH   3   4
ENDBRANCH   2   3
ENDBRANCH   1   2
BRANCH   1  59
ATOM     59  O   UNL A   1      43.431  19.385  25.926  1.00  0.00    -0.377 OA
BRANCH  59  60
ATOM     60  C   UNL A   1      42.152  18.777  26.034  1.00  0.00     0.188 C 
BRANCH  60  61
ATOM     61  C   UNL A   1      40.872  19.605  26.063  1.00  0.00     0.188 C 
BRANCH  61  62
ATOM     62  O   UNL A   1      40.492  20.336  27.222  1.00  0.00    -0.376 OA
BRANCH  62  63
ATOM     63  C   UNL A   1      40.902  21.683  27.381  1.00  0.00     0.202 C 
BRANCH  63  64
ATOM     64  C   UNL A   1      39.827  22.711  26.986  1.00  0.00     0.261 C 
BRANCH  64  65
ATOM     65  O   UNL A   1      38.671  22.197  26.283  1.00  0.00    -0.459 OA
BRANCH  65  66
ATOM     66  C   UNL A   1      37.685  23.098  26.033  1.00  0.00     0.365 C 
ATOM     67  O   UNL A   1      37.843  24.315  26.129  1.00  0.00    -0.245 OA
BRANCH  66  68
ATOM     68  C   UNL A   1      36.326  22.497  25.620  1.00  0.00     0.298 C 
ATOM     69  C   UNL A   1      36.254  20.955  25.565  1.00  0.00     0.115 C 
ATOM     70  N   UNL A   1      35.188  23.074  26.404  1.00  0.00    -0.323 N 
ATOM     71  C   UNL A   1      34.889  20.533  25.166  1.00  0.00    -0.006 A 
ATOM     72  C   UNL A   1      33.899  22.856  25.709  1.00  0.00     0.264 C 
ATOM     73  H   UNL A   1      35.339  24.076  26.521  1.00  0.00     0.347 HD
ATOM     74  H   UNL A   1      35.151  22.610  27.311  1.00  0.00     0.347 HD
ATOM     75  C   UNL A   1      33.827  21.412  25.247  1.00  0.00     0.083 A 
ATOM     76  C   UNL A   1      34.433  19.307  24.619  1.00  0.00     0.003 A 
ATOM     77  N   UNL A   1      32.713  20.725  24.833  1.00  0.00    -0.353 N 
ATOM     78  C   UNL A   1      33.060  19.452  24.417  1.00  0.00     0.046 A 
ATOM     79  C   UNL A   1      35.057  18.094  24.262  1.00  0.00     0.010 A 
ATOM     80  H   UNL A   1      31.798  21.089  24.832  1.00  0.00     0.166 HD
ATOM     81  C   UNL A   1      32.277  18.421  23.877  1.00  0.00     0.026 A 
ATOM     82  C   UNL A   1      34.289  17.063  23.712  1.00  0.00     0.001 A 
ATOM     83  C   UNL A   1      32.919  17.226  23.526  1.00  0.00     0.002 A 
BRANCH  72  84
ATOM     84  C   UNL A   1      33.669  23.858  24.572  1.00  0.00     0.041 A 
ATOM     85  C   UNL A   1      33.478  23.471  23.251  1.00  0.00     0.093 A 
ATOM     86  C   UNL A   1      33.584  25.314  24.555  1.00  0.00     0.009 A 
ATOM     87  N   UNL A   1      33.403  24.581  22.460  1.00  0.00    -0.361 N 
ATOM     88  C   UNL A   1      33.506  25.716  23.219  1.00  0.00     0.046 A 
ATOM     89  C   UNL A   1      33.595  26.355  25.515  1.00  0.00     0.011 A 
ATOM     90  H   UNL A   1      33.290  24.567  21.481  1.00  0.00     0.166 HD
ATOM     91  C   UNL A   1      33.529  27.060  22.813  1.00  0.00     0.026 A 
ATOM     92  C   UNL A   1      33.660  27.700  25.134  1.00  0.00     0.001 A 
ATOM     93  C   UNL A   1      33.638  28.047  23.794  1.00  0.00     0.002 A 
ENDBRANCH  72  84
ENDBRANCH  66  68
ENDBRANCH  65  66
ENDBRANCH  64  65
ENDBRANCH  63  64
ENDBRANCH  62  63
ENDBRANCH  61  62
ENDBRANCH  60  61
ENDBRANCH  59  60
ENDBRANCH   1  59
TORSDOF 21
ENDMDL
MODEL 2
REMARK VINA RESULT:     -10.9      3.883      8.064
REMARK SMILES O=C(OCCOCCOCCOCCOC(=O)[C@H]1Cc2c([nH]c3ccccc23)[C@H](c2c[nH]c3ccccc23)[NH2+]1)c1ccc(-c2c3nc(c(-c4ccccc4)c4ccc([nH]4)c(-c4ccccc4)c4nc(c(-c5ccccc5)c5ccc2[nH]5)C=C4)C=C3)cc1
REMARK SMILES IDX 8 1 7 2 6 3 5 4 4 5 3 6 2 7 1 8 40 9 41 10 87 11 42 12 86 13
REMARK SMILES IDX 43 14 44 15 45 16 80 17 46 18 85 19 79 20 81 21 47 22 84 23
REMARK SMILES IDX 78 24 77 25 48 27 70 28 55 29 69 30 56 31 59 32 68 33 82 34
REMARK SMILES IDX 57 35 58 36 67 38 83 39 60 40 49 41 50 42 54 43 51 44 53 45
REMARK SMILES IDX 52 46 71 47 72 48 76 49 73 50 75 51 74 52 61 53 62 54 66 55
REMARK SMILES IDX 63 56 65 57 64 58 9 59 10 60 11 61 12 62 13 63 14 64 15 65
REMARK SMILES IDX 16 66 17 67 18 68 19 69 39 70 20 71 29 72 21 75 28 76 22 77
REMARK SMILES IDX 23 78 27 79 24 81 26 82 25 83 30 84 31 85 38 86 32 87 33 88
REMARK SMILES IDX 37 89 34 91 36 92 35 93
REMARK H PARENT 81 26 59 37 39 73 39 74 22 80 32 90
REMARK Flexibility Score: inf
ROOT
ATOM      1  C   UNL A   1      38.571  22.052  26.040  1.00  0.00     0.188 C 
ENDROOT
BRANCH   1   2
ATOM      2  C   UNL A   1      40.068  21.897  26.209  1.00  0.00     0.188 C 
BRANCH   2   3
ATOM      3  O   UNL A   1      40.287  20.677  26.909  1.00  0.00    -0.376 OA
BRANCH   3   4
ATOM      4  C   UNL A   1      40.637  19.572  26.086  1.00  0.00     0.202 C 
BRANCH   4   5
ATOM      5  C   UNL A   1      42.098  19.157  26.250  1.00  0.00     0.261 C 
BRANCH   5   6
ATOM      6  O   UNL A   1      42.933  19.574  25.153  1.00  0.00    -0.460 OA
BRANCH   6   7
ATOM      7  C   UNL A   1      43.857  20.566  25.115  1.00  0.00     0.338 C 
ATOM      8  O   UNL A   1      44.926  20.346  24.541  1.00  0.00    -0.246 OA
BRANCH   7   9
ATOM      9  C   UNL A   1      43.672  21.924  25.715  1.00  0.00     0.060 A 
ATOM     10  C   UNL A   1      43.466  23.097  24.993  1.00  0.00     0.016 A 
ATOM     11  C   UNL A   1      43.627  22.013  27.119  1.00  0.00     0.016 A 
ATOM     12  C   UNL A   1      43.263  24.318  25.610  1.00  0.00     0.010 A 
ATOM     13  C   UNL A   1      43.424  23.242  27.761  1.00  0.00     0.010 A 
ATOM     14  C   UNL A   1      43.266  24.401  26.995  1.00  0.00    -0.014 A 
BRANCH  14  15
ATOM     15  C   UNL A   1      43.333  25.756  27.562  1.00  0.00     0.031 A 
ATOM     16  C   UNL A   1      44.680  26.412  27.612  1.00  0.00     0.074 A 
ATOM     17  C   UNL A   1      42.201  26.444  27.787  1.00  0.00     0.049 A 
ATOM     18  N   UNL A   1      45.014  27.585  28.069  1.00  0.00    -0.248 NA
ATOM     19  C   UNL A   1      45.809  25.651  27.039  1.00  0.00     0.031 C 
ATOM     20  C   UNL A   1      40.844  25.940  27.555  1.00  0.00     0.029 A 
ATOM     21  N   UNL A   1      42.010  27.733  28.205  1.00  0.00    -0.354 N 
ATOM     22  C   UNL A   1      46.388  27.685  27.872  1.00  0.00     0.074 A 
ATOM     23  C   UNL A   1      46.820  26.454  27.245  1.00  0.00     0.031 C 
ATOM     24  C   UNL A   1      39.962  26.922  27.808  1.00  0.00     0.029 A 
ATOM     25  C   UNL A   1      40.686  28.088  28.298  1.00  0.00     0.049 A 
ATOM     26  H   UNL A   1      42.750  28.347  28.417  1.00  0.00     0.167 HD
ATOM     27  C   UNL A   1      47.203  28.704  28.205  1.00  0.00     0.031 A 
ATOM     28  C   UNL A   1      40.137  29.219  28.776  1.00  0.00     0.031 A 
ATOM     29  C   UNL A   1      46.730  29.900  28.842  1.00  0.00     0.049 A 
ATOM     30  C   UNL A   1      41.075  30.282  29.282  1.00  0.00     0.074 A 
ATOM     31  C   UNL A   1      47.450  30.962  29.350  1.00  0.00     0.029 A 
ATOM     32  N   UNL A   1      45.385  30.182  29.049  1.00  0.00    -0.354 N 
ATOM     33  N   UNL A   1      42.387  30.322  29.220  1.00  0.00    -0.248 NA
ATOM     34  C   UNL A   1      40.466  31.440  29.945  1.00  0.00     0.031 C 
ATOM     35  C   UNL A   1      46.539  31.868  29.908  1.00  0.00     0.029 A 
ATOM     36  C   UNL A   1      45.252  31.395  29.695  1.00  0.00     0.049 A 
ATOM     37  H   UNL A   1      44.637  29.602  28.775  1.00  0.00     0.167 HD
ATOM     38  C   UNL A   1      42.760  31.510  29.830  1.00  0.00     0.074 A 
ATOM     39  C   UNL A   1      41.532  32.175  30.226  1.00  0.00     0.031 C 
ATOM     40  C   UNL A   1      44.000  32.008  30.060  1.00  0.00     0.031 A 
BRANCH  27  41
ATOM     41  C   UNL A   1      48.674  28.498  27.982  1.00  0.00    -0.014 A 
ATOM     42  C   UNL A   1      49.470  27.798  28.902  1.00  0.00     0.009 A 
ATOM     43  C   UNL A   1      49.283  29.080  26.860  1.00  0.00     0.009 A 
ATOM     44  C   UNL A   1      50.854  27.716  28.718  1.00  0.00     0.001 A 
ATOM     45  C   UNL A   1      50.662  28.977  26.667  1.00  0.00     0.001 A 
ATOM     46  C   UNL A   1      51.448  28.306  27.602  1.00  0.00     0.000 A 
ENDBRANCH  27  41
BRANCH  28  47
ATOM     47  C   UNL A   1      38.659  29.361  28.900  1.00  0.00    -0.014 A 
ATOM     48  C   UNL A   1      37.867  29.739  27.806  1.00  0.00     0.009 A 
ATOM     49  C   UNL A   1      38.033  29.157  30.143  1.00  0.00     0.009 A 
ATOM     50  C   UNL A   1      36.490  29.937  27.961  1.00  0.00     0.001 A 
ATOM     51  C   UNL A   1      36.654  29.323  30.287  1.00  0.00     0.001 A 
ATOM     52  C   UNL A   1      35.885  29.726  29.199  1.00  0.00     0.000 A 
ENDBRANCH  28  47
BRANCH  40  53
ATOM     53  C   UNL A   1      44.068  33.343  30.739  1.00  0.00    -0.014 A 
ATOM     54  C   UNL A   1      44.017  34.533  29.998  1.00  0.00     0.009 A 
ATOM     55  C   UNL A   1      44.134  33.402  32.138  1.00  0.00     0.009 A 
ATOM     56  C   UNL A   1      44.067  35.765  30.652  1.00  0.00     0.001 A 
ATOM     57  C   UNL A   1      44.153  34.634  32.789  1.00  0.00     0.001 A 
ATOM     58  C   UNL A   1      44.128  35.814  32.044  1.00  0.00     0.000 A 
ENDBRANCH  40  53
ENDBRANCH  14  15
ENDBRANCH   7   9
ENDBRANCH   6   7
ENDBRANCH   5   6
ENDBRANCH   4   5
ENDBRANCH   3   4
ENDBRANCH   2   3
ENDBRANCH   1   2
BRANCH   1  59
ATOM     59  O   UNL A   1      38.029  21.327  24.940  1.00  0.00    -0.377 OA
BRANCH  59  60
ATOM     60  C   UNL A   1      36.784  21.730  24.387  1.00  0.00     0.188 C 
BRANCH  60  61
ATOM     61  C   UNL A   1      36.657  22.986  23.532  1.00  0.00     0.188 C 
BRANCH  61  62
ATOM     62  O   UNL A   1      35.496  23.232  22.750  1.00  0.00    -0.376 OA
BRANCH  62  63
ATOM     63  C   UNL A   1      34.283  22.559  23.041  1.00  0.00     0.202 C 
BRANCH  63  64
ATOM     64  C   UNL A   1      33.124  22.931  22.101  1.00  0.00     0.261 C 
BRANCH  64  65
ATOM     65  O   UNL A   1      33.369  24.014  21.173  1.00  0.00    -0.459 OA
BRANCH  65  66
ATOM     66  C   UNL A   1      32.522  25.072  21.265  1.00  0.00     0.365 C 
ATOM     67  O   UNL A   1      32.070  25.662  20.284  1.00  0.00    -0.245 OA
BRANCH  66  68
ATOM     68  C   UNL A   1      32.154  25.504  22.699  1.00  0.00     0.298 C 
ATOM     69  C   UNL A   1      32.365  26.997  23.033  1.00  0.00     0.115 C 
ATOM     70  N   UNL A   1      30.787  25.038  23.099  1.00  0.00    -0.323 N 
ATOM     71  C   UNL A   1      31.957  27.258  24.436  1.00  0.00    -0.006 A 
ATOM     72  C   UNL A   1      30.635  25.043  24.572  1.00  0.00     0.264 C 
ATOM     73  H   UNL A   1      30.644  24.091  22.752  1.00  0.00     0.347 HD
ATOM     74  H   UNL A   1      30.098  25.674  22.699  1.00  0.00     0.347 HD
ATOM     75  C   UNL A   1      31.161  26.359  25.117  1.00  0.00     0.083 A 
ATOM     76  C   UNL A   1      32.303  28.322  25.306  1.00  0.00     0.003 A 
ATOM     77  N   UNL A   1      30.947  26.888  26.365  1.00  0.00    -0.353 N 
ATOM     78  C   UNL A   1      31.655  28.067  26.516  1.00  0.00     0.046 A 
ATOM     79  C   UNL A   1      33.114  29.469  25.189  1.00  0.00     0.010 A 
ATOM     80  H   UNL A   1      30.371  26.484  27.054  1.00  0.00     0.166 HD
ATOM     81  C   UNL A   1      31.779  28.925  27.619  1.00  0.00     0.026 A 
ATOM     82  C   UNL A   1      33.255  30.325  26.285  1.00  0.00     0.001 A 
ATOM     83  C   UNL A   1      32.593  30.056  27.481  1.00  0.00     0.002 A 
BRANCH  72  84
ATOM     84  C   UNL A   1      31.282  23.822  25.233  1.00  0.00     0.041 A 
ATOM     85  C   UNL A   1      30.619  22.611  25.398  1.00  0.00     0.093 A 
ATOM     86  C   UNL A   1      32.610  23.604  25.797  1.00  0.00     0.009 A 
ATOM     87  N   UNL A   1      31.410  21.753  26.106  1.00  0.00    -0.361 N 
ATOM     88  C   UNL A   1      32.610  22.343  26.400  1.00  0.00     0.046 A 
ATOM     89  C   UNL A   1      33.815  24.340  25.899  1.00  0.00     0.011 A 
ATOM     90  H   UNL A   1      31.153  20.839  26.368  1.00  0.00     0.166 HD
ATOM     91  C   UNL A   1      33.689  21.844  27.147  1.00  0.00     0.026 A 
ATOM     92  C   UNL A   1      34.887  23.881  26.672  1.00  0.00     0.001 A 
ATOM     93  C   UNL A   1      34.819  22.649  27.299  1.00  0.00     0.002 A 
ENDBRANCH  72  84
ENDBRANCH  66  68
ENDBRANCH  65  66
ENDBRANCH  64  65
ENDBRANCH  63  64
ENDBRANCH  62  63
ENDBRANCH  61  62
ENDBRANCH  60  61
ENDBRANCH  59  60
ENDBRANCH   1  59
TORSDOF 21
ENDMDL
MODEL 3
REMARK VINA RESULT:     -10.8      1.765      7.025
REMARK SMILES O=C(OCCOCCOCCOCCOC(=O)[C@H]1Cc2c([nH]c3ccccc23)[C@H](c2c[nH]c3ccccc23)[NH2+]1)c1ccc(-c2c3nc(c(-c4ccccc4)c4ccc([nH]4)c(-c4ccccc4)c4nc(c(-c5ccccc5)c5ccc2[nH]5)C=C4)C=C3)cc1
REMARK SMILES IDX 8 1 7 2 6 3 5 4 4 5 3 6 2 7 1 8 40 9 41 10 87 11 42 12 86 13
REMARK SMILES IDX 43 14 44 15 45 16 80 17 46 18 85 19 79 20 81 21 47 22 84 23
REMARK SMILES IDX 78 24 77 25 48 27 70 28 55 29 69 30 56 31 59 32 68 33 82 34
REMARK SMILES IDX 57 35 58 36 67 38 83 39 60 40 49 41 50 42 54 43 51 44 53 45
REMARK SMILES IDX 52 46 71 47 72 48 76 49 73 50 75 51 74 52 61 53 62 54 66 55
REMARK SMILES IDX 63 56 65 57 64 58 9 59 10 60 11 61 12 62 13 63 14 64 15 65
REMARK SMILES IDX 16 66 17 67 18 68 19 69 39 70 20 71 29 72 21 75 28 76 22 77
REMARK SMILES IDX 23 78 27 79 24 81 26 82 25 83 30 84 31 85 38 86 32 87 33 88
REMARK SMILES IDX 37 89 34 91 36 92 35 93
REMARK H PARENT 81 26 59 37 39 73 39 74 22 80 32 90
REMARK Flexibility Score: inf
ROOT
ATOM      1  C   UNL A   1      40.985  21.583  26.117  1.00  0.00     0.188 C 
ENDROOT
BRANCH   1   2
ATOM      2  C   UNL A   1      41.822  20.350  26.392  1.00  0.00     0.188 C 
BRANCH   2   3
ATOM      3  O   UNL A   1      42.873  20.335  25.433  1.00  0.00    -0.376 OA
BRANCH   3   4
ATOM      4  C   UNL A   1      43.910  21.279  25.670  1.00  0.00     0.202 C 
BRANCH   4   5
ATOM      5  C   UNL A   1      44.233  22.118  24.435  1.00  0.00     0.261 C 
BRANCH   5   6
ATOM      6  O   UNL A   1      43.677  23.446  24.490  1.00  0.00    -0.460 OA
BRANCH   6   7
ATOM      7  C   UNL A   1      44.199  24.565  25.049  1.00  0.00     0.338 C 
ATOM      8  O   UNL A   1      45.315  24.937  24.680  1.00  0.00    -0.246 OA
BRANCH   7   9
ATOM      9  C   UNL A   1      43.512  25.398  26.086  1.00  0.00     0.060 A 
ATOM     10  C   UNL A   1      43.619  26.781  26.202  1.00  0.00     0.016 A 
ATOM     11  C   UNL A   1      42.628  24.743  26.964  1.00  0.00     0.016 A 
ATOM     12  C   UNL A   1      42.927  27.498  27.161  1.00  0.00     0.010 A 
ATOM     13  C   UNL A   1      41.919  25.453  27.942  1.00  0.00     0.010 A 
ATOM     14  C   UNL A   1      42.093  26.835  28.051  1.00  0.00    -0.014 A 
BRANCH  14  15
ATOM     15  C   UNL A   1      41.626  27.618  29.205  1.00  0.00     0.031 A 
ATOM     16  C   UNL A   1      42.466  27.578  30.445  1.00  0.00     0.074 A 
ATOM     17  C   UNL A   1      40.630  28.507  29.051  1.00  0.00     0.049 A 
ATOM     18  N   UNL A   1      42.276  28.161  31.594  1.00  0.00    -0.248 NA
ATOM     19  C   UNL A   1      43.716  26.794  30.374  1.00  0.00     0.031 C 
ATOM     20  C   UNL A   1      39.902  28.756  27.803  1.00  0.00     0.029 A 
ATOM     21  N   UNL A   1      40.097  29.409  29.932  1.00  0.00    -0.354 N 
ATOM     22  C   UNL A   1      43.356  27.787  32.386  1.00  0.00     0.074 A 
ATOM     23  C   UNL A   1      44.202  26.933  31.580  1.00  0.00     0.031 C 
ATOM     24  C   UNL A   1      39.036  29.765  27.994  1.00  0.00     0.029 A 
ATOM     25  C   UNL A   1      39.091  30.173  29.392  1.00  0.00     0.049 A 
ATOM     26  H   UNL A   1      40.406  29.503  30.862  1.00  0.00     0.167 HD
ATOM     27  C   UNL A   1      43.599  28.115  33.670  1.00  0.00     0.031 A 
ATOM     28  C   UNL A   1      38.281  31.064  29.990  1.00  0.00     0.031 A 
ATOM     29  C   UNL A   1      42.721  28.954  34.436  1.00  0.00     0.049 A 
ATOM     30  C   UNL A   1      38.479  31.297  31.464  1.00  0.00     0.074 A 
ATOM     31  C   UNL A   1      42.768  29.272  35.778  1.00  0.00     0.029 A 
ATOM     32  N   UNL A   1      41.624  29.615  33.898  1.00  0.00    -0.354 N 
ATOM     33  N   UNL A   1      39.424  30.836  32.252  1.00  0.00    -0.248 NA
ATOM     34  C   UNL A   1      37.492  32.147  32.138  1.00  0.00     0.031 C 
ATOM     35  C   UNL A   1      41.669  30.091  36.062  1.00  0.00     0.029 A 
ATOM     36  C   UNL A   1      40.973  30.327  34.884  1.00  0.00     0.049 A 
ATOM     37  H   UNL A   1      41.351  29.580  32.951  1.00  0.00     0.167 HD
ATOM     38  C   UNL A   1      39.150  31.345  33.512  1.00  0.00     0.074 A 
ATOM     39  C   UNL A   1      37.967  32.175  33.374  1.00  0.00     0.031 C 
ATOM     40  C   UNL A   1      39.800  31.140  34.685  1.00  0.00     0.031 A 
BRANCH  27  41
ATOM     41  C   UNL A   1      44.789  27.472  34.322  1.00  0.00    -0.014 A 
ATOM     42  C   UNL A   1      44.769  26.130  34.738  1.00  0.00     0.009 A 
ATOM     43  C   UNL A   1      45.926  28.249  34.587  1.00  0.00     0.009 A 
ATOM     44  C   UNL A   1      45.854  25.593  35.438  1.00  0.00     0.001 A 
ATOM     45  C   UNL A   1      47.017  27.703  35.266  1.00  0.00     0.001 A 
ATOM     46  C   UNL A   1      46.976  26.380  35.701  1.00  0.00     0.000 A 
ENDBRANCH  27  41
BRANCH  28  47
ATOM     47  C   UNL A   1      37.162  31.705  29.244  1.00  0.00    -0.014 A 
ATOM     48  C   UNL A   1      37.224  33.049  28.848  1.00  0.00     0.009 A 
ATOM     49  C   UNL A   1      35.994  30.976  28.960  1.00  0.00     0.009 A 
ATOM     50  C   UNL A   1      36.133  33.653  28.212  1.00  0.00     0.001 A 
ATOM     51  C   UNL A   1      34.919  31.571  28.296  1.00  0.00     0.001 A 
ATOM     52  C   UNL A   1      34.984  32.914  27.933  1.00  0.00     0.000 A 
ENDBRANCH  28  47
BRANCH  40  53
ATOM     53  C   UNL A   1      39.253  31.854  35.884  1.00  0.00    -0.014 A 
ATOM     54  C   UNL A   1      39.704  33.137  36.229  1.00  0.00     0.009 A 
ATOM     55  C   UNL A   1      38.242  31.250  36.645  1.00  0.00     0.009 A 
ATOM     56  C   UNL A   1      39.172  33.789  37.341  1.00  0.00     0.001 A 
ATOM     57  C   UNL A   1      37.691  31.917  37.737  1.00  0.00     0.001 A 
ATOM     58  C   UNL A   1      38.163  33.182  38.089  1.00  0.00     0.000 A 
ENDBRANCH  40  53
ENDBRANCH  14  15
ENDBRANCH   7   9
ENDBRANCH   6   7
ENDBRANCH   5   6
ENDBRANCH   4   5
ENDBRANCH   3   4
ENDBRANCH   2   3
ENDBRANCH   1   2
BRANCH   1  59
ATOM     59  O   UNL A   1      39.609  21.443  26.452  1.00  0.00    -0.377 OA
BRANCH  59  60
ATOM     60  C   UNL A   1      38.700  22.480  26.111  1.00  0.00     0.188 C 
BRANCH  60  61
ATOM     61  C   UNL A   1      37.506  22.229  25.195  1.00  0.00     0.188 C 
BRANCH  61  62
ATOM     62  O   UNL A   1      36.988  23.256  24.360  1.00  0.00    -0.376 OA
BRANCH  62  63
ATOM     63  C   UNL A   1      36.379  22.931  23.123  1.00  0.00     0.202 C 
BRANCH  63  64
ATOM     64  C   UNL A   1      34.861  23.181  23.092  1.00  0.00     0.261 C 
BRANCH  64  65
ATOM     65  O   UNL A   1      34.253  23.295  21.784  1.00  0.00    -0.459 OA
BRANCH  65  66
ATOM     66  C   UNL A   1      33.276  24.232  21.669  1.00  0.00     0.365 C 
ATOM     67  O   UNL A   1      32.892  24.678  20.588  1.00  0.00    -0.245 OA
BRANCH  66  68
ATOM     68  C   UNL A   1      32.663  24.718  22.999  1.00  0.00     0.298 C 
ATOM     69  C   UNL A   1      32.694  26.243  23.242  1.00  0.00     0.115 C 
ATOM     70  N   UNL A   1      31.298  24.150  23.237  1.00  0.00    -0.323 N 
ATOM     71  C   UNL A   1      32.062  26.553  24.548  1.00  0.00    -0.006 A 
ATOM     72  C   UNL A   1      30.929  24.235  24.668  1.00  0.00     0.264 C 
ATOM     73  H   UNL A   1      31.289  23.172  22.947  1.00  0.00     0.347 HD
ATOM     74  H   UNL A   1      30.623  24.689  22.694  1.00  0.00     0.347 HD
ATOM     75  C   UNL A   1      31.254  25.628  25.178  1.00  0.00     0.083 A 
ATOM     76  C   UNL A   1      32.183  27.699  25.374  1.00  0.00     0.003 A 
ATOM     77  N   UNL A   1      30.813  26.213  26.338  1.00  0.00    -0.353 N 
ATOM     78  C   UNL A   1      31.387  27.463  26.495  1.00  0.00     0.046 A 
ATOM     79  C   UNL A   1      32.901  28.909  25.283  1.00  0.00     0.010 A 
ATOM     80  H   UNL A   1      30.178  25.801  26.968  1.00  0.00     0.166 HD
ATOM     81  C   UNL A   1      31.272  28.397  27.534  1.00  0.00     0.026 A 
ATOM     82  C   UNL A   1      32.804  29.845  26.318  1.00  0.00     0.001 A 
ATOM     83  C   UNL A   1      31.998  29.591  27.425  1.00  0.00     0.002 A 
BRANCH  72  84
ATOM     84  C   UNL A   1      31.574  23.127  25.507  1.00  0.00     0.041 A 
ATOM     85  C   UNL A   1      31.793  23.245  26.875  1.00  0.00     0.093 A 
ATOM     86  C   UNL A   1      32.069  21.800  25.159  1.00  0.00     0.009 A 
ATOM     87  N   UNL A   1      32.471  22.148  27.322  1.00  0.00    -0.361 N 
ATOM     88  C   UNL A   1      32.690  21.270  26.293  1.00  0.00     0.046 A 
ATOM     89  C   UNL A   1      32.095  20.984  24.002  1.00  0.00     0.011 A 
ATOM     90  H   UNL A   1      32.761  22.008  28.252  1.00  0.00     0.166 HD
ATOM     91  C   UNL A   1      33.386  20.051  26.295  1.00  0.00     0.026 A 
ATOM     92  C   UNL A   1      32.816  19.786  23.968  1.00  0.00     0.001 A 
ATOM     93  C   UNL A   1      33.465  19.330  25.103  1.00  0.00     0.002 A 
ENDBRANCH  72  84
ENDBRANCH  66  68
ENDBRANCH  65  66
ENDBRANCH  64  65
ENDBRANCH  63  64
ENDBRANCH  62  63
ENDBRANCH  61  62
ENDBRANCH  60  61
ENDBRANCH  59  60
ENDBRANCH   1  59
TORSDOF 21
ENDMDL
