MODEL 1
REMARK VINA RESULT:      -9.3      0.000      0.000
REMARK SMILES O=C(NCc1ccsc1)NC[C@H]1CC[C@@H](C(=O)OCCOCCOCCOCCOC(=O)c2ccc(-c3c4nc(c(-c5ccccc5)c5ccc([nH]5)c(-c5ccccc5)c5nc(c(-c6ccccc6)c6ccc3[nH]6)C=C5)C=C4)cc2)CC1
REMARK SMILES IDX 23 1 22 2 21 3 20 4 19 5 18 6 16 7 17 8 15 9 12 10 13 11
REMARK SMILES IDX 82 12 14 13 81 14 11 15 10 16 1 17 2 18 3 19 4 22 5 23 6 24
REMARK SMILES IDX 9 25 7 26 8 27 24 28 25 29 26 30 27 31 28 32 29 33 30 34
REMARK SMILES IDX 31 35 32 36 33 37 34 38 80 39 35 40 79 41 36 42 37 43 38 44
REMARK SMILES IDX 73 45 39 46 78 47 72 48 74 49 40 50 77 51 71 52 70 53 41 55
REMARK SMILES IDX 63 56 48 57 62 58 49 59 52 60 61 61 75 62 50 63 51 64 60 66
REMARK SMILES IDX 76 67 53 68 42 69 43 70 47 71 44 72 46 73 45 74 64 75 65 76
REMARK SMILES IDX 69 77 66 78 68 79 67 80 54 81 55 82 59 83 56 84 58 85 57 86
REMARK H PARENT 3 20 10 21 74 54 52 65
REMARK Flexibility Score: inf
ROOT
ATOM      1  C   UNL A   1      42.160  20.738  26.190  1.00  0.00     0.188 C 
ENDROOT
BRANCH   1   2
ATOM      2  C   UNL A   1      41.465  20.588  27.547  1.00  0.00     0.188 C 
BRANCH   2   3
ATOM      3  O   UNL A   1      40.404  21.484  27.765  1.00  0.00    -0.376 OA
BRANCH   3   4
ATOM      4  C   UNL A   1      39.993  22.382  26.756  1.00  0.00     0.202 C 
BRANCH   4   5
ATOM      5  C   UNL A   1      38.623  22.387  26.044  1.00  0.00     0.261 C 
BRANCH   5   6
ATOM      6  O   UNL A   1      37.578  23.254  26.498  1.00  0.00    -0.463 OA
BRANCH   6   7
ATOM      7  C   UNL A   1      36.432  23.243  25.780  1.00  0.00     0.309 C 
ATOM      8  O   UNL A   1      35.505  24.026  25.969  1.00  0.00    -0.252 OA
BRANCH   7   9
ATOM      9  C   UNL A   1      36.316  22.087  24.786  1.00  0.00     0.099 C 
ATOM     10  C   UNL A   1      33.885  22.338  23.064  1.00  0.00     0.008 C 
ATOM     11  C   UNL A   1      35.055  23.328  22.979  1.00  0.00     0.006 C 
ATOM     12  C   UNL A   1      33.807  21.662  24.438  1.00  0.00     0.006 C 
ATOM     13  C   UNL A   1      36.384  22.685  23.381  1.00  0.00     0.015 C 
ATOM     14  C   UNL A   1      35.155  21.087  24.849  1.00  0.00     0.015 C 
BRANCH  10  15
ATOM     15  C   UNL A   1      32.556  23.029  22.729  1.00  0.00     0.121 C 
BRANCH  15  16
ATOM     16  N   UNL A   1      32.126  23.853  23.841  1.00  0.00    -0.338 N 
ATOM     17  O   UNL A   1      29.981  24.178  23.145  1.00  0.00    -0.249 OA
ATOM     18  C   UNL A   1      30.880  24.375  23.956  1.00  0.00     0.315 C 
ATOM     19  N   UNL A   1      30.642  25.155  25.036  1.00  0.00    -0.334 N 
ATOM     20  H   UNL A   1      29.727  25.515  25.086  1.00  0.00     0.165 HD
ATOM     21  H   UNL A   1      32.776  24.044  24.555  1.00  0.00     0.165 HD
BRANCH  19  22
ATOM     22  C   UNL A   1      31.503  25.549  26.128  1.00  0.00     0.154 C 
BRANCH  22  23
ATOM     23  C   UNL A   1      32.059  26.905  25.835  1.00  0.00    -0.018 A 
ATOM     24  C   UNL A   1      31.381  27.914  25.075  1.00  0.00     0.017 A 
ATOM     25  C   UNL A   1      33.288  27.369  26.275  1.00  0.00     0.070 A 
ATOM     26  C   UNL A   1      32.105  29.081  24.974  1.00  0.00     0.065 A 
ATOM     27  S   UNL A   1      33.605  28.977  25.785  1.00  0.00    -0.152 S 
ENDBRANCH  22  23
ENDBRANCH  19  22
ENDBRANCH  15  16
ENDBRANCH  10  15
ENDBRANCH   7   9
ENDBRANCH   6   7
ENDBRANCH   5   6
ENDBRANCH   4   5
ENDBRANCH   3   4
ENDBRANCH   2   3
ENDBRANCH   1   2
BRANCH   1  28
ATOM     28  O   UNL A   1      42.300  19.596  25.363  1.00  0.00    -0.377 OA
BRANCH  28  29
ATOM     29  C   UNL A   1      43.595  19.067  25.087  1.00  0.00     0.188 C 
BRANCH  29  30
ATOM     30  C   UNL A   1      44.827  19.988  24.944  1.00  0.00     0.188 C 
BRANCH  30  31
ATOM     31  O   UNL A   1      44.845  20.793  23.780  1.00  0.00    -0.376 OA
BRANCH  31  32
ATOM     32  C   UNL A   1      44.669  22.193  23.927  1.00  0.00     0.202 C 
BRANCH  32  33
ATOM     33  C   UNL A   1      45.143  22.846  25.235  1.00  0.00     0.261 C 
BRANCH  33  34
ATOM     34  O   UNL A   1      44.251  23.798  25.832  1.00  0.00    -0.460 OA
BRANCH  34  35
ATOM     35  C   UNL A   1      44.449  25.104  25.569  1.00  0.00     0.338 C 
ATOM     36  O   UNL A   1      45.053  25.593  24.628  1.00  0.00    -0.246 OA
BRANCH  35  37
ATOM     37  C   UNL A   1      43.654  25.879  26.540  1.00  0.00     0.060 A 
ATOM     38  C   UNL A   1      43.936  27.238  26.734  1.00  0.00     0.016 A 
ATOM     39  C   UNL A   1      42.637  25.253  27.262  1.00  0.00     0.016 A 
ATOM     40  C   UNL A   1      43.230  27.965  27.692  1.00  0.00     0.010 A 
ATOM     41  C   UNL A   1      41.947  25.976  28.235  1.00  0.00     0.010 A 
ATOM     42  C   UNL A   1      42.271  27.321  28.483  1.00  0.00    -0.014 A 
BRANCH  42  43
ATOM     43  C   UNL A   1      41.777  27.967  29.721  1.00  0.00     0.031 A 
ATOM     44  C   UNL A   1      40.548  28.828  29.621  1.00  0.00     0.074 A 
ATOM     45  C   UNL A   1      42.398  27.805  30.901  1.00  0.00     0.049 A 
ATOM     46  N   UNL A   1      39.981  29.583  30.527  1.00  0.00    -0.248 NA
ATOM     47  C   UNL A   1      39.869  28.843  28.314  1.00  0.00     0.031 C 
ATOM     48  C   UNL A   1      43.563  26.956  31.138  1.00  0.00     0.029 A 
ATOM     49  N   UNL A   1      42.132  28.369  32.124  1.00  0.00    -0.354 N 
ATOM     50  C   UNL A   1      38.897  30.177  29.894  1.00  0.00     0.074 A 
ATOM     51  C   UNL A   1      38.896  29.716  28.524  1.00  0.00     0.031 C 
ATOM     52  C   UNL A   1      43.922  27.066  32.430  1.00  0.00     0.029 A 
ATOM     53  C   UNL A   1      43.042  28.027  33.094  1.00  0.00     0.049 A 
ATOM     54  H   UNL A   1      41.363  28.961  32.290  1.00  0.00     0.167 HD
ATOM     55  C   UNL A   1      37.983  31.032  30.408  1.00  0.00     0.031 A 
ATOM     56  C   UNL A   1      43.169  28.470  34.360  1.00  0.00     0.031 A 
ATOM     57  C   UNL A   1      38.000  31.504  31.765  1.00  0.00     0.049 A 
ATOM     58  C   UNL A   1      42.195  29.495  34.884  1.00  0.00     0.074 A 
ATOM     59  C   UNL A   1      37.115  32.367  32.388  1.00  0.00     0.029 A 
ATOM     60  N   UNL A   1      38.956  31.159  32.707  1.00  0.00    -0.354 N 
ATOM     61  N   UNL A   1      41.164  30.043  34.285  1.00  0.00    -0.248 NA
ATOM     62  C   UNL A   1      42.401  29.960  36.264  1.00  0.00     0.031 C 
ATOM     63  C   UNL A   1      37.576  32.596  33.689  1.00  0.00     0.029 A 
ATOM     64  C   UNL A   1      38.701  31.814  33.900  1.00  0.00     0.049 A 
ATOM     65  H   UNL A   1      39.705  30.540  32.551  1.00  0.00     0.167 HD
ATOM     66  C   UNL A   1      40.579  30.885  35.226  1.00  0.00     0.074 A 
ATOM     67  C   UNL A   1      41.363  30.767  36.437  1.00  0.00     0.031 C 
ATOM     68  C   UNL A   1      39.487  31.679  35.099  1.00  0.00     0.031 A 
BRANCH  55  69
ATOM     69  C   UNL A   1      36.919  31.548  29.478  1.00  0.00    -0.014 A 
ATOM     70  C   UNL A   1      37.051  32.783  28.824  1.00  0.00     0.009 A 
ATOM     71  C   UNL A   1      35.772  30.774  29.241  1.00  0.00     0.009 A 
ATOM     72  C   UNL A   1      36.039  33.249  27.981  1.00  0.00     0.001 A 
ATOM     73  C   UNL A   1      34.778  31.227  28.373  1.00  0.00     0.001 A 
ATOM     74  C   UNL A   1      34.907  32.468  27.751  1.00  0.00     0.000 A 
ENDBRANCH  55  69
BRANCH  56  75
ATOM     75  C   UNL A   1      44.279  27.977  35.219  1.00  0.00    -0.014 A 
ATOM     76  C   UNL A   1      45.529  28.618  35.214  1.00  0.00     0.009 A 
ATOM     77  C   UNL A   1      44.105  26.845  36.031  1.00  0.00     0.009 A 
ATOM     78  C   UNL A   1      46.586  28.117  35.977  1.00  0.00     0.001 A 
ATOM     79  C   UNL A   1      45.154  26.366  36.819  1.00  0.00     0.001 A 
ATOM     80  C   UNL A   1      46.397  26.995  36.783  1.00  0.00     0.000 A 
ENDBRANCH  56  75
BRANCH  68  81
ATOM     81  C   UNL A   1      39.035  32.440  36.317  1.00  0.00    -0.014 A 
ATOM     82  C   UNL A   1      38.132  31.889  37.238  1.00  0.00     0.009 A 
ATOM     83  C   UNL A   1      39.572  33.713  36.572  1.00  0.00     0.009 A 
ATOM     84  C   UNL A   1      37.751  32.612  38.371  1.00  0.00     0.001 A 
ATOM     85  C   UNL A   1      39.217  34.418  37.721  1.00  0.00     0.001 A 
ATOM     86  C   UNL A   1      38.297  33.872  38.614  1.00  0.00     0.000 A 
ENDBRANCH  68  81
ENDBRANCH  42  43
ENDBRANCH  35  37
ENDBRANCH  34  35
ENDBRANCH  33  34
ENDBRANCH  32  33
ENDBRANCH  31  32
ENDBRANCH  30  31
ENDBRANCH  29  30
ENDBRANCH  28  29
ENDBRANCH   1  28
TORSDOF 24
ENDMDL
MODEL 2
REMARK VINA RESULT:      -9.2      1.209      5.858
REMARK SMILES O=C(NCc1ccsc1)NC[C@H]1CC[C@@H](C(=O)OCCOCCOCCOCCOC(=O)c2ccc(-c3c4nc(c(-c5ccccc5)c5ccc([nH]5)c(-c5ccccc5)c5nc(c(-c6ccccc6)c6ccc3[nH]6)C=C5)C=C4)cc2)CC1
REMARK SMILES IDX 23 1 22 2 21 3 20 4 19 5 18 6 16 7 17 8 15 9 12 10 13 11
REMARK SMILES IDX 82 12 14 13 81 14 11 15 10 16 1 17 2 18 3 19 4 22 5 23 6 24
REMARK SMILES IDX 9 25 7 26 8 27 24 28 25 29 26 30 27 31 28 32 29 33 30 34
REMARK SMILES IDX 31 35 32 36 33 37 34 38 80 39 35 40 79 41 36 42 37 43 38 44
REMARK SMILES IDX 73 45 39 46 78 47 72 48 74 49 40 50 77 51 71 52 70 53 41 55
REMARK SMILES IDX 63 56 48 57 62 58 49 59 52 60 61 61 75 62 50 63 51 64 60 66
REMARK SMILES IDX 76 67 53 68 42 69 43 70 47 71 44 72 46 73 45 74 64 75 65 76
REMARK SMILES IDX 69 77 66 78 68 79 67 80 54 81 55 82 59 83 56 84 58 85 57 86
REMARK H PARENT 3 20 10 21 74 54 52 65
REMARK Flexibility Score: inf
ROOT
ATOM      1  C   UNL A   1      41.790  20.561  26.145  1.00  0.00     0.188 C 
ENDROOT
BRANCH   1   2
ATOM      2  C   UNL A   1      40.919  21.120  27.275  1.00  0.00     0.188 C 
BRANCH   2   3
ATOM      3  O   UNL A   1      39.660  21.595  26.865  1.00  0.00    -0.376 OA
BRANCH   3   4
ATOM      4  C   UNL A   1      39.021  21.063  25.724  1.00  0.00     0.202 C 
BRANCH   4   5
ATOM      5  C   UNL A   1      37.595  21.400  25.239  1.00  0.00     0.261 C 
BRANCH   5   6
ATOM      6  O   UNL A   1      37.254  22.743  24.880  1.00  0.00    -0.463 OA
BRANCH   6   7
ATOM      7  C   UNL A   1      36.027  23.174  25.254  1.00  0.00     0.309 C 
ATOM      8  O   UNL A   1      35.622  24.318  25.065  1.00  0.00    -0.252 OA
BRANCH   7   9
ATOM      9  C   UNL A   1      35.214  22.158  26.057  1.00  0.00     0.099 C 
ATOM     10  C   UNL A   1      32.275  22.479  25.610  1.00  0.00     0.008 C 
ATOM     11  C   UNL A   1      33.228  22.016  24.498  1.00  0.00     0.006 C 
ATOM     12  C   UNL A   1      33.002  23.306  26.677  1.00  0.00     0.006 C 
ATOM     13  C   UNL A   1      34.453  21.289  25.055  1.00  0.00     0.015 C 
ATOM     14  C   UNL A   1      34.254  22.596  27.170  1.00  0.00     0.015 C 
BRANCH  10  15
ATOM     15  C   UNL A   1      31.096  23.270  25.028  1.00  0.00     0.121 C 
BRANCH  15  16
ATOM     16  N   UNL A   1      31.510  24.619  24.702  1.00  0.00    -0.338 N 
ATOM     17  O   UNL A   1      29.759  25.137  23.340  1.00  0.00    -0.249 OA
ATOM     18  C   UNL A   1      30.820  25.441  23.874  1.00  0.00     0.315 C 
ATOM     19  N   UNL A   1      31.356  26.662  23.640  1.00  0.00    -0.334 N 
ATOM     20  H   UNL A   1      30.827  27.231  23.035  1.00  0.00     0.165 HD
ATOM     21  H   UNL A   1      32.341  24.960  25.106  1.00  0.00     0.165 HD
BRANCH  19  22
ATOM     22  C   UNL A   1      32.573  27.272  24.126  1.00  0.00     0.154 C 
BRANCH  22  23
ATOM     23  C   UNL A   1      32.229  28.211  25.236  1.00  0.00    -0.018 A 
ATOM     24  C   UNL A   1      31.975  27.810  26.590  1.00  0.00     0.017 A 
ATOM     25  C   UNL A   1      32.132  29.586  25.108  1.00  0.00     0.070 A 
ATOM     26  C   UNL A   1      31.705  28.877  27.418  1.00  0.00     0.065 A 
ATOM     27  S   UNL A   1      31.749  30.365  26.582  1.00  0.00    -0.152 S 
ENDBRANCH  22  23
ENDBRANCH  19  22
ENDBRANCH  15  16
ENDBRANCH  10  15
ENDBRANCH   7   9
ENDBRANCH   6   7
ENDBRANCH   5   6
ENDBRANCH   4   5
ENDBRANCH   3   4
ENDBRANCH   2   3
ENDBRANCH   1   2
BRANCH   1  28
ATOM     28  O   UNL A   1      41.655  19.195  25.791  1.00  0.00    -0.377 OA
BRANCH  28  29
ATOM     29  C   UNL A   1      42.801  18.347  25.763  1.00  0.00     0.188 C 
BRANCH  29  30
ATOM     30  C   UNL A   1      44.232  18.927  25.771  1.00  0.00     0.188 C 
BRANCH  30  31
ATOM     31  O   UNL A   1      44.745  19.282  24.500  1.00  0.00    -0.376 OA
BRANCH  31  32
ATOM     32  C   UNL A   1      45.006  20.650  24.238  1.00  0.00     0.202 C 
BRANCH  32  33
ATOM     33  C   UNL A   1      45.170  21.597  25.438  1.00  0.00     0.261 C 
BRANCH  33  34
ATOM     34  O   UNL A   1      44.238  22.685  25.523  1.00  0.00    -0.460 OA
BRANCH  34  35
ATOM     35  C   UNL A   1      44.694  23.930  25.284  1.00  0.00     0.338 C 
ATOM     36  O   UNL A   1      45.507  24.278  24.442  1.00  0.00    -0.246 OA
BRANCH  35  37
ATOM     37  C   UNL A   1      43.906  24.859  26.114  1.00  0.00     0.060 A 
ATOM     38  C   UNL A   1      44.220  26.226  26.108  1.00  0.00     0.016 A 
ATOM     39  C   UNL A   1      42.864  24.372  26.906  1.00  0.00     0.016 A 
ATOM     40  C   UNL A   1      43.521  27.104  26.935  1.00  0.00     0.010 A 
ATOM     41  C   UNL A   1      42.181  25.248  27.748  1.00  0.00     0.010 A 
ATOM     42  C   UNL A   1      42.536  26.608  27.797  1.00  0.00    -0.014 A 
BRANCH  42  43
ATOM     43  C   UNL A   1      42.043  27.443  28.916  1.00  0.00     0.031 A 
ATOM     44  C   UNL A   1      42.774  27.362  30.228  1.00  0.00     0.074 A 
ATOM     45  C   UNL A   1      40.977  28.250  28.783  1.00  0.00     0.049 A 
ATOM     46  N   UNL A   1      42.481  27.904  31.382  1.00  0.00    -0.248 NA
ATOM     47  C   UNL A   1      44.002  26.548  30.239  1.00  0.00     0.031 C 
ATOM     48  C   UNL A   1      40.218  28.458  27.552  1.00  0.00     0.029 A 
ATOM     49  N   UNL A   1      40.341  29.036  29.712  1.00  0.00    -0.354 N 
ATOM     50  C   UNL A   1      43.473  27.480  32.257  1.00  0.00     0.074 A 
ATOM     51  C   UNL A   1      44.362  26.618  31.511  1.00  0.00     0.031 C 
ATOM     52  C   UNL A   1      39.208  29.309  27.806  1.00  0.00     0.029 A 
ATOM     53  C   UNL A   1      39.222  29.664  29.223  1.00  0.00     0.049 A 
ATOM     54  H   UNL A   1      40.658  29.140  30.638  1.00  0.00     0.167 HD
ATOM     55  C   UNL A   1      43.630  27.781  33.567  1.00  0.00     0.031 A 
ATOM     56  C   UNL A   1      38.298  30.409  29.861  1.00  0.00     0.031 A 
ATOM     57  C   UNL A   1      42.733  28.622  34.311  1.00  0.00     0.049 A 
ATOM     58  C   UNL A   1      38.441  30.654  31.342  1.00  0.00     0.074 A 
ATOM     59  C   UNL A   1      42.805  28.995  35.641  1.00  0.00     0.029 A 
ATOM     60  N   UNL A   1      41.593  29.213  33.788  1.00  0.00    -0.354 N 
ATOM     61  N   UNL A   1      39.387  30.261  32.161  1.00  0.00    -0.248 NA
ATOM     62  C   UNL A   1      37.386  31.452  31.986  1.00  0.00     0.031 C 
ATOM     63  C   UNL A   1      41.671  29.759  35.940  1.00  0.00     0.029 A 
ATOM     64  C   UNL A   1      40.937  29.926  34.776  1.00  0.00     0.049 A 
ATOM     65  H   UNL A   1      41.295  29.137  32.853  1.00  0.00     0.167 HD
ATOM     66  C   UNL A   1      39.063  30.795  33.404  1.00  0.00     0.074 A 
ATOM     67  C   UNL A   1      37.838  31.547  33.229  1.00  0.00     0.031 C 
ATOM     68  C   UNL A   1      39.722  30.676  34.583  1.00  0.00     0.031 A 
BRANCH  55  69
ATOM     69  C   UNL A   1      44.791  27.152  34.287  1.00  0.00    -0.014 A 
ATOM     70  C   UNL A   1      44.676  25.901  34.915  1.00  0.00     0.009 A 
ATOM     71  C   UNL A   1      46.027  27.817  34.323  1.00  0.00     0.009 A 
ATOM     72  C   UNL A   1      45.764  25.348  35.594  1.00  0.00     0.001 A 
ATOM     73  C   UNL A   1      47.121  27.247  34.974  1.00  0.00     0.001 A 
ATOM     74  C   UNL A   1      46.987  26.018  35.618  1.00  0.00     0.000 A 
ENDBRANCH  55  69
BRANCH  56  75
ATOM     75  C   UNL A   1      37.131  30.955  29.116  1.00  0.00    -0.014 A 
ATOM     76  C   UNL A   1      36.061  30.122  28.750  1.00  0.00     0.009 A 
ATOM     77  C   UNL A   1      37.092  32.307  28.742  1.00  0.00     0.009 A 
ATOM     78  C   UNL A   1      34.995  30.625  27.999  1.00  0.00     0.001 A 
ATOM     79  C   UNL A   1      36.009  32.815  28.020  1.00  0.00     0.001 A 
ATOM     80  C   UNL A   1      34.968  31.972  27.640  1.00  0.00     0.000 A 
ENDBRANCH  56  75
BRANCH  68  81
ATOM     81  C   UNL A   1      39.171  31.425  35.767  1.00  0.00    -0.014 A 
ATOM     82  C   UNL A   1      38.195  30.867  36.604  1.00  0.00     0.009 A 
ATOM     83  C   UNL A   1      39.685  32.695  36.077  1.00  0.00     0.009 A 
ATOM     84  C   UNL A   1      37.720  31.579  37.708  1.00  0.00     0.001 A 
ATOM     85  C   UNL A   1      39.235  33.390  37.200  1.00  0.00     0.001 A 
ATOM     86  C   UNL A   1      38.245  32.836  38.008  1.00  0.00     0.000 A 
ENDBRANCH  68  81
ENDBRANCH  42  43
ENDBRANCH  35  37
ENDBRANCH  34  35
ENDBRANCH  33  34
ENDBRANCH  32  33
ENDBRANCH  31  32
ENDBRANCH  30  31
ENDBRANCH  29  30
ENDBRANCH  28  29
ENDBRANCH   1  28
TORSDOF 24
ENDMDL
MODEL 3
REMARK VINA RESULT:      -9.1      3.443      8.417
REMARK SMILES O=C(NCc1ccsc1)NC[C@H]1CC[C@@H](C(=O)OCCOCCOCCOCCOC(=O)c2ccc(-c3c4nc(c(-c5ccccc5)c5ccc([nH]5)c(-c5ccccc5)c5nc(c(-c6ccccc6)c6ccc3[nH]6)C=C5)C=C4)cc2)CC1
REMARK SMILES IDX 23 1 22 2 21 3 20 4 19 5 18 6 16 7 17 8 15 9 12 10 13 11
REMARK SMILES IDX 82 12 14 13 81 14 11 15 10 16 1 17 2 18 3 19 4 22 5 23 6 24
REMARK SMILES IDX 9 25 7 26 8 27 24 28 25 29 26 30 27 31 28 32 29 33 30 34
REMARK SMILES IDX 31 35 32 36 33 37 34 38 80 39 35 40 79 41 36 42 37 43 38 44
REMARK SMILES IDX 73 45 39 46 78 47 72 48 74 49 40 50 77 51 71 52 70 53 41 55
REMARK SMILES IDX 63 56 48 57 62 58 49 59 52 60 61 61 75 62 50 63 51 64 60 66
REMARK SMILES IDX 76 67 53 68 42 69 43 70 47 71 44 72 46 73 45 74 64 75 65 76
REMARK SMILES IDX 69 77 66 78 68 79 67 80 54 81 55 82 59 83 56 84 58 85 57 86
REMARK H PARENT 3 20 10 21 74 54 52 65
REMARK Flexibility Score: inf
ROOT
ATOM      1  C   UNL A   1      32.203  29.828  26.834  1.00  0.00     0.188 C 
ENDROOT
BRANCH   1   2
ATOM      2  C   UNL A   1      32.138  28.911  25.608  1.00  0.00     0.188 C 
BRANCH   2   3
ATOM      3  O   UNL A   1      32.597  27.601  25.832  1.00  0.00    -0.376 OA
BRANCH   3   4
ATOM      4  C   UNL A   1      33.781  27.132  25.220  1.00  0.00     0.202 C 
BRANCH   4   5
ATOM      5  C   UNL A   1      33.931  25.829  24.407  1.00  0.00     0.261 C 
BRANCH   5   6
ATOM      6  O   UNL A   1      34.973  24.899  24.721  1.00  0.00    -0.463 OA
BRANCH   6   7
ATOM      7  C   UNL A   1      34.988  23.749  24.009  1.00  0.00     0.309 C 
ATOM      8  O   UNL A   1      35.074  23.708  22.785  1.00  0.00    -0.252 OA
BRANCH   7   9
ATOM      9  C   UNL A   1      34.758  22.486  24.840  1.00  0.00     0.099 C 
ATOM     10  C   UNL A   1      31.917  22.246  25.741  1.00  0.00     0.008 C 
ATOM     11  C   UNL A   1      32.319  22.148  24.263  1.00  0.00     0.006 C 
ATOM     12  C   UNL A   1      32.934  23.053  26.557  1.00  0.00     0.006 C 
ATOM     13  C   UNL A   1      33.745  21.622  24.087  1.00  0.00     0.015 C 
ATOM     14  C   UNL A   1      34.354  22.558  26.318  1.00  0.00     0.015 C 
BRANCH  10  15
ATOM     15  C   UNL A   1      30.513  22.847  25.889  1.00  0.00     0.121 C 
BRANCH  15  16
ATOM     16  N   UNL A   1      30.420  24.090  25.151  1.00  0.00    -0.338 N 
ATOM     17  O   UNL A   1      29.627  25.377  26.856  1.00  0.00    -0.249 OA
ATOM     18  C   UNL A   1      29.971  25.253  25.686  1.00  0.00     0.315 C 
ATOM     19  N   UNL A   1      29.909  26.322  24.858  1.00  0.00    -0.334 N 
ATOM     20  H   UNL A   1      29.580  27.148  25.280  1.00  0.00     0.165 HD
ATOM     21  H   UNL A   1      30.699  24.092  24.207  1.00  0.00     0.165 HD
BRANCH  19  22
ATOM     22  C   UNL A   1      30.243  26.456  23.457  1.00  0.00     0.154 C 
BRANCH  22  23
ATOM     23  C   UNL A   1      29.731  27.771  22.966  1.00  0.00    -0.018 A 
ATOM     24  C   UNL A   1      30.542  28.780  22.348  1.00  0.00     0.017 A 
ATOM     25  C   UNL A   1      28.408  28.178  23.025  1.00  0.00     0.070 A 
ATOM     26  C   UNL A   1      29.816  29.886  21.966  1.00  0.00     0.065 A 
ATOM     27  S   UNL A   1      28.158  29.728  22.348  1.00  0.00    -0.152 S 
ENDBRANCH  22  23
ENDBRANCH  19  22
ENDBRANCH  15  16
ENDBRANCH  10  15
ENDBRANCH   7   9
ENDBRANCH   6   7
ENDBRANCH   5   6
ENDBRANCH   4   5
ENDBRANCH   3   4
ENDBRANCH   2   3
ENDBRANCH   1   2
BRANCH   1  28
ATOM     28  O   UNL A   1      33.355  29.787  27.658  1.00  0.00    -0.377 OA
BRANCH  28  29
ATOM     29  C   UNL A   1      34.473  30.621  27.366  1.00  0.00     0.188 C 
BRANCH  29  30
ATOM     30  C   UNL A   1      34.698  31.956  28.111  1.00  0.00     0.188 C 
BRANCH  30  31
ATOM     31  O   UNL A   1      33.570  32.810  28.171  1.00  0.00    -0.376 OA
BRANCH  31  32
ATOM     32  C   UNL A   1      33.788  34.208  28.248  1.00  0.00     0.202 C 
BRANCH  32  33
ATOM     33  C   UNL A   1      33.596  34.895  29.609  1.00  0.00     0.261 C 
BRANCH  33  34
ATOM     34  O   UNL A   1      33.672  34.050  30.767  1.00  0.00    -0.460 OA
BRANCH  34  35
ATOM     35  C   UNL A   1      34.534  34.389  31.744  1.00  0.00     0.338 C 
ATOM     36  O   UNL A   1      34.361  35.195  32.644  1.00  0.00    -0.246 OA
BRANCH  35  37
ATOM     37  C   UNL A   1      35.693  33.483  31.649  1.00  0.00     0.060 A 
ATOM     38  C   UNL A   1      35.706  32.298  32.398  1.00  0.00     0.016 A 
ATOM     39  C   UNL A   1      36.770  33.816  30.825  1.00  0.00     0.016 A 
ATOM     40  C   UNL A   1      36.822  31.464  32.361  1.00  0.00     0.010 A 
ATOM     41  C   UNL A   1      37.894  32.992  30.806  1.00  0.00     0.010 A 
ATOM     42  C   UNL A   1      37.942  31.837  31.607  1.00  0.00    -0.014 A 
BRANCH  42  43
ATOM     43  C   UNL A   1      39.243  31.167  31.833  1.00  0.00     0.031 A 
ATOM     44  C   UNL A   1      39.627  30.048  30.904  1.00  0.00     0.074 A 
ATOM     45  C   UNL A   1      40.064  31.531  32.832  1.00  0.00     0.049 A 
ATOM     46  N   UNL A   1      40.653  29.237  30.953  1.00  0.00    -0.248 NA
ATOM     47  C   UNL A   1      38.722  29.807  29.766  1.00  0.00     0.031 C 
ATOM     48  C   UNL A   1      39.831  32.631  33.764  1.00  0.00     0.029 A 
ATOM     49  N   UNL A   1      41.261  30.991  33.234  1.00  0.00    -0.354 N 
ATOM     50  C   UNL A   1      40.504  28.380  29.870  1.00  0.00     0.074 A 
ATOM     51  C   UNL A   1      39.280  28.751  29.195  1.00  0.00     0.031 C 
ATOM     52  C   UNL A   1      40.850  32.678  34.641  1.00  0.00     0.029 A 
ATOM     53  C   UNL A   1      41.777  31.583  34.360  1.00  0.00     0.049 A 
ATOM     54  H   UNL A   1      41.706  30.252  32.760  1.00  0.00     0.167 HD
ATOM     55  C   UNL A   1      41.313  27.372  29.473  1.00  0.00     0.031 A 
ATOM     56  C   UNL A   1      42.854  31.251  35.098  1.00  0.00     0.031 A 
ATOM     57  C   UNL A   1      42.518  26.992  30.158  1.00  0.00     0.049 A 
ATOM     58  C   UNL A   1      43.691  30.065  34.690  1.00  0.00     0.074 A 
ATOM     59  C   UNL A   1      43.415  25.989  29.833  1.00  0.00     0.029 A 
ATOM     60  N   UNL A   1      42.991  27.596  31.313  1.00  0.00    -0.354 N 
ATOM     61  N   UNL A   1      43.553  29.266  33.659  1.00  0.00    -0.248 NA
ATOM     62  C   UNL A   1      44.839  29.736  35.551  1.00  0.00     0.031 C 
ATOM     63  C   UNL A   1      44.394  25.943  30.831  1.00  0.00     0.029 A 
ATOM     64  C   UNL A   1      44.151  26.968  31.731  1.00  0.00     0.049 A 
ATOM     65  H   UNL A   1      42.564  28.358  31.767  1.00  0.00     0.167 HD
ATOM     66  C   UNL A   1      44.614  28.369  33.725  1.00  0.00     0.074 A 
ATOM     67  C   UNL A   1      45.392  28.728  34.892  1.00  0.00     0.031 C 
ATOM     68  C   UNL A   1      44.918  27.343  32.891  1.00  0.00     0.031 A 
BRANCH  55  69
ATOM     69  C   UNL A   1      40.890  26.578  28.267  1.00  0.00    -0.014 A 
ATOM     70  C   UNL A   1      41.403  26.851  26.989  1.00  0.00     0.009 A 
ATOM     71  C   UNL A   1      39.972  25.526  28.418  1.00  0.00     0.009 A 
ATOM     72  C   UNL A   1      40.979  26.111  25.883  1.00  0.00     0.001 A 
ATOM     73  C   UNL A   1      39.575  24.768  27.317  1.00  0.00     0.001 A 
ATOM     74  C   UNL A   1      40.070  25.067  26.048  1.00  0.00     0.000 A 
ENDBRANCH  55  69
BRANCH  56  75
ATOM     75  C   UNL A   1      43.194  32.029  36.321  1.00  0.00    -0.014 A 
ATOM     76  C   UNL A   1      42.661  31.670  37.569  1.00  0.00     0.009 A 
ATOM     77  C   UNL A   1      44.033  33.152  36.242  1.00  0.00     0.009 A 
ATOM     78  C   UNL A   1      42.935  32.438  38.704  1.00  0.00     0.001 A 
ATOM     79  C   UNL A   1      44.333  33.897  37.385  1.00  0.00     0.001 A 
ATOM     80  C   UNL A   1      43.774  33.547  38.612  1.00  0.00     0.000 A 
ENDBRANCH  56  75
BRANCH  68  81
ATOM     81  C   UNL A   1      46.179  26.571  33.171  1.00  0.00    -0.014 A 
ATOM     82  C   UNL A   1      47.391  26.880  32.537  1.00  0.00     0.009 A 
ATOM     83  C   UNL A   1      46.160  25.548  34.135  1.00  0.00     0.009 A 
ATOM     84  C   UNL A   1      48.549  26.158  32.836  1.00  0.00     0.001 A 
ATOM     85  C   UNL A   1      47.325  24.852  34.458  1.00  0.00     0.001 A 
ATOM     86  C   UNL A   1      48.516  25.150  33.800  1.00  0.00     0.000 A 
ENDBRANCH  68  81
ENDBRANCH  42  43
ENDBRANCH  35  37
ENDBRANCH  34  35
ENDBRANCH  33  34
ENDBRANCH  32  33
ENDBRANCH  31  32
ENDBRANCH  30  31
ENDBRANCH  29  30
ENDBRANCH  28  29
ENDBRANCH   1  28
TORSDOF 24
ENDMDL
