MODEL 1
REMARK VINA RESULT:      -8.2      0.000      0.000
REMARK SMILES CC(C)[C@H](NC(=O)[C@H]1CC(=O)N(c2ccc(F)cc2)C1)C(=O)N1CCC[C@@H]1C(=O)OCCOCCOCCOCCOC(=O)c1ccc(-c2c3nc(c(-c4ccccc4)c4ccc([nH]4)c(-c4ccccc4)c4nc(c(-c5ccccc5)c5ccc2[nH]5)C=C4)C=C3)cc1
REMARK SMILES IDX 34 1 33 2 32 3 31 4 30 5 28 6 29 7 27 8 23 9 24 10 25 11
REMARK SMILES IDX 26 12 21 13 22 14 4 15 2 16 1 17 3 18 5 19 6 20 7 22 8 23
REMARK SMILES IDX 9 24 20 25 10 26 12 27 11 28 13 29 14 30 19 31 15 32 18 33
REMARK SMILES IDX 16 34 17 35 35 36 36 37 37 38 38 39 39 40 40 41 41 42 42 43
REMARK SMILES IDX 43 44 44 45 45 46 46 47 92 48 47 49 91 50 48 51 49 52 50 53
REMARK SMILES IDX 85 54 51 55 90 56 84 57 86 58 52 59 89 60 83 61 82 62 53 64
REMARK SMILES IDX 75 65 60 66 74 67 61 68 64 69 73 70 87 71 62 72 63 73 72 75
REMARK SMILES IDX 88 76 65 77 54 78 55 79 59 80 56 81 58 82 57 83 76 84 77 85
REMARK SMILES IDX 81 86 78 87 80 88 79 89 66 90 67 91 71 92 68 93 70 94 69 95
REMARK H PARENT 5 21 86 63 64 74
REMARK Flexibility Score: inf
ROOT
ATOM      1  C   UNL A   1      39.446  22.994  26.662  1.00  0.00     0.188 C 
ENDROOT
BRANCH   1   2
ATOM      2  O   UNL A   1      40.418  23.999  26.903  1.00  0.00    -0.376 OA
BRANCH   2   3
ATOM      3  C   UNL A   1      40.333  24.897  27.997  1.00  0.00     0.202 C 
BRANCH   3   4
ATOM      4  C   UNL A   1      39.345  26.075  28.048  1.00  0.00     0.261 C 
BRANCH   4   5
ATOM      5  O   UNL A   1      39.573  27.096  29.031  1.00  0.00    -0.462 OA
BRANCH   5   6
ATOM      6  C   UNL A   1      40.271  28.165  28.580  1.00  0.00     0.328 C 
ATOM      7  O   UNL A   1      41.494  28.187  28.493  1.00  0.00    -0.250 OA
BRANCH   6   8
ATOM      8  C   UNL A   1      39.396  29.399  28.281  1.00  0.00     0.195 C 
ATOM      9  N   UNL A   1      39.195  30.258  29.443  1.00  0.00    -0.327 N 
ATOM     10  C   UNL A   1      38.158  31.212  29.087  1.00  0.00     0.120 C 
ATOM     11  C   UNL A   1      37.154  30.392  28.291  1.00  0.00     0.024 C 
ATOM     12  C   UNL A   1      37.953  29.182  27.799  1.00  0.00     0.039 C 
BRANCH   9  13
ATOM     13  C   UNL A   1      40.268  30.577  30.256  1.00  0.00     0.246 C 
ATOM     14  O   UNL A   1      41.357  30.891  29.774  1.00  0.00    -0.272 OA
BRANCH  13  15
ATOM     15  C   UNL A   1      40.152  30.205  31.773  1.00  0.00     0.174 C 
BRANCH  15  16
ATOM     16  C   UNL A   1      41.433  29.592  32.428  1.00  0.00     0.015 C 
ATOM     17  C   UNL A   1      41.322  29.499  33.957  1.00  0.00     0.010 C 
ATOM     18  C   UNL A   1      41.766  28.177  31.927  1.00  0.00     0.010 C 
ENDBRANCH  15  16
BRANCH  15  19
ATOM     19  N   UNL A   1      38.890  29.532  32.111  1.00  0.00    -0.344 N 
ATOM     20  C   UNL A   1      37.668  29.832  32.579  1.00  0.00     0.226 C 
ATOM     21  H   UNL A   1      38.963  28.564  31.943  1.00  0.00     0.164 HD
ATOM     22  O   UNL A   1      36.910  28.854  32.683  1.00  0.00    -0.275 OA
BRANCH  20  23
ATOM     23  C   UNL A   1      37.133  31.174  33.048  1.00  0.00     0.107 C 
ATOM     24  C   UNL A   1      37.903  32.469  33.017  1.00  0.00     0.116 C 
ATOM     25  C   UNL A   1      35.825  31.486  32.340  1.00  0.00     0.139 C 
ATOM     26  C   UNL A   1      37.284  33.302  31.947  1.00  0.00     0.227 C 
ATOM     27  N   UNL A   1      36.043  32.743  31.671  1.00  0.00    -0.312 N 
ATOM     28  O   UNL A   1      37.771  34.342  31.531  1.00  0.00    -0.274 OA
BRANCH  27  29
ATOM     29  C   UNL A   1      35.028  33.475  31.045  1.00  0.00     0.044 A 
ATOM     30  C   UNL A   1      34.884  33.425  29.656  1.00  0.00     0.029 A 
ATOM     31  C   UNL A   1      34.267  34.376  31.798  1.00  0.00     0.029 A 
ATOM     32  C   UNL A   1      34.039  34.321  29.018  1.00  0.00     0.041 A 
ATOM     33  C   UNL A   1      33.478  35.315  31.154  1.00  0.00     0.041 A 
ATOM     34  C   UNL A   1      33.400  35.297  29.772  1.00  0.00     0.123 A 
ATOM     35  F   UNL A   1      32.731  36.283  29.175  1.00  0.00    -0.207 F 
ENDBRANCH  27  29
ENDBRANCH  20  23
ENDBRANCH  15  19
ENDBRANCH  13  15
ENDBRANCH   9  13
ENDBRANCH   6   8
ENDBRANCH   5   6
ENDBRANCH   4   5
ENDBRANCH   3   4
ENDBRANCH   2   3
ENDBRANCH   1   2
BRANCH   1  36
ATOM     36  C   UNL A   1      39.818  21.505  26.594  1.00  0.00     0.188 C 
BRANCH  36  37
ATOM     37  O   UNL A   1      40.579  21.014  27.675  1.00  0.00    -0.377 OA
BRANCH  37  38
ATOM     38  C   UNL A   1      41.760  20.293  27.351  1.00  0.00     0.188 C 
BRANCH  38  39
ATOM     39  C   UNL A   1      42.632  20.810  26.187  1.00  0.00     0.188 C 
BRANCH  39  40
ATOM     40  O   UNL A   1      43.174  19.790  25.361  1.00  0.00    -0.376 OA
BRANCH  40  41
ATOM     41  C   UNL A   1      44.558  19.802  25.045  1.00  0.00     0.202 C 
BRANCH  41  42
ATOM     42  C   UNL A   1      45.410  21.003  25.497  1.00  0.00     0.261 C 
BRANCH  42  43
ATOM     43  O   UNL A   1      45.774  21.956  24.486  1.00  0.00    -0.460 OA
BRANCH  43  44
ATOM     44  C   UNL A   1      44.813  22.770  24.010  1.00  0.00     0.338 C 
ATOM     45  O   UNL A   1      44.001  22.511  23.135  1.00  0.00    -0.246 OA
BRANCH  44  46
ATOM     46  C   UNL A   1      44.756  23.979  24.860  1.00  0.00     0.060 A 
ATOM     47  C   UNL A   1      45.959  24.586  25.246  1.00  0.00     0.016 A 
ATOM     48  C   UNL A   1      43.537  24.496  25.306  1.00  0.00     0.016 A 
ATOM     49  C   UNL A   1      45.951  25.669  26.123  1.00  0.00     0.010 A 
ATOM     50  C   UNL A   1      43.532  25.569  26.208  1.00  0.00     0.010 A 
ATOM     51  C   UNL A   1      44.743  26.130  26.658  1.00  0.00    -0.014 A 
BRANCH  51  52
ATOM     52  C   UNL A   1      44.778  27.000  27.866  1.00  0.00     0.031 A 
ATOM     53  C   UNL A   1      44.764  26.330  29.218  1.00  0.00     0.074 A 
ATOM     54  C   UNL A   1      44.944  28.334  27.790  1.00  0.00     0.049 A 
ATOM     55  N   UNL A   1      44.771  26.867  30.411  1.00  0.00    -0.248 NA
ATOM     56  C   UNL A   1      44.761  24.856  29.225  1.00  0.00     0.031 C 
ATOM     57  C   UNL A   1      45.105  29.106  26.559  1.00  0.00     0.029 A 
ATOM     58  N   UNL A   1      45.025  29.280  28.788  1.00  0.00    -0.354 N 
ATOM     59  C   UNL A   1      44.786  25.802  31.304  1.00  0.00     0.074 A 
ATOM     60  C   UNL A   1      44.739  24.587  30.522  1.00  0.00     0.031 C 
ATOM     61  C   UNL A   1      45.272  30.402  26.879  1.00  0.00     0.029 A 
ATOM     62  C   UNL A   1      45.148  30.568  28.321  1.00  0.00     0.049 A 
ATOM     63  H   UNL A   1      44.998  29.055  29.745  1.00  0.00     0.167 HD
ATOM     64  C   UNL A   1      44.855  25.829  32.655  1.00  0.00     0.031 A 
ATOM     65  C   UNL A   1      45.121  31.746  28.977  1.00  0.00     0.031 A 
ATOM     66  C   UNL A   1      44.893  27.033  33.440  1.00  0.00     0.049 A 
ATOM     67  C   UNL A   1      45.005  31.748  30.472  1.00  0.00     0.074 A 
ATOM     68  C   UNL A   1      44.954  27.161  34.817  1.00  0.00     0.029 A 
ATOM     69  N   UNL A   1      44.876  28.316  32.919  1.00  0.00    -0.354 N 
ATOM     70  N   UNL A   1      44.968  30.735  31.302  1.00  0.00    -0.248 NA
ATOM     71  C   UNL A   1      44.951  33.067  31.121  1.00  0.00     0.031 C 
ATOM     72  C   UNL A   1      44.911  28.522  35.133  1.00  0.00     0.029 A 
ATOM     73  C   UNL A   1      44.897  29.241  33.949  1.00  0.00     0.049 A 
ATOM     74  H   UNL A   1      44.853  28.538  31.960  1.00  0.00     0.167 HD
ATOM     75  C   UNL A   1      44.927  31.294  32.571  1.00  0.00     0.074 A 
ATOM     76  C   UNL A   1      44.943  32.732  32.402  1.00  0.00     0.031 C 
ATOM     77  C   UNL A   1      44.899  30.668  33.771  1.00  0.00     0.031 A 
BRANCH  64  78
ATOM     78  C   UNL A   1      44.873  24.514  33.382  1.00  0.00    -0.014 A 
ATOM     79  C   UNL A   1      43.683  23.826  33.671  1.00  0.00     0.009 A 
ATOM     80  C   UNL A   1      46.100  23.920  33.715  1.00  0.00     0.009 A 
ATOM     81  C   UNL A   1      43.723  22.578  34.294  1.00  0.00     0.001 A 
ATOM     82  C   UNL A   1      46.138  22.659  34.312  1.00  0.00     0.001 A 
ATOM     83  C   UNL A   1      44.950  21.991  34.606  1.00  0.00     0.000 A 
ENDBRANCH  64  78
BRANCH  65  84
ATOM     84  C   UNL A   1      45.119  33.048  28.255  1.00  0.00    -0.014 A 
ATOM     85  C   UNL A   1      43.938  33.628  27.775  1.00  0.00     0.009 A 
ATOM     86  C   UNL A   1      46.339  33.659  27.933  1.00  0.00     0.009 A 
ATOM     87  C   UNL A   1      43.987  34.803  27.015  1.00  0.00     0.001 A 
ATOM     88  C   UNL A   1      46.386  34.862  27.227  1.00  0.00     0.001 A 
ATOM     89  C   UNL A   1      45.208  35.431  26.761  1.00  0.00     0.000 A 
ENDBRANCH  65  84
BRANCH  77  90
ATOM     90  C   UNL A   1      44.944  31.538  34.993  1.00  0.00    -0.014 A 
ATOM     91  C   UNL A   1      46.159  31.939  35.566  1.00  0.00     0.009 A 
ATOM     92  C   UNL A   1      43.741  31.969  35.573  1.00  0.00     0.009 A 
ATOM     93  C   UNL A   1      46.168  32.721  36.722  1.00  0.00     0.001 A 
ATOM     94  C   UNL A   1      43.752  32.780  36.708  1.00  0.00     0.001 A 
ATOM     95  C   UNL A   1      44.965  33.144  37.288  1.00  0.00     0.000 A 
ENDBRANCH  77  90
ENDBRANCH  51  52
ENDBRANCH  44  46
ENDBRANCH  43  44
ENDBRANCH  42  43
ENDBRANCH  41  42
ENDBRANCH  40  41
ENDBRANCH  39  40
ENDBRANCH  38  39
ENDBRANCH  37  38
ENDBRANCH  36  37
ENDBRANCH   1  36
TORSDOF 26
ENDMDL
MODEL 2
REMARK VINA RESULT:      -7.5      1.840      2.709
REMARK SMILES CC(C)[C@H](NC(=O)[C@H]1CC(=O)N(c2ccc(F)cc2)C1)C(=O)N1CCC[C@@H]1C(=O)OCCOCCOCCOCCOC(=O)c1ccc(-c2c3nc(c(-c4ccccc4)c4ccc([nH]4)c(-c4ccccc4)c4nc(c(-c5ccccc5)c5ccc2[nH]5)C=C4)C=C3)cc1
REMARK SMILES IDX 34 1 33 2 32 3 31 4 30 5 28 6 29 7 27 8 23 9 24 10 25 11
REMARK SMILES IDX 26 12 21 13 22 14 4 15 2 16 1 17 3 18 5 19 6 20 7 22 8 23
REMARK SMILES IDX 9 24 20 25 10 26 12 27 11 28 13 29 14 30 19 31 15 32 18 33
REMARK SMILES IDX 16 34 17 35 35 36 36 37 37 38 38 39 39 40 40 41 41 42 42 43
REMARK SMILES IDX 43 44 44 45 45 46 46 47 92 48 47 49 91 50 48 51 49 52 50 53
REMARK SMILES IDX 85 54 51 55 90 56 84 57 86 58 52 59 89 60 83 61 82 62 53 64
REMARK SMILES IDX 75 65 60 66 74 67 61 68 64 69 73 70 87 71 62 72 63 73 72 75
REMARK SMILES IDX 88 76 65 77 54 78 55 79 59 80 56 81 58 82 57 83 76 84 77 85
REMARK SMILES IDX 81 86 78 87 80 88 79 89 66 90 67 91 71 92 68 93 70 94 69 95
REMARK H PARENT 5 21 86 63 64 74
REMARK Flexibility Score: inf
ROOT
ATOM      1  C   UNL A   1      39.644  22.601  26.655  1.00  0.00     0.188 C 
ENDROOT
BRANCH   1   2
ATOM      2  O   UNL A   1      40.671  23.532  26.956  1.00  0.00    -0.376 OA
BRANCH   2   3
ATOM      3  C   UNL A   1      40.549  24.497  27.988  1.00  0.00     0.202 C 
BRANCH   3   4
ATOM      4  C   UNL A   1      39.377  25.490  28.081  1.00  0.00     0.261 C 
BRANCH   4   5
ATOM      5  O   UNL A   1      39.512  26.599  28.981  1.00  0.00    -0.462 OA
BRANCH   5   6
ATOM      6  C   UNL A   1      40.251  27.627  28.499  1.00  0.00     0.328 C 
ATOM      7  O   UNL A   1      41.476  27.620  28.460  1.00  0.00    -0.250 OA
BRANCH   6   8
ATOM      8  C   UNL A   1      39.415  28.859  28.098  1.00  0.00     0.195 C 
ATOM      9  N   UNL A   1      39.265  29.831  29.176  1.00  0.00    -0.327 N 
ATOM     10  C   UNL A   1      38.257  30.785  28.747  1.00  0.00     0.120 C 
ATOM     11  C   UNL A   1      37.211  29.933  28.046  1.00  0.00     0.024 C 
ATOM     12  C   UNL A   1      37.956  28.653  27.659  1.00  0.00     0.039 C 
BRANCH   9  13
ATOM     13  C   UNL A   1      40.363  30.184  29.941  1.00  0.00     0.246 C 
ATOM     14  O   UNL A   1      41.488  30.246  29.443  1.00  0.00    -0.272 OA
BRANCH  13  15
ATOM     15  C   UNL A   1      40.185  30.173  31.497  1.00  0.00     0.174 C 
BRANCH  15  16
ATOM     16  C   UNL A   1      41.287  29.412  32.306  1.00  0.00     0.015 C 
ATOM     17  C   UNL A   1      41.052  29.481  33.823  1.00  0.00     0.010 C 
ATOM     18  C   UNL A   1      41.396  27.921  31.948  1.00  0.00     0.010 C 
ENDBRANCH  15  16
BRANCH  15  19
ATOM     19  N   UNL A   1      38.803  29.915  31.922  1.00  0.00    -0.344 N 
ATOM     20  C   UNL A   1      37.722  30.593  32.341  1.00  0.00     0.226 C 
ATOM     21  H   UNL A   1      38.609  28.950  31.890  1.00  0.00     0.164 HD
ATOM     22  O   UNL A   1      36.734  29.878  32.577  1.00  0.00    -0.275 OA
BRANCH  20  23
ATOM     23  C   UNL A   1      37.581  32.079  32.618  1.00  0.00     0.107 C 
ATOM     24  C   UNL A   1      36.327  32.751  33.115  1.00  0.00     0.116 C 
ATOM     25  C   UNL A   1      38.668  32.532  33.579  1.00  0.00     0.139 C 
ATOM     26  C   UNL A   1      36.594  33.151  34.526  1.00  0.00     0.227 C 
ATOM     27  N   UNL A   1      37.970  33.103  34.702  1.00  0.00    -0.312 N 
ATOM     28  O   UNL A   1      35.732  33.560  35.289  1.00  0.00    -0.274 OA
BRANCH  27  29
ATOM     29  C   UNL A   1      38.605  33.799  35.738  1.00  0.00     0.044 A 
ATOM     30  C   UNL A   1      39.169  35.054  35.495  1.00  0.00     0.029 A 
ATOM     31  C   UNL A   1      38.810  33.162  36.968  1.00  0.00     0.029 A 
ATOM     32  C   UNL A   1      39.994  35.634  36.447  1.00  0.00     0.041 A 
ATOM     33  C   UNL A   1      39.688  33.712  37.887  1.00  0.00     0.041 A 
ATOM     34  C   UNL A   1      40.294  34.923  37.601  1.00  0.00     0.123 A 
ATOM     35  F   UNL A   1      41.223  35.368  38.447  1.00  0.00    -0.207 F 
ENDBRANCH  27  29
ENDBRANCH  20  23
ENDBRANCH  15  19
ENDBRANCH  13  15
ENDBRANCH   9  13
ENDBRANCH   6   8
ENDBRANCH   5   6
ENDBRANCH   4   5
ENDBRANCH   3   4
ENDBRANCH   2   3
ENDBRANCH   1   2
BRANCH   1  36
ATOM     36  C   UNL A   1      39.941  21.112  26.418  1.00  0.00     0.188 C 
BRANCH  36  37
ATOM     37  O   UNL A   1      40.678  20.465  27.431  1.00  0.00    -0.377 OA
BRANCH  37  38
ATOM     38  C   UNL A   1      41.900  19.851  27.042  1.00  0.00     0.188 C 
BRANCH  38  39
ATOM     39  C   UNL A   1      42.774  20.571  25.994  1.00  0.00     0.188 C 
BRANCH  39  40
ATOM     40  O   UNL A   1      43.319  19.718  24.998  1.00  0.00    -0.376 OA
BRANCH  40  41
ATOM     41  C   UNL A   1      44.706  19.774  24.706  1.00  0.00     0.202 C 
BRANCH  41  42
ATOM     42  C   UNL A   1      45.571  20.832  25.417  1.00  0.00     0.261 C 
BRANCH  42  43
ATOM     43  O   UNL A   1      46.039  21.931  24.619  1.00  0.00    -0.460 OA
BRANCH  43  44
ATOM     44  C   UNL A   1      45.122  22.756  24.079  1.00  0.00     0.338 C 
ATOM     45  O   UNL A   1      44.355  22.498  23.163  1.00  0.00    -0.246 OA
BRANCH  44  46
ATOM     46  C   UNL A   1      45.040  23.977  24.909  1.00  0.00     0.060 A 
ATOM     47  C   UNL A   1      46.221  24.503  25.448  1.00  0.00     0.016 A 
ATOM     48  C   UNL A   1      43.813  24.585  25.185  1.00  0.00     0.016 A 
ATOM     49  C   UNL A   1      46.175  25.597  26.311  1.00  0.00     0.010 A 
ATOM     50  C   UNL A   1      43.765  25.668  26.074  1.00  0.00     0.010 A 
ATOM     51  C   UNL A   1      44.942  26.149  26.678  1.00  0.00    -0.014 A 
BRANCH  51  52
ATOM     52  C   UNL A   1      44.880  27.031  27.876  1.00  0.00     0.031 A 
ATOM     53  C   UNL A   1      44.840  26.374  29.234  1.00  0.00     0.074 A 
ATOM     54  C   UNL A   1      44.981  28.372  27.791  1.00  0.00     0.049 A 
ATOM     55  N   UNL A   1      44.767  26.922  30.420  1.00  0.00    -0.248 NA
ATOM     56  C   UNL A   1      44.913  24.902  29.259  1.00  0.00     0.031 C 
ATOM     57  C   UNL A   1      45.157  29.138  26.560  1.00  0.00     0.029 A 
ATOM     58  N   UNL A   1      44.970  29.330  28.781  1.00  0.00    -0.354 N 
ATOM     59  C   UNL A   1      44.797  25.868  31.325  1.00  0.00     0.074 A 
ATOM     60  C   UNL A   1      44.847  24.646  30.556  1.00  0.00     0.031 C 
ATOM     61  C   UNL A   1      45.243  30.445  26.871  1.00  0.00     0.029 A 
ATOM     62  C   UNL A   1      45.047  30.618  28.304  1.00  0.00     0.049 A 
ATOM     63  H   UNL A   1      44.912  29.113  29.739  1.00  0.00     0.167 HD
ATOM     64  C   UNL A   1      44.805  25.913  32.678  1.00  0.00     0.031 A 
ATOM     65  C   UNL A   1      44.932  31.799  28.944  1.00  0.00     0.031 A 
ATOM     66  C   UNL A   1      44.747  27.124  33.449  1.00  0.00     0.049 A 
ATOM     67  C   UNL A   1      44.750  31.809  30.433  1.00  0.00     0.074 A 
ATOM     68  C   UNL A   1      44.740  27.268  34.826  1.00  0.00     0.029 A 
ATOM     69  N   UNL A   1      44.688  28.399  32.913  1.00  0.00    -0.354 N 
ATOM     70  N   UNL A   1      44.727  30.804  31.273  1.00  0.00    -0.248 NA
ATOM     71  C   UNL A   1      44.600  33.130  31.063  1.00  0.00     0.031 C 
ATOM     72  C   UNL A   1      44.614  28.628  35.123  1.00  0.00     0.029 A 
ATOM     73  C   UNL A   1      44.615  29.334  33.932  1.00  0.00     0.049 A 
ATOM     74  H   UNL A   1      44.696  28.610  31.951  1.00  0.00     0.167 HD
ATOM     75  C   UNL A   1      44.603  31.373  32.532  1.00  0.00     0.074 A 
ATOM     76  C   UNL A   1      44.552  32.808  32.346  1.00  0.00     0.031 C 
ATOM     77  C   UNL A   1      44.553  30.758  33.737  1.00  0.00     0.031 A 
BRANCH  64  78
ATOM     78  C   UNL A   1      44.858  24.606  33.420  1.00  0.00    -0.014 A 
ATOM     79  C   UNL A   1      46.078  24.068  33.859  1.00  0.00     0.009 A 
ATOM     80  C   UNL A   1      43.665  23.944  33.748  1.00  0.00     0.009 A 
ATOM     81  C   UNL A   1      46.101  22.883  34.597  1.00  0.00     0.001 A 
ATOM     82  C   UNL A   1      43.689  22.776  34.511  1.00  0.00     0.001 A 
ATOM     83  C   UNL A   1      44.907  22.244  34.931  1.00  0.00     0.000 A 
ENDBRANCH  64  78
BRANCH  65  84
ATOM     84  C   UNL A   1      44.895  33.093  28.208  1.00  0.00    -0.014 A 
ATOM     85  C   UNL A   1      43.689  33.720  27.870  1.00  0.00     0.009 A 
ATOM     86  C   UNL A   1      46.090  33.644  27.725  1.00  0.00     0.009 A 
ATOM     87  C   UNL A   1      43.694  34.883  27.091  1.00  0.00     0.001 A 
ATOM     88  C   UNL A   1      46.100  34.836  26.999  1.00  0.00     0.001 A 
ATOM     89  C   UNL A   1      44.899  35.453  26.676  1.00  0.00     0.000 A 
ENDBRANCH  65  84
BRANCH  77  90
ATOM     90  C   UNL A   1      44.500  31.640  34.949  1.00  0.00    -0.014 A 
ATOM     91  C   UNL A   1      45.666  32.093  35.581  1.00  0.00     0.009 A 
ATOM     92  C   UNL A   1      43.251  32.029  35.460  1.00  0.00     0.009 A 
ATOM     93  C   UNL A   1      45.584  32.887  36.727  1.00  0.00     0.001 A 
ATOM     94  C   UNL A   1      43.172  32.851  36.584  1.00  0.00     0.001 A 
ATOM     95  C   UNL A   1      44.337  33.269  37.223  1.00  0.00     0.000 A 
ENDBRANCH  77  90
ENDBRANCH  51  52
ENDBRANCH  44  46
ENDBRANCH  43  44
ENDBRANCH  42  43
ENDBRANCH  41  42
ENDBRANCH  40  41
ENDBRANCH  39  40
ENDBRANCH  38  39
ENDBRANCH  37  38
ENDBRANCH  36  37
ENDBRANCH   1  36
TORSDOF 26
ENDMDL
MODEL 3
REMARK VINA RESULT:      -7.1      3.168     10.458
REMARK SMILES CC(C)[C@H](NC(=O)[C@H]1CC(=O)N(c2ccc(F)cc2)C1)C(=O)N1CCC[C@@H]1C(=O)OCCOCCOCCOCCOC(=O)c1ccc(-c2c3nc(c(-c4ccccc4)c4ccc([nH]4)c(-c4ccccc4)c4nc(c(-c5ccccc5)c5ccc2[nH]5)C=C4)C=C3)cc1
REMARK SMILES IDX 34 1 33 2 32 3 31 4 30 5 28 6 29 7 27 8 23 9 24 10 25 11
REMARK SMILES IDX 26 12 21 13 22 14 4 15 2 16 1 17 3 18 5 19 6 20 7 22 8 23
REMARK SMILES IDX 9 24 20 25 10 26 12 27 11 28 13 29 14 30 19 31 15 32 18 33
REMARK SMILES IDX 16 34 17 35 35 36 36 37 37 38 38 39 39 40 40 41 41 42 42 43
REMARK SMILES IDX 43 44 44 45 45 46 46 47 92 48 47 49 91 50 48 51 49 52 50 53
REMARK SMILES IDX 85 54 51 55 90 56 84 57 86 58 52 59 89 60 83 61 82 62 53 64
REMARK SMILES IDX 75 65 60 66 74 67 61 68 64 69 73 70 87 71 62 72 63 73 72 75
REMARK SMILES IDX 88 76 65 77 54 78 55 79 59 80 56 81 58 82 57 83 76 84 77 85
REMARK SMILES IDX 81 86 78 87 80 88 79 89 66 90 67 91 71 92 68 93 70 94 69 95
REMARK H PARENT 5 21 86 63 64 74
REMARK Flexibility Score: inf
ROOT
ATOM      1  C   UNL A   1      39.548  28.537  28.554  1.00  0.00     0.188 C 
ENDROOT
BRANCH   1   2
ATOM      2  O   UNL A   1      40.782  28.215  27.933  1.00  0.00    -0.376 OA
BRANCH   2   3
ATOM      3  C   UNL A   1      40.890  27.934  26.548  1.00  0.00     0.202 C 
BRANCH   3   4
ATOM      4  C   UNL A   1      41.615  28.857  25.553  1.00  0.00     0.261 C 
BRANCH   4   5
ATOM      5  O   UNL A   1      42.741  28.319  24.842  1.00  0.00    -0.462 OA
BRANCH   5   6
ATOM      6  C   UNL A   1      43.934  28.511  25.453  1.00  0.00     0.328 C 
ATOM      7  O   UNL A   1      44.281  29.580  25.943  1.00  0.00    -0.250 OA
BRANCH   6   8
ATOM      8  C   UNL A   1      44.871  27.287  25.387  1.00  0.00     0.195 C 
ATOM      9  N   UNL A   1      45.266  26.791  26.701  1.00  0.00    -0.327 N 
ATOM     10  C   UNL A   1      46.334  25.829  26.485  1.00  0.00     0.120 C 
ATOM     11  C   UNL A   1      47.174  26.447  25.378  1.00  0.00     0.024 C 
ATOM     12  C   UNL A   1      46.231  27.434  24.686  1.00  0.00     0.039 C 
BRANCH   9  13
ATOM     13  C   UNL A   1      44.317  26.656  27.698  1.00  0.00     0.246 C 
ATOM     14  O   UNL A   1      44.079  27.580  28.476  1.00  0.00    -0.272 OA
BRANCH  13  15
ATOM     15  C   UNL A   1      43.810  25.207  28.012  1.00  0.00     0.174 C 
BRANCH  15  16
ATOM     16  C   UNL A   1      44.600  24.429  29.114  1.00  0.00     0.015 C 
ATOM     17  C   UNL A   1      43.672  23.677  30.080  1.00  0.00     0.010 C 
ATOM     18  C   UNL A   1      45.581  23.387  28.551  1.00  0.00     0.010 C 
ENDBRANCH  15  16
BRANCH  15  19
ATOM     19  N   UNL A   1      43.484  24.433  26.806  1.00  0.00    -0.344 N 
ATOM     20  C   UNL A   1      42.523  23.613  26.350  1.00  0.00     0.226 C 
ATOM     21  H   UNL A   1      44.185  24.549  26.124  1.00  0.00     0.164 HD
ATOM     22  O   UNL A   1      42.713  23.203  25.193  1.00  0.00    -0.275 OA
BRANCH  20  23
ATOM     23  C   UNL A   1      41.298  23.088  27.077  1.00  0.00     0.107 C 
ATOM     24  C   UNL A   1      40.239  23.947  27.720  1.00  0.00     0.116 C 
ATOM     25  C   UNL A   1      40.528  22.137  26.176  1.00  0.00     0.139 C 
ATOM     26  C   UNL A   1      39.020  23.816  26.873  1.00  0.00     0.227 C 
ATOM     27  N   UNL A   1      39.204  22.694  26.076  1.00  0.00    -0.312 N 
ATOM     28  O   UNL A   1      38.027  24.517  27.001  1.00  0.00    -0.274 OA
BRANCH  27  29
ATOM     29  C   UNL A   1      38.127  22.031  25.476  1.00  0.00     0.044 A 
ATOM     30  C   UNL A   1      36.949  22.727  25.188  1.00  0.00     0.029 A 
ATOM     31  C   UNL A   1      38.179  20.642  25.316  1.00  0.00     0.029 A 
ATOM     32  C   UNL A   1      35.811  22.028  24.815  1.00  0.00     0.041 A 
ATOM     33  C   UNL A   1      37.023  19.942  25.010  1.00  0.00     0.041 A 
ATOM     34  C   UNL A   1      35.848  20.640  24.797  1.00  0.00     0.123 A 
ATOM     35  F   UNL A   1      34.730  19.936  24.624  1.00  0.00    -0.207 F 
ENDBRANCH  27  29
ENDBRANCH  20  23
ENDBRANCH  15  19
ENDBRANCH  13  15
ENDBRANCH   9  13
ENDBRANCH   6   8
ENDBRANCH   5   6
ENDBRANCH   4   5
ENDBRANCH   3   4
ENDBRANCH   2   3
ENDBRANCH   1   2
BRANCH   1  36
ATOM     36  C   UNL A   1      38.595  29.591  27.970  1.00  0.00     0.188 C 
BRANCH  36  37
ATOM     37  O   UNL A   1      37.316  29.655  28.560  1.00  0.00    -0.377 OA
BRANCH  37  38
ATOM     38  C   UNL A   1      36.778  30.952  28.784  1.00  0.00     0.188 C 
BRANCH  38  39
ATOM     39  C   UNL A   1      35.629  31.096  29.805  1.00  0.00     0.188 C 
BRANCH  39  40
ATOM     40  O   UNL A   1      35.079  32.403  29.889  1.00  0.00    -0.376 OA
BRANCH  40  41
ATOM     41  C   UNL A   1      35.566  33.310  30.865  1.00  0.00     0.202 C 
BRANCH  41  42
ATOM     42  C   UNL A   1      35.267  33.030  32.350  1.00  0.00     0.261 C 
BRANCH  42  43
ATOM     43  O   UNL A   1      35.956  31.923  32.953  1.00  0.00    -0.460 OA
BRANCH  43  44
ATOM     44  C   UNL A   1      36.921  32.194  33.852  1.00  0.00     0.338 C 
ATOM     45  O   UNL A   1      36.768  32.445  35.038  1.00  0.00    -0.246 OA
BRANCH  44  46
ATOM     46  C   UNL A   1      38.235  31.939  33.222  1.00  0.00     0.060 A 
ATOM     47  C   UNL A   1      38.276  31.207  32.028  1.00  0.00     0.016 A 
ATOM     48  C   UNL A   1      39.420  32.384  33.812  1.00  0.00     0.016 A 
ATOM     49  C   UNL A   1      39.500  30.866  31.454  1.00  0.00     0.010 A 
ATOM     50  C   UNL A   1      40.650  32.018  33.248  1.00  0.00     0.010 A 
ATOM     51  C   UNL A   1      40.696  31.216  32.092  1.00  0.00    -0.014 A 
BRANCH  51  52
ATOM     52  C   UNL A   1      41.951  30.521  31.694  1.00  0.00     0.031 A 
ATOM     53  C   UNL A   1      42.784  31.142  30.600  1.00  0.00     0.074 A 
ATOM     54  C   UNL A   1      42.419  29.443  32.352  1.00  0.00     0.049 A 
ATOM     55  N   UNL A   1      43.903  30.722  30.067  1.00  0.00    -0.248 NA
ATOM     56  C   UNL A   1      42.301  32.420  30.046  1.00  0.00     0.031 C 
ATOM     57  C   UNL A   1      41.792  28.810  33.510  1.00  0.00     0.029 A 
ATOM     58  N   UNL A   1      43.559  28.698  32.143  1.00  0.00    -0.354 N 
ATOM     59  C   UNL A   1      44.260  31.684  29.131  1.00  0.00     0.074 A 
ATOM     60  C   UNL A   1      43.220  32.688  29.130  1.00  0.00     0.031 C 
ATOM     61  C   UNL A   1      42.559  27.779  33.909  1.00  0.00     0.029 A 
ATOM     62  C   UNL A   1      43.682  27.624  32.994  1.00  0.00     0.049 A 
ATOM     63  H   UNL A   1      44.222  28.913  31.448  1.00  0.00     0.167 HD
ATOM     64  C   UNL A   1      45.367  31.742  28.354  1.00  0.00     0.031 A 
ATOM     65  C   UNL A   1      44.573  26.612  33.008  1.00  0.00     0.031 A 
ATOM     66  C   UNL A   1      46.402  30.744  28.342  1.00  0.00     0.049 A 
ATOM     67  C   UNL A   1      45.688  26.605  32.004  1.00  0.00     0.074 A 
ATOM     68  C   UNL A   1      47.557  30.711  27.581  1.00  0.00     0.029 A 
ATOM     69  N   UNL A   1      46.408  29.605  29.129  1.00  0.00    -0.354 N 
ATOM     70  N   UNL A   1      45.985  27.494  31.090  1.00  0.00    -0.248 NA
ATOM     71  C   UNL A   1      46.605  25.457  32.056  1.00  0.00     0.031 C 
ATOM     72  C   UNL A   1      48.233  29.520  27.862  1.00  0.00     0.029 A 
ATOM     73  C   UNL A   1      47.533  28.848  28.850  1.00  0.00     0.049 A 
ATOM     74  H   UNL A   1      45.715  29.367  29.788  1.00  0.00     0.167 HD
ATOM     75  C   UNL A   1      47.145  27.034  30.486  1.00  0.00     0.074 A 
ATOM     76  C   UNL A   1      47.496  25.788  31.134  1.00  0.00     0.031 C 
ATOM     77  C   UNL A   1      47.866  27.605  29.492  1.00  0.00     0.031 A 
BRANCH  64  78
ATOM     78  C   UNL A   1      45.512  32.918  27.429  1.00  0.00    -0.014 A 
ATOM     79  C   UNL A   1      46.464  33.921  27.671  1.00  0.00     0.009 A 
ATOM     80  C   UNL A   1      44.736  32.984  26.261  1.00  0.00     0.009 A 
ATOM     81  C   UNL A   1      46.624  34.975  26.770  1.00  0.00     0.001 A 
ATOM     82  C   UNL A   1      44.917  34.023  25.348  1.00  0.00     0.001 A 
ATOM     83  C   UNL A   1      45.857  35.020  25.604  1.00  0.00     0.000 A 
ENDBRANCH  64  78
BRANCH  65  84
ATOM     84  C   UNL A   1      44.435  25.456  33.936  1.00  0.00    -0.014 A 
ATOM     85  C   UNL A   1      45.059  25.432  35.190  1.00  0.00     0.009 A 
ATOM     86  C   UNL A   1      43.769  24.301  33.502  1.00  0.00     0.009 A 
ATOM     87  C   UNL A   1      44.987  24.286  35.991  1.00  0.00     0.001 A 
ATOM     88  C   UNL A   1      43.646  23.180  34.324  1.00  0.00     0.001 A 
ATOM     89  C   UNL A   1      44.262  23.170  35.568  1.00  0.00     0.000 A 
ENDBRANCH  65  84
BRANCH  77  90
ATOM     90  C   UNL A   1      49.137  26.915  29.091  1.00  0.00    -0.014 A 
ATOM     91  C   UNL A   1      49.130  25.779  28.269  1.00  0.00     0.009 A 
ATOM     92  C   UNL A   1      50.366  27.424  29.542  1.00  0.00     0.009 A 
ATOM     93  C   UNL A   1      50.327  25.141  27.939  1.00  0.00     0.001 A 
ATOM     94  C   UNL A   1      51.563  26.805  29.182  1.00  0.00     0.001 A 
ATOM     95  C   UNL A   1      51.541  25.658  28.392  1.00  0.00     0.000 A 
ENDBRANCH  77  90
ENDBRANCH  51  52
ENDBRANCH  44  46
ENDBRANCH  43  44
ENDBRANCH  42  43
ENDBRANCH  41  42
ENDBRANCH  40  41
ENDBRANCH  39  40
ENDBRANCH  38  39
ENDBRANCH  37  38
ENDBRANCH  36  37
ENDBRANCH   1  36
TORSDOF 26
ENDMDL
