MODEL 1
REMARK VINA RESULT:      -9.6      0.000      0.000
REMARK SMILES C[NH+]1CCN(C(=O)c2ccc3c(c2)N(CC(=O)OCCOCCOCCOCCOC(=O)c2ccc(-c4c5nc(c(-c6ccccc6)c6ccc([nH]6)c(-c6ccccc6)c6nc(c(-c7ccccc7)c7ccc4[nH]7)C=C6)C=C5)cc2)C(=O)CO3)CC1
REMARK SMILES IDX 24 1 23 2 22 3 21 4 20 5 19 6 18 7 16 8 17 9 15 10 14 11
REMARK SMILES IDX 8 12 9 13 13 14 10 15 12 16 11 17 84 18 81 19 83 20 82 21
REMARK SMILES IDX 6 22 1 23 2 24 3 25 86 26 4 28 85 29 5 30 7 31 25 32 26 33
REMARK SMILES IDX 27 34 28 35 29 36 30 37 31 38 32 39 33 40 34 41 80 42 35 43
REMARK SMILES IDX 79 44 36 45 37 46 38 47 73 48 39 49 78 50 72 51 74 52 40 53
REMARK SMILES IDX 77 54 71 55 70 56 41 58 63 59 48 60 62 61 49 62 52 63 61 64
REMARK SMILES IDX 75 65 50 66 51 67 60 69 76 70 53 71 42 72 43 73 47 74 44 75
REMARK SMILES IDX 46 76 45 77 64 78 65 79 69 80 66 81 68 82 67 83 54 84 55 85
REMARK SMILES IDX 59 86 56 87 58 88 57 89
REMARK H PARENT 2 27 74 57 52 68
REMARK Flexibility Score: inf
ROOT
ATOM      1  O   UNL A   1      33.285  29.972  26.070  1.00  0.00    -0.377 OA
ENDROOT
BRANCH   1   2
ATOM      2  C   UNL A   1      31.975  29.723  25.605  1.00  0.00     0.188 C 
BRANCH   2   3
ATOM      3  C   UNL A   1      32.001  28.763  24.431  1.00  0.00     0.188 C 
BRANCH   3   4
ATOM      4  O   UNL A   1      33.005  28.841  23.449  1.00  0.00    -0.376 OA
BRANCH   4   5
ATOM      5  C   UNL A   1      33.257  27.700  22.648  1.00  0.00     0.202 C 
BRANCH   5   6
ATOM      6  C   UNL A   1      32.111  26.953  21.928  1.00  0.00     0.261 C 
BRANCH   6   7
ATOM      7  O   UNL A   1      32.469  25.706  21.290  1.00  0.00    -0.462 OA
BRANCH   7   8
ATOM      8  C   UNL A   1      32.745  24.628  22.059  1.00  0.00     0.326 C 
ATOM      9  O   UNL A   1      33.848  24.094  22.103  1.00  0.00    -0.250 OA
BRANCH   8  10
ATOM     10  C   UNL A   1      31.546  24.153  22.934  1.00  0.00     0.248 C 
BRANCH  10  11
ATOM     11  N   UNL A   1      31.574  24.151  24.416  1.00  0.00    -0.295 N 
ATOM     12  C   UNL A   1      33.770  21.219  25.550  1.00  0.00     0.042 A 
ATOM     13  C   UNL A   1      33.608  21.331  26.935  1.00  0.00     0.018 A 
ATOM     14  C   UNL A   1      33.021  22.075  24.700  1.00  0.00     0.044 A 
ATOM     15  C   UNL A   1      32.808  22.340  27.466  1.00  0.00     0.049 A 
ATOM     16  C   UNL A   1      32.218  23.134  25.224  1.00  0.00     0.087 A 
ATOM     17  C   UNL A   1      32.148  23.246  26.626  1.00  0.00     0.143 A 
ATOM     18  O   UNL A   1      31.524  24.251  27.305  1.00  0.00    -0.482 OA
ATOM     19  C   UNL A   1      30.858  25.177  25.033  1.00  0.00     0.265 C 
ATOM     20  C   UNL A   1      30.663  25.057  26.538  1.00  0.00     0.330 C 
ATOM     21  O   UNL A   1      30.349  26.108  24.406  1.00  0.00    -0.270 OA
BRANCH  12  22
ATOM     22  C   UNL A   1      34.630  20.081  25.075  1.00  0.00     0.254 C 
ATOM     23  C   UNL A   1      32.807  14.906  25.535  1.00  0.00     0.332 C 
ATOM     24  N   UNL A   1      33.127  16.112  24.777  1.00  0.00    -0.334 N 
ATOM     25  C   UNL A   1      34.581  16.416  24.810  1.00  0.00     0.283 C 
ATOM     26  C   UNL A   1      32.347  17.258  25.278  1.00  0.00     0.283 C 
ATOM     27  H   UNL A   1      32.874  15.941  23.804  1.00  0.00     0.347 HD
ATOM     28  C   UNL A   1      34.974  17.781  24.176  1.00  0.00     0.181 C 
ATOM     29  C   UNL A   1      32.708  18.499  24.462  1.00  0.00     0.181 C 
ATOM     30  N   UNL A   1      34.102  18.863  24.640  1.00  0.00    -0.327 N 
ATOM     31  O   UNL A   1      35.836  20.323  25.029  1.00  0.00    -0.269 OA
ENDBRANCH  12  22
ENDBRANCH  10  11
ENDBRANCH   8  10
ENDBRANCH   7   8
ENDBRANCH   6   7
ENDBRANCH   5   6
ENDBRANCH   4   5
ENDBRANCH   3   4
ENDBRANCH   2   3
ENDBRANCH   1   2
BRANCH   1  32
ATOM     32  C   UNL A   1      33.315  30.657  27.317  1.00  0.00     0.188 C 
BRANCH  32  33
ATOM     33  C   UNL A   1      34.590  31.476  27.600  1.00  0.00     0.188 C 
BRANCH  33  34
ATOM     34  O   UNL A   1      34.473  32.864  27.935  1.00  0.00    -0.376 OA
BRANCH  34  35
ATOM     35  C   UNL A   1      34.179  33.271  29.263  1.00  0.00     0.202 C 
BRANCH  35  36
ATOM     36  C   UNL A   1      34.917  32.433  30.303  1.00  0.00     0.261 C 
BRANCH  36  37
ATOM     37  O   UNL A   1      35.754  33.269  31.093  1.00  0.00    -0.460 OA
BRANCH  37  38
ATOM     38  C   UNL A   1      37.016  33.405  30.618  1.00  0.00     0.338 C 
ATOM     39  O   UNL A   1      37.417  34.139  29.730  1.00  0.00    -0.246 OA
BRANCH  38  40
ATOM     40  C   UNL A   1      37.883  32.641  31.522  1.00  0.00     0.060 A 
ATOM     41  C   UNL A   1      37.342  32.159  32.724  1.00  0.00     0.016 A 
ATOM     42  C   UNL A   1      39.187  32.322  31.130  1.00  0.00     0.016 A 
ATOM     43  C   UNL A   1      38.121  31.363  33.551  1.00  0.00     0.010 A 
ATOM     44  C   UNL A   1      39.976  31.553  31.967  1.00  0.00     0.010 A 
ATOM     45  C   UNL A   1      39.453  31.117  33.194  1.00  0.00    -0.014 A 
BRANCH  45  46
ATOM     46  C   UNL A   1      40.409  30.733  34.239  1.00  0.00     0.031 A 
ATOM     47  C   UNL A   1      40.760  31.803  35.232  1.00  0.00     0.074 A 
ATOM     48  C   UNL A   1      40.951  29.506  34.267  1.00  0.00     0.049 A 
ATOM     49  N   UNL A   1      41.662  31.796  36.172  1.00  0.00    -0.248 NA
ATOM     50  C   UNL A   1      39.994  33.063  35.139  1.00  0.00     0.031 C 
ATOM     51  C   UNL A   1      40.617  28.407  33.362  1.00  0.00     0.029 A 
ATOM     52  N   UNL A   1      41.914  28.993  35.089  1.00  0.00    -0.354 N 
ATOM     53  C   UNL A   1      41.571  33.044  36.775  1.00  0.00     0.074 A 
ATOM     54  C   UNL A   1      40.562  33.800  36.078  1.00  0.00     0.031 C 
ATOM     55  C   UNL A   1      41.381  27.345  33.674  1.00  0.00     0.029 A 
ATOM     56  C   UNL A   1      42.281  27.712  34.765  1.00  0.00     0.049 A 
ATOM     57  H   UNL A   1      42.306  29.493  35.840  1.00  0.00     0.167 HD
ATOM     58  C   UNL A   1      42.272  33.511  37.830  1.00  0.00     0.031 A 
ATOM     59  C   UNL A   1      43.261  26.951  35.286  1.00  0.00     0.031 A 
ATOM     60  C   UNL A   1      43.294  32.747  38.480  1.00  0.00     0.049 A 
ATOM     61  C   UNL A   1      44.098  27.535  36.397  1.00  0.00     0.074 A 
ATOM     62  C   UNL A   1      44.097  33.108  39.544  1.00  0.00     0.029 A 
ATOM     63  N   UNL A   1      43.653  31.458  38.114  1.00  0.00    -0.354 N 
ATOM     64  N   UNL A   1      44.005  28.712  36.971  1.00  0.00    -0.248 NA
ATOM     65  C   UNL A   1      45.168  26.687  36.935  1.00  0.00     0.031 C 
ATOM     66  C   UNL A   1      44.978  32.052  39.789  1.00  0.00     0.029 A 
ATOM     67  C   UNL A   1      44.674  31.010  38.925  1.00  0.00     0.049 A 
ATOM     68  H   UNL A   1      43.240  30.941  37.385  1.00  0.00     0.167 HD
ATOM     69  C   UNL A   1      44.969  28.725  37.971  1.00  0.00     0.074 A 
ATOM     70  C   UNL A   1      45.634  27.439  37.923  1.00  0.00     0.031 C 
ATOM     71  C   UNL A   1      45.280  29.704  38.856  1.00  0.00     0.031 A 
BRANCH  58  72
ATOM     72  C   UNL A   1      41.971  34.902  38.304  1.00  0.00    -0.014 A 
ATOM     73  C   UNL A   1      42.802  35.982  37.961  1.00  0.00     0.009 A 
ATOM     74  C   UNL A   1      40.834  35.143  39.089  1.00  0.00     0.009 A 
ATOM     75  C   UNL A   1      42.510  37.271  38.412  1.00  0.00     0.001 A 
ATOM     76  C   UNL A   1      40.529  36.437  39.513  1.00  0.00     0.001 A 
ATOM     77  C   UNL A   1      41.370  37.498  39.180  1.00  0.00     0.000 A 
ENDBRANCH  58  72
BRANCH  59  78
ATOM     78  C   UNL A   1      43.522  25.583  34.763  1.00  0.00    -0.014 A 
ATOM     79  C   UNL A   1      44.377  25.387  33.667  1.00  0.00     0.009 A 
ATOM     80  C   UNL A   1      42.894  24.466  35.335  1.00  0.00     0.009 A 
ATOM     81  C   UNL A   1      44.561  24.110  33.129  1.00  0.00     0.001 A 
ATOM     82  C   UNL A   1      43.108  23.186  34.818  1.00  0.00     0.001 A 
ATOM     83  C   UNL A   1      43.929  23.012  33.705  1.00  0.00     0.000 A 
ENDBRANCH  59  78
BRANCH  71  84
ATOM     84  C   UNL A   1      46.318  29.393  39.894  1.00  0.00    -0.014 A 
ATOM     85  C   UNL A   1      47.679  29.636  39.668  1.00  0.00     0.009 A 
ATOM     86  C   UNL A   1      45.901  28.936  41.156  1.00  0.00     0.009 A 
ATOM     87  C   UNL A   1      48.609  29.402  40.681  1.00  0.00     0.001 A 
ATOM     88  C   UNL A   1      46.829  28.737  42.176  1.00  0.00     0.001 A 
ATOM     89  C   UNL A   1      48.182  28.964  41.935  1.00  0.00     0.000 A 
ENDBRANCH  71  84
ENDBRANCH  45  46
ENDBRANCH  38  40
ENDBRANCH  37  38
ENDBRANCH  36  37
ENDBRANCH  35  36
ENDBRANCH  34  35
ENDBRANCH  33  34
ENDBRANCH  32  33
ENDBRANCH   1  32
TORSDOF 22
ENDMDL
MODEL 2
REMARK VINA RESULT:      -9.5      7.913     12.267
REMARK SMILES C[NH+]1CCN(C(=O)c2ccc3c(c2)N(CC(=O)OCCOCCOCCOCCOC(=O)c2ccc(-c4c5nc(c(-c6ccccc6)c6ccc([nH]6)c(-c6ccccc6)c6nc(c(-c7ccccc7)c7ccc4[nH]7)C=C6)C=C5)cc2)C(=O)CO3)CC1
REMARK SMILES IDX 24 1 23 2 22 3 21 4 20 5 19 6 18 7 16 8 17 9 15 10 14 11
REMARK SMILES IDX 8 12 9 13 13 14 10 15 12 16 11 17 84 18 81 19 83 20 82 21
REMARK SMILES IDX 6 22 1 23 2 24 3 25 86 26 4 28 85 29 5 30 7 31 25 32 26 33
REMARK SMILES IDX 27 34 28 35 29 36 30 37 31 38 32 39 33 40 34 41 80 42 35 43
REMARK SMILES IDX 79 44 36 45 37 46 38 47 73 48 39 49 78 50 72 51 74 52 40 53
REMARK SMILES IDX 77 54 71 55 70 56 41 58 63 59 48 60 62 61 49 62 52 63 61 64
REMARK SMILES IDX 75 65 50 66 51 67 60 69 76 70 53 71 42 72 43 73 47 74 44 75
REMARK SMILES IDX 46 76 45 77 64 78 65 79 69 80 66 81 68 82 67 83 54 84 55 85
REMARK SMILES IDX 59 86 56 87 58 88 57 89
REMARK H PARENT 2 27 74 57 52 68
REMARK Flexibility Score: inf
ROOT
ATOM      1  O   UNL A   1      38.057  20.467  25.818  1.00  0.00    -0.377 OA
ENDROOT
BRANCH   1   2
ATOM      2  C   UNL A   1      37.298  20.626  24.638  1.00  0.00     0.188 C 
BRANCH   2   3
ATOM      3  C   UNL A   1      35.974  21.302  24.945  1.00  0.00     0.188 C 
BRANCH   3   4
ATOM      4  O   UNL A   1      35.927  22.611  25.453  1.00  0.00    -0.376 OA
BRANCH   4   5
ATOM      5  C   UNL A   1      36.007  23.693  24.543  1.00  0.00     0.202 C 
BRANCH   5   6
ATOM      6  C   UNL A   1      34.792  24.118  23.687  1.00  0.00     0.261 C 
BRANCH   6   7
ATOM      7  O   UNL A   1      34.615  23.411  22.439  1.00  0.00    -0.462 OA
BRANCH   7   8
ATOM      8  C   UNL A   1      33.456  23.556  21.758  1.00  0.00     0.326 C 
ATOM      9  O   UNL A   1      33.324  24.313  20.802  1.00  0.00    -0.250 OA
BRANCH   8  10
ATOM     10  C   UNL A   1      32.308  22.631  22.263  1.00  0.00     0.248 C 
BRANCH  10  11
ATOM     11  N   UNL A   1      31.871  22.581  23.678  1.00  0.00    -0.295 N 
ATOM     12  C   UNL A   1      30.084  25.879  24.479  1.00  0.00     0.042 A 
ATOM     13  C   UNL A   1      29.830  25.679  25.840  1.00  0.00     0.018 A 
ATOM     14  C   UNL A   1      30.850  24.912  23.775  1.00  0.00     0.044 A 
ATOM     15  C   UNL A   1      30.232  24.499  26.461  1.00  0.00     0.049 A 
ATOM     16  C   UNL A   1      31.246  23.683  24.385  1.00  0.00     0.087 A 
ATOM     17  C   UNL A   1      30.902  23.503  25.738  1.00  0.00     0.143 A 
ATOM     18  O   UNL A   1      31.098  22.360  26.456  1.00  0.00    -0.482 OA
ATOM     19  C   UNL A   1      32.166  21.399  24.358  1.00  0.00     0.265 C 
ATOM     20  C   UNL A   1      31.957  21.415  25.866  1.00  0.00     0.330 C 
ATOM     21  O   UNL A   1      32.631  20.404  23.799  1.00  0.00    -0.270 OA
BRANCH  12  22
ATOM     22  C   UNL A   1      29.636  27.195  23.909  1.00  0.00     0.254 C 
ATOM     23  C   UNL A   1      31.258  31.890  26.285  1.00  0.00     0.332 C 
ATOM     24  N   UNL A   1      31.295  30.885  25.227  1.00  0.00    -0.334 N 
ATOM     25  C   UNL A   1      30.004  30.805  24.496  1.00  0.00     0.283 C 
ATOM     26  C   UNL A   1      31.660  29.568  25.779  1.00  0.00     0.283 C 
ATOM     27  H   UNL A   1      32.008  31.170  24.556  1.00  0.00     0.347 HD
ATOM     28  C   UNL A   1      29.908  29.635  23.474  1.00  0.00     0.181 C 
ATOM     29  C   UNL A   1      31.688  28.544  24.645  1.00  0.00     0.181 C 
ATOM     30  N   UNL A   1      30.374  28.373  24.052  1.00  0.00    -0.327 N 
ATOM     31  O   UNL A   1      28.603  27.151  23.242  1.00  0.00    -0.269 OA
ENDBRANCH  12  22
ENDBRANCH  10  11
ENDBRANCH   8  10
ENDBRANCH   7   8
ENDBRANCH   6   7
ENDBRANCH   5   6
ENDBRANCH   4   5
ENDBRANCH   3   4
ENDBRANCH   2   3
ENDBRANCH   1   2
BRANCH   1  32
ATOM     32  C   UNL A   1      39.230  21.273  25.841  1.00  0.00     0.188 C 
BRANCH  32  33
ATOM     33  C   UNL A   1      40.568  20.509  25.813  1.00  0.00     0.188 C 
BRANCH  33  34
ATOM     34  O   UNL A   1      41.330  20.382  27.019  1.00  0.00    -0.376 OA
BRANCH  34  35
ATOM     35  C   UNL A   1      41.201  21.332  28.067  1.00  0.00     0.202 C 
BRANCH  35  36
ATOM     36  C   UNL A   1      42.382  22.297  28.124  1.00  0.00     0.261 C 
BRANCH  36  37
ATOM     37  O   UNL A   1      41.915  23.619  28.365  1.00  0.00    -0.460 OA
BRANCH  37  38
ATOM     38  C   UNL A   1      41.663  24.336  27.243  1.00  0.00     0.338 C 
ATOM     39  O   UNL A   1      40.628  24.400  26.600  1.00  0.00    -0.246 OA
BRANCH  38  40
ATOM     40  C   UNL A   1      42.824  25.211  27.041  1.00  0.00     0.060 A 
ATOM     41  C   UNL A   1      43.517  25.677  28.168  1.00  0.00     0.016 A 
ATOM     42  C   UNL A   1      43.275  25.479  25.745  1.00  0.00     0.016 A 
ATOM     43  C   UNL A   1      44.666  26.435  27.996  1.00  0.00     0.010 A 
ATOM     44  C   UNL A   1      44.404  26.260  25.570  1.00  0.00     0.010 A 
ATOM     45  C   UNL A   1      45.066  26.772  26.696  1.00  0.00    -0.014 A 
BRANCH  45  46
ATOM     46  C   UNL A   1      45.933  27.939  26.499  1.00  0.00     0.031 A 
ATOM     47  C   UNL A   1      47.389  27.645  26.283  1.00  0.00     0.074 A 
ATOM     48  C   UNL A   1      45.440  29.185  26.548  1.00  0.00     0.049 A 
ATOM     49  N   UNL A   1      48.398  28.466  26.213  1.00  0.00    -0.248 NA
ATOM     50  C   UNL A   1      47.758  26.221  26.139  1.00  0.00     0.031 C 
ATOM     51  C   UNL A   1      44.030  29.538  26.707  1.00  0.00     0.029 A 
ATOM     52  N   UNL A   1      46.089  30.386  26.483  1.00  0.00    -0.354 N 
ATOM     53  C   UNL A   1      49.513  27.660  26.022  1.00  0.00     0.074 A 
ATOM     54  C   UNL A   1      49.073  26.288  26.025  1.00  0.00     0.031 C 
ATOM     55  C   UNL A   1      43.922  30.879  26.741  1.00  0.00     0.029 A 
ATOM     56  C   UNL A   1      45.257  31.464  26.652  1.00  0.00     0.049 A 
ATOM     57  H   UNL A   1      47.057  30.470  26.329  1.00  0.00     0.167 HD
ATOM     58  C   UNL A   1      50.796  28.043  25.850  1.00  0.00     0.031 A 
ATOM     59  C   UNL A   1      45.569  32.769  26.752  1.00  0.00     0.031 A 
ATOM     60  C   UNL A   1      51.207  29.414  25.887  1.00  0.00     0.049 A 
ATOM     61  C   UNL A   1      47.022  33.161  26.659  1.00  0.00     0.074 A 
ATOM     62  C   UNL A   1      52.477  29.939  25.751  1.00  0.00     0.029 A 
ATOM     63  N   UNL A   1      50.340  30.481  26.079  1.00  0.00    -0.354 N 
ATOM     64  N   UNL A   1      48.075  32.399  26.470  1.00  0.00    -0.248 NA
ATOM     65  C   UNL A   1      47.332  34.591  26.787  1.00  0.00     0.031 C 
ATOM     66  C   UNL A   1      52.384  31.324  25.912  1.00  0.00     0.029 A 
ATOM     67  C   UNL A   1      51.049  31.664  26.075  1.00  0.00     0.049 A 
ATOM     68  H   UNL A   1      49.366  30.403  26.198  1.00  0.00     0.167 HD
ATOM     69  C   UNL A   1      49.162  33.260  26.405  1.00  0.00     0.074 A 
ATOM     70  C   UNL A   1      48.641  34.601  26.575  1.00  0.00     0.031 C 
ATOM     71  C   UNL A   1      50.475  32.978  26.216  1.00  0.00     0.031 A 
BRANCH  58  72
ATOM     72  C   UNL A   1      51.821  26.967  25.645  1.00  0.00    -0.014 A 
ATOM     73  C   UNL A   1      52.396  26.293  26.736  1.00  0.00     0.009 A 
ATOM     74  C   UNL A   1      52.207  26.607  24.345  1.00  0.00     0.009 A 
ATOM     75  C   UNL A   1      53.350  25.296  26.529  1.00  0.00     0.001 A 
ATOM     76  C   UNL A   1      53.139  25.589  24.141  1.00  0.00     0.001 A 
ATOM     77  C   UNL A   1      53.714  24.939  25.231  1.00  0.00     0.000 A 
ENDBRANCH  58  72
BRANCH  59  78
ATOM     78  C   UNL A   1      44.509  33.790  26.972  1.00  0.00    -0.014 A 
ATOM     79  C   UNL A   1      43.875  34.410  25.884  1.00  0.00     0.009 A 
ATOM     80  C   UNL A   1      44.146  34.176  28.273  1.00  0.00     0.009 A 
ATOM     81  C   UNL A   1      42.934  35.422  26.092  1.00  0.00     0.001 A 
ATOM     82  C   UNL A   1      43.180  35.164  28.478  1.00  0.00     0.001 A 
ATOM     83  C   UNL A   1      42.587  35.797  27.388  1.00  0.00     0.000 A 
ENDBRANCH  59  78
BRANCH  71  84
ATOM     84  C   UNL A   1      51.420  34.137  26.095  1.00  0.00    -0.014 A 
ATOM     85  C   UNL A   1      52.067  34.676  27.215  1.00  0.00     0.009 A 
ATOM     86  C   UNL A   1      51.734  34.627  24.816  1.00  0.00     0.009 A 
ATOM     87  C   UNL A   1      52.995  35.706  27.057  1.00  0.00     0.001 A 
ATOM     88  C   UNL A   1      52.686  35.632  24.660  1.00  0.00     0.001 A 
ATOM     89  C   UNL A   1      53.310  36.175  25.781  1.00  0.00     0.000 A 
ENDBRANCH  71  84
ENDBRANCH  45  46
ENDBRANCH  38  40
ENDBRANCH  37  38
ENDBRANCH  36  37
ENDBRANCH  35  36
ENDBRANCH  34  35
ENDBRANCH  33  34
ENDBRANCH  32  33
ENDBRANCH   1  32
TORSDOF 22
ENDMDL
MODEL 3
REMARK VINA RESULT:      -9.5      8.061     13.334
REMARK SMILES C[NH+]1CCN(C(=O)c2ccc3c(c2)N(CC(=O)OCCOCCOCCOCCOC(=O)c2ccc(-c4c5nc(c(-c6ccccc6)c6ccc([nH]6)c(-c6ccccc6)c6nc(c(-c7ccccc7)c7ccc4[nH]7)C=C6)C=C5)cc2)C(=O)CO3)CC1
REMARK SMILES IDX 24 1 23 2 22 3 21 4 20 5 19 6 18 7 16 8 17 9 15 10 14 11
REMARK SMILES IDX 8 12 9 13 13 14 10 15 12 16 11 17 84 18 81 19 83 20 82 21
REMARK SMILES IDX 6 22 1 23 2 24 3 25 86 26 4 28 85 29 5 30 7 31 25 32 26 33
REMARK SMILES IDX 27 34 28 35 29 36 30 37 31 38 32 39 33 40 34 41 80 42 35 43
REMARK SMILES IDX 79 44 36 45 37 46 38 47 73 48 39 49 78 50 72 51 74 52 40 53
REMARK SMILES IDX 77 54 71 55 70 56 41 58 63 59 48 60 62 61 49 62 52 63 61 64
REMARK SMILES IDX 75 65 50 66 51 67 60 69 76 70 53 71 42 72 43 73 47 74 44 75
REMARK SMILES IDX 46 76 45 77 64 78 65 79 69 80 66 81 68 82 67 83 54 84 55 85
REMARK SMILES IDX 59 86 56 87 58 88 57 89
REMARK H PARENT 2 27 74 57 52 68
REMARK Flexibility Score: inf
ROOT
ATOM      1  O   UNL A   1      39.290  27.336  29.179  1.00  0.00    -0.377 OA
ENDROOT
BRANCH   1   2
ATOM      2  C   UNL A   1      38.456  28.439  29.464  1.00  0.00     0.188 C 
BRANCH   2   3
ATOM      3  C   UNL A   1      39.205  29.474  30.282  1.00  0.00     0.188 C 
BRANCH   3   4
ATOM      4  O   UNL A   1      38.580  30.662  30.701  1.00  0.00    -0.376 OA
BRANCH   4   5
ATOM      5  C   UNL A   1      38.267  30.812  32.074  1.00  0.00     0.202 C 
BRANCH   5   6
ATOM      6  C   UNL A   1      37.671  32.127  32.626  1.00  0.00     0.261 C 
BRANCH   6   7
ATOM      7  O   UNL A   1      36.327  32.044  33.150  1.00  0.00    -0.462 OA
BRANCH   7   8
ATOM      8  C   UNL A   1      35.715  33.173  33.578  1.00  0.00     0.326 C 
ATOM      9  O   UNL A   1      35.101  33.249  34.637  1.00  0.00    -0.250 OA
BRANCH   8  10
ATOM     10  C   UNL A   1      35.907  34.393  32.627  1.00  0.00     0.248 C 
BRANCH  10  11
ATOM     11  N   UNL A   1      34.817  34.945  31.789  1.00  0.00    -0.295 N 
ATOM     12  C   UNL A   1      34.447  32.697  28.704  1.00  0.00     0.042 A 
ATOM     13  C   UNL A   1      33.459  33.409  28.016  1.00  0.00     0.018 A 
ATOM     14  C   UNL A   1      34.982  33.246  29.899  1.00  0.00     0.044 A 
ATOM     15  C   UNL A   1      32.937  34.581  28.558  1.00  0.00     0.049 A 
ATOM     16  C   UNL A   1      34.442  34.431  30.485  1.00  0.00     0.087 A 
ATOM     17  C   UNL A   1      33.399  35.069  29.787  1.00  0.00     0.143 A 
ATOM     18  O   UNL A   1      32.689  36.142  30.239  1.00  0.00    -0.482 OA
ATOM     19  C   UNL A   1      34.185  36.082  32.295  1.00  0.00     0.265 C 
ATOM     20  C   UNL A   1      33.241  36.810  31.347  1.00  0.00     0.330 C 
ATOM     21  O   UNL A   1      34.409  36.525  33.423  1.00  0.00    -0.270 OA
BRANCH  12  22
ATOM     22  C   UNL A   1      34.964  31.460  28.024  1.00  0.00     0.254 C 
ATOM     23  C   UNL A   1      31.515  27.317  26.905  1.00  0.00     0.332 C 
ATOM     24  N   UNL A   1      32.339  28.463  26.532  1.00  0.00    -0.334 N 
ATOM     25  C   UNL A   1      33.781  28.210  26.781  1.00  0.00     0.283 C 
ATOM     26  C   UNL A   1      31.894  29.673  27.247  1.00  0.00     0.283 C 
ATOM     27  H   UNL A   1      32.224  28.611  25.530  1.00  0.00     0.347 HD
ATOM     28  C   UNL A   1      34.703  29.447  26.576  1.00  0.00     0.181 C 
ATOM     29  C   UNL A   1      32.779  30.848  26.832  1.00  0.00     0.181 C 
ATOM     30  N   UNL A   1      34.159  30.640  27.230  1.00  0.00    -0.327 N 
ATOM     31  O   UNL A   1      36.171  31.257  28.157  1.00  0.00    -0.269 OA
ENDBRANCH  12  22
ENDBRANCH  10  11
ENDBRANCH   8  10
ENDBRANCH   7   8
ENDBRANCH   6   7
ENDBRANCH   5   6
ENDBRANCH   4   5
ENDBRANCH   3   4
ENDBRANCH   2   3
ENDBRANCH   1   2
BRANCH   1  32
ATOM     32  C   UNL A   1      40.280  27.623  28.198  1.00  0.00     0.188 C 
BRANCH  32  33
ATOM     33  C   UNL A   1      41.005  26.400  27.601  1.00  0.00     0.188 C 
BRANCH  33  34
ATOM     34  O   UNL A   1      40.616  25.083  28.010  1.00  0.00    -0.376 OA
BRANCH  34  35
ATOM     35  C   UNL A   1      40.333  24.076  27.049  1.00  0.00     0.202 C 
BRANCH  35  36
ATOM     36  C   UNL A   1      41.111  22.790  27.312  1.00  0.00     0.261 C 
BRANCH  36  37
ATOM     37  O   UNL A   1      42.339  23.092  27.963  1.00  0.00    -0.460 OA
BRANCH  37  38
ATOM     38  C   UNL A   1      43.433  22.983  27.169  1.00  0.00     0.338 C 
ATOM     39  O   UNL A   1      43.827  22.009  26.548  1.00  0.00    -0.246 OA
BRANCH  38  40
ATOM     40  C   UNL A   1      43.969  24.341  27.016  1.00  0.00     0.060 A 
ATOM     41  C   UNL A   1      43.974  24.921  25.739  1.00  0.00     0.016 A 
ATOM     42  C   UNL A   1      44.366  25.063  28.147  1.00  0.00     0.016 A 
ATOM     43  C   UNL A   1      44.398  26.234  25.588  1.00  0.00     0.010 A 
ATOM     44  C   UNL A   1      44.817  26.362  27.994  1.00  0.00     0.010 A 
ATOM     45  C   UNL A   1      44.874  26.924  26.710  1.00  0.00    -0.014 A 
BRANCH  45  46
ATOM     46  C   UNL A   1      45.765  28.072  26.512  1.00  0.00     0.031 A 
ATOM     47  C   UNL A   1      47.214  27.747  26.287  1.00  0.00     0.074 A 
ATOM     48  C   UNL A   1      45.301  29.329  26.567  1.00  0.00     0.049 A 
ATOM     49  N   UNL A   1      48.240  28.545  26.216  1.00  0.00    -0.248 NA
ATOM     50  C   UNL A   1      47.551  26.315  26.138  1.00  0.00     0.031 C 
ATOM     51  C   UNL A   1      43.899  29.712  26.733  1.00  0.00     0.029 A 
ATOM     52  N   UNL A   1      45.976  30.515  26.502  1.00  0.00    -0.354 N 
ATOM     53  C   UNL A   1      49.336  27.715  26.017  1.00  0.00     0.074 A 
ATOM     54  C   UNL A   1      48.866  26.353  26.018  1.00  0.00     0.031 C 
ATOM     55  C   UNL A   1      43.821  31.054  26.772  1.00  0.00     0.029 A 
ATOM     56  C   UNL A   1      45.169  31.611  26.679  1.00  0.00     0.049 A 
ATOM     57  H   UNL A   1      46.945  30.578  26.344  1.00  0.00     0.167 HD
ATOM     58  C   UNL A   1      50.627  28.070  25.840  1.00  0.00     0.031 A 
ATOM     59  C   UNL A   1      45.510  32.908  26.781  1.00  0.00     0.031 A 
ATOM     60  C   UNL A   1      51.069  29.432  25.879  1.00  0.00     0.049 A 
ATOM     61  C   UNL A   1      46.971  33.268  26.682  1.00  0.00     0.074 A 
ATOM     62  C   UNL A   1      52.348  29.929  25.738  1.00  0.00     0.029 A 
ATOM     63  N   UNL A   1      50.226  30.517  26.078  1.00  0.00    -0.354 N 
ATOM     64  N   UNL A   1      48.005  32.484  26.486  1.00  0.00    -0.248 NA
ATOM     65  C   UNL A   1      47.313  34.690  26.813  1.00  0.00     0.031 C 
ATOM     66  C   UNL A   1      52.287  31.315  25.903  1.00  0.00     0.029 A 
ATOM     67  C   UNL A   1      50.961  31.684  26.074  1.00  0.00     0.049 A 
ATOM     68  H   UNL A   1      49.251  30.460  26.202  1.00  0.00     0.167 HD
ATOM     69  C   UNL A   1      49.111  33.320  26.418  1.00  0.00     0.074 A 
ATOM     70  C   UNL A   1      48.620  34.672  26.595  1.00  0.00     0.031 C 
ATOM     71  C   UNL A   1      50.417  33.010  26.222  1.00  0.00     0.031 A 
BRANCH  58  72
ATOM     72  C   UNL A   1      51.627  26.972  25.627  1.00  0.00    -0.014 A 
ATOM     73  C   UNL A   1      52.154  26.249  26.710  1.00  0.00     0.009 A 
ATOM     74  C   UNL A   1      52.036  26.642  24.326  1.00  0.00     0.009 A 
ATOM     75  C   UNL A   1      53.086  25.232  26.495  1.00  0.00     0.001 A 
ATOM     76  C   UNL A   1      52.945  25.605  24.113  1.00  0.00     0.001 A 
ATOM     77  C   UNL A   1      53.474  24.906  25.197  1.00  0.00     0.000 A 
ENDBRANCH  58  72
BRANCH  59  78
ATOM     78  C   UNL A   1      44.474  33.951  27.009  1.00  0.00    -0.014 A 
ATOM     79  C   UNL A   1      44.001  34.220  28.303  1.00  0.00     0.009 A 
ATOM     80  C   UNL A   1      43.925  34.663  25.930  1.00  0.00     0.009 A 
ATOM     81  C   UNL A   1      42.974  35.146  28.507  1.00  0.00     0.001 A 
ATOM     82  C   UNL A   1      42.923  35.613  26.140  1.00  0.00     0.001 A 
ATOM     83  C   UNL A   1      42.437  35.843  27.426  1.00  0.00     0.000 A 
ENDBRANCH  59  78
BRANCH  71  84
ATOM     84  C   UNL A   1      51.387  34.148  26.100  1.00  0.00    -0.014 A 
ATOM     85  C   UNL A   1      51.629  34.778  24.872  1.00  0.00     0.009 A 
ATOM     86  C   UNL A   1      51.993  34.651  27.263  1.00  0.00     0.009 A 
ATOM     87  C   UNL A   1      52.483  35.880  24.809  1.00  0.00     0.001 A 
ATOM     88  C   UNL A   1      52.818  35.772  27.200  1.00  0.00     0.001 A 
ATOM     89  C   UNL A   1      53.067  36.380  25.973  1.00  0.00     0.000 A 
ENDBRANCH  71  84
ENDBRANCH  45  46
ENDBRANCH  38  40
ENDBRANCH  37  38
ENDBRANCH  36  37
ENDBRANCH  35  36
ENDBRANCH  34  35
ENDBRANCH  33  34
ENDBRANCH  32  33
ENDBRANCH   1  32
TORSDOF 22
ENDMDL
