MODEL 1
REMARK VINA RESULT:     -10.0      0.000      0.000
REMARK SMILES C[C@H]1CCc2sc3ncn4nc(/C=C\C(=O)OCCOCCOCCOCCOC(=O)c5ccc(-c6c7nc(c(-c8ccccc8)c8ccc([nH]8)c(-c8ccccc8)c8nc(c(-c9ccccc9)c9ccc6[nH]9)C=C8)C=C7)cc5)nc4c3c2C1
REMARK SMILES IDX 24 1 23 2 22 3 21 4 20 5 19 6 18 7 17 8 15 9 16 10 14 11
REMARK SMILES IDX 13 12 12 13 1 14 2 15 3 16 84 17 4 18 83 19 5 20 82 21 6 22
REMARK SMILES IDX 7 23 81 24 8 25 10 26 80 27 9 28 11 29 25 30 26 31 27 32
REMARK SMILES IDX 28 33 29 34 30 35 31 36 32 37 33 38 79 39 34 40 78 41 35 42
REMARK SMILES IDX 36 43 37 44 72 45 38 46 77 47 71 48 73 49 39 50 76 51 70 52
REMARK SMILES IDX 69 53 40 55 62 56 47 57 61 58 48 59 51 60 60 61 74 62 49 63
REMARK SMILES IDX 50 64 59 66 75 67 52 68 41 69 42 70 46 71 43 72 45 73 44 74
REMARK SMILES IDX 63 75 64 76 68 77 65 78 67 79 66 80 53 81 54 82 58 83 55 84
REMARK SMILES IDX 57 85 56 86
REMARK H PARENT 73 54 51 65
REMARK Flexibility Score: inf
ROOT
ATOM      1  C   UNL A   1      34.160  29.565  26.815  1.00  0.00     0.188 C 
ENDROOT
BRANCH   1   2
ATOM      2  O   UNL A   1      33.103  28.643  26.592  1.00  0.00    -0.377 OA
BRANCH   2   3
ATOM      3  C   UNL A   1      33.525  27.346  26.185  1.00  0.00     0.188 C 
BRANCH   3   4
ATOM      4  C   UNL A   1      32.539  26.180  26.419  1.00  0.00     0.188 C 
BRANCH   4   5
ATOM      5  O   UNL A   1      31.187  26.615  26.531  1.00  0.00    -0.376 OA
BRANCH   5   6
ATOM      6  C   UNL A   1      30.232  25.833  25.828  1.00  0.00     0.202 C 
BRANCH   6   7
ATOM      7  C   UNL A   1      29.675  26.562  24.615  1.00  0.00     0.261 C 
BRANCH   7   8
ATOM      8  O   UNL A   1      30.453  27.685  24.201  1.00  0.00    -0.460 OA
BRANCH   8   9
ATOM      9  C   UNL A   1      30.444  28.037  22.912  1.00  0.00     0.330 C 
ATOM     10  O   UNL A   1      29.472  28.435  22.283  1.00  0.00    -0.247 OA
BRANCH   9  11
ATOM     11  C   UNL A   1      31.817  28.087  22.368  1.00  0.00     0.097 C 
ATOM     12  C   UNL A   1      32.788  27.159  22.311  1.00  0.00     0.058 C 
BRANCH  12  13
ATOM     13  C   UNL A   1      32.839  25.784  22.709  1.00  0.00     0.175 A 
ATOM     14  C   UNL A   1      37.794  23.641  26.799  1.00  0.00     0.008 C 
ATOM     15  C   UNL A   1      37.943  23.222  25.334  1.00  0.00    -0.009 C 
ATOM     16  C   UNL A   1      38.245  21.718  25.176  1.00  0.00     0.009 C 
ATOM     17  C   UNL A   1      36.701  23.637  24.521  1.00  0.00     0.041 C 
ATOM     18  C   UNL A   1      37.063  20.812  25.560  1.00  0.00     0.047 C 
ATOM     19  C   UNL A   1      35.609  22.625  24.512  1.00  0.00    -0.020 A 
ATOM     20  C   UNL A   1      35.789  21.335  24.970  1.00  0.00     0.011 A 
ATOM     21  C   UNL A   1      34.287  22.803  24.043  1.00  0.00     0.060 A 
ATOM     22  S   UNL A   1      34.376  20.385  24.840  1.00  0.00    -0.120 S 
ATOM     23  C   UNL A   1      33.484  21.678  24.155  1.00  0.00     0.129 A 
ATOM     24  C   UNL A   1      33.598  23.973  23.468  1.00  0.00     0.168 A 
ATOM     25  N   UNL A   1      32.159  21.553  23.799  1.00  0.00    -0.225 NA
ATOM     26  N   UNL A   1      32.296  23.815  23.114  1.00  0.00    -0.201 N 
ATOM     27  N   UNL A   1      33.974  25.204  23.233  1.00  0.00    -0.207 NA
ATOM     28  C   UNL A   1      31.597  22.622  23.289  1.00  0.00     0.227 A 
ATOM     29  N   UNL A   1      31.786  24.950  22.601  1.00  0.00    -0.145 NA
ENDBRANCH  12  13
ENDBRANCH   9  11
ENDBRANCH   8   9
ENDBRANCH   7   8
ENDBRANCH   6   7
ENDBRANCH   5   6
ENDBRANCH   4   5
ENDBRANCH   3   4
ENDBRANCH   2   3
ENDBRANCH   1   2
BRANCH   1  30
ATOM     30  C   UNL A   1      33.729  30.898  27.463  1.00  0.00     0.188 C 
BRANCH  30  31
ATOM     31  O   UNL A   1      34.589  32.024  27.625  1.00  0.00    -0.376 OA
BRANCH  31  32
ATOM     32  C   UNL A   1      34.233  33.178  28.366  1.00  0.00     0.202 C 
BRANCH  32  33
ATOM     33  C   UNL A   1      34.500  33.296  29.861  1.00  0.00     0.261 C 
BRANCH  33  34
ATOM     34  O   UNL A   1      35.042  32.136  30.449  1.00  0.00    -0.460 OA
BRANCH  34  35
ATOM     35  C   UNL A   1      36.306  32.281  30.850  1.00  0.00     0.338 C 
ATOM     36  O   UNL A   1      36.765  33.139  31.615  1.00  0.00    -0.246 OA
BRANCH  35  37
ATOM     37  C   UNL A   1      37.134  31.332  30.121  1.00  0.00     0.060 A 
ATOM     38  C   UNL A   1      36.731  29.999  30.172  1.00  0.00     0.016 A 
ATOM     39  C   UNL A   1      38.425  31.720  29.722  1.00  0.00     0.016 A 
ATOM     40  C   UNL A   1      37.706  29.039  30.087  1.00  0.00     0.010 A 
ATOM     41  C   UNL A   1      39.399  30.760  29.651  1.00  0.00     0.010 A 
ATOM     42  C   UNL A   1      39.037  29.450  29.940  1.00  0.00    -0.014 A 
BRANCH  42  43
ATOM     43  C   UNL A   1      40.054  28.439  30.078  1.00  0.00     0.031 A 
ATOM     44  C   UNL A   1      40.553  28.326  31.453  1.00  0.00     0.074 A 
ATOM     45  C   UNL A   1      40.459  27.670  29.053  1.00  0.00     0.049 A 
ATOM     46  N   UNL A   1      41.687  28.743  31.903  1.00  0.00    -0.248 NA
ATOM     47  C   UNL A   1      39.613  27.859  32.482  1.00  0.00     0.031 C 
ATOM     48  C   UNL A   1      39.810  27.509  27.747  1.00  0.00     0.029 A 
ATOM     49  N   UNL A   1      41.484  26.779  29.008  1.00  0.00    -0.354 N 
ATOM     50  C   UNL A   1      41.694  28.376  33.239  1.00  0.00     0.074 A 
ATOM     51  C   UNL A   1      40.337  28.041  33.586  1.00  0.00     0.031 C 
ATOM     52  C   UNL A   1      40.315  26.410  27.139  1.00  0.00     0.029 A 
ATOM     53  C   UNL A   1      41.417  25.900  27.938  1.00  0.00     0.049 A 
ATOM     54  H   UNL A   1      42.209  26.760  29.673  1.00  0.00     0.167 HD
ATOM     55  C   UNL A   1      42.862  28.040  33.847  1.00  0.00     0.031 A 
ATOM     56  C   UNL A   1      42.181  24.796  27.770  1.00  0.00     0.031 A 
ATOM     57  C   UNL A   1      44.005  28.443  33.072  1.00  0.00     0.049 A 
ATOM     58  C   UNL A   1      43.416  24.971  28.566  1.00  0.00     0.074 A 
ATOM     59  C   UNL A   1      44.692  29.609  32.819  1.00  0.00     0.029 A 
ATOM     60  N   UNL A   1      44.356  27.544  32.098  1.00  0.00    -0.354 N 
ATOM     61  N   UNL A   1      44.318  25.871  28.299  1.00  0.00    -0.248 NA
ATOM     62  C   UNL A   1      43.525  24.353  29.884  1.00  0.00     0.031 C 
ATOM     63  C   UNL A   1      45.355  29.422  31.568  1.00  0.00     0.029 A 
ATOM     64  C   UNL A   1      45.078  28.139  31.098  1.00  0.00     0.049 A 
ATOM     65  H   UNL A   1      44.116  26.589  32.115  1.00  0.00     0.167 HD
ATOM     66  C   UNL A   1      44.814  26.235  29.535  1.00  0.00     0.074 A 
ATOM     67  C   UNL A   1      44.441  25.153  30.435  1.00  0.00     0.031 C 
ATOM     68  C   UNL A   1      45.185  27.523  29.792  1.00  0.00     0.031 A 
BRANCH  55  69
ATOM     69  C   UNL A   1      42.957  26.900  34.832  1.00  0.00    -0.014 A 
ATOM     70  C   UNL A   1      42.885  27.191  36.202  1.00  0.00     0.009 A 
ATOM     71  C   UNL A   1      43.402  25.609  34.479  1.00  0.00     0.009 A 
ATOM     72  C   UNL A   1      43.268  26.249  37.166  1.00  0.00     0.001 A 
ATOM     73  C   UNL A   1      43.748  24.654  35.437  1.00  0.00     0.001 A 
ATOM     74  C   UNL A   1      43.700  24.982  36.783  1.00  0.00     0.000 A 
ENDBRANCH  55  69
BRANCH  56  75
ATOM     75  C   UNL A   1      41.791  23.484  27.216  1.00  0.00    -0.014 A 
ATOM     76  C   UNL A   1      42.455  22.972  26.089  1.00  0.00     0.009 A 
ATOM     77  C   UNL A   1      40.991  22.604  27.967  1.00  0.00     0.009 A 
ATOM     78  C   UNL A   1      42.380  21.611  25.771  1.00  0.00     0.001 A 
ATOM     79  C   UNL A   1      40.911  21.248  27.643  1.00  0.00     0.001 A 
ATOM     80  C   UNL A   1      41.625  20.746  26.559  1.00  0.00     0.000 A 
ENDBRANCH  56  75
BRANCH  68  81
ATOM     81  C   UNL A   1      45.541  28.390  28.618  1.00  0.00    -0.014 A 
ATOM     82  C   UNL A   1      46.827  28.456  28.060  1.00  0.00     0.009 A 
ATOM     83  C   UNL A   1      44.511  29.131  28.019  1.00  0.00     0.009 A 
ATOM     84  C   UNL A   1      47.078  29.265  26.946  1.00  0.00     0.001 A 
ATOM     85  C   UNL A   1      44.758  29.921  26.895  1.00  0.00     0.001 A 
ATOM     86  C   UNL A   1      46.043  29.994  26.363  1.00  0.00     0.000 A 
ENDBRANCH  68  81
ENDBRANCH  42  43
ENDBRANCH  35  37
ENDBRANCH  34  35
ENDBRANCH  33  34
ENDBRANCH  32  33
ENDBRANCH  31  32
ENDBRANCH  30  31
ENDBRANCH   1  30
TORSDOF 21
ENDMDL
MODEL 2
REMARK VINA RESULT:      -9.8      3.684      8.513
REMARK SMILES C[C@H]1CCc2sc3ncn4nc(/C=C\C(=O)OCCOCCOCCOCCOC(=O)c5ccc(-c6c7nc(c(-c8ccccc8)c8ccc([nH]8)c(-c8ccccc8)c8nc(c(-c9ccccc9)c9ccc6[nH]9)C=C8)C=C7)cc5)nc4c3c2C1
REMARK SMILES IDX 24 1 23 2 22 3 21 4 20 5 19 6 18 7 17 8 15 9 16 10 14 11
REMARK SMILES IDX 13 12 12 13 1 14 2 15 3 16 84 17 4 18 83 19 5 20 82 21 6 22
REMARK SMILES IDX 7 23 81 24 8 25 10 26 80 27 9 28 11 29 25 30 26 31 27 32
REMARK SMILES IDX 28 33 29 34 30 35 31 36 32 37 33 38 79 39 34 40 78 41 35 42
REMARK SMILES IDX 36 43 37 44 72 45 38 46 77 47 71 48 73 49 39 50 76 51 70 52
REMARK SMILES IDX 69 53 40 55 62 56 47 57 61 58 48 59 51 60 60 61 74 62 49 63
REMARK SMILES IDX 50 64 59 66 75 67 52 68 41 69 42 70 46 71 43 72 45 73 44 74
REMARK SMILES IDX 63 75 64 76 68 77 65 78 67 79 66 80 53 81 54 82 58 83 55 84
REMARK SMILES IDX 57 85 56 86
REMARK H PARENT 73 54 51 65
REMARK Flexibility Score: inf
ROOT
ATOM      1  C   UNL A   1      41.599  20.672  26.846  1.00  0.00     0.188 C 
ENDROOT
BRANCH   1   2
ATOM      2  O   UNL A   1      40.290  21.063  27.234  1.00  0.00    -0.377 OA
BRANCH   2   3
ATOM      3  C   UNL A   1      39.667  21.996  26.358  1.00  0.00     0.188 C 
BRANCH   3   4
ATOM      4  C   UNL A   1      38.415  21.515  25.593  1.00  0.00     0.188 C 
BRANCH   4   5
ATOM      5  O   UNL A   1      37.628  22.590  25.089  1.00  0.00    -0.376 OA
BRANCH   5   6
ATOM      6  C   UNL A   1      37.020  23.416  26.071  1.00  0.00     0.202 C 
BRANCH   6   7
ATOM      7  C   UNL A   1      35.513  23.216  26.136  1.00  0.00     0.261 C 
BRANCH   7   8
ATOM      8  O   UNL A   1      35.116  21.885  26.466  1.00  0.00    -0.460 OA
BRANCH   8   9
ATOM      9  C   UNL A   1      33.866  21.670  26.888  1.00  0.00     0.330 C 
ATOM     10  O   UNL A   1      33.366  22.124  27.909  1.00  0.00    -0.247 OA
BRANCH   9  11
ATOM     11  C   UNL A   1      33.072  20.971  25.856  1.00  0.00     0.097 C 
ATOM     12  C   UNL A   1      32.575  21.389  24.679  1.00  0.00     0.058 C 
BRANCH  12  13
ATOM     13  C   UNL A   1      32.664  22.633  23.976  1.00  0.00     0.175 A 
ATOM     14  C   UNL A   1      33.693  28.379  27.411  1.00  0.00     0.008 C 
ATOM     15  C   UNL A   1      32.267  28.188  26.890  1.00  0.00    -0.009 C 
ATOM     16  C   UNL A   1      31.734  29.432  26.153  1.00  0.00     0.009 C 
ATOM     17  C   UNL A   1      32.174  26.927  26.008  1.00  0.00     0.041 C 
ATOM     18  C   UNL A   1      32.439  29.700  24.812  1.00  0.00     0.047 C 
ATOM     19  C   UNL A   1      32.475  27.163  24.569  1.00  0.00    -0.020 A 
ATOM     20  C   UNL A   1      32.575  28.429  24.030  1.00  0.00     0.011 A 
ATOM     21  C   UNL A   1      32.680  26.183  23.571  1.00  0.00     0.060 A 
ATOM     22  S   UNL A   1      32.923  28.410  22.358  1.00  0.00    -0.120 S 
ATOM     23  C   UNL A   1      32.940  26.697  22.309  1.00  0.00     0.129 A 
ATOM     24  C   UNL A   1      32.682  24.709  23.627  1.00  0.00     0.168 A 
ATOM     25  N   UNL A   1      33.192  25.994  21.151  1.00  0.00    -0.225 NA
ATOM     26  N   UNL A   1      32.921  24.044  22.465  1.00  0.00    -0.201 N 
ATOM     27  N   UNL A   1      32.522  23.852  24.602  1.00  0.00    -0.207 NA
ATOM     28  C   UNL A   1      33.179  24.688  21.256  1.00  0.00     0.227 A 
ATOM     29  N   UNL A   1      32.892  22.711  22.649  1.00  0.00    -0.145 NA
ENDBRANCH  12  13
ENDBRANCH   9  11
ENDBRANCH   8   9
ENDBRANCH   7   8
ENDBRANCH   6   7
ENDBRANCH   5   6
ENDBRANCH   4   5
ENDBRANCH   3   4
ENDBRANCH   2   3
ENDBRANCH   1   2
BRANCH   1  30
ATOM     30  C   UNL A   1      41.666  19.366  26.026  1.00  0.00     0.188 C 
BRANCH  30  31
ATOM     31  O   UNL A   1      42.636  19.107  25.012  1.00  0.00    -0.376 OA
BRANCH  31  32
ATOM     32  C   UNL A   1      44.029  19.284  25.203  1.00  0.00     0.202 C 
BRANCH  32  33
ATOM     33  C   UNL A   1      44.886  20.081  24.228  1.00  0.00     0.261 C 
BRANCH  33  34
ATOM     34  O   UNL A   1      45.564  21.172  24.808  1.00  0.00    -0.460 OA
BRANCH  34  35
ATOM     35  C   UNL A   1      45.114  22.359  24.398  1.00  0.00     0.338 C 
ATOM     36  O   UNL A   1      45.393  22.955  23.349  1.00  0.00    -0.246 OA
BRANCH  35  37
ATOM     37  C   UNL A   1      44.323  22.947  25.468  1.00  0.00     0.060 A 
ATOM     38  C   UNL A   1      43.166  23.620  25.080  1.00  0.00     0.016 A 
ATOM     39  C   UNL A   1      44.909  23.115  26.735  1.00  0.00     0.016 A 
ATOM     40  C   UNL A   1      42.750  24.668  25.859  1.00  0.00     0.010 A 
ATOM     41  C   UNL A   1      44.500  24.171  27.505  1.00  0.00     0.010 A 
ATOM     42  C   UNL A   1      43.497  24.989  26.999  1.00  0.00    -0.014 A 
BRANCH  42  43
ATOM     43  C   UNL A   1      43.171  26.222  27.670  1.00  0.00     0.031 A 
ATOM     44  C   UNL A   1      44.175  27.268  27.445  1.00  0.00     0.074 A 
ATOM     45  C   UNL A   1      42.046  26.384  28.387  1.00  0.00     0.049 A 
ATOM     46  N   UNL A   1      45.058  27.689  28.284  1.00  0.00    -0.248 NA
ATOM     47  C   UNL A   1      44.331  27.777  26.075  1.00  0.00     0.031 C 
ATOM     48  C   UNL A   1      40.867  25.511  28.409  1.00  0.00     0.029 A 
ATOM     49  N   UNL A   1      41.677  27.433  29.169  1.00  0.00    -0.354 N 
ATOM     50  C   UNL A   1      45.737  28.691  27.611  1.00  0.00     0.074 A 
ATOM     51  C   UNL A   1      45.404  28.555  26.216  1.00  0.00     0.031 C 
ATOM     52  C   UNL A   1      39.835  26.184  28.969  1.00  0.00     0.029 A 
ATOM     53  C   UNL A   1      40.326  27.452  29.480  1.00  0.00     0.049 A 
ATOM     54  H   UNL A   1      42.311  28.116  29.486  1.00  0.00     0.167 HD
ATOM     55  C   UNL A   1      46.231  29.757  28.293  1.00  0.00     0.031 A 
ATOM     56  C   UNL A   1      39.661  28.479  30.059  1.00  0.00     0.031 A 
ATOM     57  C   UNL A   1      46.259  29.519  29.712  1.00  0.00     0.049 A 
ATOM     58  C   UNL A   1      40.647  29.307  30.788  1.00  0.00     0.074 A 
ATOM     59  C   UNL A   1      47.047  28.824  30.603  1.00  0.00     0.029 A 
ATOM     60  N   UNL A   1      45.068  29.780  30.339  1.00  0.00    -0.354 N 
ATOM     61  N   UNL A   1      41.300  28.887  31.834  1.00  0.00    -0.248 NA
ATOM     62  C   UNL A   1      41.170  30.523  30.175  1.00  0.00     0.031 C 
ATOM     63  C   UNL A   1      46.224  28.550  31.738  1.00  0.00     0.029 A 
ATOM     64  C   UNL A   1      44.963  29.103  31.525  1.00  0.00     0.049 A 
ATOM     65  H   UNL A   1      44.375  30.380  29.980  1.00  0.00     0.167 HD
ATOM     66  C   UNL A   1      42.529  29.510  31.742  1.00  0.00     0.074 A 
ATOM     67  C   UNL A   1      42.326  30.631  30.834  1.00  0.00     0.031 C 
ATOM     68  C   UNL A   1      43.670  28.876  32.137  1.00  0.00     0.031 A 
BRANCH  55  69
ATOM     69  C   UNL A   1      46.168  31.162  27.746  1.00  0.00    -0.014 A 
ATOM     70  C   UNL A   1      44.998  31.573  27.091  1.00  0.00     0.009 A 
ATOM     71  C   UNL A   1      47.303  31.985  27.595  1.00  0.00     0.009 A 
ATOM     72  C   UNL A   1      44.976  32.730  26.302  1.00  0.00     0.001 A 
ATOM     73  C   UNL A   1      47.276  33.159  26.839  1.00  0.00     0.001 A 
ATOM     74  C   UNL A   1      46.115  33.521  26.176  1.00  0.00     0.000 A 
ENDBRANCH  55  69
BRANCH  56  75
ATOM     75  C   UNL A   1      38.293  28.959  29.782  1.00  0.00    -0.014 A 
ATOM     76  C   UNL A   1      37.421  29.248  30.845  1.00  0.00     0.009 A 
ATOM     77  C   UNL A   1      37.949  29.427  28.501  1.00  0.00     0.009 A 
ATOM     78  C   UNL A   1      36.286  30.041  30.645  1.00  0.00     0.001 A 
ATOM     79  C   UNL A   1      36.810  30.211  28.302  1.00  0.00     0.001 A 
ATOM     80  C   UNL A   1      35.991  30.539  29.378  1.00  0.00     0.000 A 
ENDBRANCH  56  75
BRANCH  68  81
ATOM     81  C   UNL A   1      43.533  27.753  33.125  1.00  0.00    -0.014 A 
ATOM     82  C   UNL A   1      43.109  27.930  34.451  1.00  0.00     0.009 A 
ATOM     83  C   UNL A   1      43.794  26.451  32.674  1.00  0.00     0.009 A 
ATOM     84  C   UNL A   1      42.976  26.832  35.309  1.00  0.00     0.001 A 
ATOM     85  C   UNL A   1      43.640  25.353  33.522  1.00  0.00     0.001 A 
ATOM     86  C   UNL A   1      43.239  25.544  34.842  1.00  0.00     0.000 A 
ENDBRANCH  68  81
ENDBRANCH  42  43
ENDBRANCH  35  37
ENDBRANCH  34  35
ENDBRANCH  33  34
ENDBRANCH  32  33
ENDBRANCH  31  32
ENDBRANCH  30  31
ENDBRANCH   1  30
TORSDOF 21
ENDMDL
MODEL 3
REMARK VINA RESULT:      -9.7      2.880      5.192
REMARK SMILES C[C@H]1CCc2sc3ncn4nc(/C=C\C(=O)OCCOCCOCCOCCOC(=O)c5ccc(-c6c7nc(c(-c8ccccc8)c8ccc([nH]8)c(-c8ccccc8)c8nc(c(-c9ccccc9)c9ccc6[nH]9)C=C8)C=C7)cc5)nc4c3c2C1
REMARK SMILES IDX 24 1 23 2 22 3 21 4 20 5 19 6 18 7 17 8 15 9 16 10 14 11
REMARK SMILES IDX 13 12 12 13 1 14 2 15 3 16 84 17 4 18 83 19 5 20 82 21 6 22
REMARK SMILES IDX 7 23 81 24 8 25 10 26 80 27 9 28 11 29 25 30 26 31 27 32
REMARK SMILES IDX 28 33 29 34 30 35 31 36 32 37 33 38 79 39 34 40 78 41 35 42
REMARK SMILES IDX 36 43 37 44 72 45 38 46 77 47 71 48 73 49 39 50 76 51 70 52
REMARK SMILES IDX 69 53 40 55 62 56 47 57 61 58 48 59 51 60 60 61 74 62 49 63
REMARK SMILES IDX 50 64 59 66 75 67 52 68 41 69 42 70 46 71 43 72 45 73 44 74
REMARK SMILES IDX 63 75 64 76 68 77 65 78 67 79 66 80 53 81 54 82 58 83 55 84
REMARK SMILES IDX 57 85 56 86
REMARK H PARENT 73 54 51 65
REMARK Flexibility Score: inf
ROOT
ATOM      1  C   UNL A   1      32.642  36.270  31.928  1.00  0.00     0.188 C 
ENDROOT
BRANCH   1   2
ATOM      2  O   UNL A   1      32.526  35.248  30.949  1.00  0.00    -0.377 OA
BRANCH   2   3
ATOM      3  C   UNL A   1      33.284  35.473  29.765  1.00  0.00     0.188 C 
BRANCH   3   4
ATOM      4  C   UNL A   1      32.862  34.693  28.501  1.00  0.00     0.188 C 
BRANCH   4   5
ATOM      5  O   UNL A   1      33.954  34.023  27.876  1.00  0.00    -0.376 OA
BRANCH   5   6
ATOM      6  C   UNL A   1      35.246  34.426  28.306  1.00  0.00     0.202 C 
BRANCH   6   7
ATOM      7  C   UNL A   1      36.268  33.307  28.176  1.00  0.00     0.261 C 
BRANCH   7   8
ATOM      8  O   UNL A   1      36.686  32.751  29.423  1.00  0.00    -0.460 OA
BRANCH   8   9
ATOM      9  C   UNL A   1      35.973  31.755  29.958  1.00  0.00     0.330 C 
ATOM     10  O   UNL A   1      34.969  31.881  30.647  1.00  0.00    -0.247 OA
BRANCH   9  11
ATOM     11  C   UNL A   1      36.425  30.446  29.443  1.00  0.00     0.097 C 
ATOM     12  C   UNL A   1      35.912  29.631  28.505  1.00  0.00     0.058 C 
BRANCH  12  13
ATOM     13  C   UNL A   1      34.780  29.746  27.635  1.00  0.00     0.175 A 
ATOM     14  C   UNL A   1      32.854  24.443  23.888  1.00  0.00     0.008 C 
ATOM     15  C   UNL A   1      33.563  25.556  23.111  1.00  0.00    -0.009 C 
ATOM     16  C   UNL A   1      32.800  25.967  21.836  1.00  0.00     0.009 C 
ATOM     17  C   UNL A   1      33.832  26.770  24.023  1.00  0.00     0.041 C 
ATOM     18  C   UNL A   1      31.473  26.690  22.121  1.00  0.00     0.047 C 
ATOM     19  C   UNL A   1      32.720  27.758  24.071  1.00  0.00    -0.020 A 
ATOM     20  C   UNL A   1      31.660  27.725  23.188  1.00  0.00     0.011 A 
ATOM     21  C   UNL A   1      32.583  28.844  24.967  1.00  0.00     0.060 A 
ATOM     22  S   UNL A   1      30.530  28.977  23.464  1.00  0.00    -0.120 S 
ATOM     23  C   UNL A   1      31.440  29.605  24.773  1.00  0.00     0.129 A 
ATOM     24  C   UNL A   1      33.428  29.308  26.083  1.00  0.00     0.168 A 
ATOM     25  N   UNL A   1      31.033  30.707  25.493  1.00  0.00    -0.225 NA
ATOM     26  N   UNL A   1      33.006  30.405  26.766  1.00  0.00    -0.201 N 
ATOM     27  N   UNL A   1      34.540  28.862  26.607  1.00  0.00    -0.207 NA
ATOM     28  C   UNL A   1      31.822  31.079  26.471  1.00  0.00     0.227 A 
ATOM     29  N   UNL A   1      33.863  30.727  27.752  1.00  0.00    -0.145 NA
ENDBRANCH  12  13
ENDBRANCH   9  11
ENDBRANCH   8   9
ENDBRANCH   7   8
ENDBRANCH   6   7
ENDBRANCH   5   6
ENDBRANCH   4   5
ENDBRANCH   3   4
ENDBRANCH   2   3
ENDBRANCH   1   2
BRANCH   1  30
ATOM     30  C   UNL A   1      33.661  35.977  33.050  1.00  0.00     0.188 C 
BRANCH  30  31
ATOM     31  O   UNL A   1      34.592  34.897  33.023  1.00  0.00    -0.376 OA
BRANCH  31  32
ATOM     32  C   UNL A   1      35.877  34.960  33.617  1.00  0.00     0.202 C 
BRANCH  32  33
ATOM     33  C   UNL A   1      37.125  34.452  32.906  1.00  0.00     0.261 C 
BRANCH  33  34
ATOM     34  O   UNL A   1      38.033  33.771  33.742  1.00  0.00    -0.460 OA
BRANCH  34  35
ATOM     35  C   UNL A   1      37.671  32.516  34.014  1.00  0.00     0.338 C 
ATOM     36  O   UNL A   1      37.200  32.075  35.070  1.00  0.00    -0.246 OA
BRANCH  35  37
ATOM     37  C   UNL A   1      38.056  31.673  32.893  1.00  0.00     0.060 A 
ATOM     38  C   UNL A   1      37.581  30.362  32.918  1.00  0.00     0.016 A 
ATOM     39  C   UNL A   1      39.120  32.078  32.068  1.00  0.00     0.016 A 
ATOM     40  C   UNL A   1      38.351  29.398  32.321  1.00  0.00     0.010 A 
ATOM     41  C   UNL A   1      39.894  31.111  31.484  1.00  0.00     0.010 A 
ATOM     42  C   UNL A   1      39.551  29.784  31.712  1.00  0.00    -0.014 A 
BRANCH  42  43
ATOM     43  C   UNL A   1      40.441  28.732  31.292  1.00  0.00     0.031 A 
ATOM     44  C   UNL A   1      41.296  28.249  32.383  1.00  0.00     0.074 A 
ATOM     45  C   UNL A   1      40.445  28.237  30.043  1.00  0.00     0.049 A 
ATOM     46  N   UNL A   1      42.551  28.490  32.549  1.00  0.00    -0.248 NA
ATOM     47  C   UNL A   1      40.641  27.571  33.511  1.00  0.00     0.031 C 
ATOM     48  C   UNL A   1      39.436  28.444  28.998  1.00  0.00     0.029 A 
ATOM     49  N   UNL A   1      41.305  27.347  29.480  1.00  0.00    -0.354 N 
ATOM     50  C   UNL A   1      42.897  27.792  33.694  1.00  0.00     0.074 A 
ATOM     51  C   UNL A   1      41.666  27.434  34.351  1.00  0.00     0.031 C 
ATOM     52  C   UNL A   1      39.616  27.519  28.026  1.00  0.00     0.029 A 
ATOM     53  C   UNL A   1      40.833  26.777  28.308  1.00  0.00     0.049 A 
ATOM     54  H   UNL A   1      42.182  27.129  29.868  1.00  0.00     0.167 HD
ATOM     55  C   UNL A   1      44.143  27.264  33.821  1.00  0.00     0.031 A 
ATOM     56  C   UNL A   1      41.385  25.724  27.662  1.00  0.00     0.031 A 
ATOM     57  C   UNL A   1      45.056  27.807  32.850  1.00  0.00     0.049 A 
ATOM     58  C   UNL A   1      42.807  25.638  28.060  1.00  0.00     0.074 A 
ATOM     59  C   UNL A   1      45.772  28.971  32.680  1.00  0.00     0.029 A 
ATOM     60  N   UNL A   1      45.007  27.176  31.634  1.00  0.00    -0.354 N 
ATOM     61  N   UNL A   1      43.693  26.540  27.748  1.00  0.00    -0.248 NA
ATOM     62  C   UNL A   1      43.216  24.698  29.099  1.00  0.00     0.031 C 
ATOM     63  C   UNL A   1      46.024  29.085  31.278  1.00  0.00     0.029 A 
ATOM     64  C   UNL A   1      45.478  27.979  30.630  1.00  0.00     0.049 A 
ATOM     65  H   UNL A   1      44.674  26.258  31.500  1.00  0.00     0.167 HD
ATOM     66  C   UNL A   1      44.560  26.554  28.823  1.00  0.00     0.074 A 
ATOM     67  C   UNL A   1      44.337  25.292  29.515  1.00  0.00     0.031 C 
ATOM     68  C   UNL A   1      45.135  27.716  29.247  1.00  0.00     0.031 A 
BRANCH  55  69
ATOM     69  C   UNL A   1      44.383  25.906  34.434  1.00  0.00    -0.014 A 
ATOM     70  C   UNL A   1      43.847  24.779  33.795  1.00  0.00     0.009 A 
ATOM     71  C   UNL A   1      44.858  25.725  35.749  1.00  0.00     0.009 A 
ATOM     72  C   UNL A   1      43.763  23.544  34.451  1.00  0.00     0.001 A 
ATOM     73  C   UNL A   1      44.811  24.486  36.393  1.00  0.00     0.001 A 
ATOM     74  C   UNL A   1      44.244  23.399  35.749  1.00  0.00     0.000 A 
ENDBRANCH  55  69
BRANCH  56  75
ATOM     75  C   UNL A   1      40.703  24.616  26.963  1.00  0.00    -0.014 A 
ATOM     76  C   UNL A   1      41.379  23.405  26.739  1.00  0.00     0.009 A 
ATOM     77  C   UNL A   1      39.307  24.632  26.797  1.00  0.00     0.009 A 
ATOM     78  C   UNL A   1      40.672  22.237  26.432  1.00  0.00     0.001 A 
ATOM     79  C   UNL A   1      38.604  23.466  26.483  1.00  0.00     0.001 A 
ATOM     80  C   UNL A   1      39.284  22.263  26.324  1.00  0.00     0.000 A 
ENDBRANCH  56  75
BRANCH  68  81
ATOM     81  C   UNL A   1      45.239  28.841  28.257  1.00  0.00    -0.014 A 
ATOM     82  C   UNL A   1      44.274  29.851  28.124  1.00  0.00     0.009 A 
ATOM     83  C   UNL A   1      46.393  28.908  27.463  1.00  0.00     0.009 A 
ATOM     84  C   UNL A   1      44.451  30.886  27.199  1.00  0.00     0.001 A 
ATOM     85  C   UNL A   1      46.580  29.952  26.557  1.00  0.00     0.001 A 
ATOM     86  C   UNL A   1      45.605  30.937  26.419  1.00  0.00     0.000 A 
ENDBRANCH  68  81
ENDBRANCH  42  43
ENDBRANCH  35  37
ENDBRANCH  34  35
ENDBRANCH  33  34
ENDBRANCH  32  33
ENDBRANCH  31  32
ENDBRANCH  30  31
ENDBRANCH   1  30
TORSDOF 21
ENDMDL
