MODEL 1
REMARK VINA RESULT:      -9.8      0.000      0.000
REMARK SMILES COc1cccc([C@H]2C=C(C(=O)OCCOCCOCCOCCOC(=O)c3ccc(-c4c5nc(c(-c6ccccc6)c6ccc([nH]6)c(-c6ccccc6)c6nc(c(-c7ccccc7)c7ccc4[nH]7)C=C6)C=C5)cc3)Nc3nnnn32)c1OC
REMARK SMILES IDX 19 1 18 2 17 3 16 4 15 5 14 6 13 7 11 8 12 9 10 10 8 11 9 12
REMARK SMILES IDX 81 13 77 14 80 15 76 16 78 17 79 18 7 20 3 21 4 22 82 23
REMARK SMILES IDX 5 24 6 25 2 26 1 27 83 28 84 29 20 30 21 31 22 32 23 33
REMARK SMILES IDX 24 34 25 35 26 36 27 37 28 38 29 39 75 40 30 41 74 42 31 43
REMARK SMILES IDX 32 44 33 45 68 46 34 47 73 48 67 49 69 50 35 51 72 52 66 53
REMARK SMILES IDX 65 54 36 56 58 57 43 58 57 59 44 60 47 61 56 62 70 63 45 64
REMARK SMILES IDX 46 65 55 67 71 68 48 69 37 70 38 71 42 72 39 73 41 74 40 75
REMARK SMILES IDX 59 76 60 77 64 78 61 79 63 80 62 81 49 82 50 83 54 84 51 85
REMARK SMILES IDX 53 86 52 87
REMARK H PARENT 76 19 69 55 47 66
REMARK Flexibility Score: inf
ROOT
ATOM      1  O   UNL A   1      33.748  34.584  28.518  1.00  0.00    -0.377 OA
ENDROOT
BRANCH   1   2
ATOM      2  C   UNL A   1      33.650  33.180  28.338  1.00  0.00     0.188 C 
BRANCH   2   3
ATOM      3  C   UNL A   1      34.866  32.386  28.856  1.00  0.00     0.188 C 
BRANCH   3   4
ATOM      4  O   UNL A   1      35.186  31.265  28.053  1.00  0.00    -0.376 OA
BRANCH   4   5
ATOM      5  C   UNL A   1      34.190  30.482  27.425  1.00  0.00     0.202 C 
BRANCH   5   6
ATOM      6  C   UNL A   1      34.473  29.317  26.452  1.00  0.00     0.261 C 
BRANCH   6   7
ATOM      7  O   UNL A   1      33.996  28.020  26.804  1.00  0.00    -0.459 OA
BRANCH   7   8
ATOM      8  C   UNL A   1      32.774  27.684  26.349  1.00  0.00     0.354 C 
ATOM      9  O   UNL A   1      31.711  28.175  26.698  1.00  0.00    -0.244 OA
BRANCH   8  10
ATOM     10  C   UNL A   1      32.899  26.778  25.155  1.00  0.00     0.126 C 
ATOM     11  C   UNL A   1      32.584  24.620  23.912  1.00  0.00     0.172 C 
ATOM     12  C   UNL A   1      32.484  25.492  25.166  1.00  0.00     0.039 C 
ATOM     13  N   UNL A   1      32.995  25.426  22.757  1.00  0.00    -0.200 N 
ATOM     14  C   UNL A   1      33.479  26.705  22.837  1.00  0.00     0.248 A 
ATOM     15  N   UNL A   1      32.763  25.115  21.468  1.00  0.00    -0.043 NA
ATOM     16  N   UNL A   1      33.474  27.335  24.024  1.00  0.00    -0.317 N 
ATOM     17  N   UNL A   1      33.778  27.107  21.626  1.00  0.00    -0.090 NA
ATOM     18  N   UNL A   1      33.328  26.108  20.784  1.00  0.00    -0.022 NA
ATOM     19  H   UNL A   1      33.893  28.223  24.093  1.00  0.00     0.170 HD
BRANCH  11  20
ATOM     20  C   UNL A   1      33.358  23.292  24.104  1.00  0.00     0.027 A 
ATOM     21  C   UNL A   1      33.676  21.135  25.217  1.00  0.00     0.161 A 
ATOM     22  C   UNL A   1      35.046  21.183  24.947  1.00  0.00     0.050 A 
ATOM     23  C   UNL A   1      32.816  22.137  24.726  1.00  0.00     0.166 A 
ATOM     24  C   UNL A   1      35.570  22.237  24.204  1.00  0.00     0.004 A 
ATOM     25  C   UNL A   1      34.744  23.296  23.823  1.00  0.00     0.010 A 
BRANCH  21  26
ATOM     26  O   UNL A   1      33.260  20.234  26.163  1.00  0.00    -0.493 OA
ATOM     27  C   UNL A   1      33.160  18.898  25.687  1.00  0.00     0.278 C 
ENDBRANCH  21  26
BRANCH  23  28
ATOM     28  O   UNL A   1      31.452  22.044  24.697  1.00  0.00    -0.492 OA
ATOM     29  C   UNL A   1      30.702  22.251  25.884  1.00  0.00     0.278 C 
ENDBRANCH  23  28
ENDBRANCH  11  20
ENDBRANCH   8  10
ENDBRANCH   7   8
ENDBRANCH   6   7
ENDBRANCH   5   6
ENDBRANCH   4   5
ENDBRANCH   3   4
ENDBRANCH   2   3
ENDBRANCH   1   2
BRANCH   1  30
ATOM     30  C   UNL A   1      33.224  35.160  29.717  1.00  0.00     0.188 C 
BRANCH  30  31
ATOM     31  C   UNL A   1      33.935  35.046  31.090  1.00  0.00     0.188 C 
BRANCH  31  32
ATOM     32  O   UNL A   1      33.725  33.822  31.776  1.00  0.00    -0.376 OA
BRANCH  32  33
ATOM     33  C   UNL A   1      33.984  33.769  33.167  1.00  0.00     0.202 C 
BRANCH  33  34
ATOM     34  C   UNL A   1      35.226  34.523  33.660  1.00  0.00     0.261 C 
BRANCH  34  35
ATOM     35  O   UNL A   1      36.487  33.998  33.217  1.00  0.00    -0.460 OA
BRANCH  35  36
ATOM     36  C   UNL A   1      36.962  32.921  33.873  1.00  0.00     0.338 C 
ATOM     37  O   UNL A   1      36.673  32.557  35.005  1.00  0.00    -0.246 OA
BRANCH  36  38
ATOM     38  C   UNL A   1      37.766  32.128  32.925  1.00  0.00     0.060 A 
ATOM     39  C   UNL A   1      38.814  31.342  33.421  1.00  0.00     0.016 A 
ATOM     40  C   UNL A   1      37.492  32.164  31.556  1.00  0.00     0.016 A 
ATOM     41  C   UNL A   1      39.624  30.628  32.541  1.00  0.00     0.010 A 
ATOM     42  C   UNL A   1      38.316  31.460  30.673  1.00  0.00     0.010 A 
ATOM     43  C   UNL A   1      39.411  30.725  31.159  1.00  0.00    -0.014 A 
BRANCH  43  44
ATOM     44  C   UNL A   1      40.451  30.224  30.229  1.00  0.00     0.031 A 
ATOM     45  C   UNL A   1      41.664  31.081  29.981  1.00  0.00     0.074 A 
ATOM     46  C   UNL A   1      40.356  29.011  29.658  1.00  0.00     0.049 A 
ATOM     47  N   UNL A   1      42.714  30.843  29.237  1.00  0.00    -0.248 NA
ATOM     48  C   UNL A   1      41.695  32.382  30.669  1.00  0.00     0.031 C 
ATOM     49  C   UNL A   1      39.262  28.063  29.859  1.00  0.00     0.029 A 
ATOM     50  N   UNL A   1      41.210  28.366  28.799  1.00  0.00    -0.354 N 
ATOM     51  C   UNL A   1      43.528  31.962  29.368  1.00  0.00     0.074 A 
ATOM     52  C   UNL A   1      42.831  32.897  30.224  1.00  0.00     0.031 C 
ATOM     53  C   UNL A   1      39.517  26.950  29.150  1.00  0.00     0.029 A 
ATOM     54  C   UNL A   1      40.775  27.120  28.423  1.00  0.00     0.049 A 
ATOM     55  H   UNL A   1      42.056  28.760  28.484  1.00  0.00     0.167 HD
ATOM     56  C   UNL A   1      44.752  32.190  28.835  1.00  0.00     0.031 A 
ATOM     57  C   UNL A   1      41.325  26.225  27.581  1.00  0.00     0.031 A 
ATOM     58  C   UNL A   1      45.435  31.276  27.959  1.00  0.00     0.049 A 
ATOM     59  C   UNL A   1      42.641  26.543  26.919  1.00  0.00     0.074 A 
ATOM     60  C   UNL A   1      46.676  31.414  27.362  1.00  0.00     0.029 A 
ATOM     61  N   UNL A   1      44.927  30.053  27.546  1.00  0.00    -0.354 N 
ATOM     62  N   UNL A   1      43.410  27.595  27.065  1.00  0.00    -0.248 NA
ATOM     63  C   UNL A   1      43.168  25.538  25.986  1.00  0.00     0.031 C 
ATOM     64  C   UNL A   1      46.889  30.305  26.537  1.00  0.00     0.029 A 
ATOM     65  C   UNL A   1      45.817  29.439  26.680  1.00  0.00     0.049 A 
ATOM     66  H   UNL A   1      44.061  29.677  27.827  1.00  0.00     0.167 HD
ATOM     67  C   UNL A   1      44.529  27.361  26.273  1.00  0.00     0.074 A 
ATOM     68  C   UNL A   1      44.342  26.060  25.664  1.00  0.00     0.031 C 
ATOM     69  C   UNL A   1      45.617  28.147  26.073  1.00  0.00     0.031 A 
BRANCH  56  70
ATOM     70  C   UNL A   1      45.406  33.507  29.160  1.00  0.00    -0.014 A 
ATOM     71  C   UNL A   1      46.186  33.674  30.317  1.00  0.00     0.009 A 
ATOM     72  C   UNL A   1      45.240  34.598  28.294  1.00  0.00     0.009 A 
ATOM     73  C   UNL A   1      46.747  34.916  30.621  1.00  0.00     0.001 A 
ATOM     74  C   UNL A   1      45.831  35.830  28.582  1.00  0.00     0.001 A 
ATOM     75  C   UNL A   1      46.571  35.992  29.752  1.00  0.00     0.000 A 
ENDBRANCH  56  70
BRANCH  57  76
ATOM     76  C   UNL A   1      40.641  24.931  27.310  1.00  0.00    -0.014 A 
ATOM     77  C   UNL A   1      41.146  23.731  27.833  1.00  0.00     0.009 A 
ATOM     78  C   UNL A   1      39.493  24.888  26.504  1.00  0.00     0.009 A 
ATOM     79  C   UNL A   1      40.532  22.513  27.533  1.00  0.00     0.001 A 
ATOM     80  C   UNL A   1      38.862  23.672  26.231  1.00  0.00     0.001 A 
ATOM     81  C   UNL A   1      39.388  22.485  26.736  1.00  0.00     0.000 A 
ENDBRANCH  57  76
BRANCH  69  82
ATOM     82  C   UNL A   1      46.711  27.597  25.196  1.00  0.00    -0.014 A 
ATOM     83  C   UNL A   1      46.870  28.011  23.865  1.00  0.00     0.009 A 
ATOM     84  C   UNL A   1      47.609  26.654  25.723  1.00  0.00     0.009 A 
ATOM     85  C   UNL A   1      47.871  27.452  23.065  1.00  0.00     0.001 A 
ATOM     86  C   UNL A   1      48.631  26.126  24.933  1.00  0.00     0.001 A 
ATOM     87  C   UNL A   1      48.752  26.513  23.600  1.00  0.00     0.000 A 
ENDBRANCH  69  82
ENDBRANCH  43  44
ENDBRANCH  36  38
ENDBRANCH  35  36
ENDBRANCH  34  35
ENDBRANCH  33  34
ENDBRANCH  32  33
ENDBRANCH  31  32
ENDBRANCH  30  31
ENDBRANCH   1  30
TORSDOF 23
ENDMDL
MODEL 2
REMARK VINA RESULT:      -9.5      2.133      3.626
REMARK SMILES COc1cccc([C@H]2C=C(C(=O)OCCOCCOCCOCCOC(=O)c3ccc(-c4c5nc(c(-c6ccccc6)c6ccc([nH]6)c(-c6ccccc6)c6nc(c(-c7ccccc7)c7ccc4[nH]7)C=C6)C=C5)cc3)Nc3nnnn32)c1OC
REMARK SMILES IDX 19 1 18 2 17 3 16 4 15 5 14 6 13 7 11 8 12 9 10 10 8 11 9 12
REMARK SMILES IDX 81 13 77 14 80 15 76 16 78 17 79 18 7 20 3 21 4 22 82 23
REMARK SMILES IDX 5 24 6 25 2 26 1 27 83 28 84 29 20 30 21 31 22 32 23 33
REMARK SMILES IDX 24 34 25 35 26 36 27 37 28 38 29 39 75 40 30 41 74 42 31 43
REMARK SMILES IDX 32 44 33 45 68 46 34 47 73 48 67 49 69 50 35 51 72 52 66 53
REMARK SMILES IDX 65 54 36 56 58 57 43 58 57 59 44 60 47 61 56 62 70 63 45 64
REMARK SMILES IDX 46 65 55 67 71 68 48 69 37 70 38 71 42 72 39 73 41 74 40 75
REMARK SMILES IDX 59 76 60 77 64 78 61 79 63 80 62 81 49 82 50 83 54 84 51 85
REMARK SMILES IDX 53 86 52 87
REMARK H PARENT 76 19 69 55 47 66
REMARK Flexibility Score: inf
ROOT
ATOM      1  O   UNL A   1      33.808  34.378  28.499  1.00  0.00    -0.377 OA
ENDROOT
BRANCH   1   2
ATOM      2  C   UNL A   1      33.788  32.962  28.409  1.00  0.00     0.188 C 
BRANCH   2   3
ATOM      3  C   UNL A   1      35.181  32.303  28.461  1.00  0.00     0.188 C 
BRANCH   3   4
ATOM      4  O   UNL A   1      35.328  31.232  27.546  1.00  0.00    -0.376 OA
BRANCH   4   5
ATOM      5  C   UNL A   1      34.240  30.412  27.167  1.00  0.00     0.202 C 
BRANCH   5   6
ATOM      6  C   UNL A   1      34.342  29.204  26.213  1.00  0.00     0.261 C 
BRANCH   6   7
ATOM      7  O   UNL A   1      33.952  27.924  26.707  1.00  0.00    -0.459 OA
BRANCH   7   8
ATOM      8  C   UNL A   1      32.659  27.784  27.059  1.00  0.00     0.354 C 
ATOM      9  O   UNL A   1      32.097  28.345  27.988  1.00  0.00    -0.244 OA
BRANCH   8  10
ATOM     10  C   UNL A   1      31.917  27.019  25.999  1.00  0.00     0.126 C 
ATOM     11  C   UNL A   1      30.710  26.781  23.810  1.00  0.00     0.172 C 
ATOM     12  C   UNL A   1      31.415  27.606  24.890  1.00  0.00     0.039 C 
ATOM     13  N   UNL A   1      30.843  25.347  24.091  1.00  0.00    -0.200 N 
ATOM     14  C   UNL A   1      31.292  24.828  25.276  1.00  0.00     0.248 A 
ATOM     15  N   UNL A   1      30.749  24.363  23.177  1.00  0.00    -0.043 NA
ATOM     16  N   UNL A   1      31.766  25.660  26.218  1.00  0.00    -0.317 N 
ATOM     17  N   UNL A   1      31.250  23.520  25.193  1.00  0.00    -0.090 NA
ATOM     18  N   UNL A   1      30.909  23.245  23.882  1.00  0.00    -0.022 NA
ATOM     19  H   UNL A   1      32.014  25.291  27.097  1.00  0.00     0.170 HD
BRANCH  11  20
ATOM     20  C   UNL A   1      29.280  27.259  23.457  1.00  0.00     0.027 A 
ATOM     21  C   UNL A   1      27.715  28.997  22.733  1.00  0.00     0.161 A 
ATOM     22  C   UNL A   1      26.675  28.363  23.417  1.00  0.00     0.050 A 
ATOM     23  C   UNL A   1      28.994  28.409  22.676  1.00  0.00     0.166 A 
ATOM     24  C   UNL A   1      26.905  27.152  24.063  1.00  0.00     0.004 A 
ATOM     25  C   UNL A   1      28.199  26.628  24.116  1.00  0.00     0.010 A 
BRANCH  21  26
ATOM     26  O   UNL A   1      27.506  30.296  22.348  1.00  0.00    -0.493 OA
ATOM     27  C   UNL A   1      27.543  31.231  23.418  1.00  0.00     0.278 C 
ENDBRANCH  21  26
BRANCH  23  28
ATOM     28  O   UNL A   1      29.990  28.797  21.823  1.00  0.00    -0.492 OA
ATOM     29  C   UNL A   1      30.795  29.922  22.137  1.00  0.00     0.278 C 
ENDBRANCH  23  28
ENDBRANCH  11  20
ENDBRANCH   8  10
ENDBRANCH   7   8
ENDBRANCH   6   7
ENDBRANCH   5   6
ENDBRANCH   4   5
ENDBRANCH   3   4
ENDBRANCH   2   3
ENDBRANCH   1   2
BRANCH   1  30
ATOM     30  C   UNL A   1      33.301  34.997  29.684  1.00  0.00     0.188 C 
BRANCH  30  31
ATOM     31  C   UNL A   1      34.044  34.953  31.044  1.00  0.00     0.188 C 
BRANCH  31  32
ATOM     32  O   UNL A   1      33.824  33.781  31.812  1.00  0.00    -0.376 OA
BRANCH  32  33
ATOM     33  C   UNL A   1      34.023  33.839  33.213  1.00  0.00     0.202 C 
BRANCH  33  34
ATOM     34  C   UNL A   1      35.206  34.685  33.701  1.00  0.00     0.261 C 
BRANCH  34  35
ATOM     35  O   UNL A   1      36.506  34.224  33.302  1.00  0.00    -0.460 OA
BRANCH  35  36
ATOM     36  C   UNL A   1      36.981  33.129  33.926  1.00  0.00     0.338 C 
ATOM     37  O   UNL A   1      36.689  32.729  35.045  1.00  0.00    -0.246 OA
BRANCH  36  38
ATOM     38  C   UNL A   1      37.791  32.368  32.957  1.00  0.00     0.060 A 
ATOM     39  C   UNL A   1      38.745  31.462  33.438  1.00  0.00     0.016 A 
ATOM     40  C   UNL A   1      37.615  32.550  31.583  1.00  0.00     0.016 A 
ATOM     41  C   UNL A   1      39.562  30.772  32.544  1.00  0.00     0.010 A 
ATOM     42  C   UNL A   1      38.447  31.870  30.689  1.00  0.00     0.010 A 
ATOM     43  C   UNL A   1      39.452  31.012  31.167  1.00  0.00    -0.014 A 
BRANCH  43  44
ATOM     44  C   UNL A   1      40.516  30.521  30.260  1.00  0.00     0.031 A 
ATOM     45  C   UNL A   1      41.712  31.402  30.014  1.00  0.00     0.074 A 
ATOM     46  C   UNL A   1      40.457  29.298  29.707  1.00  0.00     0.049 A 
ATOM     47  N   UNL A   1      42.777  31.178  29.288  1.00  0.00    -0.248 NA
ATOM     48  C   UNL A   1      41.703  32.715  30.682  1.00  0.00     0.031 C 
ATOM     49  C   UNL A   1      39.382  28.327  29.908  1.00  0.00     0.029 A 
ATOM     50  N   UNL A   1      41.337  28.660  28.870  1.00  0.00    -0.354 N 
ATOM     51  C   UNL A   1      43.563  32.317  29.412  1.00  0.00     0.074 A 
ATOM     52  C   UNL A   1      42.833  33.249  30.244  1.00  0.00     0.031 C 
ATOM     53  C   UNL A   1      39.673  27.210  29.220  1.00  0.00     0.029 A 
ATOM     54  C   UNL A   1      40.936  27.398  28.507  1.00  0.00     0.049 A 
ATOM     55  H   UNL A   1      42.177  29.068  28.559  1.00  0.00     0.167 HD
ATOM     56  C   UNL A   1      44.788  32.566  28.892  1.00  0.00     0.031 A 
ATOM     57  C   UNL A   1      41.518  26.503  27.687  1.00  0.00     0.031 A 
ATOM     58  C   UNL A   1      45.504  31.654  28.040  1.00  0.00     0.049 A 
ATOM     59  C   UNL A   1      42.835  26.842  27.038  1.00  0.00     0.074 A 
ATOM     60  C   UNL A   1      46.749  31.812  27.457  1.00  0.00     0.029 A 
ATOM     61  N   UNL A   1      45.030  30.414  27.639  1.00  0.00    -0.354 N 
ATOM     62  N   UNL A   1      43.578  27.914  27.177  1.00  0.00    -0.248 NA
ATOM     63  C   UNL A   1      43.398  25.835  26.128  1.00  0.00     0.031 C 
ATOM     64  C   UNL A   1      47.000  30.696  26.652  1.00  0.00     0.029 A 
ATOM     65  C   UNL A   1      45.946  29.808  26.795  1.00  0.00     0.049 A 
ATOM     66  H   UNL A   1      44.170  30.022  27.914  1.00  0.00     0.167 HD
ATOM     67  C   UNL A   1      44.713  27.694  26.404  1.00  0.00     0.074 A 
ATOM     68  C   UNL A   1      44.564  26.379  25.814  1.00  0.00     0.031 C 
ATOM     69  C   UNL A   1      45.784  28.502  26.206  1.00  0.00     0.031 A 
BRANCH  56  70
ATOM     70  C   UNL A   1      45.407  33.903  29.205  1.00  0.00    -0.014 A 
ATOM     71  C   UNL A   1      46.234  34.085  30.326  1.00  0.00     0.009 A 
ATOM     72  C   UNL A   1      45.160  34.997  28.362  1.00  0.00     0.009 A 
ATOM     73  C   UNL A   1      46.761  35.343  30.621  1.00  0.00     0.001 A 
ATOM     74  C   UNL A   1      45.717  36.247  28.640  1.00  0.00     0.001 A 
ATOM     75  C   UNL A   1      46.505  36.423  29.777  1.00  0.00     0.000 A 
ENDBRANCH  56  70
BRANCH  57  76
ATOM     76  C   UNL A   1      40.868  25.190  27.428  1.00  0.00    -0.014 A 
ATOM     77  C   UNL A   1      39.753  25.098  26.581  1.00  0.00     0.009 A 
ATOM     78  C   UNL A   1      41.343  24.025  28.051  1.00  0.00     0.009 A 
ATOM     79  C   UNL A   1      39.112  23.873  26.383  1.00  0.00     0.001 A 
ATOM     80  C   UNL A   1      40.719  22.795  27.826  1.00  0.00     0.001 A 
ATOM     81  C   UNL A   1      39.598  22.722  27.001  1.00  0.00     0.000 A 
ENDBRANCH  57  76
BRANCH  69  82
ATOM     82  C   UNL A   1      46.903  27.964  25.353  1.00  0.00    -0.014 A 
ATOM     83  C   UNL A   1      48.053  27.390  25.917  1.00  0.00     0.009 A 
ATOM     84  C   UNL A   1      46.794  28.022  23.953  1.00  0.00     0.009 A 
ATOM     85  C   UNL A   1      49.092  26.937  25.099  1.00  0.00     0.001 A 
ATOM     86  C   UNL A   1      47.816  27.533  23.139  1.00  0.00     0.001 A 
ATOM     87  C   UNL A   1      48.971  27.005  23.712  1.00  0.00     0.000 A 
ENDBRANCH  69  82
ENDBRANCH  43  44
ENDBRANCH  36  38
ENDBRANCH  35  36
ENDBRANCH  34  35
ENDBRANCH  33  34
ENDBRANCH  32  33
ENDBRANCH  31  32
ENDBRANCH  30  31
ENDBRANCH   1  30
TORSDOF 23
ENDMDL
MODEL 3
REMARK VINA RESULT:      -8.8      4.638      9.794
REMARK SMILES COc1cccc([C@H]2C=C(C(=O)OCCOCCOCCOCCOC(=O)c3ccc(-c4c5nc(c(-c6ccccc6)c6ccc([nH]6)c(-c6ccccc6)c6nc(c(-c7ccccc7)c7ccc4[nH]7)C=C6)C=C5)cc3)Nc3nnnn32)c1OC
REMARK SMILES IDX 19 1 18 2 17 3 16 4 15 5 14 6 13 7 11 8 12 9 10 10 8 11 9 12
REMARK SMILES IDX 81 13 77 14 80 15 76 16 78 17 79 18 7 20 3 21 4 22 82 23
REMARK SMILES IDX 5 24 6 25 2 26 1 27 83 28 84 29 20 30 21 31 22 32 23 33
REMARK SMILES IDX 24 34 25 35 26 36 27 37 28 38 29 39 75 40 30 41 74 42 31 43
REMARK SMILES IDX 32 44 33 45 68 46 34 47 73 48 67 49 69 50 35 51 72 52 66 53
REMARK SMILES IDX 65 54 36 56 58 57 43 58 57 59 44 60 47 61 56 62 70 63 45 64
REMARK SMILES IDX 46 65 55 67 71 68 48 69 37 70 38 71 42 72 39 73 41 74 40 75
REMARK SMILES IDX 59 76 60 77 64 78 61 79 63 80 62 81 49 82 50 83 54 84 51 85
REMARK SMILES IDX 53 86 52 87
REMARK H PARENT 76 19 69 55 47 66
REMARK Flexibility Score: inf
ROOT
ATOM      1  O   UNL A   1      38.561  27.862  28.347  1.00  0.00    -0.377 OA
ENDROOT
BRANCH   1   2
ATOM      2  C   UNL A   1      38.443  28.679  29.501  1.00  0.00     0.188 C 
BRANCH   2   3
ATOM      3  C   UNL A   1      37.052  29.317  29.689  1.00  0.00     0.188 C 
BRANCH   3   4
ATOM      4  O   UNL A   1      36.687  30.186  28.633  1.00  0.00    -0.376 OA
BRANCH   4   5
ATOM      5  C   UNL A   1      35.563  31.041  28.717  1.00  0.00     0.202 C 
BRANCH   5   6
ATOM      6  C   UNL A   1      34.500  31.206  27.610  1.00  0.00     0.261 C 
BRANCH   6   7
ATOM      7  O   UNL A   1      33.350  30.364  27.655  1.00  0.00    -0.459 OA
BRANCH   7   8
ATOM      8  C   UNL A   1      32.315  30.718  26.868  1.00  0.00     0.354 C 
ATOM      9  O   UNL A   1      31.869  31.847  26.723  1.00  0.00    -0.244 OA
BRANCH   8  10
ATOM     10  C   UNL A   1      31.920  29.566  25.986  1.00  0.00     0.126 C 
ATOM     11  C   UNL A   1      31.383  27.159  25.516  1.00  0.00     0.172 C 
ATOM     12  C   UNL A   1      31.839  28.295  26.436  1.00  0.00     0.039 C 
ATOM     13  N   UNL A   1      30.911  27.695  24.235  1.00  0.00    -0.200 N 
ATOM     14  C   UNL A   1      31.100  28.986  23.817  1.00  0.00     0.248 A 
ATOM     15  N   UNL A   1      30.061  27.073  23.397  1.00  0.00    -0.043 NA
ATOM     16  N   UNL A   1      31.641  29.876  24.666  1.00  0.00    -0.317 N 
ATOM     17  N   UNL A   1      30.584  29.108  22.619  1.00  0.00    -0.090 NA
ATOM     18  N   UNL A   1      29.942  27.911  22.369  1.00  0.00    -0.022 NA
ATOM     19  H   UNL A   1      31.847  30.781  24.337  1.00  0.00     0.170 HD
BRANCH  11  20
ATOM     20  C   UNL A   1      32.369  25.969  25.417  1.00  0.00     0.027 A 
ATOM     21  C   UNL A   1      33.503  24.034  26.397  1.00  0.00     0.161 A 
ATOM     22  C   UNL A   1      34.578  24.204  25.521  1.00  0.00     0.050 A 
ATOM     23  C   UNL A   1      32.362  24.853  26.294  1.00  0.00     0.166 A 
ATOM     24  C   UNL A   1      34.532  25.201  24.551  1.00  0.00     0.004 A 
ATOM     25  C   UNL A   1      33.460  26.096  24.526  1.00  0.00     0.010 A 
BRANCH  21  26
ATOM     26  O   UNL A   1      33.711  23.226  27.485  1.00  0.00    -0.493 OA
ATOM     27  C   UNL A   1      33.864  21.850  27.166  1.00  0.00     0.278 C 
ENDBRANCH  21  26
BRANCH  23  28
ATOM     28  O   UNL A   1      31.166  24.599  26.907  1.00  0.00    -0.492 OA
ATOM     29  C   UNL A   1      30.432  23.432  26.572  1.00  0.00     0.278 C 
ENDBRANCH  23  28
ENDBRANCH  11  20
ENDBRANCH   8  10
ENDBRANCH   7   8
ENDBRANCH   6   7
ENDBRANCH   5   6
ENDBRANCH   4   5
ENDBRANCH   3   4
ENDBRANCH   2   3
ENDBRANCH   1   2
BRANCH   1  30
ATOM     30  C   UNL A   1      39.788  27.164  28.124  1.00  0.00     0.188 C 
BRANCH  30  31
ATOM     31  C   UNL A   1      40.642  27.345  26.843  1.00  0.00     0.188 C 
BRANCH  31  32
ATOM     32  O   UNL A   1      41.270  26.165  26.366  1.00  0.00    -0.376 OA
BRANCH  32  33
ATOM     33  C   UNL A   1      42.566  25.846  26.837  1.00  0.00     0.202 C 
BRANCH  33  34
ATOM     34  C   UNL A   1      43.702  26.777  26.395  1.00  0.00     0.261 C 
BRANCH  34  35
ATOM     35  O   UNL A   1      44.215  27.655  27.409  1.00  0.00    -0.460 OA
BRANCH  35  36
ATOM     36  C   UNL A   1      43.832  28.945  27.348  1.00  0.00     0.338 C 
ATOM     37  O   UNL A   1      43.609  29.604  26.342  1.00  0.00    -0.246 OA
BRANCH  36  38
ATOM     38  C   UNL A   1      43.540  29.399  28.721  1.00  0.00     0.060 A 
ATOM     39  C   UNL A   1      42.976  28.492  29.627  1.00  0.00     0.016 A 
ATOM     40  C   UNL A   1      43.815  30.712  29.109  1.00  0.00     0.016 A 
ATOM     41  C   UNL A   1      42.638  28.912  30.912  1.00  0.00     0.010 A 
ATOM     42  C   UNL A   1      43.460  31.137  30.393  1.00  0.00     0.010 A 
ATOM     43  C   UNL A   1      42.832  30.250  31.284  1.00  0.00    -0.014 A 
BRANCH  43  44
ATOM     44  C   UNL A   1      42.192  30.756  32.521  1.00  0.00     0.031 A 
ATOM     45  C   UNL A   1      42.978  30.716  33.804  1.00  0.00     0.074 A 
ATOM     46  C   UNL A   1      40.960  31.295  32.503  1.00  0.00     0.049 A 
ATOM     47  N   UNL A   1      42.643  31.127  35.001  1.00  0.00    -0.248 NA
ATOM     48  C   UNL A   1      44.328  30.133  33.724  1.00  0.00     0.031 C 
ATOM     49  C   UNL A   1      40.117  31.444  31.318  1.00  0.00     0.029 A 
ATOM     50  N   UNL A   1      40.213  31.832  33.521  1.00  0.00    -0.354 N 
ATOM     51  C   UNL A   1      43.737  30.854  35.812  1.00  0.00     0.074 A 
ATOM     52  C   UNL A   1      44.727  30.200  34.985  1.00  0.00     0.031 C 
ATOM     53  C   UNL A   1      38.969  32.044  31.676  1.00  0.00     0.029 A 
ATOM     54  C   UNL A   1      38.984  32.293  33.118  1.00  0.00     0.049 A 
ATOM     55  H   UNL A   1      40.528  31.882  34.452  1.00  0.00     0.167 HD
ATOM     56  C   UNL A   1      43.912  31.131  37.126  1.00  0.00     0.031 A 
ATOM     57  C   UNL A   1      37.986  32.844  33.832  1.00  0.00     0.031 A 
ATOM     58  C   UNL A   1      42.917  31.754  37.959  1.00  0.00     0.049 A 
ATOM     59  C   UNL A   1      38.163  33.051  35.314  1.00  0.00     0.074 A 
ATOM     60  C   UNL A   1      42.993  32.074  39.304  1.00  0.00     0.029 A 
ATOM     61  N   UNL A   1      41.658  32.142  37.527  1.00  0.00    -0.354 N 
ATOM     62  N   UNL A   1      39.208  32.806  36.067  1.00  0.00    -0.248 NA
ATOM     63  C   UNL A   1      37.021  33.625  36.040  1.00  0.00     0.031 C 
ATOM     64  C   UNL A   1      41.757  32.596  39.698  1.00  0.00     0.029 A 
ATOM     65  C   UNL A   1      40.938  32.673  38.584  1.00  0.00     0.049 A 
ATOM     66  H   UNL A   1      41.325  32.053  36.604  1.00  0.00     0.167 HD
ATOM     67  C   UNL A   1      38.864  33.232  37.346  1.00  0.00     0.074 A 
ATOM     68  C   UNL A   1      37.520  33.765  37.259  1.00  0.00     0.031 C 
ATOM     69  C   UNL A   1      39.596  33.193  38.488  1.00  0.00     0.031 A 
BRANCH  56  70
ATOM     70  C   UNL A   1      45.220  30.717  37.746  1.00  0.00    -0.014 A 
ATOM     71  C   UNL A   1      46.239  31.651  38.001  1.00  0.00     0.009 A 
ATOM     72  C   UNL A   1      45.436  29.372  38.082  1.00  0.00     0.009 A 
ATOM     73  C   UNL A   1      47.461  31.238  38.535  1.00  0.00     0.001 A 
ATOM     74  C   UNL A   1      46.647  28.968  38.648  1.00  0.00     0.001 A 
ATOM     75  C   UNL A   1      47.663  29.898  38.861  1.00  0.00     0.000 A 
ENDBRANCH  56  70
BRANCH  57  76
ATOM     76  C   UNL A   1      36.720  33.249  33.163  1.00  0.00    -0.014 A 
ATOM     77  C   UNL A   1      36.483  34.591  32.832  1.00  0.00     0.009 A 
ATOM     78  C   UNL A   1      35.730  32.296  32.876  1.00  0.00     0.009 A 
ATOM     79  C   UNL A   1      35.271  34.976  32.252  1.00  0.00     0.001 A 
ATOM     80  C   UNL A   1      34.531  32.678  32.267  1.00  0.00     0.001 A 
ATOM     81  C   UNL A   1      34.299  34.019  31.966  1.00  0.00     0.000 A 
ENDBRANCH  57  76
BRANCH  69  82
ATOM     82  C   UNL A   1      38.975  33.788  39.724  1.00  0.00    -0.014 A 
ATOM     83  C   UNL A   1      39.132  35.144  40.051  1.00  0.00     0.009 A 
ATOM     84  C   UNL A   1      38.205  32.974  40.570  1.00  0.00     0.009 A 
ATOM     85  C   UNL A   1      38.577  35.658  41.226  1.00  0.00     0.001 A 
ATOM     86  C   UNL A   1      37.619  33.498  41.723  1.00  0.00     0.001 A 
ATOM     87  C   UNL A   1      37.819  34.836  42.059  1.00  0.00     0.000 A 
ENDBRANCH  69  82
ENDBRANCH  43  44
ENDBRANCH  36  38
ENDBRANCH  35  36
ENDBRANCH  34  35
ENDBRANCH  33  34
ENDBRANCH  32  33
ENDBRANCH  31  32
ENDBRANCH  30  31
ENDBRANCH   1  30
TORSDOF 23
ENDMDL
