MODEL 1
REMARK VINA RESULT:     -10.1      0.000      0.000
REMARK SMILES CC1(C)CCC[C@H]1NC(=O)N[C@@H]1COC[C@@]1(C)C(=O)OCCOCCOCCOCCOC(=O)c1ccc(-c2c3nc(c(-c4ccccc4)c4ccc([nH]4)c(-c4ccccc4)c4nc(c(-c5ccccc5)c5ccc2[nH]5)C=C4)C=C3)cc1
REMARK SMILES IDX 26 1 25 2 24 3 23 4 22 5 21 6 20 7 18 8 19 9 16 10 12 11
REMARK SMILES IDX 13 12 14 13 15 14 17 15 11 16 8 17 9 18 10 20 7 22 1 23 2 24
REMARK SMILES IDX 3 25 4 26 5 27 6 28 27 29 28 30 29 31 30 32 31 33 32 34
REMARK SMILES IDX 33 35 34 36 35 37 36 38 82 39 37 40 81 41 38 42 39 43 40 44
REMARK SMILES IDX 75 45 41 46 80 47 74 48 76 49 42 50 79 51 73 52 72 53 43 55
REMARK SMILES IDX 65 56 50 57 64 58 51 59 54 60 63 61 77 62 52 63 53 64 62 66
REMARK SMILES IDX 78 67 55 68 44 69 45 70 49 71 46 72 48 73 47 74 66 75 67 76
REMARK SMILES IDX 71 77 68 78 70 79 69 80 56 81 57 82 61 83 58 84 60 85 59 86
REMARK H PARENT 8 19 11 21 76 54 54 65
REMARK Flexibility Score: inf
ROOT
ATOM      1  O   UNL A   1      40.433  20.358  26.441  1.00  0.00    -0.377 OA
ENDROOT
BRANCH   1   2
ATOM      2  C   UNL A   1      40.609  21.503  27.261  1.00  0.00     0.188 C 
BRANCH   2   3
ATOM      3  C   UNL A   1      39.691  22.637  26.800  1.00  0.00     0.188 C 
BRANCH   3   4
ATOM      4  O   UNL A   1      38.492  22.229  26.140  1.00  0.00    -0.376 OA
BRANCH   4   5
ATOM      5  C   UNL A   1      37.671  23.255  25.567  1.00  0.00     0.202 C 
BRANCH   5   6
ATOM      6  C   UNL A   1      36.158  23.155  25.846  1.00  0.00     0.261 C 
BRANCH   6   7
ATOM      7  O   UNL A   1      35.403  23.510  24.675  1.00  0.00    -0.463 OA
BRANCH   7   8
ATOM      8  C   UNL A   1      34.282  24.291  24.734  1.00  0.00     0.316 C 
ATOM      9  O   UNL A   1      34.262  25.498  24.542  1.00  0.00    -0.251 OA
BRANCH   8  10
ATOM     10  C   UNL A   1      33.033  23.404  24.923  1.00  0.00     0.111 C 
ATOM     11  C   UNL A   1      31.721  23.968  24.368  1.00  0.00     0.129 C 
ATOM     12  C   UNL A   1      31.240  22.999  23.293  1.00  0.00     0.186 C 
ATOM     13  O   UNL A   1      32.068  21.842  23.335  1.00  0.00    -0.378 OA
ATOM     14  C   UNL A   1      33.253  22.147  24.075  1.00  0.00     0.181 C 
ATOM     15  C   UNL A   1      32.926  23.116  26.410  1.00  0.00     0.028 C 
BRANCH  11  16
ATOM     16  N   UNL A   1      30.655  24.325  25.336  1.00  0.00    -0.332 N 
ATOM     17  N   UNL A   1      30.434  26.661  25.865  1.00  0.00    -0.335 N 
ATOM     18  C   UNL A   1      30.097  25.371  25.950  1.00  0.00     0.315 C 
ATOM     19  H   UNL A   1      29.760  27.229  26.306  1.00  0.00     0.165 HD
ATOM     20  O   UNL A   1      29.122  25.109  26.665  1.00  0.00    -0.249 OA
ATOM     21  H   UNL A   1      30.200  23.504  25.628  1.00  0.00     0.165 HD
BRANCH  17  22
ATOM     22  C   UNL A   1      31.518  27.476  25.304  1.00  0.00     0.089 C 
ATOM     23  C   UNL A   1      30.204  27.372  22.970  1.00  0.00     0.013 C 
ATOM     24  C   UNL A   1      31.228  28.080  23.876  1.00  0.00    -0.015 C 
ATOM     25  C   UNL A   1      32.556  28.186  23.091  1.00  0.00     0.013 C 
ATOM     26  C   UNL A   1      30.688  29.481  24.192  1.00  0.00     0.008 C 
ATOM     27  C   UNL A   1      31.516  29.951  25.371  1.00  0.00     0.003 C 
ATOM     28  C   UNL A   1      31.761  28.700  26.212  1.00  0.00     0.025 C 
ENDBRANCH  17  22
ENDBRANCH  11  16
ENDBRANCH   8  10
ENDBRANCH   7   8
ENDBRANCH   6   7
ENDBRANCH   5   6
ENDBRANCH   4   5
ENDBRANCH   3   4
ENDBRANCH   2   3
ENDBRANCH   1   2
BRANCH   1  29
ATOM     29  C   UNL A   1      41.554  19.552  26.097  1.00  0.00     0.188 C 
BRANCH  29  30
ATOM     30  C   UNL A   1      42.921  20.235  26.125  1.00  0.00     0.188 C 
BRANCH  30  31
ATOM     31  O   UNL A   1      43.532  20.532  24.865  1.00  0.00    -0.376 OA
BRANCH  31  32
ATOM     32  C   UNL A   1      44.653  21.413  24.822  1.00  0.00     0.202 C 
BRANCH  32  33
ATOM     33  C   UNL A   1      44.434  22.706  24.039  1.00  0.00     0.261 C 
BRANCH  33  34
ATOM     34  O   UNL A   1      43.605  23.620  24.770  1.00  0.00    -0.460 OA
BRANCH  34  35
ATOM     35  C   UNL A   1      44.220  24.768  25.134  1.00  0.00     0.338 C 
ATOM     36  O   UNL A   1      45.292  25.194  24.748  1.00  0.00    -0.246 OA
BRANCH  35  37
ATOM     37  C   UNL A   1      43.315  25.549  25.991  1.00  0.00     0.060 A 
ATOM     38  C   UNL A   1      43.474  26.940  26.011  1.00  0.00     0.016 A 
ATOM     39  C   UNL A   1      42.407  24.915  26.841  1.00  0.00     0.016 A 
ATOM     40  C   UNL A   1      42.784  27.699  26.945  1.00  0.00     0.010 A 
ATOM     41  C   UNL A   1      41.723  25.675  27.788  1.00  0.00     0.010 A 
ATOM     42  C   UNL A   1      41.962  27.057  27.878  1.00  0.00    -0.014 A 
BRANCH  42  43
ATOM     43  C   UNL A   1      41.563  27.804  29.089  1.00  0.00     0.031 A 
ATOM     44  C   UNL A   1      40.288  28.601  29.042  1.00  0.00     0.074 A 
ATOM     45  C   UNL A   1      42.280  27.707  30.218  1.00  0.00     0.049 A 
ATOM     46  N   UNL A   1      39.722  29.317  29.979  1.00  0.00    -0.248 NA
ATOM     47  C   UNL A   1      39.550  28.589  27.766  1.00  0.00     0.031 C 
ATOM     48  C   UNL A   1      43.495  26.911  30.384  1.00  0.00     0.029 A 
ATOM     49  N   UNL A   1      42.076  28.279  31.446  1.00  0.00    -0.354 N 
ATOM     50  C   UNL A   1      38.572  29.844  29.404  1.00  0.00     0.074 A 
ATOM     51  C   UNL A   1      38.538  29.399  28.030  1.00  0.00     0.031 C 
ATOM     52  C   UNL A   1      43.931  27.044  31.649  1.00  0.00     0.029 A 
ATOM     53  C   UNL A   1      43.043  27.959  32.364  1.00  0.00     0.049 A 
ATOM     54  H   UNL A   1      41.310  28.863  31.649  1.00  0.00     0.167 HD
ATOM     55  C   UNL A   1      37.624  30.622  29.975  1.00  0.00     0.031 A 
ATOM     56  C   UNL A   1      43.196  28.374  33.634  1.00  0.00     0.031 A 
ATOM     57  C   UNL A   1      37.678  31.072  31.340  1.00  0.00     0.049 A 
ATOM     58  C   UNL A   1      42.171  29.307  34.221  1.00  0.00     0.074 A 
ATOM     59  C   UNL A   1      36.774  31.864  32.025  1.00  0.00     0.029 A 
ATOM     60  N   UNL A   1      38.702  30.770  32.225  1.00  0.00    -0.354 N 
ATOM     61  N   UNL A   1      41.079  29.790  33.676  1.00  0.00    -0.248 NA
ATOM     62  C   UNL A   1      42.393  29.739  35.607  1.00  0.00     0.031 C 
ATOM     63  C   UNL A   1      37.285  32.094  33.307  1.00  0.00     0.029 A 
ATOM     64  C   UNL A   1      38.467  31.382  33.445  1.00  0.00     0.049 A 
ATOM     65  H   UNL A   1      39.481  30.204  32.019  1.00  0.00     0.167 HD
ATOM     66  C   UNL A   1      40.467  30.552  34.662  1.00  0.00     0.074 A 
ATOM     67  C   UNL A   1      41.301  30.451  35.843  1.00  0.00     0.031 C 
ATOM     68  C   UNL A   1      39.316  31.269  34.603  1.00  0.00     0.031 A 
BRANCH  55  69
ATOM     69  C   UNL A   1      36.480  31.070  29.107  1.00  0.00    -0.014 A 
ATOM     70  C   UNL A   1      35.567  30.152  28.561  1.00  0.00     0.009 A 
ATOM     71  C   UNL A   1      36.306  32.437  28.839  1.00  0.00     0.009 A 
ATOM     72  C   UNL A   1      34.528  30.593  27.736  1.00  0.00     0.001 A 
ATOM     73  C   UNL A   1      35.249  32.876  28.042  1.00  0.00     0.001 A 
ATOM     74  C   UNL A   1      34.366  31.954  27.482  1.00  0.00     0.000 A 
ENDBRANCH  55  69
BRANCH  56  75
ATOM     75  C   UNL A   1      44.367  27.923  34.430  1.00  0.00    -0.014 A 
ATOM     76  C   UNL A   1      44.297  26.766  35.221  1.00  0.00     0.009 A 
ATOM     77  C   UNL A   1      45.562  28.661  34.417  1.00  0.00     0.009 A 
ATOM     78  C   UNL A   1      45.386  26.375  36.003  1.00  0.00     0.001 A 
ATOM     79  C   UNL A   1      46.660  28.250  35.173  1.00  0.00     0.001 A 
ATOM     80  C   UNL A   1      46.568  27.114  35.974  1.00  0.00     0.000 A 
ENDBRANCH  56  75
BRANCH  68  81
ATOM     81  C   UNL A   1      38.872  31.955  35.867  1.00  0.00    -0.014 A 
ATOM     82  C   UNL A   1      38.061  31.308  36.812  1.00  0.00     0.009 A 
ATOM     83  C   UNL A   1      39.297  33.270  36.122  1.00  0.00     0.009 A 
ATOM     84  C   UNL A   1      37.642  31.982  37.960  1.00  0.00     0.001 A 
ATOM     85  C   UNL A   1      38.907  33.927  37.290  1.00  0.00     0.001 A 
ATOM     86  C   UNL A   1      38.068  33.288  38.200  1.00  0.00     0.000 A 
ENDBRANCH  68  81
ENDBRANCH  42  43
ENDBRANCH  35  37
ENDBRANCH  34  35
ENDBRANCH  33  34
ENDBRANCH  32  33
ENDBRANCH  31  32
ENDBRANCH  30  31
ENDBRANCH  29  30
ENDBRANCH   1  29
TORSDOF 22
ENDMDL
MODEL 2
REMARK VINA RESULT:      -9.5      4.231      9.976
REMARK SMILES CC1(C)CCC[C@H]1NC(=O)N[C@@H]1COC[C@@]1(C)C(=O)OCCOCCOCCOCCOC(=O)c1ccc(-c2c3nc(c(-c4ccccc4)c4ccc([nH]4)c(-c4ccccc4)c4nc(c(-c5ccccc5)c5ccc2[nH]5)C=C4)C=C3)cc1
REMARK SMILES IDX 26 1 25 2 24 3 23 4 22 5 21 6 20 7 18 8 19 9 16 10 12 11
REMARK SMILES IDX 13 12 14 13 15 14 17 15 11 16 8 17 9 18 10 20 7 22 1 23 2 24
REMARK SMILES IDX 3 25 4 26 5 27 6 28 27 29 28 30 29 31 30 32 31 33 32 34
REMARK SMILES IDX 33 35 34 36 35 37 36 38 82 39 37 40 81 41 38 42 39 43 40 44
REMARK SMILES IDX 75 45 41 46 80 47 74 48 76 49 42 50 79 51 73 52 72 53 43 55
REMARK SMILES IDX 65 56 50 57 64 58 51 59 54 60 63 61 77 62 52 63 53 64 62 66
REMARK SMILES IDX 78 67 55 68 44 69 45 70 49 71 46 72 48 73 47 74 66 75 67 76
REMARK SMILES IDX 71 77 68 78 70 79 69 80 56 81 57 82 61 83 58 84 60 85 59 86
REMARK H PARENT 8 19 11 21 76 54 54 65
REMARK Flexibility Score: inf
ROOT
ATOM      1  O   UNL A   1      35.890  31.175  29.383  1.00  0.00    -0.377 OA
ENDROOT
BRANCH   1   2
ATOM      2  C   UNL A   1      35.910  29.861  28.847  1.00  0.00     0.188 C 
BRANCH   2   3
ATOM      3  C   UNL A   1      35.372  29.859  27.414  1.00  0.00     0.188 C 
BRANCH   3   4
ATOM      4  O   UNL A   1      34.284  28.968  27.166  1.00  0.00    -0.376 OA
BRANCH   4   5
ATOM      5  C   UNL A   1      32.956  29.494  27.287  1.00  0.00     0.202 C 
BRANCH   5   6
ATOM      6  C   UNL A   1      32.088  29.459  26.014  1.00  0.00     0.261 C 
BRANCH   6   7
ATOM      7  O   UNL A   1      31.503  28.158  25.837  1.00  0.00    -0.463 OA
BRANCH   7   8
ATOM      8  C   UNL A   1      31.335  27.591  24.604  1.00  0.00     0.316 C 
ATOM      9  O   UNL A   1      31.066  28.208  23.584  1.00  0.00    -0.251 OA
BRANCH   8  10
ATOM     10  C   UNL A   1      31.687  26.089  24.663  1.00  0.00     0.111 C 
ATOM     11  C   UNL A   1      30.500  25.120  24.636  1.00  0.00     0.129 C 
ATOM     12  C   UNL A   1      30.650  24.269  23.381  1.00  0.00     0.186 C 
ATOM     13  O   UNL A   1      31.923  24.546  22.804  1.00  0.00    -0.378 OA
ATOM     14  C   UNL A   1      32.430  25.759  23.364  1.00  0.00     0.181 C 
ATOM     15  C   UNL A   1      32.535  25.891  25.908  1.00  0.00     0.028 C 
BRANCH  11  16
ATOM     16  N   UNL A   1      30.240  24.310  25.851  1.00  0.00    -0.332 N 
ATOM     17  N   UNL A   1      31.672  22.409  26.193  1.00  0.00    -0.335 N 
ATOM     18  C   UNL A   1      30.680  23.242  26.519  1.00  0.00     0.315 C 
ATOM     19  H   UNL A   1      31.877  21.799  26.939  1.00  0.00     0.165 HD
ATOM     20  O   UNL A   1      30.111  23.016  27.593  1.00  0.00    -0.249 OA
ATOM     21  H   UNL A   1      29.476  24.697  26.336  1.00  0.00     0.165 HD
BRANCH  17  22
ATOM     22  C   UNL A   1      32.546  22.143  25.045  1.00  0.00     0.089 C 
ATOM     23  C   UNL A   1      34.581  22.992  26.570  1.00  0.00     0.013 C 
ATOM     24  C   UNL A   1      34.092  22.173  25.361  1.00  0.00    -0.015 C 
ATOM     25  C   UNL A   1      34.855  22.675  24.113  1.00  0.00     0.013 C 
ATOM     26  C   UNL A   1      34.423  20.698  25.624  1.00  0.00     0.008 C 
ATOM     27  C   UNL A   1      33.582  19.934  24.623  1.00  0.00     0.003 C 
ATOM     28  C   UNL A   1      32.276  20.718  24.515  1.00  0.00     0.025 C 
ENDBRANCH  17  22
ENDBRANCH  11  16
ENDBRANCH   8  10
ENDBRANCH   7   8
ENDBRANCH   6   7
ENDBRANCH   5   6
ENDBRANCH   4   5
ENDBRANCH   3   4
ENDBRANCH   2   3
ENDBRANCH   1   2
BRANCH   1  29
ATOM     29  C   UNL A   1      34.904  32.103  28.951  1.00  0.00     0.188 C 
BRANCH  29  30
ATOM     30  C   UNL A   1      35.257  33.585  29.076  1.00  0.00     0.188 C 
BRANCH  30  31
ATOM     31  O   UNL A   1      35.363  34.124  30.399  1.00  0.00    -0.376 OA
BRANCH  31  32
ATOM     32  C   UNL A   1      34.251  34.023  31.285  1.00  0.00     0.202 C 
BRANCH  32  33
ATOM     33  C   UNL A   1      34.463  33.109  32.492  1.00  0.00     0.261 C 
BRANCH  33  34
ATOM     34  O   UNL A   1      35.564  32.215  32.278  1.00  0.00    -0.460 OA
BRANCH  34  35
ATOM     35  C   UNL A   1      36.524  32.270  33.228  1.00  0.00     0.338 C 
ATOM     36  O   UNL A   1      36.378  32.325  34.434  1.00  0.00    -0.246 OA
BRANCH  35  37
ATOM     37  C   UNL A   1      37.840  32.101  32.593  1.00  0.00     0.060 A 
ATOM     38  C   UNL A   1      38.040  32.686  31.337  1.00  0.00     0.016 A 
ATOM     39  C   UNL A   1      38.817  31.288  33.173  1.00  0.00     0.016 A 
ATOM     40  C   UNL A   1      39.185  32.390  30.613  1.00  0.00     0.010 A 
ATOM     41  C   UNL A   1      39.962  30.981  32.440  1.00  0.00     0.010 A 
ATOM     42  C   UNL A   1      40.113  31.483  31.136  1.00  0.00    -0.014 A 
BRANCH  42  43
ATOM     43  C   UNL A   1      41.096  30.879  30.215  1.00  0.00     0.031 A 
ATOM     44  C   UNL A   1      42.362  31.640  29.929  1.00  0.00     0.074 A 
ATOM     45  C   UNL A   1      40.897  29.651  29.713  1.00  0.00     0.049 A 
ATOM     46  N   UNL A   1      43.378  31.308  29.175  1.00  0.00    -0.248 NA
ATOM     47  C   UNL A   1      42.501  32.954  30.581  1.00  0.00     0.031 C 
ATOM     48  C   UNL A   1      39.733  28.806  29.979  1.00  0.00     0.029 A 
ATOM     49  N   UNL A   1      41.681  28.899  28.879  1.00  0.00    -0.354 N 
ATOM     50  C   UNL A   1      44.268  32.372  29.258  1.00  0.00     0.074 A 
ATOM     51  C   UNL A   1      43.660  33.375  30.101  1.00  0.00     0.031 C 
ATOM     52  C   UNL A   1      39.882  27.644  29.319  1.00  0.00     0.029 A 
ATOM     53  C   UNL A   1      41.132  27.683  28.562  1.00  0.00     0.049 A 
ATOM     54  H   UNL A   1      42.555  29.203  28.540  1.00  0.00     0.167 HD
ATOM     55  C   UNL A   1      45.488  32.496  28.687  1.00  0.00     0.031 A 
ATOM     56  C   UNL A   1      41.586  26.721  27.739  1.00  0.00     0.031 A 
ATOM     57  C   UNL A   1      46.077  31.498  27.836  1.00  0.00     0.049 A 
ATOM     58  C   UNL A   1      42.910  26.920  27.051  1.00  0.00     0.074 A 
ATOM     59  C   UNL A   1      47.306  31.517  27.203  1.00  0.00     0.029 A 
ATOM     60  N   UNL A   1      45.466  30.300  27.495  1.00  0.00    -0.354 N 
ATOM     61  N   UNL A   1      43.752  27.922  27.145  1.00  0.00    -0.248 NA
ATOM     62  C   UNL A   1      43.352  25.844  26.155  1.00  0.00     0.031 C 
ATOM     63  C   UNL A   1      47.412  30.357  26.427  1.00  0.00     0.029 A 
ATOM     64  C   UNL A   1      46.282  29.581  26.638  1.00  0.00     0.049 A 
ATOM     65  H   UNL A   1      44.583  30.003  27.815  1.00  0.00     0.167 HD
ATOM     66  C   UNL A   1      44.838  27.581  26.349  1.00  0.00     0.074 A 
ATOM     67  C   UNL A   1      44.553  26.271  25.797  1.00  0.00     0.031 C 
ATOM     68  C   UNL A   1      45.972  28.281  26.099  1.00  0.00     0.031 A 
BRANCH  55  69
ATOM     69  C   UNL A   1      46.240  33.777  28.931  1.00  0.00    -0.014 A 
ATOM     70  C   UNL A   1      47.115  33.921  30.021  1.00  0.00     0.009 A 
ATOM     71  C   UNL A   1      46.077  34.856  28.048  1.00  0.00     0.009 A 
ATOM     72  C   UNL A   1      47.781  35.130  30.239  1.00  0.00     0.001 A 
ATOM     73  C   UNL A   1      46.768  36.051  28.250  1.00  0.00     0.001 A 
ATOM     74  C   UNL A   1      47.612  36.192  29.351  1.00  0.00     0.000 A 
ENDBRANCH  55  69
BRANCH  56  75
ATOM     75  C   UNL A   1      40.781  25.493  27.513  1.00  0.00    -0.014 A 
ATOM     76  C   UNL A   1      41.180  24.260  28.052  1.00  0.00     0.009 A 
ATOM     77  C   UNL A   1      39.611  25.544  26.737  1.00  0.00     0.009 A 
ATOM     78  C   UNL A   1      40.443  23.102  27.795  1.00  0.00     0.001 A 
ATOM     79  C   UNL A   1      38.858  24.391  26.509  1.00  0.00     0.001 A 
ATOM     80  C   UNL A   1      39.281  23.169  27.028  1.00  0.00     0.000 A 
ENDBRANCH  56  75
BRANCH  68  81
ATOM     81  C   UNL A   1      47.007  27.620  25.228  1.00  0.00    -0.014 A 
ATOM     82  C   UNL A   1      47.155  27.956  23.874  1.00  0.00     0.009 A 
ATOM     83  C   UNL A   1      47.863  26.655  25.788  1.00  0.00     0.009 A 
ATOM     84  C   UNL A   1      48.104  27.302  23.086  1.00  0.00     0.001 A 
ATOM     85  C   UNL A   1      48.836  26.032  25.006  1.00  0.00     0.001 A 
ATOM     86  C   UNL A   1      48.946  26.345  23.653  1.00  0.00     0.000 A 
ENDBRANCH  68  81
ENDBRANCH  42  43
ENDBRANCH  35  37
ENDBRANCH  34  35
ENDBRANCH  33  34
ENDBRANCH  32  33
ENDBRANCH  31  32
ENDBRANCH  30  31
ENDBRANCH  29  30
ENDBRANCH   1  29
TORSDOF 22
ENDMDL
MODEL 3
REMARK VINA RESULT:      -9.5      3.297      6.661
REMARK SMILES CC1(C)CCC[C@H]1NC(=O)N[C@@H]1COC[C@@]1(C)C(=O)OCCOCCOCCOCCOC(=O)c1ccc(-c2c3nc(c(-c4ccccc4)c4ccc([nH]4)c(-c4ccccc4)c4nc(c(-c5ccccc5)c5ccc2[nH]5)C=C4)C=C3)cc1
REMARK SMILES IDX 26 1 25 2 24 3 23 4 22 5 21 6 20 7 18 8 19 9 16 10 12 11
REMARK SMILES IDX 13 12 14 13 15 14 17 15 11 16 8 17 9 18 10 20 7 22 1 23 2 24
REMARK SMILES IDX 3 25 4 26 5 27 6 28 27 29 28 30 29 31 30 32 31 33 32 34
REMARK SMILES IDX 33 35 34 36 35 37 36 38 82 39 37 40 81 41 38 42 39 43 40 44
REMARK SMILES IDX 75 45 41 46 80 47 74 48 76 49 42 50 79 51 73 52 72 53 43 55
REMARK SMILES IDX 65 56 50 57 64 58 51 59 54 60 63 61 77 62 52 63 53 64 62 66
REMARK SMILES IDX 78 67 55 68 44 69 45 70 49 71 46 72 48 73 47 74 66 75 67 76
REMARK SMILES IDX 71 77 68 78 70 79 69 80 56 81 57 82 61 83 58 84 60 85 59 86
REMARK H PARENT 8 19 11 21 76 54 54 65
REMARK Flexibility Score: inf
ROOT
ATOM      1  O   UNL A   1      39.778  20.576  26.012  1.00  0.00    -0.377 OA
ENDROOT
BRANCH   1   2
ATOM      2  C   UNL A   1      40.370  21.686  26.670  1.00  0.00     0.188 C 
BRANCH   2   3
ATOM      3  C   UNL A   1      39.418  22.884  26.657  1.00  0.00     0.188 C 
BRANCH   3   4
ATOM      4  O   UNL A   1      38.113  22.630  26.136  1.00  0.00    -0.376 OA
BRANCH   4   5
ATOM      5  C   UNL A   1      37.271  23.761  25.878  1.00  0.00     0.202 C 
BRANCH   5   6
ATOM      6  C   UNL A   1      35.800  23.633  26.322  1.00  0.00     0.261 C 
BRANCH   6   7
ATOM      7  O   UNL A   1      35.064  22.811  25.400  1.00  0.00    -0.463 OA
BRANCH   7   8
ATOM      8  C   UNL A   1      34.302  23.338  24.395  1.00  0.00     0.316 C 
ATOM      9  O   UNL A   1      34.719  24.088  23.524  1.00  0.00    -0.251 OA
BRANCH   8  10
ATOM     10  C   UNL A   1      32.886  22.726  24.432  1.00  0.00     0.111 C 
ATOM     11  C   UNL A   1      31.727  23.702  24.201  1.00  0.00     0.129 C 
ATOM     12  C   UNL A   1      31.005  23.244  22.939  1.00  0.00     0.186 C 
ATOM     13  O   UNL A   1      31.540  21.983  22.552  1.00  0.00    -0.378 OA
ATOM     14  C   UNL A   1      32.783  21.780  23.230  1.00  0.00     0.181 C 
ATOM     15  C   UNL A   1      32.754  22.017  25.768  1.00  0.00     0.028 C 
BRANCH  11  16
ATOM     16  N   UNL A   1      30.801  23.958  25.331  1.00  0.00    -0.332 N 
ATOM     17  N   UNL A   1      30.975  26.111  26.387  1.00  0.00    -0.335 N 
ATOM     18  C   UNL A   1      30.453  24.893  26.217  1.00  0.00     0.315 C 
ATOM     19  H   UNL A   1      30.429  26.642  27.011  1.00  0.00     0.165 HD
ATOM     20  O   UNL A   1      29.504  24.600  26.954  1.00  0.00    -0.249 OA
ATOM     21  H   UNL A   1      30.248  23.157  25.479  1.00  0.00     0.165 HD
BRANCH  17  22
ATOM     22  C   UNL A   1      32.126  26.886  25.911  1.00  0.00     0.089 C 
ATOM     23  C   UNL A   1      30.559  27.724  23.904  1.00  0.00     0.013 C 
ATOM     24  C   UNL A   1      31.800  27.946  24.789  1.00  0.00    -0.015 C 
ATOM     25  C   UNL A   1      33.024  28.090  23.856  1.00  0.00     0.013 C 
ATOM     26  C   UNL A   1      31.587  29.241  25.584  1.00  0.00     0.008 C 
ATOM     27  C   UNL A   1      32.620  29.184  26.690  1.00  0.00     0.003 C 
ATOM     28  C   UNL A   1      32.709  27.710  27.079  1.00  0.00     0.025 C 
ENDBRANCH  17  22
ENDBRANCH  11  16
ENDBRANCH   8  10
ENDBRANCH   7   8
ENDBRANCH   6   7
ENDBRANCH   5   6
ENDBRANCH   4   5
ENDBRANCH   3   4
ENDBRANCH   2   3
ENDBRANCH   1   2
BRANCH   1  29
ATOM     29  C   UNL A   1      40.467  19.333  25.960  1.00  0.00     0.188 C 
BRANCH  29  30
ATOM     30  C   UNL A   1      41.962  19.367  26.274  1.00  0.00     0.188 C 
BRANCH  30  31
ATOM     31  O   UNL A   1      42.780  18.352  25.682  1.00  0.00    -0.376 OA
BRANCH  31  32
ATOM     32  C   UNL A   1      44.170  18.603  25.482  1.00  0.00     0.202 C 
BRANCH  32  33
ATOM     33  C   UNL A   1      44.520  19.308  24.173  1.00  0.00     0.261 C 
BRANCH  33  34
ATOM     34  O   UNL A   1      44.222  20.710  24.243  1.00  0.00    -0.460 OA
BRANCH  34  35
ATOM     35  C   UNL A   1      45.150  21.448  24.893  1.00  0.00     0.338 C 
ATOM     36  O   UNL A   1      46.356  21.296  24.896  1.00  0.00    -0.246 OA
BRANCH  35  37
ATOM     37  C   UNL A   1      44.493  22.610  25.512  1.00  0.00     0.060 A 
ATOM     38  C   UNL A   1      44.422  23.794  24.769  1.00  0.00     0.016 A 
ATOM     39  C   UNL A   1      44.058  22.565  26.839  1.00  0.00     0.016 A 
ATOM     40  C   UNL A   1      43.995  24.965  25.376  1.00  0.00     0.010 A 
ATOM     41  C   UNL A   1      43.640  23.744  27.453  1.00  0.00     0.010 A 
ATOM     42  C   UNL A   1      43.670  24.953  26.737  1.00  0.00    -0.014 A 
BRANCH  42  43
ATOM     43  C   UNL A   1      43.611  26.244  27.453  1.00  0.00     0.031 A 
ATOM     44  C   UNL A   1      44.907  26.887  27.865  1.00  0.00     0.074 A 
ATOM     45  C   UNL A   1      42.437  26.859  27.657  1.00  0.00     0.049 A 
ATOM     46  N   UNL A   1      45.112  28.022  28.480  1.00  0.00    -0.248 NA
ATOM     47  C   UNL A   1      46.141  26.149  27.537  1.00  0.00     0.031 C 
ATOM     48  C   UNL A   1      41.131  26.350  27.241  1.00  0.00     0.029 A 
ATOM     49  N   UNL A   1      42.160  28.058  28.259  1.00  0.00    -0.354 N 
ATOM     50  C   UNL A   1      46.490  28.128  28.620  1.00  0.00     0.074 A 
ATOM     51  C   UNL A   1      47.072  26.930  28.061  1.00  0.00     0.031 C 
ATOM     52  C   UNL A   1      40.186  27.236  27.601  1.00  0.00     0.029 A 
ATOM     53  C   UNL A   1      40.821  28.351  28.299  1.00  0.00     0.049 A 
ATOM     54  H   UNL A   1      42.854  28.650  28.628  1.00  0.00     0.167 HD
ATOM     55  C   UNL A   1      47.208  29.142  29.159  1.00  0.00     0.031 A 
ATOM     56  C   UNL A   1      40.185  29.400  28.853  1.00  0.00     0.031 A 
ATOM     57  C   UNL A   1      46.617  30.323  29.727  1.00  0.00     0.049 A 
ATOM     58  C   UNL A   1      41.002  30.474  29.520  1.00  0.00     0.074 A 
ATOM     59  C   UNL A   1      47.246  31.413  30.300  1.00  0.00     0.029 A 
ATOM     60  N   UNL A   1      45.253  30.561  29.796  1.00  0.00    -0.354 N 
ATOM     61  N   UNL A   1      42.305  30.574  29.635  1.00  0.00    -0.248 NA
ATOM     62  C   UNL A   1      40.256  31.588  30.119  1.00  0.00     0.031 C 
ATOM     63  C   UNL A   1      46.258  32.282  30.775  1.00  0.00     0.029 A 
ATOM     64  C   UNL A   1      45.016  31.770  30.428  1.00  0.00     0.049 A 
ATOM     65  H   UNL A   1      44.554  29.961  29.448  1.00  0.00     0.167 HD
ATOM     66  C   UNL A   1      42.537  31.779  30.288  1.00  0.00     0.074 A 
ATOM     67  C   UNL A   1      41.239  32.379  30.524  1.00  0.00     0.031 C 
ATOM     68  C   UNL A   1      43.714  32.343  30.655  1.00  0.00     0.031 A 
BRANCH  55  69
ATOM     69  C   UNL A   1      48.704  28.987  29.197  1.00  0.00    -0.014 A 
ATOM     70  C   UNL A   1      49.350  28.333  30.260  1.00  0.00     0.009 A 
ATOM     71  C   UNL A   1      49.481  29.494  28.144  1.00  0.00     0.009 A 
ATOM     72  C   UNL A   1      50.743  28.226  30.284  1.00  0.00     0.001 A 
ATOM     73  C   UNL A   1      50.870  29.357  28.155  1.00  0.00     0.001 A 
ATOM     74  C   UNL A   1      51.501  28.732  29.229  1.00  0.00     0.000 A 
ENDBRANCH  55  69
BRANCH  56  75
ATOM     75  C   UNL A   1      38.702  29.478  28.812  1.00  0.00    -0.014 A 
ATOM     76  C   UNL A   1      38.033  29.837  27.631  1.00  0.00     0.009 A 
ATOM     77  C   UNL A   1      37.944  29.211  29.963  1.00  0.00     0.009 A 
ATOM     78  C   UNL A   1      36.641  29.955  27.613  1.00  0.00     0.001 A 
ATOM     79  C   UNL A   1      36.551  29.297  29.934  1.00  0.00     0.001 A 
ATOM     80  C   UNL A   1      35.902  29.680  28.762  1.00  0.00     0.000 A 
ENDBRANCH  56  75
BRANCH  68  81
ATOM     81  C   UNL A   1      43.649  33.699  31.305  1.00  0.00    -0.014 A 
ATOM     82  C   UNL A   1      43.777  34.881  30.560  1.00  0.00     0.009 A 
ATOM     83  C   UNL A   1      43.433  33.789  32.691  1.00  0.00     0.009 A 
ATOM     84  C   UNL A   1      43.742  36.124  31.197  1.00  0.00     0.001 A 
ATOM     85  C   UNL A   1      43.360  35.033  33.318  1.00  0.00     0.001 A 
ATOM     86  C   UNL A   1      43.529  36.198  32.573  1.00  0.00     0.000 A 
ENDBRANCH  68  81
ENDBRANCH  42  43
ENDBRANCH  35  37
ENDBRANCH  34  35
ENDBRANCH  33  34
ENDBRANCH  32  33
ENDBRANCH  31  32
ENDBRANCH  30  31
ENDBRANCH  29  30
ENDBRANCH   1  29
TORSDOF 22
ENDMDL
