MODEL 1
REMARK VINA RESULT:      -9.2      0.000      0.000
REMARK SMILES O=C(OCCOCCOCCOCCOC(=O)c1ccc(-c2c3nc(c(-c4ccccc4)c4ccc([nH]4)c(-c4ccccc4)c4nc(c(-c5ccccc5)c5ccc2[nH]5)C=C4)C=C3)cc1)c1ccc(/C=C2/SC(=O)N(c3ccc(F)cc3)C2=O)cc1
REMARK SMILES IDX 9 1 8 2 7 3 6 4 5 5 4 6 3 7 2 8 1 9 66 10 67 11 86 12 68 13
REMARK SMILES IDX 85 14 69 15 70 16 71 17 72 18 83 19 73 20 75 21 84 22 74 23
REMARK SMILES IDX 76 24 77 25 82 26 78 27 81 28 79 29 80 30 10 31 11 32 12 33
REMARK SMILES IDX 13 34 14 35 15 36 16 37 17 38 18 39 19 40 65 41 20 42 64 43
REMARK SMILES IDX 21 44 22 45 23 46 58 47 24 48 63 49 57 50 59 51 25 52 62 53
REMARK SMILES IDX 56 54 55 55 26 57 48 58 33 59 47 60 34 61 37 62 46 63 60 64
REMARK SMILES IDX 35 65 36 66 45 68 61 69 38 70 27 71 28 72 32 73 29 74 31 75
REMARK SMILES IDX 30 76 49 77 50 78 54 79 51 80 53 81 52 82 39 83 40 84 44 85
REMARK SMILES IDX 41 86 43 87 42 88
REMARK H PARENT 59 56 37 67
REMARK Flexibility Score: inf
ROOT
ATOM      1  O   UNL A   1      41.051  28.540  28.604  1.00  0.00    -0.377 OA
ENDROOT
BRANCH   1   2
ATOM      2  C   UNL A   1      40.553  29.715  29.245  1.00  0.00     0.188 C 
BRANCH   2   3
ATOM      3  C   UNL A   1      39.193  29.546  29.922  1.00  0.00     0.188 C 
BRANCH   3   4
ATOM      4  O   UNL A   1      38.336  30.625  29.540  1.00  0.00    -0.376 OA
BRANCH   4   5
ATOM      5  C   UNL A   1      36.940  30.408  29.715  1.00  0.00     0.202 C 
BRANCH   5   6
ATOM      6  C   UNL A   1      36.173  31.622  30.232  1.00  0.00     0.261 C 
BRANCH   6   7
ATOM      7  O   UNL A   1      34.946  31.842  29.526  1.00  0.00    -0.460 OA
BRANCH   7   8
ATOM      8  C   UNL A   1      34.788  31.999  28.189  1.00  0.00     0.338 C 
ATOM      9  O   UNL A   1      35.452  32.859  27.612  1.00  0.00    -0.246 OA
BRANCH   8  10
ATOM     10  C   UNL A   1      33.940  31.109  27.346  1.00  0.00     0.060 A 
ATOM     11  C   UNL A   1      34.363  29.957  26.670  1.00  0.00     0.016 A 
ATOM     12  C   UNL A   1      32.575  31.419  27.337  1.00  0.00     0.016 A 
ATOM     13  C   UNL A   1      33.469  29.199  25.906  1.00  0.00     0.009 A 
ATOM     14  C   UNL A   1      31.675  30.661  26.589  1.00  0.00     0.009 A 
ATOM     15  C   UNL A   1      32.135  29.583  25.824  1.00  0.00    -0.024 A 
BRANCH  15  16
ATOM     16  C   UNL A   1      31.269  29.042  24.779  1.00  0.00     0.029 C 
ATOM     17  C   UNL A   1      30.979  27.730  24.774  1.00  0.00     0.083 C 
ATOM     18  S   UNL A   1      30.322  26.892  23.432  1.00  0.00    -0.022 SA
ATOM     19  C   UNL A   1      31.386  26.743  25.824  1.00  0.00     0.272 C 
ATOM     20  C   UNL A   1      31.019  25.362  23.977  1.00  0.00     0.298 C 
ATOM     21  N   UNL A   1      31.555  25.501  25.242  1.00  0.00    -0.236 N 
ATOM     22  O   UNL A   1      31.545  27.046  26.999  1.00  0.00    -0.268 OA
ATOM     23  O   UNL A   1      30.955  24.365  23.276  1.00  0.00    -0.260 OA
BRANCH  21  24
ATOM     24  C   UNL A   1      32.265  24.451  25.903  1.00  0.00     0.053 A 
ATOM     25  C   UNL A   1      31.613  23.537  26.752  1.00  0.00     0.030 A 
ATOM     26  C   UNL A   1      33.663  24.360  25.790  1.00  0.00     0.030 A 
ATOM     27  C   UNL A   1      32.332  22.575  27.468  1.00  0.00     0.041 A 
ATOM     28  C   UNL A   1      34.384  23.413  26.524  1.00  0.00     0.041 A 
ATOM     29  C   UNL A   1      33.712  22.528  27.355  1.00  0.00     0.123 A 
ATOM     30  F   UNL A   1      34.404  21.625  28.061  1.00  0.00    -0.207 F 
ENDBRANCH  21  24
ENDBRANCH  15  16
ENDBRANCH   8  10
ENDBRANCH   7   8
ENDBRANCH   6   7
ENDBRANCH   5   6
ENDBRANCH   4   5
ENDBRANCH   3   4
ENDBRANCH   2   3
ENDBRANCH   1   2
BRANCH   1  31
ATOM     31  C   UNL A   1      40.618  28.318  27.269  1.00  0.00     0.188 C 
BRANCH  31  32
ATOM     32  C   UNL A   1      40.480  26.864  26.766  1.00  0.00     0.188 C 
BRANCH  32  33
ATOM     33  O   UNL A   1      39.674  26.014  27.572  1.00  0.00    -0.376 OA
BRANCH  33  34
ATOM     34  C   UNL A   1      39.220  24.824  26.931  1.00  0.00     0.202 C 
BRANCH  34  35
ATOM     35  C   UNL A   1      40.010  23.562  27.306  1.00  0.00     0.261 C 
BRANCH  35  36
ATOM     36  O   UNL A   1      41.407  23.603  26.965  1.00  0.00    -0.460 OA
BRANCH  36  37
ATOM     37  C   UNL A   1      42.309  23.571  27.969  1.00  0.00     0.338 C 
ATOM     38  O   UNL A   1      42.424  22.715  28.829  1.00  0.00    -0.246 OA
BRANCH  37  39
ATOM     39  C   UNL A   1      43.308  24.632  27.697  1.00  0.00     0.060 A 
ATOM     40  C   UNL A   1      43.972  25.218  28.785  1.00  0.00     0.016 A 
ATOM     41  C   UNL A   1      43.686  24.953  26.388  1.00  0.00     0.016 A 
ATOM     42  C   UNL A   1      45.001  26.137  28.564  1.00  0.00     0.010 A 
ATOM     43  C   UNL A   1      44.702  25.887  26.168  1.00  0.00     0.010 A 
ATOM     44  C   UNL A   1      45.344  26.505  27.255  1.00  0.00    -0.014 A 
BRANCH  44  45
ATOM     45  C   UNL A   1      46.163  27.720  27.026  1.00  0.00     0.031 A 
ATOM     46  C   UNL A   1      47.646  27.526  26.862  1.00  0.00     0.074 A 
ATOM     47  C   UNL A   1      45.634  28.954  26.959  1.00  0.00     0.049 A 
ATOM     48  N   UNL A   1      48.585  28.414  26.658  1.00  0.00    -0.248 NA
ATOM     49  C   UNL A   1      48.133  26.138  26.939  1.00  0.00     0.031 C 
ATOM     50  C   UNL A   1      44.215  29.285  27.075  1.00  0.00     0.029 A 
ATOM     51  N   UNL A   1      46.249  30.170  26.779  1.00  0.00    -0.354 N 
ATOM     52  C   UNL A   1      49.768  27.691  26.584  1.00  0.00     0.074 A 
ATOM     53  C   UNL A   1      49.438  26.299  26.794  1.00  0.00     0.031 C 
ATOM     54  C   UNL A   1      44.070  30.619  26.970  1.00  0.00     0.029 A 
ATOM     55  C   UNL A   1      45.385  31.238  26.803  1.00  0.00     0.049 A 
ATOM     56  H   UNL A   1      47.219  30.266  26.644  1.00  0.00     0.167 HD
ATOM     57  C   UNL A   1      51.023  28.138  26.353  1.00  0.00     0.031 A 
ATOM     58  C   UNL A   1      45.634  32.560  26.718  1.00  0.00     0.031 A 
ATOM     59  C   UNL A   1      51.370  29.519  26.175  1.00  0.00     0.049 A 
ATOM     60  C   UNL A   1      47.053  33.043  26.542  1.00  0.00     0.074 A 
ATOM     61  C   UNL A   1      52.615  30.070  25.929  1.00  0.00     0.029 A 
ATOM     62  N   UNL A   1      50.469  30.569  26.242  1.00  0.00    -0.354 N 
ATOM     63  N   UNL A   1      48.157  32.347  26.423  1.00  0.00    -0.248 NA
ATOM     64  C   UNL A   1      47.255  34.500  26.478  1.00  0.00     0.031 C 
ATOM     65  C   UNL A   1      52.475  31.461  25.900  1.00  0.00     0.029 A 
ATOM     66  C   UNL A   1      51.135  31.769  26.068  1.00  0.00     0.049 A 
ATOM     67  H   UNL A   1      49.500  30.475  26.390  1.00  0.00     0.167 HD
ATOM     68  C   UNL A   1      49.177  33.276  26.242  1.00  0.00     0.074 A 
ATOM     69  C   UNL A   1      48.559  34.584  26.252  1.00  0.00     0.031 C 
ATOM     70  C   UNL A   1      50.506  33.064  26.078  1.00  0.00     0.031 A 
BRANCH  57  71
ATOM     71  C   UNL A   1      52.117  27.111  26.321  1.00  0.00    -0.014 A 
ATOM     72  C   UNL A   1      52.891  26.837  27.460  1.00  0.00     0.009 A 
ATOM     73  C   UNL A   1      52.372  26.404  25.136  1.00  0.00     0.009 A 
ATOM     74  C   UNL A   1      53.922  25.899  27.402  1.00  0.00     0.001 A 
ATOM     75  C   UNL A   1      53.384  25.446  25.090  1.00  0.00     0.001 A 
ATOM     76  C   UNL A   1      54.165  25.201  26.219  1.00  0.00     0.000 A 
ENDBRANCH  57  71
BRANCH  58  77
ATOM     77  C   UNL A   1      44.520  33.543  26.814  1.00  0.00    -0.014 A 
ATOM     78  C   UNL A   1      43.912  34.054  25.656  1.00  0.00     0.009 A 
ATOM     79  C   UNL A   1      44.092  34.012  28.065  1.00  0.00     0.009 A 
ATOM     80  C   UNL A   1      42.917  35.032  25.750  1.00  0.00     0.001 A 
ATOM     81  C   UNL A   1      43.079  34.970  28.157  1.00  0.00     0.001 A 
ATOM     82  C   UNL A   1      42.500  35.487  27.000  1.00  0.00     0.000 A 
ENDBRANCH  58  77
BRANCH  70  83
ATOM     83  C   UNL A   1      51.382  34.266  25.855  1.00  0.00    -0.014 A 
ATOM     84  C   UNL A   1      51.550  34.824  24.579  1.00  0.00     0.009 A 
ATOM     85  C   UNL A   1      51.999  34.885  26.954  1.00  0.00     0.009 A 
ATOM     86  C   UNL A   1      52.345  35.959  24.403  1.00  0.00     0.001 A 
ATOM     87  C   UNL A   1      52.769  36.036  26.780  1.00  0.00     0.001 A 
ATOM     88  C   UNL A   1      52.948  36.567  25.504  1.00  0.00     0.000 A 
ENDBRANCH  70  83
ENDBRANCH  44  45
ENDBRANCH  37  39
ENDBRANCH  36  37
ENDBRANCH  35  36
ENDBRANCH  34  35
ENDBRANCH  33  34
ENDBRANCH  32  33
ENDBRANCH  31  32
ENDBRANCH   1  31
TORSDOF 22
ENDMDL
MODEL 2
REMARK VINA RESULT:      -9.2      0.490      5.592
REMARK SMILES O=C(OCCOCCOCCOCCOC(=O)c1ccc(-c2c3nc(c(-c4ccccc4)c4ccc([nH]4)c(-c4ccccc4)c4nc(c(-c5ccccc5)c5ccc2[nH]5)C=C4)C=C3)cc1)c1ccc(/C=C2/SC(=O)N(c3ccc(F)cc3)C2=O)cc1
REMARK SMILES IDX 9 1 8 2 7 3 6 4 5 5 4 6 3 7 2 8 1 9 66 10 67 11 86 12 68 13
REMARK SMILES IDX 85 14 69 15 70 16 71 17 72 18 83 19 73 20 75 21 84 22 74 23
REMARK SMILES IDX 76 24 77 25 82 26 78 27 81 28 79 29 80 30 10 31 11 32 12 33
REMARK SMILES IDX 13 34 14 35 15 36 16 37 17 38 18 39 19 40 65 41 20 42 64 43
REMARK SMILES IDX 21 44 22 45 23 46 58 47 24 48 63 49 57 50 59 51 25 52 62 53
REMARK SMILES IDX 56 54 55 55 26 57 48 58 33 59 47 60 34 61 37 62 46 63 60 64
REMARK SMILES IDX 35 65 36 66 45 68 61 69 38 70 27 71 28 72 32 73 29 74 31 75
REMARK SMILES IDX 30 76 49 77 50 78 54 79 51 80 53 81 52 82 39 83 40 84 44 85
REMARK SMILES IDX 41 86 43 87 42 88
REMARK H PARENT 59 56 37 67
REMARK Flexibility Score: inf
ROOT
ATOM      1  O   UNL A   1      41.262  28.513  28.758  1.00  0.00    -0.377 OA
ENDROOT
BRANCH   1   2
ATOM      2  C   UNL A   1      40.818  29.803  29.180  1.00  0.00     0.188 C 
BRANCH   2   3
ATOM      3  C   UNL A   1      39.499  29.803  29.952  1.00  0.00     0.188 C 
BRANCH   3   4
ATOM      4  O   UNL A   1      38.562  30.656  29.290  1.00  0.00    -0.376 OA
BRANCH   4   5
ATOM      5  C   UNL A   1      37.186  30.333  29.468  1.00  0.00     0.202 C 
BRANCH   5   6
ATOM      6  C   UNL A   1      36.368  31.418  30.160  1.00  0.00     0.261 C 
BRANCH   6   7
ATOM      7  O   UNL A   1      35.104  31.648  29.526  1.00  0.00    -0.460 OA
BRANCH   7   8
ATOM      8  C   UNL A   1      34.878  31.862  28.207  1.00  0.00     0.338 C 
ATOM      9  O   UNL A   1      35.487  32.770  27.642  1.00  0.00    -0.246 OA
BRANCH   8  10
ATOM     10  C   UNL A   1      34.021  30.984  27.361  1.00  0.00     0.060 A 
ATOM     11  C   UNL A   1      34.426  29.820  26.696  1.00  0.00     0.016 A 
ATOM     12  C   UNL A   1      32.662  31.322  27.337  1.00  0.00     0.016 A 
ATOM     13  C   UNL A   1      33.524  29.075  25.928  1.00  0.00     0.009 A 
ATOM     14  C   UNL A   1      31.754  30.577  26.585  1.00  0.00     0.009 A 
ATOM     15  C   UNL A   1      32.199  29.485  25.831  1.00  0.00    -0.024 A 
BRANCH  15  16
ATOM     16  C   UNL A   1      31.331  28.955  24.781  1.00  0.00     0.029 C 
ATOM     17  C   UNL A   1      31.029  27.647  24.771  1.00  0.00     0.083 C 
ATOM     18  S   UNL A   1      30.370  26.818  23.425  1.00  0.00    -0.022 SA
ATOM     19  C   UNL A   1      31.423  26.653  25.820  1.00  0.00     0.272 C 
ATOM     20  C   UNL A   1      31.049  25.281  23.969  1.00  0.00     0.298 C 
ATOM     21  N   UNL A   1      31.582  25.411  25.236  1.00  0.00    -0.236 N 
ATOM     22  O   UNL A   1      31.580  26.951  26.997  1.00  0.00    -0.268 OA
ATOM     23  O   UNL A   1      30.978  24.286  23.265  1.00  0.00    -0.260 OA
BRANCH  21  24
ATOM     24  C   UNL A   1      32.279  24.352  25.897  1.00  0.00     0.053 A 
ATOM     25  C   UNL A   1      31.628  23.484  26.793  1.00  0.00     0.030 A 
ATOM     26  C   UNL A   1      33.667  24.208  25.734  1.00  0.00     0.030 A 
ATOM     27  C   UNL A   1      32.340  22.514  27.506  1.00  0.00     0.041 A 
ATOM     28  C   UNL A   1      34.382  23.253  26.465  1.00  0.00     0.041 A 
ATOM     29  C   UNL A   1      33.712  22.414  27.343  1.00  0.00     0.123 A 
ATOM     30  F   UNL A   1      34.398  21.504  28.046  1.00  0.00    -0.207 F 
ENDBRANCH  21  24
ENDBRANCH  15  16
ENDBRANCH   8  10
ENDBRANCH   7   8
ENDBRANCH   6   7
ENDBRANCH   5   6
ENDBRANCH   4   5
ENDBRANCH   3   4
ENDBRANCH   2   3
ENDBRANCH   1   2
BRANCH   1  31
ATOM     31  C   UNL A   1      41.083  28.203  27.382  1.00  0.00     0.188 C 
BRANCH  31  32
ATOM     32  C   UNL A   1      40.297  26.927  27.006  1.00  0.00     0.188 C 
BRANCH  32  33
ATOM     33  O   UNL A   1      40.094  26.002  28.067  1.00  0.00    -0.376 OA
BRANCH  33  34
ATOM     34  C   UNL A   1      39.203  24.928  27.770  1.00  0.00     0.202 C 
BRANCH  34  35
ATOM     35  C   UNL A   1      39.896  23.652  27.270  1.00  0.00     0.261 C 
BRANCH  35  36
ATOM     36  O   UNL A   1      41.107  23.877  26.527  1.00  0.00    -0.460 OA
BRANCH  36  37
ATOM     37  C   UNL A   1      42.273  23.469  27.073  1.00  0.00     0.338 C 
ATOM     38  O   UNL A   1      42.586  22.331  27.377  1.00  0.00    -0.246 OA
BRANCH  37  39
ATOM     39  C   UNL A   1      43.215  24.611  27.004  1.00  0.00     0.060 A 
ATOM     40  C   UNL A   1      43.559  25.117  25.741  1.00  0.00     0.016 A 
ATOM     41  C   UNL A   1      43.651  25.262  28.164  1.00  0.00     0.016 A 
ATOM     42  C   UNL A   1      44.352  26.263  25.639  1.00  0.00     0.010 A 
ATOM     43  C   UNL A   1      44.460  26.397  28.060  1.00  0.00     0.010 A 
ATOM     44  C   UNL A   1      44.839  26.885  26.798  1.00  0.00    -0.014 A 
BRANCH  44  45
ATOM     45  C   UNL A   1      45.951  27.860  26.694  1.00  0.00     0.031 A 
ATOM     46  C   UNL A   1      45.589  29.320  26.726  1.00  0.00     0.074 A 
ATOM     47  C   UNL A   1      47.238  27.488  26.579  1.00  0.00     0.049 A 
ATOM     48  N   UNL A   1      46.362  30.372  26.648  1.00  0.00    -0.248 NA
ATOM     49  C   UNL A   1      44.156  29.631  26.866  1.00  0.00     0.031 C 
ATOM     50  C   UNL A   1      47.734  26.113  26.560  1.00  0.00     0.029 A 
ATOM     51  N   UNL A   1      48.371  28.255  26.450  1.00  0.00    -0.354 N 
ATOM     52  C   UNL A   1      45.509  31.465  26.729  1.00  0.00     0.074 A 
ATOM     53  C   UNL A   1      44.161  30.953  26.830  1.00  0.00     0.031 C 
ATOM     54  C   UNL A   1      49.072  26.136  26.420  1.00  0.00     0.029 A 
ATOM     55  C   UNL A   1      49.526  27.523  26.316  1.00  0.00     0.049 A 
ATOM     56  H   UNL A   1      48.356  29.240  26.455  1.00  0.00     0.167 HD
ATOM     57  C   UNL A   1      45.814  32.782  26.727  1.00  0.00     0.031 A 
ATOM     58  C   UNL A   1      50.795  27.929  26.115  1.00  0.00     0.031 A 
ATOM     59  C   UNL A   1      47.145  33.304  26.594  1.00  0.00     0.049 A 
ATOM     60  C   UNL A   1      51.103  29.404  26.034  1.00  0.00     0.074 A 
ATOM     61  C   UNL A   1      47.555  34.625  26.589  1.00  0.00     0.029 A 
ATOM     62  N   UNL A   1      48.279  32.527  26.425  1.00  0.00    -0.354 N 
ATOM     63  N   UNL A   1      50.295  30.429  26.162  1.00  0.00    -0.248 NA
ATOM     64  C   UNL A   1      52.507  29.776  25.791  1.00  0.00     0.031 C 
ATOM     65  C   UNL A   1      48.935  34.649  26.362  1.00  0.00     0.029 A 
ATOM     66  C   UNL A   1      49.388  33.342  26.288  1.00  0.00     0.049 A 
ATOM     67  H   UNL A   1      48.294  31.543  26.407  1.00  0.00     0.167 HD
ATOM     68  C   UNL A   1      51.093  31.562  26.045  1.00  0.00     0.074 A 
ATOM     69  C   UNL A   1      52.451  31.100  25.850  1.00  0.00     0.031 C 
ATOM     70  C   UNL A   1      50.735  32.868  26.098  1.00  0.00     0.031 A 
BRANCH  57  71
ATOM     71  C   UNL A   1      44.670  33.747  26.836  1.00  0.00    -0.014 A 
ATOM     72  C   UNL A   1      43.930  34.127  25.705  1.00  0.00     0.009 A 
ATOM     73  C   UNL A   1      44.325  34.278  28.088  1.00  0.00     0.009 A 
ATOM     74  C   UNL A   1      42.887  35.047  25.822  1.00  0.00     0.001 A 
ATOM     75  C   UNL A   1      43.264  35.175  28.206  1.00  0.00     0.001 A 
ATOM     76  C   UNL A   1      42.552  35.566  27.073  1.00  0.00     0.000 A 
ENDBRANCH  57  71
BRANCH  58  77
ATOM     77  C   UNL A   1      51.888  26.931  25.955  1.00  0.00    -0.014 A 
ATOM     78  C   UNL A   1      52.636  26.502  27.062  1.00  0.00     0.009 A 
ATOM     79  C   UNL A   1      52.219  26.439  24.683  1.00  0.00     0.009 A 
ATOM     80  C   UNL A   1      53.709  25.622  26.896  1.00  0.00     0.001 A 
ATOM     81  C   UNL A   1      53.276  25.538  24.523  1.00  0.00     0.001 A 
ATOM     82  C   UNL A   1      54.026  25.138  25.627  1.00  0.00     0.000 A 
ENDBRANCH  58  77
BRANCH  70  83
ATOM     83  C   UNL A   1      51.826  33.897  25.984  1.00  0.00    -0.014 A 
ATOM     84  C   UNL A   1      52.364  34.523  27.119  1.00  0.00     0.009 A 
ATOM     85  C   UNL A   1      52.365  34.197  24.722  1.00  0.00     0.009 A 
ATOM     86  C   UNL A   1      53.398  35.453  26.988  1.00  0.00     0.001 A 
ATOM     87  C   UNL A   1      53.417  35.104  24.598  1.00  0.00     0.001 A 
ATOM     88  C   UNL A   1      53.928  35.737  25.730  1.00  0.00     0.000 A 
ENDBRANCH  70  83
ENDBRANCH  44  45
ENDBRANCH  37  39
ENDBRANCH  36  37
ENDBRANCH  35  36
ENDBRANCH  34  35
ENDBRANCH  33  34
ENDBRANCH  32  33
ENDBRANCH  31  32
ENDBRANCH   1  31
TORSDOF 22
ENDMDL
MODEL 3
REMARK VINA RESULT:      -8.9      3.780      5.442
REMARK SMILES O=C(OCCOCCOCCOCCOC(=O)c1ccc(-c2c3nc(c(-c4ccccc4)c4ccc([nH]4)c(-c4ccccc4)c4nc(c(-c5ccccc5)c5ccc2[nH]5)C=C4)C=C3)cc1)c1ccc(/C=C2/SC(=O)N(c3ccc(F)cc3)C2=O)cc1
REMARK SMILES IDX 9 1 8 2 7 3 6 4 5 5 4 6 3 7 2 8 1 9 66 10 67 11 86 12 68 13
REMARK SMILES IDX 85 14 69 15 70 16 71 17 72 18 83 19 73 20 75 21 84 22 74 23
REMARK SMILES IDX 76 24 77 25 82 26 78 27 81 28 79 29 80 30 10 31 11 32 12 33
REMARK SMILES IDX 13 34 14 35 15 36 16 37 17 38 18 39 19 40 65 41 20 42 64 43
REMARK SMILES IDX 21 44 22 45 23 46 58 47 24 48 63 49 57 50 59 51 25 52 62 53
REMARK SMILES IDX 56 54 55 55 26 57 48 58 33 59 47 60 34 61 37 62 46 63 60 64
REMARK SMILES IDX 35 65 36 66 45 68 61 69 38 70 27 71 28 72 32 73 29 74 31 75
REMARK SMILES IDX 30 76 49 77 50 78 54 79 51 80 53 81 52 82 39 83 40 84 44 85
REMARK SMILES IDX 41 86 43 87 42 88
REMARK H PARENT 59 56 37 67
REMARK Flexibility Score: inf
ROOT
ATOM      1  O   UNL A   1      40.621  28.178  27.976  1.00  0.00    -0.377 OA
ENDROOT
BRANCH   1   2
ATOM      2  C   UNL A   1      39.197  28.221  27.879  1.00  0.00     0.188 C 
BRANCH   2   3
ATOM      3  C   UNL A   1      38.584  29.605  28.093  1.00  0.00     0.188 C 
BRANCH   3   4
ATOM      4  O   UNL A   1      37.826  29.605  29.306  1.00  0.00    -0.376 OA
BRANCH   4   5
ATOM      5  C   UNL A   1      36.414  29.497  29.162  1.00  0.00     0.202 C 
BRANCH   5   6
ATOM      6  C   UNL A   1      35.901  29.769  27.751  1.00  0.00     0.261 C 
BRANCH   6   7
ATOM      7  O   UNL A   1      34.945  30.835  27.707  1.00  0.00    -0.460 OA
BRANCH   7   8
ATOM      8  C   UNL A   1      33.658  30.763  27.287  1.00  0.00     0.338 C 
ATOM      9  O   UNL A   1      32.937  31.752  27.414  1.00  0.00    -0.246 OA
BRANCH   8  10
ATOM     10  C   UNL A   1      33.088  29.589  26.566  1.00  0.00     0.060 A 
ATOM     11  C   UNL A   1      33.464  29.133  25.296  1.00  0.00     0.016 A 
ATOM     12  C   UNL A   1      32.168  28.829  27.298  1.00  0.00     0.016 A 
ATOM     13  C   UNL A   1      32.853  28.014  24.720  1.00  0.00     0.009 A 
ATOM     14  C   UNL A   1      31.565  27.704  26.738  1.00  0.00     0.009 A 
ATOM     15  C   UNL A   1      31.865  27.331  25.423  1.00  0.00    -0.024 A 
BRANCH  15  16
ATOM     16  C   UNL A   1      30.974  26.399  24.735  1.00  0.00     0.029 C 
ATOM     17  C   UNL A   1      31.341  25.115  24.593  1.00  0.00     0.083 C 
ATOM     18  S   UNL A   1      30.613  24.018  23.498  1.00  0.00    -0.022 SA
ATOM     19  C   UNL A   1      32.571  24.491  25.175  1.00  0.00     0.272 C 
ATOM     20  C   UNL A   1      32.085  23.046  23.407  1.00  0.00     0.298 C 
ATOM     21  N   UNL A   1      33.003  23.473  24.346  1.00  0.00    -0.236 N 
ATOM     22  O   UNL A   1      33.083  24.872  26.220  1.00  0.00    -0.268 OA
ATOM     23  O   UNL A   1      32.173  22.122  22.614  1.00  0.00    -0.260 OA
BRANCH  21  24
ATOM     24  C   UNL A   1      34.320  22.928  24.447  1.00  0.00     0.053 A 
ATOM     25  C   UNL A   1      35.395  23.447  23.700  1.00  0.00     0.030 A 
ATOM     26  C   UNL A   1      34.558  21.790  25.236  1.00  0.00     0.030 A 
ATOM     27  C   UNL A   1      36.657  22.845  23.734  1.00  0.00     0.041 A 
ATOM     28  C   UNL A   1      35.814  21.174  25.252  1.00  0.00     0.041 A 
ATOM     29  C   UNL A   1      36.852  21.708  24.502  1.00  0.00     0.123 A 
ATOM     30  F   UNL A   1      38.053  21.115  24.514  1.00  0.00    -0.207 F 
ENDBRANCH  21  24
ENDBRANCH  15  16
ENDBRANCH   8  10
ENDBRANCH   7   8
ENDBRANCH   6   7
ENDBRANCH   5   6
ENDBRANCH   4   5
ENDBRANCH   3   4
ENDBRANCH   2   3
ENDBRANCH   1   2
BRANCH   1  31
ATOM     31  C   UNL A   1      41.202  26.894  28.165  1.00  0.00     0.188 C 
BRANCH  31  32
ATOM     32  C   UNL A   1      40.347  25.643  27.867  1.00  0.00     0.188 C 
BRANCH  32  33
ATOM     33  O   UNL A   1      40.628  24.991  26.635  1.00  0.00    -0.376 OA
BRANCH  33  34
ATOM     34  C   UNL A   1      40.468  23.574  26.649  1.00  0.00     0.202 C 
BRANCH  34  35
ATOM     35  C   UNL A   1      41.750  22.790  26.335  1.00  0.00     0.261 C 
BRANCH  35  36
ATOM     36  O   UNL A   1      42.883  23.604  25.981  1.00  0.00    -0.460 OA
BRANCH  36  37
ATOM     37  C   UNL A   1      43.617  23.240  24.908  1.00  0.00     0.338 C 
ATOM     38  O   UNL A   1      43.254  22.562  23.963  1.00  0.00    -0.246 OA
BRANCH  37  39
ATOM     39  C   UNL A   1      44.874  24.025  24.948  1.00  0.00     0.060 A 
ATOM     40  C   UNL A   1      46.079  23.371  24.650  1.00  0.00     0.016 A 
ATOM     41  C   UNL A   1      44.857  25.411  25.145  1.00  0.00     0.016 A 
ATOM     42  C   UNL A   1      47.268  24.100  24.565  1.00  0.00     0.010 A 
ATOM     43  C   UNL A   1      46.050  26.135  25.079  1.00  0.00     0.010 A 
ATOM     44  C   UNL A   1      47.265  25.479  24.818  1.00  0.00    -0.014 A 
BRANCH  44  45
ATOM     45  C   UNL A   1      48.546  26.178  25.082  1.00  0.00     0.031 A 
ATOM     46  C   UNL A   1      49.070  26.139  26.492  1.00  0.00     0.074 A 
ATOM     47  C   UNL A   1      49.235  26.823  24.125  1.00  0.00     0.049 A 
ATOM     48  N   UNL A   1      50.156  26.670  26.992  1.00  0.00    -0.248 NA
ATOM     49  C   UNL A   1      48.253  25.399  27.469  1.00  0.00     0.031 C 
ATOM     50  C   UNL A   1      48.859  26.920  22.716  1.00  0.00     0.029 A 
ATOM     51  N   UNL A   1      50.410  27.532  24.209  1.00  0.00    -0.354 N 
ATOM     52  C   UNL A   1      50.149  26.327  28.338  1.00  0.00     0.074 A 
ATOM     53  C   UNL A   1      48.941  25.573  28.585  1.00  0.00     0.031 C 
ATOM     54  C   UNL A   1      49.784  27.653  22.069  1.00  0.00     0.029 A 
ATOM     55  C   UNL A   1      50.803  28.097  23.020  1.00  0.00     0.049 A 
ATOM     56  H   UNL A   1      50.923  27.625  25.044  1.00  0.00     0.167 HD
ATOM     57  C   UNL A   1      51.068  26.607  29.289  1.00  0.00     0.031 A 
ATOM     58  C   UNL A   1      51.855  28.893  22.741  1.00  0.00     0.031 A 
ATOM     59  C   UNL A   1      52.254  27.383  29.065  1.00  0.00     0.049 A 
ATOM     60  C   UNL A   1      52.825  29.260  23.836  1.00  0.00     0.074 A 
ATOM     61  C   UNL A   1      53.250  27.714  29.967  1.00  0.00     0.029 A 
ATOM     62  N   UNL A   1      52.595  27.964  27.855  1.00  0.00    -0.354 N 
ATOM     63  N   UNL A   1      52.835  28.890  25.094  1.00  0.00    -0.248 NA
ATOM     64  C   UNL A   1      53.937  30.151  23.467  1.00  0.00     0.031 C 
ATOM     65  C   UNL A   1      54.168  28.542  29.313  1.00  0.00     0.029 A 
ATOM     66  C   UNL A   1      53.774  28.675  27.992  1.00  0.00     0.049 A 
ATOM     67  H   UNL A   1      52.076  27.883  27.022  1.00  0.00     0.167 HD
ATOM     68  C   UNL A   1      53.965  29.474  25.656  1.00  0.00     0.074 A 
ATOM     69  C   UNL A   1      54.624  30.214  24.600  1.00  0.00     0.031 C 
ATOM     70  C   UNL A   1      54.419  29.403  26.931  1.00  0.00     0.031 A 
BRANCH  57  71
ATOM     71  C   UNL A   1      50.794  26.094  30.673  1.00  0.00    -0.014 A 
ATOM     72  C   UNL A   1      51.300  24.858  31.104  1.00  0.00     0.009 A 
ATOM     73  C   UNL A   1      50.023  26.863  31.559  1.00  0.00     0.009 A 
ATOM     74  C   UNL A   1      51.012  24.386  32.385  1.00  0.00     0.001 A 
ATOM     75  C   UNL A   1      49.761  26.401  32.848  1.00  0.00     0.001 A 
ATOM     76  C   UNL A   1      50.246  25.159  33.257  1.00  0.00     0.000 A 
ENDBRANCH  57  71
BRANCH  58  77
ATOM     77  C   UNL A   1      52.051  29.425  21.364  1.00  0.00    -0.014 A 
ATOM     78  C   UNL A   1      51.468  30.640  20.973  1.00  0.00     0.009 A 
ATOM     79  C   UNL A   1      52.784  28.692  20.418  1.00  0.00     0.009 A 
ATOM     80  C   UNL A   1      51.593  31.097  19.658  1.00  0.00     0.001 A 
ATOM     81  C   UNL A   1      52.930  29.164  19.111  1.00  0.00     0.001 A 
ATOM     82  C   UNL A   1      52.326  30.360  18.729  1.00  0.00     0.000 A 
ENDBRANCH  58  77
BRANCH  70  83
ATOM     83  C   UNL A   1      55.709  30.107  27.253  1.00  0.00    -0.014 A 
ATOM     84  C   UNL A   1      56.946  29.455  27.146  1.00  0.00     0.009 A 
ATOM     85  C   UNL A   1      55.684  31.465  27.611  1.00  0.00     0.009 A 
ATOM     86  C   UNL A   1      58.132  30.141  27.422  1.00  0.00     0.001 A 
ATOM     87  C   UNL A   1      56.872  32.155  27.857  1.00  0.00     0.001 A 
ATOM     88  C   UNL A   1      58.094  31.491  27.771  1.00  0.00     0.000 A 
ENDBRANCH  70  83
ENDBRANCH  44  45
ENDBRANCH  37  39
ENDBRANCH  36  37
ENDBRANCH  35  36
ENDBRANCH  34  35
ENDBRANCH  33  34
ENDBRANCH  32  33
ENDBRANCH  31  32
ENDBRANCH   1  31
TORSDOF 22
ENDMDL
