MODEL 1
REMARK VINA RESULT:      -6.0      0.000      0.000
REMARK SMILES CC(C)C[C@H](NC(=O)[C@H](Cc1ccccc1)NC(=O)CNC(=O)CNC(=O)OCc1ccccc1)C(=O)OCCOCCOCCOCCOC(=O)c1ccc(-c2c3nc(c(-c4ccccc4)c4ccc([nH]4)c(-c4ccccc4)c4nc(c(-c5ccccc5)c5ccc2[nH]5)C=C4)C=C3)cc1
REMARK SMILES IDX 40 1 39 2 38 3 36 4 37 5 5 6 4 7 2 8 1 9 3 10 6 11 7 12 8 14
REMARK SMILES IDX 9 15 17 16 18 17 19 19 20 20 21 21 22 22 23 24 24 25 25 26
REMARK SMILES IDX 26 27 27 29 28 30 29 31 30 32 31 33 35 34 32 35 34 36 33 37
REMARK SMILES IDX 10 38 11 39 12 40 16 41 13 42 15 43 14 44 41 45 42 46 43 47
REMARK SMILES IDX 44 48 45 49 46 50 47 51 48 52 49 53 50 54 51 55 52 56 53 57
REMARK SMILES IDX 54 58 100 59 55 60 99 61 56 62 57 63 58 64 93 65 59 66 98 67
REMARK SMILES IDX 92 68 94 69 60 70 97 71 91 72 90 73 61 75 83 76 68 77 82 78
REMARK SMILES IDX 69 79 72 80 81 81 95 82 70 83 71 84 80 86 96 87 73 88 62 89
REMARK SMILES IDX 63 90 67 91 64 92 66 93 65 94 84 95 85 96 89 97 86 98 88 99
REMARK SMILES IDX 87 100 74 101 75 102 79 103 76 104 78 105 77 106
REMARK H PARENT 6 13 17 18 21 23 25 28 94 74 72 85
REMARK Flexibility Score: inf
ROOT
ATOM      1  C   UNL A   1      44.566  26.970  31.579  1.00  0.00     0.202 C 
ENDROOT
BRANCH   1   2
ATOM      2  C   UNL A   1      44.447  27.408  30.131  1.00  0.00     0.261 C 
BRANCH   2   3
ATOM      3  O   UNL A   1      44.897  28.763  29.993  1.00  0.00    -0.462 OA
BRANCH   3   4
ATOM      4  C   UNL A   1      44.226  29.583  29.155  1.00  0.00     0.328 C 
ATOM      5  O   UNL A   1      43.835  30.701  29.478  1.00  0.00    -0.250 OA
BRANCH   4   6
ATOM      6  C   UNL A   1      43.746  28.889  27.842  1.00  0.00     0.192 C 
BRANCH   6   7
ATOM      7  C   UNL A   1      44.894  29.128  26.882  1.00  0.00     0.040 C 
BRANCH   7   8
ATOM      8  C   UNL A   1      45.627  27.844  26.529  1.00  0.00    -0.015 C 
ATOM      9  C   UNL A   1      47.061  28.088  27.011  1.00  0.00     0.007 C 
ATOM     10  C   UNL A   1      44.692  26.640  26.600  1.00  0.00     0.007 C 
ENDBRANCH   7   8
ENDBRANCH   6   7
BRANCH   6  11
ATOM     11  N   UNL A   1      42.542  28.985  27.015  1.00  0.00    -0.341 N 
ATOM     12  C   UNL A   1      41.244  28.682  27.413  1.00  0.00     0.243 C 
ATOM     13  H   UNL A   1      42.663  29.293  26.087  1.00  0.00     0.164 HD
ATOM     14  O   UNL A   1      40.377  28.671  26.531  1.00  0.00    -0.273 OA
BRANCH  12  15
ATOM     15  C   UNL A   1      40.873  28.193  28.906  1.00  0.00     0.175 C 
BRANCH  15  16
ATOM     16  N   UNL A   1      40.459  29.272  29.796  1.00  0.00    -0.342 N 
ATOM     17  C   UNL A   1      39.353  30.074  29.814  1.00  0.00     0.240 C 
ATOM     18  H   UNL A   1      41.097  29.456  30.522  1.00  0.00     0.164 HD
ATOM     19  O   UNL A   1      39.168  30.730  30.842  1.00  0.00    -0.273 OA
BRANCH  17  20
ATOM     20  C   UNL A   1      38.297  30.083  28.695  1.00  0.00     0.216 C 
BRANCH  20  21
ATOM     21  N   UNL A   1      37.414  31.225  28.653  1.00  0.00    -0.346 N 
ATOM     22  C   UNL A   1      36.098  31.226  28.296  1.00  0.00     0.239 C 
ATOM     23  H   UNL A   1      37.803  32.093  28.908  1.00  0.00     0.164 HD
ATOM     24  O   UNL A   1      35.440  32.241  28.531  1.00  0.00    -0.273 OA
BRANCH  22  25
ATOM     25  C   UNL A   1      35.477  29.985  27.611  1.00  0.00     0.219 C 
BRANCH  25  26
ATOM     26  N   UNL A   1      34.242  30.310  26.893  1.00  0.00    -0.312 N 
ATOM     27  C   UNL A   1      33.058  29.606  26.765  1.00  0.00     0.407 C 
ATOM     28  H   UNL A   1      34.258  31.175  26.422  1.00  0.00     0.167 HD
ATOM     29  O   UNL A   1      32.019  30.252  26.770  1.00  0.00    -0.225 OA
BRANCH  27  30
ATOM     30  O   UNL A   1      33.144  28.259  26.573  1.00  0.00    -0.445 OA
BRANCH  30  31
ATOM     31  C   UNL A   1      33.462  27.529  25.281  1.00  0.00     0.270 C 
BRANCH  31  32
ATOM     32  C   UNL A   1      33.615  25.991  25.065  1.00  0.00    -0.011 A 
ATOM     33  C   UNL A   1      34.035  25.358  23.859  1.00  0.00     0.007 A 
ATOM     34  C   UNL A   1      33.302  25.120  26.111  1.00  0.00     0.007 A 
ATOM     35  C   UNL A   1      33.834  23.988  23.615  1.00  0.00     0.000 A 
ATOM     36  C   UNL A   1      33.192  23.732  25.901  1.00  0.00     0.000 A 
ATOM     37  C   UNL A   1      33.379  23.176  24.638  1.00  0.00     0.000 A 
ENDBRANCH  31  32
ENDBRANCH  30  31
ENDBRANCH  27  30
ENDBRANCH  25  26
ENDBRANCH  22  25
ENDBRANCH  20  21
ENDBRANCH  17  20
ENDBRANCH  15  16
BRANCH  15  38
ATOM     38  C   UNL A   1      39.783  27.075  28.812  1.00  0.00     0.070 C 
BRANCH  38  39
ATOM     39  C   UNL A   1      40.024  25.687  28.214  1.00  0.00    -0.045 A 
ATOM     40  C   UNL A   1      39.108  24.931  27.474  1.00  0.00     0.004 A 
ATOM     41  C   UNL A   1      41.308  25.131  28.356  1.00  0.00     0.004 A 
ATOM     42  C   UNL A   1      39.415  23.678  26.936  1.00  0.00     0.000 A 
ATOM     43  C   UNL A   1      41.636  23.887  27.799  1.00  0.00     0.000 A 
ATOM     44  C   UNL A   1      40.685  23.155  27.097  1.00  0.00     0.000 A 
ENDBRANCH  38  39
ENDBRANCH  15  38
ENDBRANCH  12  15
ENDBRANCH   6  11
ENDBRANCH   4   6
ENDBRANCH   3   4
ENDBRANCH   2   3
ENDBRANCH   1   2
BRANCH   1  45
ATOM     45  O   UNL A   1      43.377  26.692  32.310  1.00  0.00    -0.376 OA
BRANCH  45  46
ATOM     46  C   UNL A   1      42.558  27.748  32.801  1.00  0.00     0.188 C 
BRANCH  46  47
ATOM     47  C   UNL A   1      41.579  27.530  33.990  1.00  0.00     0.188 C 
BRANCH  47  48
ATOM     48  O   UNL A   1      42.066  26.877  35.152  1.00  0.00    -0.377 OA
BRANCH  48  49
ATOM     49  C   UNL A   1      41.534  25.601  35.497  1.00  0.00     0.188 C 
BRANCH  49  50
ATOM     50  C   UNL A   1      42.443  24.358  35.446  1.00  0.00     0.188 C 
BRANCH  50  51
ATOM     51  O   UNL A   1      43.184  24.198  34.252  1.00  0.00    -0.376 OA
BRANCH  51  52
ATOM     52  C   UNL A   1      44.317  23.351  34.206  1.00  0.00     0.202 C 
BRANCH  52  53
ATOM     53  C   UNL A   1      45.719  23.927  34.470  1.00  0.00     0.261 C 
BRANCH  53  54
ATOM     54  O   UNL A   1      45.907  24.615  35.714  1.00  0.00    -0.460 OA
BRANCH  54  55
ATOM     55  C   UNL A   1      46.645  25.734  35.713  1.00  0.00     0.338 C 
ATOM     56  O   UNL A   1      47.833  25.847  35.408  1.00  0.00    -0.246 OA
BRANCH  55  57
ATOM     57  C   UNL A   1      45.746  26.869  35.956  1.00  0.00     0.060 A 
ATOM     58  C   UNL A   1      45.754  27.955  35.068  1.00  0.00     0.016 A 
ATOM     59  C   UNL A   1      44.928  26.877  37.086  1.00  0.00     0.016 A 
ATOM     60  C   UNL A   1      44.987  29.081  35.340  1.00  0.00     0.010 A 
ATOM     61  C   UNL A   1      44.186  28.020  37.379  1.00  0.00     0.010 A 
ATOM     62  C   UNL A   1      44.258  29.141  36.533  1.00  0.00    -0.014 A 
BRANCH  62  63
ATOM     63  C   UNL A   1      43.806  30.460  37.020  1.00  0.00     0.031 A 
ATOM     64  C   UNL A   1      44.571  31.088  38.153  1.00  0.00     0.074 A 
ATOM     65  C   UNL A   1      42.781  31.106  36.441  1.00  0.00     0.049 A 
ATOM     66  N   UNL A   1      44.349  32.211  38.785  1.00  0.00    -0.248 NA
ATOM     67  C   UNL A   1      45.749  30.347  38.638  1.00  0.00     0.031 C 
ATOM     68  C   UNL A   1      42.014  30.628  35.293  1.00  0.00     0.029 A 
ATOM     69  N   UNL A   1      42.212  32.313  36.754  1.00  0.00    -0.354 N 
ATOM     70  C   UNL A   1      45.352  32.307  39.741  1.00  0.00     0.074 A 
ATOM     71  C   UNL A   1      46.164  31.116  39.633  1.00  0.00     0.031 C 
ATOM     72  C   UNL A   1      41.060  31.531  35.004  1.00  0.00     0.029 A 
ATOM     73  C   UNL A   1      41.128  32.625  35.972  1.00  0.00     0.049 A 
ATOM     74  H   UNL A   1      42.547  32.899  37.471  1.00  0.00     0.167 HD
ATOM     75  C   UNL A   1      45.584  33.304  40.627  1.00  0.00     0.031 A 
ATOM     76  C   UNL A   1      40.277  33.664  36.053  1.00  0.00     0.031 A 
ATOM     77  C   UNL A   1      44.760  34.475  40.747  1.00  0.00     0.049 A 
ATOM     78  C   UNL A   1      40.490  34.707  37.121  1.00  0.00     0.074 A 
ATOM     79  C   UNL A   1      44.895  35.538  41.621  1.00  0.00     0.029 A 
ATOM     80  N   UNL A   1      43.641  34.730  39.970  1.00  0.00    -0.354 N 
ATOM     81  N   UNL A   1      41.444  34.793  38.017  1.00  0.00    -0.248 NA
ATOM     82  C   UNL A   1      39.512  35.802  37.178  1.00  0.00     0.031 C 
ATOM     83  C   UNL A   1      43.822  36.411  41.411  1.00  0.00     0.029 A 
ATOM     84  C   UNL A   1      43.061  35.925  40.360  1.00  0.00     0.049 A 
ATOM     85  H   UNL A   1      43.309  34.148  39.249  1.00  0.00     0.167 HD
ATOM     86  C   UNL A   1      41.200  35.968  38.720  1.00  0.00     0.074 A 
ATOM     87  C   UNL A   1      40.020  36.568  38.132  1.00  0.00     0.031 C 
ATOM     88  C   UNL A   1      41.889  36.507  39.757  1.00  0.00     0.031 A 
BRANCH  75  89
ATOM     89  C   UNL A   1      46.754  33.142  41.557  1.00  0.00    -0.014 A 
ATOM     90  C   UNL A   1      48.031  33.616  41.214  1.00  0.00     0.009 A 
ATOM     91  C   UNL A   1      46.571  32.527  42.805  1.00  0.00     0.009 A 
ATOM     92  C   UNL A   1      49.107  33.447  42.089  1.00  0.00     0.001 A 
ATOM     93  C   UNL A   1      47.641  32.388  43.691  1.00  0.00     0.001 A 
ATOM     94  C   UNL A   1      48.909  32.839  43.328  1.00  0.00     0.000 A 
ENDBRANCH  75  89
BRANCH  76  95
ATOM     95  C   UNL A   1      39.119  33.760  35.123  1.00  0.00    -0.014 A 
ATOM     96  C   UNL A   1      37.898  33.142  35.429  1.00  0.00     0.009 A 
ATOM     97  C   UNL A   1      39.247  34.438  33.901  1.00  0.00     0.009 A 
ATOM     98  C   UNL A   1      36.842  33.167  34.515  1.00  0.00     0.001 A 
ATOM     99  C   UNL A   1      38.179  34.492  33.003  1.00  0.00     0.001 A 
ATOM    100  C   UNL A   1      36.982  33.844  33.305  1.00  0.00     0.000 A 
ENDBRANCH  76  95
BRANCH  88 101
ATOM    101  C   UNL A   1      41.414  37.833  40.285  1.00  0.00    -0.014 A 
ATOM    102  C   UNL A   1      40.273  37.937  41.096  1.00  0.00     0.009 A 
ATOM    103  C   UNL A   1      42.146  38.995  39.992  1.00  0.00     0.009 A 
ATOM    104  C   UNL A   1      39.849  39.182  41.562  1.00  0.00     0.001 A 
ATOM    105  C   UNL A   1      41.741  40.234  40.489  1.00  0.00     0.001 A 
ATOM    106  C   UNL A   1      40.586  40.328  41.263  1.00  0.00     0.000 A 
ENDBRANCH  88 101
ENDBRANCH  62  63
ENDBRANCH  55  57
ENDBRANCH  54  55
ENDBRANCH  53  54
ENDBRANCH  52  53
ENDBRANCH  51  52
ENDBRANCH  50  51
ENDBRANCH  49  50
ENDBRANCH  48  49
ENDBRANCH  47  48
ENDBRANCH  46  47
ENDBRANCH  45  46
ENDBRANCH   1  45
TORSDOF 34
ENDMDL
MODEL 2
REMARK VINA RESULT:      -6.0      3.998      6.512
REMARK SMILES CC(C)C[C@H](NC(=O)[C@H](Cc1ccccc1)NC(=O)CNC(=O)CNC(=O)OCc1ccccc1)C(=O)OCCOCCOCCOCCOC(=O)c1ccc(-c2c3nc(c(-c4ccccc4)c4ccc([nH]4)c(-c4ccccc4)c4nc(c(-c5ccccc5)c5ccc2[nH]5)C=C4)C=C3)cc1
REMARK SMILES IDX 40 1 39 2 38 3 36 4 37 5 5 6 4 7 2 8 1 9 3 10 6 11 7 12 8 14
REMARK SMILES IDX 9 15 17 16 18 17 19 19 20 20 21 21 22 22 23 24 24 25 25 26
REMARK SMILES IDX 26 27 27 29 28 30 29 31 30 32 31 33 35 34 32 35 34 36 33 37
REMARK SMILES IDX 10 38 11 39 12 40 16 41 13 42 15 43 14 44 41 45 42 46 43 47
REMARK SMILES IDX 44 48 45 49 46 50 47 51 48 52 49 53 50 54 51 55 52 56 53 57
REMARK SMILES IDX 54 58 100 59 55 60 99 61 56 62 57 63 58 64 93 65 59 66 98 67
REMARK SMILES IDX 92 68 94 69 60 70 97 71 91 72 90 73 61 75 83 76 68 77 82 78
REMARK SMILES IDX 69 79 72 80 81 81 95 82 70 83 71 84 80 86 96 87 73 88 62 89
REMARK SMILES IDX 63 90 67 91 64 92 66 93 65 94 84 95 85 96 89 97 86 98 88 99
REMARK SMILES IDX 87 100 74 101 75 102 79 103 76 104 78 105 77 106
REMARK H PARENT 6 13 17 18 21 23 25 28 94 74 72 85
REMARK Flexibility Score: inf
ROOT
ATOM      1  C   UNL A   1      44.337  23.840  33.147  1.00  0.00     0.202 C 
ENDROOT
BRANCH   1   2
ATOM      2  C   UNL A   1      44.101  23.661  31.659  1.00  0.00     0.261 C 
BRANCH   2   3
ATOM      3  O   UNL A   1      44.631  24.785  30.942  1.00  0.00    -0.462 OA
BRANCH   3   4
ATOM      4  C   UNL A   1      44.604  24.759  29.592  1.00  0.00     0.328 C 
ATOM      5  O   UNL A   1      45.485  24.240  28.913  1.00  0.00    -0.250 OA
BRANCH   4   6
ATOM      6  C   UNL A   1      43.512  25.680  28.963  1.00  0.00     0.192 C 
BRANCH   6   7
ATOM      7  C   UNL A   1      42.876  24.797  27.908  1.00  0.00     0.040 C 
BRANCH   7   8
ATOM      8  C   UNL A   1      41.627  24.097  28.419  1.00  0.00    -0.015 C 
ATOM      9  C   UNL A   1      40.495  25.085  28.117  1.00  0.00     0.007 C 
ATOM     10  C   UNL A   1      41.755  22.582  28.287  1.00  0.00     0.007 C 
ENDBRANCH   7   8
ENDBRANCH   6   7
BRANCH   6  11
ATOM     11  N   UNL A   1      43.519  27.019  28.373  1.00  0.00    -0.341 N 
ATOM     12  C   UNL A   1      43.725  28.216  29.052  1.00  0.00     0.243 C 
ATOM     13  H   UNL A   1      43.362  27.079  27.403  1.00  0.00     0.164 HD
ATOM     14  O   UNL A   1      43.537  29.259  28.414  1.00  0.00    -0.273 OA
BRANCH  12  15
ATOM     15  C   UNL A   1      44.023  28.289  30.636  1.00  0.00     0.175 C 
BRANCH  15  16
ATOM     16  N   UNL A   1      45.122  29.181  30.990  1.00  0.00    -0.342 N 
ATOM     17  C   UNL A   1      46.476  29.078  30.833  1.00  0.00     0.240 C 
ATOM     18  H   UNL A   1      44.833  30.017  31.423  1.00  0.00     0.164 HD
ATOM     19  O   UNL A   1      47.128  30.110  31.010  1.00  0.00    -0.273 OA
BRANCH  17  20
ATOM     20  C   UNL A   1      47.174  27.803  30.331  1.00  0.00     0.216 C 
BRANCH  20  21
ATOM     21  N   UNL A   1      48.362  27.992  29.531  1.00  0.00    -0.346 N 
ATOM     22  C   UNL A   1      48.573  27.534  28.265  1.00  0.00     0.239 C 
ATOM     23  H   UNL A   1      49.094  28.504  29.944  1.00  0.00     0.164 HD
ATOM     24  O   UNL A   1      49.546  27.974  27.649  1.00  0.00    -0.273 OA
BRANCH  22  25
ATOM     25  C   UNL A   1      47.615  26.487  27.645  1.00  0.00     0.219 C 
BRANCH  25  26
ATOM     26  N   UNL A   1      46.572  27.110  26.825  1.00  0.00    -0.312 N 
ATOM     27  C   UNL A   1      45.921  26.655  25.693  1.00  0.00     0.407 C 
ATOM     28  H   UNL A   1      46.288  28.002  27.131  1.00  0.00     0.167 HD
ATOM     29  O   UNL A   1      44.730  26.917  25.588  1.00  0.00    -0.225 OA
BRANCH  27  30
ATOM     30  O   UNL A   1      46.669  26.013  24.751  1.00  0.00    -0.445 OA
BRANCH  30  31
ATOM     31  C   UNL A   1      46.834  24.515  24.568  1.00  0.00     0.270 C 
BRANCH  31  32
ATOM     32  C   UNL A   1      45.731  23.414  24.660  1.00  0.00    -0.011 A 
ATOM     33  C   UNL A   1      44.329  23.628  24.518  1.00  0.00     0.007 A 
ATOM     34  C   UNL A   1      46.103  22.094  24.924  1.00  0.00     0.007 A 
ATOM     35  C   UNL A   1      43.374  22.684  24.938  1.00  0.00     0.000 A 
ATOM     36  C   UNL A   1      45.146  21.114  25.252  1.00  0.00     0.000 A 
ATOM     37  C   UNL A   1      43.792  21.428  25.338  1.00  0.00     0.000 A 
ENDBRANCH  31  32
ENDBRANCH  30  31
ENDBRANCH  27  30
ENDBRANCH  25  26
ENDBRANCH  22  25
ENDBRANCH  20  21
ENDBRANCH  17  20
ENDBRANCH  15  16
BRANCH  15  38
ATOM     38  C   UNL A   1      42.704  28.682  31.379  1.00  0.00     0.070 C 
BRANCH  38  39
ATOM     39  C   UNL A   1      41.359  28.904  30.682  1.00  0.00    -0.045 A 
ATOM     40  C   UNL A   1      40.470  27.910  30.258  1.00  0.00     0.004 A 
ATOM     41  C   UNL A   1      40.929  30.230  30.505  1.00  0.00     0.004 A 
ATOM     42  C   UNL A   1      39.243  28.195  29.651  1.00  0.00     0.000 A 
ATOM     43  C   UNL A   1      39.688  30.529  29.923  1.00  0.00     0.000 A 
ATOM     44  C   UNL A   1      38.849  29.510  29.486  1.00  0.00     0.000 A 
ENDBRANCH  38  39
ENDBRANCH  15  38
ENDBRANCH  12  15
ENDBRANCH   6  11
ENDBRANCH   4   6
ENDBRANCH   3   4
ENDBRANCH   2   3
ENDBRANCH   1   2
BRANCH   1  45
ATOM     45  O   UNL A   1      44.476  22.681  33.961  1.00  0.00    -0.376 OA
BRANCH  45  46
ATOM     46  C   UNL A   1      44.551  22.789  35.379  1.00  0.00     0.188 C 
BRANCH  46  47
ATOM     47  C   UNL A   1      45.430  21.821  36.222  1.00  0.00     0.188 C 
BRANCH  47  48
ATOM     48  O   UNL A   1      45.796  20.574  35.651  1.00  0.00    -0.377 OA
BRANCH  48  49
ATOM     49  C   UNL A   1      46.915  19.875  36.187  1.00  0.00     0.188 C 
BRANCH  49  50
ATOM     50  C   UNL A   1      47.477  20.277  37.564  1.00  0.00     0.188 C 
BRANCH  50  51
ATOM     51  O   UNL A   1      48.724  20.943  37.538  1.00  0.00    -0.376 OA
BRANCH  51  52
ATOM     52  C   UNL A   1      48.796  22.357  37.574  1.00  0.00     0.202 C 
BRANCH  52  53
ATOM     53  C   UNL A   1      49.996  23.082  36.942  1.00  0.00     0.261 C 
BRANCH  53  54
ATOM     54  O   UNL A   1      49.862  24.496  36.745  1.00  0.00    -0.460 OA
BRANCH  54  55
ATOM     55  C   UNL A   1      49.422  24.931  35.556  1.00  0.00     0.338 C 
ATOM     56  O   UNL A   1      49.693  24.474  34.445  1.00  0.00    -0.246 OA
BRANCH  55  57
ATOM     57  C   UNL A   1      48.389  25.945  35.799  1.00  0.00     0.060 A 
ATOM     58  C   UNL A   1      48.766  27.284  35.971  1.00  0.00     0.016 A 
ATOM     59  C   UNL A   1      47.051  25.562  35.899  1.00  0.00     0.016 A 
ATOM     60  C   UNL A   1      47.813  28.238  36.304  1.00  0.00     0.010 A 
ATOM     61  C   UNL A   1      46.099  26.510  36.270  1.00  0.00     0.010 A 
ATOM     62  C   UNL A   1      46.490  27.837  36.523  1.00  0.00    -0.014 A 
BRANCH  62  63
ATOM     63  C   UNL A   1      45.593  28.736  37.277  1.00  0.00     0.031 A 
ATOM     64  C   UNL A   1      45.738  28.776  38.774  1.00  0.00     0.074 A 
ATOM     65  C   UNL A   1      44.713  29.533  36.650  1.00  0.00     0.049 A 
ATOM     66  N   UNL A   1      45.045  29.446  39.659  1.00  0.00    -0.248 NA
ATOM     67  C   UNL A   1      46.812  27.948  39.350  1.00  0.00     0.031 C 
ATOM     68  C   UNL A   1      44.537  29.632  35.202  1.00  0.00     0.029 A 
ATOM     69  N   UNL A   1      43.798  30.413  37.167  1.00  0.00    -0.354 N 
ATOM     70  C   UNL A   1      45.596  29.115  40.891  1.00  0.00     0.074 A 
ATOM     71  C   UNL A   1      46.655  28.162  40.647  1.00  0.00     0.031 C 
ATOM     72  C   UNL A   1      43.557  30.518  34.946  1.00  0.00     0.029 A 
ATOM     73  C   UNL A   1      43.017  31.013  36.212  1.00  0.00     0.049 A 
ATOM     74  H   UNL A   1      43.710  30.596  38.130  1.00  0.00     0.167 HD
ATOM     75  C   UNL A   1      45.256  29.572  42.119  1.00  0.00     0.031 A 
ATOM     76  C   UNL A   1      41.968  31.844  36.353  1.00  0.00     0.031 A 
ATOM     77  C   UNL A   1      44.187  30.502  42.358  1.00  0.00     0.049 A 
ATOM     78  C   UNL A   1      41.537  32.253  37.738  1.00  0.00     0.074 A 
ATOM     79  C   UNL A   1      43.747  31.019  43.564  1.00  0.00     0.029 A 
ATOM     80  N   UNL A   1      43.385  31.048  41.369  1.00  0.00    -0.354 N 
ATOM     81  N   UNL A   1      42.065  31.942  38.898  1.00  0.00    -0.248 NA
ATOM     82  C   UNL A   1      40.368  33.139  37.831  1.00  0.00     0.031 C 
ATOM     83  C   UNL A   1      42.640  31.834  43.308  1.00  0.00     0.029 A 
ATOM     84  C   UNL A   1      42.436  31.880  41.938  1.00  0.00     0.049 A 
ATOM     85  H   UNL A   1      43.476  30.870  40.405  1.00  0.00     0.167 HD
ATOM     86  C   UNL A   1      41.316  32.621  39.852  1.00  0.00     0.074 A 
ATOM     87  C   UNL A   1      40.310  33.375  39.133  1.00  0.00     0.031 C 
ATOM     88  C   UNL A   1      41.447  32.625  41.202  1.00  0.00     0.031 A 
BRANCH  75  89
ATOM     89  C   UNL A   1      46.028  29.037  43.293  1.00  0.00    -0.014 A 
ATOM     90  C   UNL A   1      45.482  28.060  44.141  1.00  0.00     0.009 A 
ATOM     91  C   UNL A   1      47.328  29.502  43.541  1.00  0.00     0.009 A 
ATOM     92  C   UNL A   1      46.212  27.583  45.232  1.00  0.00     0.001 A 
ATOM     93  C   UNL A   1      48.068  29.000  44.613  1.00  0.00     0.001 A 
ATOM     94  C   UNL A   1      47.506  28.049  45.463  1.00  0.00     0.000 A 
ENDBRANCH  75  89
BRANCH  76  95
ATOM     95  C   UNL A   1      41.223  32.323  35.157  1.00  0.00    -0.014 A 
ATOM     96  C   UNL A   1      40.229  31.530  34.565  1.00  0.00     0.009 A 
ATOM     97  C   UNL A   1      41.536  33.562  34.576  1.00  0.00     0.009 A 
ATOM     98  C   UNL A   1      39.591  31.950  33.395  1.00  0.00     0.001 A 
ATOM     99  C   UNL A   1      40.873  33.996  33.426  1.00  0.00     0.001 A 
ATOM    100  C   UNL A   1      39.911  33.183  32.829  1.00  0.00     0.000 A 
ENDBRANCH  76  95
BRANCH  88 101
ATOM    101  C   UNL A   1      40.513  33.510  41.982  1.00  0.00    -0.014 A 
ATOM    102  C   UNL A   1      39.305  33.025  42.507  1.00  0.00     0.009 A 
ATOM    103  C   UNL A   1      40.870  34.847  42.225  1.00  0.00     0.009 A 
ATOM    104  C   UNL A   1      38.453  33.873  43.216  1.00  0.00     0.001 A 
ATOM    105  C   UNL A   1      40.033  35.682  42.965  1.00  0.00     0.001 A 
ATOM    106  C   UNL A   1      38.820  35.198  43.450  1.00  0.00     0.000 A 
ENDBRANCH  88 101
ENDBRANCH  62  63
ENDBRANCH  55  57
ENDBRANCH  54  55
ENDBRANCH  53  54
ENDBRANCH  52  53
ENDBRANCH  51  52
ENDBRANCH  50  51
ENDBRANCH  49  50
ENDBRANCH  48  49
ENDBRANCH  47  48
ENDBRANCH  46  47
ENDBRANCH  45  46
ENDBRANCH   1  45
TORSDOF 34
ENDMDL
MODEL 3
REMARK VINA RESULT:      -5.9      1.741      2.291
REMARK SMILES CC(C)C[C@H](NC(=O)[C@H](Cc1ccccc1)NC(=O)CNC(=O)CNC(=O)OCc1ccccc1)C(=O)OCCOCCOCCOCCOC(=O)c1ccc(-c2c3nc(c(-c4ccccc4)c4ccc([nH]4)c(-c4ccccc4)c4nc(c(-c5ccccc5)c5ccc2[nH]5)C=C4)C=C3)cc1
REMARK SMILES IDX 40 1 39 2 38 3 36 4 37 5 5 6 4 7 2 8 1 9 3 10 6 11 7 12 8 14
REMARK SMILES IDX 9 15 17 16 18 17 19 19 20 20 21 21 22 22 23 24 24 25 25 26
REMARK SMILES IDX 26 27 27 29 28 30 29 31 30 32 31 33 35 34 32 35 34 36 33 37
REMARK SMILES IDX 10 38 11 39 12 40 16 41 13 42 15 43 14 44 41 45 42 46 43 47
REMARK SMILES IDX 44 48 45 49 46 50 47 51 48 52 49 53 50 54 51 55 52 56 53 57
REMARK SMILES IDX 54 58 100 59 55 60 99 61 56 62 57 63 58 64 93 65 59 66 98 67
REMARK SMILES IDX 92 68 94 69 60 70 97 71 91 72 90 73 61 75 83 76 68 77 82 78
REMARK SMILES IDX 69 79 72 80 81 81 95 82 70 83 71 84 80 86 96 87 73 88 62 89
REMARK SMILES IDX 63 90 67 91 64 92 66 93 65 94 84 95 85 96 89 97 86 98 88 99
REMARK SMILES IDX 87 100 74 101 75 102 79 103 76 104 78 105 77 106
REMARK H PARENT 6 13 17 18 21 23 25 28 94 74 72 85
REMARK Flexibility Score: inf
ROOT
ATOM      1  C   UNL A   1      44.574  27.073  31.630  1.00  0.00     0.202 C 
ENDROOT
BRANCH   1   2
ATOM      2  C   UNL A   1      44.418  27.622  30.223  1.00  0.00     0.261 C 
BRANCH   2   3
ATOM      3  O   UNL A   1      44.493  29.055  30.247  1.00  0.00    -0.462 OA
BRANCH   3   4
ATOM      4  C   UNL A   1      43.662  29.756  29.446  1.00  0.00     0.328 C 
ATOM      5  O   UNL A   1      42.959  30.678  29.849  1.00  0.00    -0.250 OA
BRANCH   4   6
ATOM      6  C   UNL A   1      43.460  29.122  28.034  1.00  0.00     0.192 C 
BRANCH   6   7
ATOM      7  C   UNL A   1      44.674  29.599  27.261  1.00  0.00     0.040 C 
BRANCH   7   8
ATOM      8  C   UNL A   1      44.979  31.067  27.516  1.00  0.00    -0.015 C 
ATOM      9  C   UNL A   1      46.448  31.073  27.953  1.00  0.00     0.007 C 
ATOM     10  C   UNL A   1      44.159  31.966  26.595  1.00  0.00     0.007 C 
ENDBRANCH   7   8
ENDBRANCH   6   7
BRANCH   6  11
ATOM     11  N   UNL A   1      42.371  29.126  27.056  1.00  0.00    -0.341 N 
ATOM     12  C   UNL A   1      41.039  28.816  27.309  1.00  0.00     0.243 C 
ATOM     13  H   UNL A   1      42.604  29.370  26.131  1.00  0.00     0.164 HD
ATOM     14  O   UNL A   1      40.292  28.718  26.328  1.00  0.00    -0.273 OA
BRANCH  12  15
ATOM     15  C   UNL A   1      40.489  28.423  28.774  1.00  0.00     0.175 C 
BRANCH  15  16
ATOM     16  N   UNL A   1      39.860  29.530  29.486  1.00  0.00    -0.342 N 
ATOM     17  C   UNL A   1      38.638  30.129  29.358  1.00  0.00     0.240 C 
ATOM     18  H   UNL A   1      40.422  29.919  30.194  1.00  0.00     0.164 HD
ATOM     19  O   UNL A   1      38.298  30.882  30.274  1.00  0.00    -0.273 OA
BRANCH  17  20
ATOM     20  C   UNL A   1      37.653  29.804  28.223  1.00  0.00     0.216 C 
BRANCH  20  21
ATOM     21  N   UNL A   1      36.624  30.785  27.964  1.00  0.00    -0.346 N 
ATOM     22  C   UNL A   1      35.331  30.536  27.611  1.00  0.00     0.239 C 
ATOM     23  H   UNL A   1      36.884  31.730  28.050  1.00  0.00     0.164 HD
ATOM     24  O   UNL A   1      34.534  31.475  27.649  1.00  0.00    -0.273 OA
BRANCH  22  25
ATOM     25  C   UNL A   1      34.903  29.113  27.173  1.00  0.00     0.219 C 
BRANCH  25  26
ATOM     26  N   UNL A   1      34.177  29.122  25.901  1.00  0.00    -0.312 N 
ATOM     27  C   UNL A   1      33.210  28.266  25.406  1.00  0.00     0.407 C 
ATOM     28  H   UNL A   1      34.417  29.862  25.296  1.00  0.00     0.167 HD
ATOM     29  O   UNL A   1      32.298  28.763  24.759  1.00  0.00    -0.225 OA
BRANCH  27  30
ATOM     30  O   UNL A   1      33.384  26.930  25.617  1.00  0.00    -0.445 OA
BRANCH  30  31
ATOM     31  C   UNL A   1      34.147  25.949  24.744  1.00  0.00     0.270 C 
BRANCH  31  32
ATOM     32  C   UNL A   1      34.720  24.555  25.149  1.00  0.00    -0.011 A 
ATOM     33  C   UNL A   1      35.678  23.803  24.409  1.00  0.00     0.007 A 
ATOM     34  C   UNL A   1      34.267  23.944  26.321  1.00  0.00     0.007 A 
ATOM     35  C   UNL A   1      35.901  22.433  24.636  1.00  0.00     0.000 A 
ATOM     36  C   UNL A   1      34.566  22.599  26.609  1.00  0.00     0.000 A 
ATOM     37  C   UNL A   1      35.314  21.821  25.728  1.00  0.00     0.000 A 
ENDBRANCH  31  32
ENDBRANCH  30  31
ENDBRANCH  27  30
ENDBRANCH  25  26
ENDBRANCH  22  25
ENDBRANCH  20  21
ENDBRANCH  17  20
ENDBRANCH  15  16
BRANCH  15  38
ATOM     38  C   UNL A   1      39.518  27.204  28.637  1.00  0.00     0.070 C 
BRANCH  38  39
ATOM     39  C   UNL A   1      39.941  25.821  28.136  1.00  0.00    -0.045 A 
ATOM     40  C   UNL A   1      41.167  25.190  28.377  1.00  0.00     0.004 A 
ATOM     41  C   UNL A   1      38.992  25.069  27.422  1.00  0.00     0.004 A 
ATOM     42  C   UNL A   1      41.468  23.909  27.906  1.00  0.00     0.000 A 
ATOM     43  C   UNL A   1      39.273  23.772  26.967  1.00  0.00     0.000 A 
ATOM     44  C   UNL A   1      40.517  23.196  27.201  1.00  0.00     0.000 A 
ENDBRANCH  38  39
ENDBRANCH  15  38
ENDBRANCH  12  15
ENDBRANCH   6  11
ENDBRANCH   4   6
ENDBRANCH   3   4
ENDBRANCH   2   3
ENDBRANCH   1   2
BRANCH   1  45
ATOM     45  O   UNL A   1      43.402  26.801  32.391  1.00  0.00    -0.376 OA
BRANCH  45  46
ATOM     46  C   UNL A   1      42.705  27.850  33.056  1.00  0.00     0.188 C 
BRANCH  46  47
ATOM     47  C   UNL A   1      41.730  27.556  34.233  1.00  0.00     0.188 C 
BRANCH  47  48
ATOM     48  O   UNL A   1      42.163  26.684  35.265  1.00  0.00    -0.377 OA
BRANCH  48  49
ATOM     49  C   UNL A   1      41.384  25.529  35.560  1.00  0.00     0.188 C 
BRANCH  49  50
ATOM     50  C   UNL A   1      42.056  24.144  35.599  1.00  0.00     0.188 C 
BRANCH  50  51
ATOM     51  O   UNL A   1      42.874  23.838  34.486  1.00  0.00    -0.376 OA
BRANCH  51  52
ATOM     52  C   UNL A   1      43.891  22.856  34.578  1.00  0.00     0.202 C 
BRANCH  52  53
ATOM     53  C   UNL A   1      45.301  23.254  35.047  1.00  0.00     0.261 C 
BRANCH  53  54
ATOM     54  O   UNL A   1      45.385  24.006  36.265  1.00  0.00    -0.460 OA
BRANCH  54  55
ATOM     55  C   UNL A   1      46.346  24.934  36.371  1.00  0.00     0.338 C 
ATOM     56  O   UNL A   1      47.560  24.773  36.242  1.00  0.00    -0.246 OA
BRANCH  55  57
ATOM     57  C   UNL A   1      45.698  26.246  36.482  1.00  0.00     0.060 A 
ATOM     58  C   UNL A   1      45.734  27.125  35.389  1.00  0.00     0.016 A 
ATOM     59  C   UNL A   1      45.093  26.623  37.682  1.00  0.00     0.016 A 
ATOM     60  C   UNL A   1      45.216  28.408  35.512  1.00  0.00     0.010 A 
ATOM     61  C   UNL A   1      44.607  27.922  37.818  1.00  0.00     0.010 A 
ATOM     62  C   UNL A   1      44.717  28.830  36.750  1.00  0.00    -0.014 A 
BRANCH  62  63
ATOM     63  C   UNL A   1      44.574  30.279  36.999  1.00  0.00     0.031 A 
ATOM     64  C   UNL A   1      45.793  31.036  37.451  1.00  0.00     0.074 A 
ATOM     65  C   UNL A   1      43.412  30.915  36.780  1.00  0.00     0.049 A 
ATOM     66  N   UNL A   1      45.916  32.297  37.776  1.00  0.00    -0.248 NA
ATOM     67  C   UNL A   1      47.044  30.264  37.549  1.00  0.00     0.031 C 
ATOM     68  C   UNL A   1      42.187  30.299  36.273  1.00  0.00     0.029 A 
ATOM     69  N   UNL A   1      43.081  32.232  36.963  1.00  0.00    -0.354 N 
ATOM     70  C   UNL A   1      47.251  32.465  38.119  1.00  0.00     0.074 A 
ATOM     71  C   UNL A   1      47.892  31.175  37.999  1.00  0.00     0.031 C 
ATOM     72  C   UNL A   1      41.229  31.240  36.198  1.00  0.00     0.029 A 
ATOM     73  C   UNL A   1      41.765  32.508  36.690  1.00  0.00     0.049 A 
ATOM     74  H   UNL A   1      43.725  32.914  37.263  1.00  0.00     0.167 HD
ATOM     75  C   UNL A   1      47.892  33.597  38.495  1.00  0.00     0.031 A 
ATOM     76  C   UNL A   1      41.073  33.652  36.847  1.00  0.00     0.031 A 
ATOM     77  C   UNL A   1      47.245  34.872  38.637  1.00  0.00     0.049 A 
ATOM     78  C   UNL A   1      41.783  34.873  37.372  1.00  0.00     0.074 A 
ATOM     79  C   UNL A   1      47.796  36.080  39.026  1.00  0.00     0.029 A 
ATOM     80  N   UNL A   1      45.899  35.100  38.399  1.00  0.00    -0.354 N 
ATOM     81  N   UNL A   1      43.047  35.026  37.690  1.00  0.00    -0.248 NA
ATOM     82  C   UNL A   1      40.969  36.084  37.551  1.00  0.00     0.031 C 
ATOM     83  C   UNL A   1      46.769  37.027  39.080  1.00  0.00     0.029 A 
ATOM     84  C   UNL A   1      45.594  36.426  38.656  1.00  0.00     0.049 A 
ATOM     85  H   UNL A   1      45.256  34.421  38.093  1.00  0.00     0.167 HD
ATOM     86  C   UNL A   1      43.185  36.357  38.070  1.00  0.00     0.074 A 
ATOM     87  C   UNL A   1      41.881  36.970  37.925  1.00  0.00     0.031 C 
ATOM     88  C   UNL A   1      44.290  37.016  38.500  1.00  0.00     0.031 A 
BRANCH  75  89
ATOM     89  C   UNL A   1      49.357  33.487  38.815  1.00  0.00    -0.014 A 
ATOM     90  C   UNL A   1      49.800  33.155  40.105  1.00  0.00     0.009 A 
ATOM     91  C   UNL A   1      50.307  33.699  37.805  1.00  0.00     0.009 A 
ATOM     92  C   UNL A   1      51.166  33.068  40.384  1.00  0.00     0.001 A 
ATOM     93  C   UNL A   1      51.671  33.580  38.078  1.00  0.00     0.001 A 
ATOM     94  C   UNL A   1      52.099  33.274  39.369  1.00  0.00     0.000 A 
ENDBRANCH  75  89
BRANCH  76  95
ATOM     95  C   UNL A   1      39.618  33.697  36.540  1.00  0.00    -0.014 A 
ATOM     96  C   UNL A   1      38.667  33.369  37.518  1.00  0.00     0.009 A 
ATOM     97  C   UNL A   1      39.175  34.027  35.249  1.00  0.00     0.009 A 
ATOM     98  C   UNL A   1      37.307  33.334  37.200  1.00  0.00     0.001 A 
ATOM     99  C   UNL A   1      37.813  34.025  34.943  1.00  0.00     0.001 A 
ATOM    100  C   UNL A   1      36.881  33.665  35.914  1.00  0.00     0.000 A 
ENDBRANCH  76  95
BRANCH  88 101
ATOM    101  C   UNL A   1      44.145  38.485  38.792  1.00  0.00    -0.014 A 
ATOM    102  C   UNL A   1      44.384  39.459  37.810  1.00  0.00     0.009 A 
ATOM    103  C   UNL A   1      43.728  38.897  40.069  1.00  0.00     0.009 A 
ATOM    104  C   UNL A   1      44.254  40.815  38.114  1.00  0.00     0.001 A 
ATOM    105  C   UNL A   1      43.564  40.251  40.359  1.00  0.00     0.001 A 
ATOM    106  C   UNL A   1      43.838  41.209  39.385  1.00  0.00     0.000 A 
ENDBRANCH  88 101
ENDBRANCH  62  63
ENDBRANCH  55  57
ENDBRANCH  54  55
ENDBRANCH  53  54
ENDBRANCH  52  53
ENDBRANCH  51  52
ENDBRANCH  50  51
ENDBRANCH  49  50
ENDBRANCH  48  49
ENDBRANCH  47  48
ENDBRANCH  46  47
ENDBRANCH  45  46
ENDBRANCH   1  45
TORSDOF 34
ENDMDL
