MODEL 1
REMARK VINA RESULT:     -10.2      0.000      0.000
REMARK SMILES O=C(OCCOCCOCCOCCOC(=O)c1ccc(-c2c3nc(c(-c4ccccc4)c4ccc([nH]4)c(-c4ccccc4)c4nc(c(-c5ccccc5)c5ccc2[nH]5)C=C4)C=C3)cc1)C1=Cc2c(ccc(Cl)c2Cl)O[C@H]1C(F)(F)F
REMARK SMILES IDX 10 1 9 2 8 3 7 4 6 5 5 6 4 7 3 8 2 9 1 10 66 11 67 12 77 13
REMARK SMILES IDX 68 14 76 15 69 16 74 17 70 18 72 19 75 20 71 21 73 22 78 23
REMARK SMILES IDX 79 24 80 25 81 26 11 27 12 28 13 29 14 30 15 31 16 32 17 33
REMARK SMILES IDX 18 34 19 35 65 36 20 37 64 38 21 39 22 40 23 41 58 42 24 43
REMARK SMILES IDX 63 44 57 45 59 46 25 47 62 48 56 49 55 50 26 52 48 53 33 54
REMARK SMILES IDX 47 55 34 56 37 57 46 58 60 59 35 60 36 61 45 63 61 64 38 65
REMARK SMILES IDX 27 66 28 67 32 68 29 69 31 70 30 71 49 72 50 73 54 74 51 75
REMARK SMILES IDX 53 76 52 77 39 78 40 79 44 80 41 81 43 82 42 83
REMARK H PARENT 59 51 37 62
REMARK Flexibility Score: inf
ROOT
ATOM      1  C   UNL A   1      43.023  19.208  26.065  1.00  0.00     0.188 C 
ENDROOT
BRANCH   1   2
ATOM      2  O   UNL A   1      41.652  19.095  25.711  1.00  0.00    -0.377 OA
BRANCH   2   3
ATOM      3  C   UNL A   1      40.738  20.051  26.220  1.00  0.00     0.188 C 
BRANCH   3   4
ATOM      4  C   UNL A   1      41.130  21.524  26.054  1.00  0.00     0.188 C 
BRANCH   4   5
ATOM      5  O   UNL A   1      40.078  22.439  26.330  1.00  0.00    -0.376 OA
BRANCH   5   6
ATOM      6  C   UNL A   1      38.784  21.969  25.982  1.00  0.00     0.202 C 
BRANCH   6   7
ATOM      7  C   UNL A   1      37.792  23.080  25.680  1.00  0.00     0.261 C 
BRANCH   7   8
ATOM      8  O   UNL A   1      36.655  22.603  24.942  1.00  0.00    -0.460 OA
BRANCH   8   9
ATOM      9  C   UNL A   1      36.014  23.270  23.951  1.00  0.00     0.338 C 
ATOM     10  O   UNL A   1      36.402  23.156  22.792  1.00  0.00    -0.246 OA
BRANCH   9  11
ATOM     11  C   UNL A   1      34.699  23.898  24.215  1.00  0.00     0.087 C 
ATOM     12  C   UNL A   1      34.108  24.897  23.546  1.00  0.00     0.029 C 
ATOM     13  C   UNL A   1      33.787  23.061  25.087  1.00  0.00     0.316 C 
ATOM     14  C   UNL A   1      33.240  25.751  24.343  1.00  0.00     0.037 A 
ATOM     15  O   UNL A   1      32.730  23.825  25.743  1.00  0.00    -0.475 OA
ATOM     16  C   UNL A   1      32.641  25.163  25.460  1.00  0.00     0.129 A 
ATOM     17  C   UNL A   1      33.146  27.147  24.142  1.00  0.00     0.070 A 
ATOM     18  C   UNL A   1      31.945  25.952  26.370  1.00  0.00     0.049 A 
ATOM     19  C   UNL A   1      32.484  27.937  25.091  1.00  0.00     0.060 A 
ATOM     20  Cl  UNL A   1      33.882  27.906  22.762  1.00  0.00    -0.082 Cl
ATOM     21  C   UNL A   1      31.887  27.336  26.199  1.00  0.00     0.026 A 
ATOM     22  Cl  UNL A   1      32.405  29.662  24.977  1.00  0.00    -0.083 Cl
BRANCH  13  23
ATOM     23  C   UNL A   1      33.196  21.866  24.276  1.00  0.00     0.430 C 
ATOM     24  F   UNL A   1      33.917  20.725  24.400  1.00  0.00    -0.167 F 
ATOM     25  F   UNL A   1      31.930  21.584  24.664  1.00  0.00    -0.167 F 
ATOM     26  F   UNL A   1      33.153  22.132  22.946  1.00  0.00    -0.167 F 
ENDBRANCH  13  23
ENDBRANCH   9  11
ENDBRANCH   8   9
ENDBRANCH   7   8
ENDBRANCH   6   7
ENDBRANCH   5   6
ENDBRANCH   4   5
ENDBRANCH   3   4
ENDBRANCH   2   3
ENDBRANCH   1   2
BRANCH   1  27
ATOM     27  C   UNL A   1      43.990  18.758  24.946  1.00  0.00     0.188 C 
BRANCH  27  28
ATOM     28  O   UNL A   1      44.843  19.685  24.273  1.00  0.00    -0.376 OA
BRANCH  28  29
ATOM     29  C   UNL A   1      45.004  20.983  24.821  1.00  0.00     0.202 C 
BRANCH  29  30
ATOM     30  C   UNL A   1      44.777  22.120  23.805  1.00  0.00     0.261 C 
BRANCH  30  31
ATOM     31  O   UNL A   1      44.133  23.299  24.334  1.00  0.00    -0.460 OA
BRANCH  31  32
ATOM     32  C   UNL A   1      44.958  24.262  24.839  1.00  0.00     0.338 C 
ATOM     33  O   UNL A   1      46.104  24.464  24.536  1.00  0.00    -0.246 OA
BRANCH  32  34
ATOM     34  C   UNL A   1      44.173  25.164  25.744  1.00  0.00     0.060 A 
ATOM     35  C   UNL A   1      44.372  26.547  25.628  1.00  0.00     0.016 A 
ATOM     36  C   UNL A   1      43.250  24.683  26.679  1.00  0.00     0.016 A 
ATOM     37  C   UNL A   1      43.673  27.446  26.446  1.00  0.00     0.010 A 
ATOM     38  C   UNL A   1      42.566  25.583  27.516  1.00  0.00     0.010 A 
ATOM     39  C   UNL A   1      42.790  26.972  27.425  1.00  0.00    -0.014 A 
BRANCH  39  40
ATOM     40  C   UNL A   1      42.251  27.884  28.474  1.00  0.00     0.031 A 
ATOM     41  C   UNL A   1      43.043  28.053  29.747  1.00  0.00     0.074 A 
ATOM     42  C   UNL A   1      41.087  28.551  28.335  1.00  0.00     0.049 A 
ATOM     43  N   UNL A   1      42.723  28.679  30.852  1.00  0.00    -0.248 NA
ATOM     44  C   UNL A   1      44.373  27.423  29.777  1.00  0.00     0.031 C 
ATOM     45  C   UNL A   1      40.242  28.552  27.143  1.00  0.00     0.029 A 
ATOM     46  N   UNL A   1      40.405  29.350  29.227  1.00  0.00    -0.354 N 
ATOM     47  C   UNL A   1      43.797  28.493  31.716  1.00  0.00     0.074 A 
ATOM     48  C   UNL A   1      44.775  27.696  31.010  1.00  0.00     0.031 C 
ATOM     49  C   UNL A   1      39.143  29.291  27.387  1.00  0.00     0.029 A 
ATOM     50  C   UNL A   1      39.182  29.779  28.766  1.00  0.00     0.049 A 
ATOM     51  H   UNL A   1      40.761  29.591  30.113  1.00  0.00     0.167 HD
ATOM     52  C   UNL A   1      43.953  28.933  32.987  1.00  0.00     0.031 A 
ATOM     53  C   UNL A   1      38.191  30.450  29.393  1.00  0.00     0.031 A 
ATOM     54  C   UNL A   1      42.990  29.729  33.699  1.00  0.00     0.049 A 
ATOM     55  C   UNL A   1      38.354  30.852  30.842  1.00  0.00     0.074 A 
ATOM     56  C   UNL A   1      43.087  30.248  34.980  1.00  0.00     0.029 A 
ATOM     57  N   UNL A   1      41.756  30.109  33.204  1.00  0.00    -0.354 N 
ATOM     58  N   UNL A   1      39.388  30.699  31.633  1.00  0.00    -0.248 NA
ATOM     59  C   UNL A   1      37.206  31.513  31.486  1.00  0.00     0.031 C 
ATOM     60  C   UNL A   1      41.878  30.875  35.289  1.00  0.00     0.029 A 
ATOM     61  C   UNL A   1      41.058  30.811  34.174  1.00  0.00     0.049 A 
ATOM     62  H   UNL A   1      41.423  29.910  32.300  1.00  0.00     0.167 HD
ATOM     63  C   UNL A   1      39.021  31.261  32.853  1.00  0.00     0.074 A 
ATOM     64  C   UNL A   1      37.682  31.782  32.693  1.00  0.00     0.031 C 
ATOM     65  C   UNL A   1      39.729  31.332  34.007  1.00  0.00     0.031 A 
BRANCH  52  66
ATOM     66  C   UNL A   1      45.193  28.518  33.727  1.00  0.00    -0.014 A 
ATOM     67  C   UNL A   1      46.303  29.366  33.840  1.00  0.00     0.009 A 
ATOM     68  C   UNL A   1      45.208  27.281  34.393  1.00  0.00     0.009 A 
ATOM     69  C   UNL A   1      47.414  28.974  34.592  1.00  0.00     0.001 A 
ATOM     70  C   UNL A   1      46.306  26.905  35.166  1.00  0.00     0.001 A 
ATOM     71  C   UNL A   1      47.410  27.750  35.261  1.00  0.00     0.000 A 
ENDBRANCH  52  66
BRANCH  53  72
ATOM     72  C   UNL A   1      36.899  30.725  28.698  1.00  0.00    -0.014 A 
ATOM     73  C   UNL A   1      36.513  32.036  28.376  1.00  0.00     0.009 A 
ATOM     74  C   UNL A   1      36.003  29.676  28.433  1.00  0.00     0.009 A 
ATOM     75  C   UNL A   1      35.247  32.294  27.842  1.00  0.00     0.001 A 
ATOM     76  C   UNL A   1      34.752  29.933  27.864  1.00  0.00     0.001 A 
ATOM     77  C   UNL A   1      34.369  31.242  27.583  1.00  0.00     0.000 A 
ENDBRANCH  53  72
BRANCH  65  78
ATOM     78  C   UNL A   1      39.090  32.015  35.186  1.00  0.00    -0.014 A 
ATOM     79  C   UNL A   1      39.120  33.412  35.324  1.00  0.00     0.009 A 
ATOM     80  C   UNL A   1      38.389  31.255  36.137  1.00  0.00     0.009 A 
ATOM     81  C   UNL A   1      38.482  34.030  36.402  1.00  0.00     0.001 A 
ATOM     82  C   UNL A   1      37.725  31.877  37.195  1.00  0.00     0.001 A 
ATOM     83  C   UNL A   1      37.779  33.263  37.332  1.00  0.00     0.000 A 
ENDBRANCH  65  78
ENDBRANCH  39  40
ENDBRANCH  32  34
ENDBRANCH  31  32
ENDBRANCH  30  31
ENDBRANCH  29  30
ENDBRANCH  28  29
ENDBRANCH  27  28
ENDBRANCH   1  27
TORSDOF 21
ENDMDL
MODEL 2
REMARK VINA RESULT:      -9.8      0.805      5.748
REMARK SMILES O=C(OCCOCCOCCOCCOC(=O)c1ccc(-c2c3nc(c(-c4ccccc4)c4ccc([nH]4)c(-c4ccccc4)c4nc(c(-c5ccccc5)c5ccc2[nH]5)C=C4)C=C3)cc1)C1=Cc2c(ccc(Cl)c2Cl)O[C@H]1C(F)(F)F
REMARK SMILES IDX 10 1 9 2 8 3 7 4 6 5 5 6 4 7 3 8 2 9 1 10 66 11 67 12 77 13
REMARK SMILES IDX 68 14 76 15 69 16 74 17 70 18 72 19 75 20 71 21 73 22 78 23
REMARK SMILES IDX 79 24 80 25 81 26 11 27 12 28 13 29 14 30 15 31 16 32 17 33
REMARK SMILES IDX 18 34 19 35 65 36 20 37 64 38 21 39 22 40 23 41 58 42 24 43
REMARK SMILES IDX 63 44 57 45 59 46 25 47 62 48 56 49 55 50 26 52 48 53 33 54
REMARK SMILES IDX 47 55 34 56 37 57 46 58 60 59 35 60 36 61 45 63 61 64 38 65
REMARK SMILES IDX 27 66 28 67 32 68 29 69 31 70 30 71 49 72 50 73 54 74 51 75
REMARK SMILES IDX 53 76 52 77 39 78 40 79 44 80 41 81 43 82 42 83
REMARK H PARENT 59 51 37 62
REMARK Flexibility Score: inf
ROOT
ATOM      1  C   UNL A   1      42.519  19.739  26.638  1.00  0.00     0.188 C 
ENDROOT
BRANCH   1   2
ATOM      2  O   UNL A   1      41.120  19.621  26.421  1.00  0.00    -0.377 OA
BRANCH   2   3
ATOM      3  C   UNL A   1      40.442  20.678  25.767  1.00  0.00     0.188 C 
BRANCH   3   4
ATOM      4  C   UNL A   1      40.924  22.098  26.089  1.00  0.00     0.188 C 
BRANCH   4   5
ATOM      5  O   UNL A   1      39.881  23.001  26.431  1.00  0.00    -0.376 OA
BRANCH   5   6
ATOM      6  C   UNL A   1      38.576  22.448  26.354  1.00  0.00     0.202 C 
BRANCH   6   7
ATOM      7  C   UNL A   1      37.533  23.417  25.823  1.00  0.00     0.261 C 
BRANCH   7   8
ATOM      8  O   UNL A   1      36.665  22.801  24.859  1.00  0.00    -0.460 OA
BRANCH   8   9
ATOM      9  C   UNL A   1      36.003  23.439  23.861  1.00  0.00     0.338 C 
ATOM     10  O   UNL A   1      36.381  23.306  22.701  1.00  0.00    -0.246 OA
BRANCH   9  11
ATOM     11  C   UNL A   1      34.683  24.055  24.127  1.00  0.00     0.087 C 
ATOM     12  C   UNL A   1      34.112  25.094  23.504  1.00  0.00     0.029 C 
ATOM     13  C   UNL A   1      33.745  23.169  24.920  1.00  0.00     0.316 C 
ATOM     14  C   UNL A   1      33.225  25.901  24.328  1.00  0.00     0.037 A 
ATOM     15  O   UNL A   1      32.672  23.895  25.593  1.00  0.00    -0.475 OA
ATOM     16  C   UNL A   1      32.593  25.248  25.390  1.00  0.00     0.129 A 
ATOM     17  C   UNL A   1      33.139  27.307  24.211  1.00  0.00     0.070 A 
ATOM     18  C   UNL A   1      31.874  25.982  26.327  1.00  0.00     0.049 A 
ATOM     19  C   UNL A   1      32.452  28.040  25.188  1.00  0.00     0.060 A 
ATOM     20  Cl  UNL A   1      33.914  28.147  22.901  1.00  0.00    -0.082 Cl
ATOM     21  C   UNL A   1      31.823  27.375  26.240  1.00  0.00     0.026 A 
ATOM     22  Cl  UNL A   1      32.379  29.769  25.177  1.00  0.00    -0.083 Cl
BRANCH  13  23
ATOM     23  C   UNL A   1      33.175  22.028  24.021  1.00  0.00     0.430 C 
ATOM     24  F   UNL A   1      31.837  21.853  24.162  1.00  0.00    -0.167 F 
ATOM     25  F   UNL A   1      33.411  22.268  22.710  1.00  0.00    -0.167 F 
ATOM     26  F   UNL A   1      33.737  20.829  24.313  1.00  0.00    -0.167 F 
ENDBRANCH  13  23
ENDBRANCH   9  11
ENDBRANCH   8   9
ENDBRANCH   7   8
ENDBRANCH   6   7
ENDBRANCH   5   6
ENDBRANCH   4   5
ENDBRANCH   3   4
ENDBRANCH   2   3
ENDBRANCH   1   2
BRANCH   1  27
ATOM     27  C   UNL A   1      43.372  19.323  25.417  1.00  0.00     0.188 C 
BRANCH  27  28
ATOM     28  O   UNL A   1      43.998  20.291  24.575  1.00  0.00    -0.376 OA
BRANCH  28  29
ATOM     29  C   UNL A   1      44.711  21.358  25.176  1.00  0.00     0.202 C 
BRANCH  29  30
ATOM     30  C   UNL A   1      44.897  22.580  24.256  1.00  0.00     0.261 C 
BRANCH  30  31
ATOM     31  O   UNL A   1      44.082  23.727  24.580  1.00  0.00    -0.460 OA
BRANCH  31  32
ATOM     32  C   UNL A   1      44.742  24.823  25.053  1.00  0.00     0.338 C 
ATOM     33  O   UNL A   1      45.749  25.309  24.608  1.00  0.00    -0.246 OA
BRANCH  32  34
ATOM     34  C   UNL A   1      43.936  25.456  26.147  1.00  0.00     0.060 A 
ATOM     35  C   UNL A   1      43.977  26.852  26.270  1.00  0.00     0.016 A 
ATOM     36  C   UNL A   1      43.143  24.716  27.029  1.00  0.00     0.016 A 
ATOM     37  C   UNL A   1      43.248  27.508  27.274  1.00  0.00     0.010 A 
ATOM     38  C   UNL A   1      42.431  25.371  28.051  1.00  0.00     0.010 A 
ATOM     39  C   UNL A   1      42.497  26.771  28.198  1.00  0.00    -0.014 A 
BRANCH  39  40
ATOM     40  C   UNL A   1      41.944  27.419  29.423  1.00  0.00     0.031 A 
ATOM     41  C   UNL A   1      40.628  28.148  29.311  1.00  0.00     0.074 A 
ATOM     42  C   UNL A   1      42.575  27.388  30.614  1.00  0.00     0.049 A 
ATOM     43  N   UNL A   1      40.011  28.897  30.191  1.00  0.00    -0.248 NA
ATOM     44  C   UNL A   1      39.916  28.017  28.029  1.00  0.00     0.031 C 
ATOM     45  C   UNL A   1      43.814  26.668  30.904  1.00  0.00     0.029 A 
ATOM     46  N   UNL A   1      42.259  28.001  31.807  1.00  0.00    -0.354 N 
ATOM     47  C   UNL A   1      38.858  29.349  29.559  1.00  0.00     0.074 A 
ATOM     48  C   UNL A   1      38.860  28.793  28.224  1.00  0.00     0.031 C 
ATOM     49  C   UNL A   1      44.166  26.905  32.182  1.00  0.00     0.029 A 
ATOM     50  C   UNL A   1      43.205  27.826  32.790  1.00  0.00     0.049 A 
ATOM     51  H   UNL A   1      41.431  28.518  31.942  1.00  0.00     0.167 HD
ATOM     52  C   UNL A   1      37.889  30.164  30.039  1.00  0.00     0.031 A 
ATOM     53  C   UNL A   1      43.309  28.377  34.019  1.00  0.00     0.031 A 
ATOM     54  C   UNL A   1      37.873  30.721  31.365  1.00  0.00     0.049 A 
ATOM     55  C   UNL A   1      42.259  29.355  34.497  1.00  0.00     0.074 A 
ATOM     56  C   UNL A   1      36.907  31.528  31.943  1.00  0.00     0.029 A 
ATOM     57  N   UNL A   1      38.867  30.543  32.310  1.00  0.00    -0.354 N 
ATOM     58  N   UNL A   1      41.158  29.745  33.903  1.00  0.00    -0.248 NA
ATOM     59  C   UNL A   1      42.474  29.975  35.816  1.00  0.00     0.031 C 
ATOM     60  C   UNL A   1      37.356  31.903  33.211  1.00  0.00     0.029 A 
ATOM     61  C   UNL A   1      38.564  31.270  33.450  1.00  0.00     0.049 A 
ATOM     62  H   UNL A   1      39.669  29.985  32.191  1.00  0.00     0.167 HD
ATOM     63  C   UNL A   1      40.545  30.634  34.781  1.00  0.00     0.074 A 
ATOM     64  C   UNL A   1      41.379  30.708  35.960  1.00  0.00     0.031 C 
ATOM     65  C   UNL A   1      39.395  31.335  34.621  1.00  0.00     0.031 A 
BRANCH  52  66
ATOM     66  C   UNL A   1      36.779  30.560  29.107  1.00  0.00    -0.014 A 
ATOM     67  C   UNL A   1      35.779  29.655  28.724  1.00  0.00     0.009 A 
ATOM     68  C   UNL A   1      36.694  31.895  28.675  1.00  0.00     0.009 A 
ATOM     69  C   UNL A   1      34.725  30.076  27.910  1.00  0.00     0.001 A 
ATOM     70  C   UNL A   1      35.626  32.318  27.885  1.00  0.00     0.001 A 
ATOM     71  C   UNL A   1      34.644  31.407  27.499  1.00  0.00     0.000 A 
ENDBRANCH  52  66
BRANCH  53  72
ATOM     72  C   UNL A   1      44.496  28.098  34.880  1.00  0.00    -0.014 A 
ATOM     73  C   UNL A   1      45.510  29.054  35.050  1.00  0.00     0.009 A 
ATOM     74  C   UNL A   1      44.662  26.832  35.466  1.00  0.00     0.009 A 
ATOM     75  C   UNL A   1      46.676  28.737  35.753  1.00  0.00     0.001 A 
ATOM     76  C   UNL A   1      45.812  26.529  36.199  1.00  0.00     0.001 A 
ATOM     77  C   UNL A   1      46.825  27.476  36.329  1.00  0.00     0.000 A 
ENDBRANCH  53  72
BRANCH  65  78
ATOM     78  C   UNL A   1      38.949  32.225  35.749  1.00  0.00    -0.014 A 
ATOM     79  C   UNL A   1      38.125  31.742  36.778  1.00  0.00     0.009 A 
ATOM     80  C   UNL A   1      39.415  33.548  35.821  1.00  0.00     0.009 A 
ATOM     81  C   UNL A   1      37.759  32.572  37.841  1.00  0.00     0.001 A 
ATOM     82  C   UNL A   1      39.074  34.365  36.899  1.00  0.00     0.001 A 
ATOM     83  C   UNL A   1      38.240  33.879  37.904  1.00  0.00     0.000 A 
ENDBRANCH  65  78
ENDBRANCH  39  40
ENDBRANCH  32  34
ENDBRANCH  31  32
ENDBRANCH  30  31
ENDBRANCH  29  30
ENDBRANCH  28  29
ENDBRANCH  27  28
ENDBRANCH   1  27
TORSDOF 21
ENDMDL
MODEL 3
REMARK VINA RESULT:      -9.5      4.841     10.827
REMARK SMILES O=C(OCCOCCOCCOCCOC(=O)c1ccc(-c2c3nc(c(-c4ccccc4)c4ccc([nH]4)c(-c4ccccc4)c4nc(c(-c5ccccc5)c5ccc2[nH]5)C=C4)C=C3)cc1)C1=Cc2c(ccc(Cl)c2Cl)O[C@H]1C(F)(F)F
REMARK SMILES IDX 10 1 9 2 8 3 7 4 6 5 5 6 4 7 3 8 2 9 1 10 66 11 67 12 77 13
REMARK SMILES IDX 68 14 76 15 69 16 74 17 70 18 72 19 75 20 71 21 73 22 78 23
REMARK SMILES IDX 79 24 80 25 81 26 11 27 12 28 13 29 14 30 15 31 16 32 17 33
REMARK SMILES IDX 18 34 19 35 65 36 20 37 64 38 21 39 22 40 23 41 58 42 24 43
REMARK SMILES IDX 63 44 57 45 59 46 25 47 62 48 56 49 55 50 26 52 48 53 33 54
REMARK SMILES IDX 47 55 34 56 37 57 46 58 60 59 35 60 36 61 45 63 61 64 38 65
REMARK SMILES IDX 27 66 28 67 32 68 29 69 31 70 30 71 49 72 50 73 54 74 51 75
REMARK SMILES IDX 53 76 52 77 39 78 40 79 44 80 41 81 43 82 42 83
REMARK H PARENT 59 51 37 62
REMARK Flexibility Score: inf
ROOT
ATOM      1  C   UNL A   1      33.370  34.763  32.548  1.00  0.00     0.188 C 
ENDROOT
BRANCH   1   2
ATOM      2  O   UNL A   1      32.583  35.250  31.470  1.00  0.00    -0.377 OA
BRANCH   2   3
ATOM      3  C   UNL A   1      33.236  35.882  30.383  1.00  0.00     0.188 C 
BRANCH   3   4
ATOM      4  C   UNL A   1      34.064  34.975  29.466  1.00  0.00     0.188 C 
BRANCH   4   5
ATOM      5  O   UNL A   1      33.530  33.668  29.307  1.00  0.00    -0.376 OA
BRANCH   5   6
ATOM      6  C   UNL A   1      33.796  33.072  28.045  1.00  0.00     0.202 C 
BRANCH   6   7
ATOM      7  C   UNL A   1      34.527  31.744  28.141  1.00  0.00     0.261 C 
BRANCH   7   8
ATOM      8  O   UNL A   1      34.206  30.871  27.046  1.00  0.00    -0.460 OA
BRANCH   8   9
ATOM      9  C   UNL A   1      34.508  29.551  26.964  1.00  0.00     0.338 C 
ATOM     10  O   UNL A   1      35.196  29.032  27.837  1.00  0.00    -0.246 OA
BRANCH   9  11
ATOM     11  C   UNL A   1      33.790  28.688  25.997  1.00  0.00     0.087 C 
ATOM     12  C   UNL A   1      33.524  27.379  26.094  1.00  0.00     0.029 C 
ATOM     13  C   UNL A   1      32.952  29.457  24.998  1.00  0.00     0.316 C 
ATOM     14  C   UNL A   1      33.458  26.665  24.827  1.00  0.00     0.037 A 
ATOM     15  O   UNL A   1      32.641  28.707  23.785  1.00  0.00    -0.475 OA
ATOM     16  C   UNL A   1      33.073  27.409  23.710  1.00  0.00     0.129 A 
ATOM     17  C   UNL A   1      33.940  25.345  24.667  1.00  0.00     0.070 A 
ATOM     18  C   UNL A   1      33.157  26.849  22.440  1.00  0.00     0.049 A 
ATOM     19  C   UNL A   1      34.065  24.809  23.379  1.00  0.00     0.060 A 
ATOM     20  Cl  UNL A   1      34.426  24.395  26.039  1.00  0.00    -0.082 Cl
ATOM     21  C   UNL A   1      33.674  25.562  22.272  1.00  0.00     0.026 A 
ATOM     22  Cl  UNL A   1      34.737  23.241  23.083  1.00  0.00    -0.083 Cl
BRANCH  13  23
ATOM     23  C   UNL A   1      31.654  30.000  25.672  1.00  0.00     0.430 C 
ATOM     24  F   UNL A   1      31.630  31.352  25.780  1.00  0.00    -0.167 F 
ATOM     25  F   UNL A   1      30.549  29.635  24.981  1.00  0.00    -0.167 F 
ATOM     26  F   UNL A   1      31.506  29.527  26.935  1.00  0.00    -0.167 F 
ENDBRANCH  13  23
ENDBRANCH   9  11
ENDBRANCH   8   9
ENDBRANCH   7   8
ENDBRANCH   6   7
ENDBRANCH   5   6
ENDBRANCH   4   5
ENDBRANCH   3   4
ENDBRANCH   2   3
ENDBRANCH   1   2
BRANCH   1  27
ATOM     27  C   UNL A   1      34.415  35.781  33.060  1.00  0.00     0.188 C 
BRANCH  27  28
ATOM     28  O   UNL A   1      35.750  35.387  33.382  1.00  0.00    -0.376 OA
BRANCH  28  29
ATOM     29  C   UNL A   1      35.950  34.181  34.099  1.00  0.00     0.202 C 
BRANCH  29  30
ATOM     30  C   UNL A   1      37.006  33.250  33.471  1.00  0.00     0.261 C 
BRANCH  30  31
ATOM     31  O   UNL A   1      36.592  31.878  33.297  1.00  0.00    -0.460 OA
BRANCH  31  32
ATOM     32  C   UNL A   1      36.228  31.513  32.034  1.00  0.00     0.338 C 
ATOM     33  O   UNL A   1      35.175  31.729  31.493  1.00  0.00    -0.246 OA
BRANCH  32  34
ATOM     34  C   UNL A   1      37.410  30.917  31.329  1.00  0.00     0.060 A 
ATOM     35  C   UNL A   1      38.309  30.152  32.084  1.00  0.00     0.016 A 
ATOM     36  C   UNL A   1      37.637  31.082  29.959  1.00  0.00     0.016 A 
ATOM     37  C   UNL A   1      39.437  29.569  31.487  1.00  0.00     0.010 A 
ATOM     38  C   UNL A   1      38.780  30.518  29.364  1.00  0.00     0.010 A 
ATOM     39  C   UNL A   1      39.704  29.777  30.128  1.00  0.00    -0.014 A 
BRANCH  39  40
ATOM     40  C   UNL A   1      41.023  29.401  29.542  1.00  0.00     0.031 A 
ATOM     41  C   UNL A   1      41.192  28.000  29.007  1.00  0.00     0.074 A 
ATOM     42  C   UNL A   1      42.066  30.253  29.484  1.00  0.00     0.049 A 
ATOM     43  N   UNL A   1      42.271  27.396  28.575  1.00  0.00    -0.248 NA
ATOM     44  C   UNL A   1      39.978  27.169  28.960  1.00  0.00     0.031 C 
ATOM     45  C   UNL A   1      42.044  31.656  29.891  1.00  0.00     0.029 A 
ATOM     46  N   UNL A   1      43.364  30.047  29.068  1.00  0.00    -0.354 N 
ATOM     47  C   UNL A   1      41.872  26.108  28.235  1.00  0.00     0.074 A 
ATOM     48  C   UNL A   1      40.455  26.017  28.510  1.00  0.00     0.031 C 
ATOM     49  C   UNL A   1      43.277  32.176  29.731  1.00  0.00     0.029 A 
ATOM     50  C   UNL A   1      44.186  31.134  29.253  1.00  0.00     0.049 A 
ATOM     51  H   UNL A   1      43.674  29.199  28.675  1.00  0.00     0.167 HD
ATOM     52  C   UNL A   1      42.617  25.088  27.748  1.00  0.00     0.031 A 
ATOM     53  C   UNL A   1      45.522  31.264  29.098  1.00  0.00     0.031 A 
ATOM     54  C   UNL A   1      44.024  25.166  27.466  1.00  0.00     0.049 A 
ATOM     55  C   UNL A   1      46.345  30.081  28.638  1.00  0.00     0.074 A 
ATOM     56  C   UNL A   1      44.848  24.186  26.937  1.00  0.00     0.029 A 
ATOM     57  N   UNL A   1      44.819  26.274  27.701  1.00  0.00    -0.354 N 
ATOM     58  N   UNL A   1      45.948  28.882  28.287  1.00  0.00    -0.248 NA
ATOM     59  C   UNL A   1      47.804  30.270  28.563  1.00  0.00     0.031 C 
ATOM     60  C   UNL A   1      46.156  24.675  26.925  1.00  0.00     0.029 A 
ATOM     61  C   UNL A   1      46.134  25.984  27.378  1.00  0.00     0.049 A 
ATOM     62  H   UNL A   1      44.497  27.137  28.047  1.00  0.00     0.167 HD
ATOM     63  C   UNL A   1      47.102  28.187  27.932  1.00  0.00     0.074 A 
ATOM     64  C   UNL A   1      48.210  29.104  28.084  1.00  0.00     0.031 C 
ATOM     65  C   UNL A   1      47.231  26.901  27.525  1.00  0.00     0.031 A 
BRANCH  52  66
ATOM     66  C   UNL A   1      41.940  23.762  27.537  1.00  0.00    -0.014 A 
ATOM     67  C   UNL A   1      41.938  22.770  28.527  1.00  0.00     0.009 A 
ATOM     68  C   UNL A   1      41.221  23.544  26.350  1.00  0.00     0.009 A 
ATOM     69  C   UNL A   1      41.242  21.576  28.324  1.00  0.00     0.001 A 
ATOM     70  C   UNL A   1      40.505  22.362  26.161  1.00  0.00     0.001 A 
ATOM     71  C   UNL A   1      40.520  21.377  27.146  1.00  0.00     0.000 A 
ENDBRANCH  52  66
BRANCH  53  72
ATOM     72  C   UNL A   1      46.209  32.539  29.456  1.00  0.00    -0.014 A 
ATOM     73  C   UNL A   1      46.752  33.375  28.466  1.00  0.00     0.009 A 
ATOM     74  C   UNL A   1      46.405  32.882  30.804  1.00  0.00     0.009 A 
ATOM     75  C   UNL A   1      47.504  34.499  28.818  1.00  0.00     0.001 A 
ATOM     76  C   UNL A   1      47.126  34.027  31.153  1.00  0.00     0.001 A 
ATOM     77  C   UNL A   1      47.688  34.826  30.161  1.00  0.00     0.000 A 
ENDBRANCH  53  72
BRANCH  65  78
ATOM     78  C   UNL A   1      48.611  26.404  27.187  1.00  0.00    -0.014 A 
ATOM     79  C   UNL A   1      49.402  25.743  28.140  1.00  0.00     0.009 A 
ATOM     80  C   UNL A   1      49.098  26.536  25.876  1.00  0.00     0.009 A 
ATOM     81  C   UNL A   1      50.662  25.248  27.793  1.00  0.00     0.001 A 
ATOM     82  C   UNL A   1      50.343  26.013  25.524  1.00  0.00     0.001 A 
ATOM     83  C   UNL A   1      51.127  25.376  26.484  1.00  0.00     0.000 A 
ENDBRANCH  65  78
ENDBRANCH  39  40
ENDBRANCH  32  34
ENDBRANCH  31  32
ENDBRANCH  30  31
ENDBRANCH  29  30
ENDBRANCH  28  29
ENDBRANCH  27  28
ENDBRANCH   1  27
TORSDOF 21
ENDMDL
