MODEL 1
REMARK VINA RESULT:     -10.0      0.000      0.000
REMARK SMILES C[C@H]1[C@H](C(=O)OCCOCCOCCOCCOC(=O)c2ccc(-c3c4nc(c(-c5ccccc5)c5ccc([nH]5)c(-c5ccccc5)c5nc(c(-c6ccccc6)c6ccc3[nH]6)C=C5)C=C4)cc2)CC[N@@H+]1Cc1ccc(Br)cc1F
REMARK SMILES IDX 12 1 11 2 10 3 9 4 8 5 7 6 6 7 4 8 5 9 3 10 1 11 2 12 71 13
REMARK SMILES IDX 69 14 70 15 72 17 73 18 74 19 79 20 75 21 78 22 80 23 76 24
REMARK SMILES IDX 77 25 13 26 14 27 15 28 16 29 17 30 18 31 19 32 20 33 21 34
REMARK SMILES IDX 22 35 68 36 23 37 67 38 24 39 25 40 26 41 61 42 27 43 66 44
REMARK SMILES IDX 60 45 62 46 28 47 65 48 59 49 58 50 29 52 51 53 36 54 50 55
REMARK SMILES IDX 37 56 40 57 49 58 63 59 38 60 39 61 48 63 64 64 41 65 30 66
REMARK SMILES IDX 31 67 35 68 32 69 34 70 33 71 52 72 53 73 57 74 54 75 56 76
REMARK SMILES IDX 55 77 42 78 43 79 47 80 44 81 46 82 45 83
REMARK H PARENT 71 16 62 51 40 62
REMARK Flexibility Score: inf
ROOT
ATOM      1  O   UNL A   1      39.822  21.966  26.035  1.00  0.00    -0.377 OA
ENDROOT
BRANCH   1   2
ATOM      2  C   UNL A   1      38.467  21.740  25.745  1.00  0.00     0.188 C 
BRANCH   2   3
ATOM      3  C   UNL A   1      37.435  22.870  25.717  1.00  0.00     0.188 C 
BRANCH   3   4
ATOM      4  O   UNL A   1      36.995  23.400  24.482  1.00  0.00    -0.376 OA
BRANCH   4   5
ATOM      5  C   UNL A   1      35.984  22.820  23.683  1.00  0.00     0.202 C 
BRANCH   5   6
ATOM      6  C   UNL A   1      34.750  23.556  23.130  1.00  0.00     0.261 C 
BRANCH   6   7
ATOM      7  O   UNL A   1      34.390  24.809  23.734  1.00  0.00    -0.463 OA
BRANCH   7   8
ATOM      8  C   UNL A   1      33.711  25.678  22.952  1.00  0.00     0.315 C 
ATOM      9  O   UNL A   1      33.732  25.635  21.725  1.00  0.00    -0.252 OA
BRANCH   8  10
ATOM     10  C   UNL A   1      32.904  26.745  23.688  1.00  0.00     0.162 C 
ATOM     11  C   UNL A   1      30.730  27.976  23.272  1.00  0.00     0.076 C 
ATOM     12  C   UNL A   1      31.372  26.688  23.831  1.00  0.00     0.195 C 
ATOM     13  N   UNL A   1      31.061  26.665  25.261  1.00  0.00    -0.328 N 
ATOM     14  C   UNL A   1      33.431  26.851  25.111  1.00  0.00     0.083 C 
ATOM     15  C   UNL A   1      32.225  27.164  25.975  1.00  0.00     0.263 C 
ATOM     16  H   UNL A   1      30.280  27.297  25.442  1.00  0.00     0.348 HD
BRANCH  13  17
ATOM     17  C   UNL A   1      30.428  25.447  25.777  1.00  0.00     0.302 C 
BRANCH  17  18
ATOM     18  C   UNL A   1      31.177  24.138  25.666  1.00  0.00     0.042 A 
ATOM     19  C   UNL A   1      32.060  23.727  26.683  1.00  0.00     0.014 A 
ATOM     20  C   UNL A   1      31.056  23.325  24.537  1.00  0.00     0.133 A 
ATOM     21  C   UNL A   1      32.768  22.526  26.573  1.00  0.00     0.016 A 
ATOM     22  C   UNL A   1      31.730  22.112  24.430  1.00  0.00     0.055 A 
ATOM     23  F   UNL A   1      30.281  23.707  23.513  1.00  0.00    -0.206 F 
ATOM     24  C   UNL A   1      32.589  21.719  25.449  1.00  0.00     0.020 A 
ATOM     25  Br  UNL A   1      33.514  20.076  25.316  1.00  0.00    -0.051 Br
ENDBRANCH  17  18
ENDBRANCH  13  17
ENDBRANCH   8  10
ENDBRANCH   7   8
ENDBRANCH   6   7
ENDBRANCH   5   6
ENDBRANCH   4   5
ENDBRANCH   3   4
ENDBRANCH   2   3
ENDBRANCH   1   2
BRANCH   1  26
ATOM     26  C   UNL A   1      40.516  20.824  26.478  1.00  0.00     0.188 C 
BRANCH  26  27
ATOM     27  C   UNL A   1      42.011  21.106  26.541  1.00  0.00     0.188 C 
BRANCH  27  28
ATOM     28  O   UNL A   1      42.777  20.735  25.414  1.00  0.00    -0.376 OA
BRANCH  28  29
ATOM     29  C   UNL A   1      44.087  21.224  25.157  1.00  0.00     0.202 C 
BRANCH  29  30
ATOM     30  C   UNL A   1      44.514  22.470  24.336  1.00  0.00     0.261 C 
BRANCH  30  31
ATOM     31  O   UNL A   1      43.811  23.703  24.478  1.00  0.00    -0.460 OA
BRANCH  31  32
ATOM     32  C   UNL A   1      44.493  24.736  24.998  1.00  0.00     0.338 C 
ATOM     33  O   UNL A   1      45.621  25.100  24.712  1.00  0.00    -0.246 OA
BRANCH  32  34
ATOM     34  C   UNL A   1      43.558  25.491  25.857  1.00  0.00     0.060 A 
ATOM     35  C   UNL A   1      43.740  26.874  25.972  1.00  0.00     0.016 A 
ATOM     36  C   UNL A   1      42.515  24.853  26.537  1.00  0.00     0.016 A 
ATOM     37  C   UNL A   1      42.920  27.617  26.812  1.00  0.00     0.010 A 
ATOM     38  C   UNL A   1      41.713  25.595  27.410  1.00  0.00     0.010 A 
ATOM     39  C   UNL A   1      41.951  26.970  27.586  1.00  0.00    -0.014 A 
BRANCH  39  40
ATOM     40  C   UNL A   1      41.411  27.692  28.760  1.00  0.00     0.031 A 
ATOM     41  C   UNL A   1      42.158  27.571  30.063  1.00  0.00     0.074 A 
ATOM     42  C   UNL A   1      40.355  28.515  28.653  1.00  0.00     0.049 A 
ATOM     43  N   UNL A   1      41.933  28.160  31.208  1.00  0.00    -0.248 NA
ATOM     44  C   UNL A   1      43.322  26.668  30.068  1.00  0.00     0.031 C 
ATOM     45  C   UNL A   1      39.591  28.764  27.433  1.00  0.00     0.029 A 
ATOM     46  N   UNL A   1      39.757  29.310  29.597  1.00  0.00    -0.354 N 
ATOM     47  C   UNL A   1      42.923  27.697  32.067  1.00  0.00     0.074 A 
ATOM     48  C   UNL A   1      43.724  26.751  31.326  1.00  0.00     0.031 C 
ATOM     49  C   UNL A   1      38.622  29.658  27.703  1.00  0.00     0.029 A 
ATOM     50  C   UNL A   1      38.686  30.022  29.118  1.00  0.00     0.049 A 
ATOM     51  H   UNL A   1      40.066  29.366  30.530  1.00  0.00     0.167 HD
ATOM     52  C   UNL A   1      43.154  28.037  33.356  1.00  0.00     0.031 A 
ATOM     53  C   UNL A   1      37.850  30.864  29.755  1.00  0.00     0.031 A 
ATOM     54  C   UNL A   1      42.345  28.964  34.099  1.00  0.00     0.049 A 
ATOM     55  C   UNL A   1      38.074  31.159  31.216  1.00  0.00     0.074 A 
ATOM     56  C   UNL A   1      42.493  29.379  35.411  1.00  0.00     0.029 A 
ATOM     57  N   UNL A   1      41.230  29.615  33.595  1.00  0.00    -0.354 N 
ATOM     58  N   UNL A   1      39.026  30.733  32.012  1.00  0.00    -0.248 NA
ATOM     59  C   UNL A   1      37.115  32.069  31.859  1.00  0.00     0.031 C 
ATOM     60  C   UNL A   1      41.427  30.230  35.721  1.00  0.00     0.029 A 
ATOM     61  C   UNL A   1      40.661  30.406  34.578  1.00  0.00     0.049 A 
ATOM     62  H   UNL A   1      40.892  29.528  32.675  1.00  0.00     0.167 HD
ATOM     63  C   UNL A   1      38.801  31.350  33.239  1.00  0.00     0.074 A 
ATOM     64  C   UNL A   1      37.633  32.192  33.073  1.00  0.00     0.031 C 
ATOM     65  C   UNL A   1      39.497  31.235  34.397  1.00  0.00     0.031 A 
BRANCH  52  66
ATOM     66  C   UNL A   1      44.302  27.361  34.052  1.00  0.00    -0.014 A 
ATOM     67  C   UNL A   1      45.592  27.920  34.057  1.00  0.00     0.009 A 
ATOM     68  C   UNL A   1      44.088  26.150  34.727  1.00  0.00     0.009 A 
ATOM     69  C   UNL A   1      46.647  27.261  34.691  1.00  0.00     0.001 A 
ATOM     70  C   UNL A   1      45.138  25.509  35.388  1.00  0.00     0.001 A 
ATOM     71  C   UNL A   1      46.418  26.060  35.360  1.00  0.00     0.000 A 
ENDBRANCH  52  66
BRANCH  53  72
ATOM     72  C   UNL A   1      36.709  31.482  29.026  1.00  0.00    -0.014 A 
ATOM     73  C   UNL A   1      36.753  32.825  28.623  1.00  0.00     0.009 A 
ATOM     74  C   UNL A   1      35.552  30.732  28.759  1.00  0.00     0.009 A 
ATOM     75  C   UNL A   1      35.651  33.413  27.999  1.00  0.00     0.001 A 
ATOM     76  C   UNL A   1      34.464  31.314  28.105  1.00  0.00     0.001 A 
ATOM     77  C   UNL A   1      34.509  32.657  27.736  1.00  0.00     0.000 A 
ENDBRANCH  53  72
BRANCH  65  78
ATOM     78  C   UNL A   1      39.042  32.074  35.561  1.00  0.00    -0.014 A 
ATOM     79  C   UNL A   1      39.454  33.407  35.715  1.00  0.00     0.009 A 
ATOM     80  C   UNL A   1      38.163  31.523  36.509  1.00  0.00     0.009 A 
ATOM     81  C   UNL A   1      39.036  34.153  36.820  1.00  0.00     0.001 A 
ATOM     82  C   UNL A   1      37.718  32.283  37.591  1.00  0.00     0.001 A 
ATOM     83  C   UNL A   1      38.166  33.592  37.754  1.00  0.00     0.000 A 
ENDBRANCH  65  78
ENDBRANCH  39  40
ENDBRANCH  32  34
ENDBRANCH  31  32
ENDBRANCH  30  31
ENDBRANCH  29  30
ENDBRANCH  28  29
ENDBRANCH  27  28
ENDBRANCH  26  27
ENDBRANCH   1  26
TORSDOF 22
ENDMDL
MODEL 2
REMARK VINA RESULT:      -9.4      4.176      7.898
REMARK SMILES C[C@H]1[C@H](C(=O)OCCOCCOCCOCCOC(=O)c2ccc(-c3c4nc(c(-c5ccccc5)c5ccc([nH]5)c(-c5ccccc5)c5nc(c(-c6ccccc6)c6ccc3[nH]6)C=C5)C=C4)cc2)CC[N@@H+]1Cc1ccc(Br)cc1F
REMARK SMILES IDX 12 1 11 2 10 3 9 4 8 5 7 6 6 7 4 8 5 9 3 10 1 11 2 12 71 13
REMARK SMILES IDX 69 14 70 15 72 17 73 18 74 19 79 20 75 21 78 22 80 23 76 24
REMARK SMILES IDX 77 25 13 26 14 27 15 28 16 29 17 30 18 31 19 32 20 33 21 34
REMARK SMILES IDX 22 35 68 36 23 37 67 38 24 39 25 40 26 41 61 42 27 43 66 44
REMARK SMILES IDX 60 45 62 46 28 47 65 48 59 49 58 50 29 52 51 53 36 54 50 55
REMARK SMILES IDX 37 56 40 57 49 58 63 59 38 60 39 61 48 63 64 64 41 65 30 66
REMARK SMILES IDX 31 67 35 68 32 69 34 70 33 71 52 72 53 73 57 74 54 75 56 76
REMARK SMILES IDX 55 77 42 78 43 79 47 80 44 81 46 82 45 83
REMARK H PARENT 71 16 62 51 40 62
REMARK Flexibility Score: inf
ROOT
ATOM      1  O   UNL A   1      39.544  22.219  25.793  1.00  0.00    -0.377 OA
ENDROOT
BRANCH   1   2
ATOM      2  C   UNL A   1      38.295  21.583  25.708  1.00  0.00     0.188 C 
BRANCH   2   3
ATOM      3  C   UNL A   1      36.977  22.360  25.728  1.00  0.00     0.188 C 
BRANCH   3   4
ATOM      4  O   UNL A   1      36.713  23.338  24.741  1.00  0.00    -0.376 OA
BRANCH   4   5
ATOM      5  C   UNL A   1      36.061  23.075  23.514  1.00  0.00     0.202 C 
BRANCH   5   6
ATOM      6  C   UNL A   1      34.661  23.582  23.121  1.00  0.00     0.261 C 
BRANCH   6   7
ATOM      7  O   UNL A   1      34.216  24.826  23.684  1.00  0.00    -0.463 OA
BRANCH   7   8
ATOM      8  C   UNL A   1      33.577  25.670  22.843  1.00  0.00     0.315 C 
ATOM      9  O   UNL A   1      33.655  25.587  21.620  1.00  0.00    -0.252 OA
BRANCH   8  10
ATOM     10  C   UNL A   1      32.741  26.762  23.504  1.00  0.00     0.162 C 
ATOM     11  C   UNL A   1      30.529  27.895  23.013  1.00  0.00     0.076 C 
ATOM     12  C   UNL A   1      31.212  26.671  23.659  1.00  0.00     0.195 C 
ATOM     13  N   UNL A   1      30.905  26.740  25.089  1.00  0.00    -0.328 N 
ATOM     14  C   UNL A   1      33.268  26.986  24.914  1.00  0.00     0.083 C 
ATOM     15  C   UNL A   1      32.055  27.324  25.759  1.00  0.00     0.263 C 
ATOM     16  H   UNL A   1      30.106  27.360  25.228  1.00  0.00     0.348 HD
BRANCH  13  17
ATOM     17  C   UNL A   1      30.311  25.543  25.694  1.00  0.00     0.302 C 
BRANCH  17  18
ATOM     18  C   UNL A   1      31.095  24.251  25.663  1.00  0.00     0.042 A 
ATOM     19  C   UNL A   1      31.952  23.905  26.724  1.00  0.00     0.014 A 
ATOM     20  C   UNL A   1      31.030  23.388  24.567  1.00  0.00     0.133 A 
ATOM     21  C   UNL A   1      32.692  22.719  26.689  1.00  0.00     0.016 A 
ATOM     22  C   UNL A   1      31.736  22.189  24.533  1.00  0.00     0.055 A 
ATOM     23  F   UNL A   1      30.281  23.707  23.503  1.00  0.00    -0.206 F 
ATOM     24  C   UNL A   1      32.570  21.861  25.596  1.00  0.00     0.020 A 
ATOM     25  Br  UNL A   1      33.538  20.238  25.563  1.00  0.00    -0.051 Br
ENDBRANCH  17  18
ENDBRANCH  13  17
ENDBRANCH   8  10
ENDBRANCH   7   8
ENDBRANCH   6   7
ENDBRANCH   5   6
ENDBRANCH   4   5
ENDBRANCH   3   4
ENDBRANCH   2   3
ENDBRANCH   1   2
BRANCH   1  26
ATOM     26  C   UNL A   1      40.340  21.785  26.870  1.00  0.00     0.188 C 
BRANCH  26  27
ATOM     27  C   UNL A   1      41.630  21.162  26.355  1.00  0.00     0.188 C 
BRANCH  27  28
ATOM     28  O   UNL A   1      41.565  19.813  25.941  1.00  0.00    -0.376 OA
BRANCH  28  29
ATOM     29  C   UNL A   1      42.612  18.875  26.151  1.00  0.00     0.202 C 
BRANCH  29  30
ATOM     30  C   UNL A   1      43.747  18.453  25.180  1.00  0.00     0.261 C 
BRANCH  30  31
ATOM     31  O   UNL A   1      44.149  19.320  24.120  1.00  0.00    -0.460 OA
BRANCH  31  32
ATOM     32  C   UNL A   1      45.366  19.878  24.219  1.00  0.00     0.338 C 
ATOM     33  O   UNL A   1      46.421  19.436  23.797  1.00  0.00    -0.246 OA
BRANCH  32  34
ATOM     34  C   UNL A   1      45.184  21.236  24.769  1.00  0.00     0.060 A 
ATOM     35  C   UNL A   1      44.878  22.272  23.878  1.00  0.00     0.016 A 
ATOM     36  C   UNL A   1      45.307  21.491  26.139  1.00  0.00     0.016 A 
ATOM     37  C   UNL A   1      44.751  23.575  24.342  1.00  0.00     0.010 A 
ATOM     38  C   UNL A   1      45.215  22.808  26.600  1.00  0.00     0.010 A 
ATOM     39  C   UNL A   1      44.989  23.857  25.691  1.00  0.00    -0.014 A 
BRANCH  39  40
ATOM     40  C   UNL A   1      45.278  25.261  26.062  1.00  0.00     0.031 A 
ATOM     41  C   UNL A   1      44.142  26.091  26.602  1.00  0.00     0.074 A 
ATOM     42  C   UNL A   1      46.526  25.756  26.025  1.00  0.00     0.049 A 
ATOM     43  N   UNL A   1      44.152  27.314  27.064  1.00  0.00    -0.248 NA
ATOM     44  C   UNL A   1      42.817  25.447  26.632  1.00  0.00     0.031 C 
ATOM     45  C   UNL A   1      47.715  25.030  25.584  1.00  0.00     0.029 A 
ATOM     46  N   UNL A   1      46.997  26.992  26.387  1.00  0.00    -0.354 N 
ATOM     47  C   UNL A   1      42.841  27.584  27.434  1.00  0.00     0.074 A 
ATOM     48  C   UNL A   1      42.054  26.417  27.108  1.00  0.00     0.031 C 
ATOM     49  C   UNL A   1      48.785  25.837  25.704  1.00  0.00     0.029 A 
ATOM     50  C   UNL A   1      48.350  27.139  26.207  1.00  0.00     0.049 A 
ATOM     51  H   UNL A   1      46.420  27.706  26.743  1.00  0.00     0.167 HD
ATOM     52  C   UNL A   1      42.334  28.701  28.006  1.00  0.00     0.031 A 
ATOM     53  C   UNL A   1      49.140  28.209  26.417  1.00  0.00     0.031 A 
ATOM     54  C   UNL A   1      43.112  29.870  28.313  1.00  0.00     0.049 A 
ATOM     55  C   UNL A   1      48.535  29.473  26.972  1.00  0.00     0.074 A 
ATOM     56  C   UNL A   1      42.696  31.055  28.894  1.00  0.00     0.029 A 
ATOM     57  N   UNL A   1      44.467  30.002  28.055  1.00  0.00    -0.354 N 
ATOM     58  N   UNL A   1      47.298  29.710  27.340  1.00  0.00    -0.248 NA
ATOM     59  C   UNL A   1      49.446  30.612  27.159  1.00  0.00     0.031 C 
ATOM     60  C   UNL A   1      43.787  31.930  28.926  1.00  0.00     0.029 A 
ATOM     61  C   UNL A   1      44.899  31.261  28.437  1.00  0.00     0.049 A 
ATOM     62  H   UNL A   1      45.038  29.305  27.659  1.00  0.00     0.167 HD
ATOM     63  C   UNL A   1      47.290  31.012  27.833  1.00  0.00     0.074 A 
ATOM     64  C   UNL A   1      48.650  31.502  27.733  1.00  0.00     0.031 C 
ATOM     65  C   UNL A   1      46.255  31.735  28.327  1.00  0.00     0.031 A 
BRANCH  52  66
ATOM     66  C   UNL A   1      40.857  28.721  28.291  1.00  0.00    -0.014 A 
ATOM     67  C   UNL A   1      40.330  28.196  29.483  1.00  0.00     0.009 A 
ATOM     68  C   UNL A   1      39.979  29.287  27.355  1.00  0.00     0.009 A 
ATOM     69  C   UNL A   1      38.954  28.206  29.713  1.00  0.00     0.001 A 
ATOM     70  C   UNL A   1      38.605  29.326  27.602  1.00  0.00     0.001 A 
ATOM     71  C   UNL A   1      38.093  28.775  28.775  1.00  0.00     0.000 A 
ENDBRANCH  52  66
BRANCH  53  72
ATOM     72  C   UNL A   1      50.589  28.145  26.089  1.00  0.00    -0.014 A 
ATOM     73  C   UNL A   1      51.535  27.795  27.064  1.00  0.00     0.009 A 
ATOM     74  C   UNL A   1      51.037  28.471  24.798  1.00  0.00     0.009 A 
ATOM     75  C   UNL A   1      52.899  27.803  26.762  1.00  0.00     0.001 A 
ATOM     76  C   UNL A   1      52.399  28.446  24.490  1.00  0.00     0.001 A 
ATOM     77  C   UNL A   1      53.330  28.124  25.476  1.00  0.00     0.000 A 
ENDBRANCH  53  72
BRANCH  65  78
ATOM     78  C   UNL A   1      46.562  33.116  28.841  1.00  0.00    -0.014 A 
ATOM     79  C   UNL A   1      46.955  33.339  30.170  1.00  0.00     0.009 A 
ATOM     80  C   UNL A   1      46.479  34.213  27.966  1.00  0.00     0.009 A 
ATOM     81  C   UNL A   1      47.207  34.635  30.624  1.00  0.00     0.001 A 
ATOM     82  C   UNL A   1      46.769  35.502  28.414  1.00  0.00     0.001 A 
ATOM     83  C   UNL A   1      47.118  35.714  29.746  1.00  0.00     0.000 A 
ENDBRANCH  65  78
ENDBRANCH  39  40
ENDBRANCH  32  34
ENDBRANCH  31  32
ENDBRANCH  30  31
ENDBRANCH  29  30
ENDBRANCH  28  29
ENDBRANCH  27  28
ENDBRANCH  26  27
ENDBRANCH   1  26
TORSDOF 22
ENDMDL
MODEL 3
REMARK VINA RESULT:      -9.4      3.570      5.247
REMARK SMILES C[C@H]1[C@H](C(=O)OCCOCCOCCOCCOC(=O)c2ccc(-c3c4nc(c(-c5ccccc5)c5ccc([nH]5)c(-c5ccccc5)c5nc(c(-c6ccccc6)c6ccc3[nH]6)C=C5)C=C4)cc2)CC[N@@H+]1Cc1ccc(Br)cc1F
REMARK SMILES IDX 12 1 11 2 10 3 9 4 8 5 7 6 6 7 4 8 5 9 3 10 1 11 2 12 71 13
REMARK SMILES IDX 69 14 70 15 72 17 73 18 74 19 79 20 75 21 78 22 80 23 76 24
REMARK SMILES IDX 77 25 13 26 14 27 15 28 16 29 17 30 18 31 19 32 20 33 21 34
REMARK SMILES IDX 22 35 68 36 23 37 67 38 24 39 25 40 26 41 61 42 27 43 66 44
REMARK SMILES IDX 60 45 62 46 28 47 65 48 59 49 58 50 29 52 51 53 36 54 50 55
REMARK SMILES IDX 37 56 40 57 49 58 63 59 38 60 39 61 48 63 64 64 41 65 30 66
REMARK SMILES IDX 31 67 35 68 32 69 34 70 33 71 52 72 53 73 57 74 54 75 56 76
REMARK SMILES IDX 55 77 42 78 43 79 47 80 44 81 46 82 45 83
REMARK H PARENT 71 16 62 51 40 62
REMARK Flexibility Score: inf
ROOT
ATOM      1  O   UNL A   1      36.218  23.205  22.853  1.00  0.00    -0.377 OA
ENDROOT
BRANCH   1   2
ATOM      2  C   UNL A   1      34.829  23.306  23.031  1.00  0.00     0.188 C 
BRANCH   2   3
ATOM      3  C   UNL A   1      34.087  24.642  22.947  1.00  0.00     0.188 C 
BRANCH   3   4
ATOM      4  O   UNL A   1      33.334  24.965  21.794  1.00  0.00    -0.376 OA
BRANCH   4   5
ATOM      5  C   UNL A   1      32.102  25.657  21.817  1.00  0.00     0.202 C 
BRANCH   5   6
ATOM      6  C   UNL A   1      31.611  26.570  22.956  1.00  0.00     0.261 C 
BRANCH   6   7
ATOM      7  O   UNL A   1      30.695  26.016  23.913  1.00  0.00    -0.463 OA
BRANCH   7   8
ATOM      8  C   UNL A   1      30.940  26.302  25.212  1.00  0.00     0.315 C 
ATOM      9  O   UNL A   1      30.965  27.447  25.654  1.00  0.00    -0.252 OA
BRANCH   8  10
ATOM     10  C   UNL A   1      31.196  25.102  26.120  1.00  0.00     0.162 C 
ATOM     11  C   UNL A   1      29.790  23.227  27.079  1.00  0.00     0.076 C 
ATOM     12  C   UNL A   1      30.600  23.707  25.856  1.00  0.00     0.195 C 
ATOM     13  N   UNL A   1      31.713  22.769  25.709  1.00  0.00    -0.328 N 
ATOM     14  C   UNL A   1      32.699  24.879  26.211  1.00  0.00     0.083 C 
ATOM     15  C   UNL A   1      32.887  23.378  26.314  1.00  0.00     0.263 C 
ATOM     16  H   UNL A   1      31.498  21.914  26.223  1.00  0.00     0.348 HD
BRANCH  13  17
ATOM     17  C   UNL A   1      31.882  22.148  24.391  1.00  0.00     0.302 C 
BRANCH  17  18
ATOM     18  C   UNL A   1      32.272  20.689  24.323  1.00  0.00     0.042 A 
ATOM     19  C   UNL A   1      32.714  20.009  25.473  1.00  0.00     0.014 A 
ATOM     20  C   UNL A   1      32.252  19.987  23.116  1.00  0.00     0.133 A 
ATOM     21  C   UNL A   1      33.093  18.664  25.409  1.00  0.00     0.016 A 
ATOM     22  C   UNL A   1      32.595  18.639  23.044  1.00  0.00     0.055 A 
ATOM     23  F   UNL A   1      31.905  20.609  21.981  1.00  0.00    -0.206 F 
ATOM     24  C   UNL A   1      33.020  17.984  24.194  1.00  0.00     0.020 A 
ATOM     25  Br  UNL A   1      33.492  16.156  24.110  1.00  0.00    -0.051 Br
ENDBRANCH  17  18
ENDBRANCH  13  17
ENDBRANCH   8  10
ENDBRANCH   7   8
ENDBRANCH   6   7
ENDBRANCH   5   6
ENDBRANCH   4   5
ENDBRANCH   3   4
ENDBRANCH   2   3
ENDBRANCH   1   2
BRANCH   1  26
ATOM     26  C   UNL A   1      36.866  22.404  23.812  1.00  0.00     0.188 C 
BRANCH  26  27
ATOM     27  C   UNL A   1      36.798  23.062  25.183  1.00  0.00     0.188 C 
BRANCH  27  28
ATOM     28  O   UNL A   1      37.706  22.595  26.159  1.00  0.00    -0.376 OA
BRANCH  28  29
ATOM     29  C   UNL A   1      38.980  22.046  25.850  1.00  0.00     0.202 C 
BRANCH  29  30
ATOM     30  C   UNL A   1      39.383  20.556  25.693  1.00  0.00     0.261 C 
BRANCH  30  31
ATOM     31  O   UNL A   1      40.365  19.980  26.553  1.00  0.00    -0.460 OA
BRANCH  31  32
ATOM     32  C   UNL A   1      41.639  20.011  26.129  1.00  0.00     0.338 C 
ATOM     33  O   UNL A   1      42.172  19.266  25.324  1.00  0.00    -0.246 OA
BRANCH  32  34
ATOM     34  C   UNL A   1      42.251  21.242  26.670  1.00  0.00     0.060 A 
ATOM     35  C   UNL A   1      42.181  21.460  28.051  1.00  0.00     0.016 A 
ATOM     36  C   UNL A   1      42.889  22.166  25.836  1.00  0.00     0.016 A 
ATOM     37  C   UNL A   1      42.694  22.630  28.598  1.00  0.00     0.010 A 
ATOM     38  C   UNL A   1      43.373  23.360  26.381  1.00  0.00     0.010 A 
ATOM     39  C   UNL A   1      43.227  23.613  27.757  1.00  0.00    -0.014 A 
BRANCH  39  40
ATOM     40  C   UNL A   1      43.354  24.986  28.295  1.00  0.00     0.031 A 
ATOM     41  C   UNL A   1      44.738  25.486  28.620  1.00  0.00     0.074 A 
ATOM     42  C   UNL A   1      42.293  25.804  28.393  1.00  0.00     0.049 A 
ATOM     43  N   UNL A   1      45.120  26.668  29.031  1.00  0.00    -0.248 NA
ATOM     44  C   UNL A   1      45.839  24.523  28.450  1.00  0.00     0.031 C 
ATOM     45  C   UNL A   1      40.917  25.455  28.048  1.00  0.00     0.029 A 
ATOM     46  N   UNL A   1      42.221  27.112  28.799  1.00  0.00    -0.354 N 
ATOM     47  C   UNL A   1      46.500  26.587  29.169  1.00  0.00     0.074 A 
ATOM     48  C   UNL A   1      46.885  25.234  28.839  1.00  0.00     0.031 C 
ATOM     49  C   UNL A   1      40.133  26.528  28.255  1.00  0.00     0.029 A 
ATOM     50  C   UNL A   1      40.949  27.627  28.769  1.00  0.00     0.049 A 
ATOM     51  H   UNL A   1      43.006  27.632  29.084  1.00  0.00     0.167 HD
ATOM     52  C   UNL A   1      47.375  27.555  29.529  1.00  0.00     0.031 A 
ATOM     53  C   UNL A   1      40.500  28.845  29.125  1.00  0.00     0.031 A 
ATOM     54  C   UNL A   1      46.990  28.895  29.876  1.00  0.00     0.049 A 
ATOM     55  C   UNL A   1      41.483  29.881  29.607  1.00  0.00     0.074 A 
ATOM     56  C   UNL A   1      47.798  29.954  30.253  1.00  0.00     0.029 A 
ATOM     57  N   UNL A   1      45.684  29.359  29.894  1.00  0.00    -0.354 N 
ATOM     58  N   UNL A   1      42.789  29.801  29.713  1.00  0.00    -0.248 NA
ATOM     59  C   UNL A   1      40.928  31.184  30.001  1.00  0.00     0.031 C 
ATOM     60  C   UNL A   1      46.973  31.040  30.566  1.00  0.00     0.029 A 
ATOM     61  C   UNL A   1      45.659  30.680  30.307  1.00  0.00     0.049 A 
ATOM     62  H   UNL A   1      44.892  28.828  29.652  1.00  0.00     0.167 HD
ATOM     63  C   UNL A   1      43.213  31.051  30.152  1.00  0.00     0.074 A 
ATOM     64  C   UNL A   1      42.026  31.874  30.273  1.00  0.00     0.031 C 
ATOM     65  C   UNL A   1      44.469  31.483  30.426  1.00  0.00     0.031 A 
BRANCH  52  66
ATOM     66  C   UNL A   1      48.828  27.177  29.608  1.00  0.00    -0.014 A 
ATOM     67  C   UNL A   1      49.390  26.657  30.786  1.00  0.00     0.009 A 
ATOM     68  C   UNL A   1      49.646  27.331  28.478  1.00  0.00     0.009 A 
ATOM     69  C   UNL A   1      50.748  26.336  30.840  1.00  0.00     0.001 A 
ATOM     70  C   UNL A   1      50.996  26.977  28.525  1.00  0.00     0.001 A 
ATOM     71  C   UNL A   1      51.548  26.492  29.709  1.00  0.00     0.000 A 
ENDBRANCH  52  66
BRANCH  53  72
ATOM     72  C   UNL A   1      39.047  29.157  29.057  1.00  0.00    -0.014 A 
ATOM     73  C   UNL A   1      38.215  28.966  30.170  1.00  0.00     0.009 A 
ATOM     74  C   UNL A   1      38.479  29.619  27.858  1.00  0.00     0.009 A 
ATOM     75  C   UNL A   1      36.840  29.199  30.075  1.00  0.00     0.001 A 
ATOM     76  C   UNL A   1      37.110  29.883  27.776  1.00  0.00     0.001 A 
ATOM     77  C   UNL A   1      36.290  29.661  28.881  1.00  0.00     0.000 A 
ENDBRANCH  53  72
BRANCH  65  78
ATOM     78  C   UNL A   1      44.628  32.922  30.839  1.00  0.00    -0.014 A 
ATOM     79  C   UNL A   1      44.812  33.945  29.895  1.00  0.00     0.009 A 
ATOM     80  C   UNL A   1      44.569  33.261  32.201  1.00  0.00     0.009 A 
ATOM     81  C   UNL A   1      44.983  35.267  30.310  1.00  0.00     0.001 A 
ATOM     82  C   UNL A   1      44.703  34.588  32.610  1.00  0.00     0.001 A 
ATOM     83  C   UNL A   1      44.925  35.588  31.665  1.00  0.00     0.000 A 
ENDBRANCH  65  78
ENDBRANCH  39  40
ENDBRANCH  32  34
ENDBRANCH  31  32
ENDBRANCH  30  31
ENDBRANCH  29  30
ENDBRANCH  28  29
ENDBRANCH  27  28
ENDBRANCH  26  27
ENDBRANCH   1  26
TORSDOF 22
ENDMDL
