MODEL 1
REMARK VINA RESULT:     -10.3      0.000      0.000
REMARK SMILES CC[C@@H](C)c1ccccc1NC(=O)[C@@H]1[C@@H](C(=O)OCCOCCOCCOCCOC(=O)c2ccc(-c3c4nc(c(-c5ccccc5)c5ccc([nH]5)c(-c5ccccc5)c5nc(c(-c6ccccc6)c6ccc3[nH]6)C=C5)C=C4)cc2)[C@@H]2C=C[C@H]1C2
REMARK SMILES IDX 23 1 22 2 21 3 20 4 19 5 18 6 16 7 17 8 15 9 14 10 84 11
REMARK SMILES IDX 81 12 83 13 85 14 82 15 12 16 11 17 13 19 10 20 5 21 6 22
REMARK SMILES IDX 7 23 9 24 8 25 3 26 4 27 2 28 1 29 24 30 25 31 26 32 27 33
REMARK SMILES IDX 28 34 29 35 30 36 31 37 32 38 33 39 34 40 80 41 35 42 79 43
REMARK SMILES IDX 36 44 37 45 38 46 73 47 39 48 78 49 72 50 74 51 40 52 77 53
REMARK SMILES IDX 71 54 70 55 41 57 63 58 48 59 62 60 49 61 52 62 61 63 75 64
REMARK SMILES IDX 50 65 51 66 60 68 76 69 53 70 42 71 43 72 47 73 44 74 46 75
REMARK SMILES IDX 45 76 64 77 65 78 69 79 66 80 68 81 67 82 54 83 55 84 59 85
REMARK SMILES IDX 56 86 58 87 57 88
REMARK H PARENT 11 18 74 56 52 67
REMARK Flexibility Score: inf
ROOT
ATOM      1  C   UNL A   1      34.519  33.074  28.712  1.00  0.00     0.188 C 
ENDROOT
BRANCH   1   2
ATOM      2  C   UNL A   1      34.799  31.880  27.767  1.00  0.00     0.188 C 
BRANCH   2   3
ATOM      3  O   UNL A   1      34.310  30.586  28.091  1.00  0.00    -0.376 OA
BRANCH   3   4
ATOM      4  C   UNL A   1      33.811  29.764  27.051  1.00  0.00     0.202 C 
BRANCH   4   5
ATOM      5  C   UNL A   1      33.107  28.444  27.393  1.00  0.00     0.261 C 
BRANCH   5   6
ATOM      6  O   UNL A   1      33.323  27.322  26.513  1.00  0.00    -0.463 OA
BRANCH   6   7
ATOM      7  C   UNL A   1      32.270  26.508  26.233  1.00  0.00     0.310 C 
ATOM      8  O   UNL A   1      31.681  25.849  27.081  1.00  0.00    -0.252 OA
BRANCH   7   9
ATOM      9  C   UNL A   1      31.921  26.443  24.739  1.00  0.00     0.119 C 
ATOM     10  C   UNL A   1      33.012  26.871  23.698  1.00  0.00     0.100 C 
ATOM     11  C   UNL A   1      32.259  28.017  22.925  1.00  0.00     0.025 C 
ATOM     12  C   UNL A   1      30.746  27.421  24.451  1.00  0.00     0.027 C 
ATOM     13  C   UNL A   1      31.082  27.407  22.183  1.00  0.00    -0.027 C 
ATOM     14  C   UNL A   1      31.448  28.707  24.017  1.00  0.00     0.017 C 
ATOM     15  C   UNL A   1      30.178  27.041  23.104  1.00  0.00    -0.027 C 
BRANCH  10  16
ATOM     16  C   UNL A   1      33.578  25.903  22.657  1.00  0.00     0.228 C 
ATOM     17  N   UNL A   1      34.090  24.671  22.901  1.00  0.00    -0.326 N 
ATOM     18  H   UNL A   1      34.308  24.172  22.081  1.00  0.00     0.169 HD
ATOM     19  O   UNL A   1      33.610  26.253  21.467  1.00  0.00    -0.274 OA
BRANCH  17  20
ATOM     20  C   UNL A   1      34.375  23.959  24.070  1.00  0.00     0.044 A 
ATOM     21  C   UNL A   1      33.377  23.306  24.809  1.00  0.00    -0.022 A 
ATOM     22  C   UNL A   1      33.675  23.011  26.164  1.00  0.00     0.006 A 
ATOM     23  C   UNL A   1      34.940  23.203  26.704  1.00  0.00     0.000 A 
ATOM     24  C   UNL A   1      35.684  23.905  24.537  1.00  0.00     0.026 A 
ATOM     25  C   UNL A   1      35.970  23.557  25.856  1.00  0.00     0.002 A 
BRANCH  21  26
ATOM     26  C   UNL A   1      32.049  22.749  24.286  1.00  0.00     0.018 C 
ATOM     27  C   UNL A   1      30.878  22.608  25.269  1.00  0.00     0.013 C 
BRANCH  26  28
ATOM     28  C   UNL A   1      32.222  21.463  23.449  1.00  0.00     0.005 C 
ATOM     29  C   UNL A   1      32.653  20.274  24.299  1.00  0.00     0.004 C 
ENDBRANCH  26  28
ENDBRANCH  21  26
ENDBRANCH  17  20
ENDBRANCH  10  16
ENDBRANCH   7   9
ENDBRANCH   6   7
ENDBRANCH   5   6
ENDBRANCH   4   5
ENDBRANCH   3   4
ENDBRANCH   2   3
ENDBRANCH   1   2
BRANCH   1  30
ATOM     30  O   UNL A   1      33.376  33.846  28.399  1.00  0.00    -0.377 OA
BRANCH  30  31
ATOM     31  C   UNL A   1      33.209  34.998  29.215  1.00  0.00     0.188 C 
BRANCH  31  32
ATOM     32  C   UNL A   1      33.978  34.997  30.553  1.00  0.00     0.188 C 
BRANCH  32  33
ATOM     33  O   UNL A   1      33.149  35.022  31.703  1.00  0.00    -0.376 OA
BRANCH  33  34
ATOM     34  C   UNL A   1      33.480  34.339  32.898  1.00  0.00     0.202 C 
BRANCH  34  35
ATOM     35  C   UNL A   1      34.950  34.043  33.243  1.00  0.00     0.261 C 
BRANCH  35  36
ATOM     36  O   UNL A   1      35.382  32.691  33.086  1.00  0.00    -0.460 OA
BRANCH  36  37
ATOM     37  C   UNL A   1      36.542  32.359  33.694  1.00  0.00     0.338 C 
ATOM     38  O   UNL A   1      36.850  32.555  34.849  1.00  0.00    -0.246 OA
BRANCH  37  39
ATOM     39  C   UNL A   1      37.299  31.503  32.756  1.00  0.00     0.060 A 
ATOM     40  C   UNL A   1      38.362  30.747  33.268  1.00  0.00     0.016 A 
ATOM     41  C   UNL A   1      36.966  31.440  31.401  1.00  0.00     0.016 A 
ATOM     42  C   UNL A   1      39.134  29.972  32.416  1.00  0.00     0.010 A 
ATOM     43  C   UNL A   1      37.768  30.694  30.536  1.00  0.00     0.010 A 
ATOM     44  C   UNL A   1      38.887  30.007  31.039  1.00  0.00    -0.014 A 
BRANCH  44  45
ATOM     45  C   UNL A   1      39.984  29.595  30.139  1.00  0.00     0.031 A 
ATOM     46  C   UNL A   1      41.086  30.590  29.890  1.00  0.00     0.074 A 
ATOM     47  C   UNL A   1      40.059  28.348  29.648  1.00  0.00     0.049 A 
ATOM     48  N   UNL A   1      42.184  30.458  29.195  1.00  0.00    -0.248 NA
ATOM     49  C   UNL A   1      40.928  31.913  30.522  1.00  0.00     0.031 C 
ATOM     50  C   UNL A   1      39.090  27.281  29.885  1.00  0.00     0.029 A 
ATOM     51  N   UNL A   1      41.017  27.769  28.857  1.00  0.00    -0.354 N 
ATOM     52  C   UNL A   1      42.844  31.677  29.306  1.00  0.00     0.074 A 
ATOM     53  C   UNL A   1      42.009  32.547  30.100  1.00  0.00     0.031 C 
ATOM     54  C   UNL A   1      39.505  26.170  29.249  1.00  0.00     0.029 A 
ATOM     55  C   UNL A   1      40.751  26.461  28.543  1.00  0.00     0.049 A 
ATOM     56  H   UNL A   1      41.819  28.247  28.543  1.00  0.00     0.167 HD
ATOM     57  C   UNL A   1      44.044  32.038  28.800  1.00  0.00     0.031 A 
ATOM     58  C   UNL A   1      41.437  25.605  27.762  1.00  0.00     0.031 A 
ATOM     59  C   UNL A   1      44.863  31.177  27.991  1.00  0.00     0.049 A 
ATOM     60  C   UNL A   1      42.725  26.064  27.128  1.00  0.00     0.074 A 
ATOM     61  C   UNL A   1      46.092  31.445  27.415  1.00  0.00     0.029 A 
ATOM     62  N   UNL A   1      44.526  29.879  27.638  1.00  0.00    -0.354 N 
ATOM     63  N   UNL A   1      43.346  27.214  27.245  1.00  0.00    -0.248 NA
ATOM     64  C   UNL A   1      43.416  25.093  26.269  1.00  0.00     0.031 C 
ATOM     65  C   UNL A   1      46.469  30.330  26.661  1.00  0.00     0.029 A 
ATOM     66  C   UNL A   1      45.513  29.341  26.831  1.00  0.00     0.049 A 
ATOM     67  H   UNL A   1      43.708  29.411  27.919  1.00  0.00     0.167 HD
ATOM     68  C   UNL A   1      44.517  27.091  26.506  1.00  0.00     0.074 A 
ATOM     69  C   UNL A   1      44.526  25.748  25.963  1.00  0.00     0.031 C 
ATOM     70  C   UNL A   1      45.502  28.001  26.300  1.00  0.00     0.031 A 
BRANCH  57  71
ATOM     71  C   UNL A   1      44.511  33.442  29.070  1.00  0.00    -0.014 A 
ATOM     72  C   UNL A   1      44.118  34.517  28.257  1.00  0.00     0.009 A 
ATOM     73  C   UNL A   1      45.357  33.692  30.161  1.00  0.00     0.009 A 
ATOM     74  C   UNL A   1      44.592  35.806  28.510  1.00  0.00     0.001 A 
ATOM     75  C   UNL A   1      45.802  34.986  30.432  1.00  0.00     0.001 A 
ATOM     76  C   UNL A   1      45.428  36.040  29.601  1.00  0.00     0.000 A 
ENDBRANCH  57  71
BRANCH  58  77
ATOM     77  C   UNL A   1      40.919  24.233  27.517  1.00  0.00    -0.014 A 
ATOM     78  C   UNL A   1      41.503  23.120  28.142  1.00  0.00     0.009 A 
ATOM     79  C   UNL A   1      39.858  24.026  26.622  1.00  0.00     0.009 A 
ATOM     80  C   UNL A   1      41.059  21.828  27.849  1.00  0.00     0.001 A 
ATOM     81  C   UNL A   1      39.393  22.737  26.355  1.00  0.00     0.001 A 
ATOM     82  C   UNL A   1      40.003  21.638  26.958  1.00  0.00     0.000 A 
ENDBRANCH  58  77
BRANCH  70  83
ATOM     83  C   UNL A   1      46.695  27.553  25.499  1.00  0.00    -0.014 A 
ATOM     84  C   UNL A   1      47.717  26.776  26.068  1.00  0.00     0.009 A 
ATOM     85  C   UNL A   1      46.786  27.904  24.143  1.00  0.00     0.009 A 
ATOM     86  C   UNL A   1      48.830  26.408  25.308  1.00  0.00     0.001 A 
ATOM     87  C   UNL A   1      47.879  27.502  23.376  1.00  0.00     0.001 A 
ATOM     88  C   UNL A   1      48.909  26.769  23.963  1.00  0.00     0.000 A 
ENDBRANCH  70  83
ENDBRANCH  44  45
ENDBRANCH  37  39
ENDBRANCH  36  37
ENDBRANCH  35  36
ENDBRANCH  34  35
ENDBRANCH  33  34
ENDBRANCH  32  33
ENDBRANCH  31  32
ENDBRANCH  30  31
ENDBRANCH   1  30
TORSDOF 24
ENDMDL
MODEL 2
REMARK VINA RESULT:      -9.9      0.879      5.753
REMARK SMILES CC[C@@H](C)c1ccccc1NC(=O)[C@@H]1[C@@H](C(=O)OCCOCCOCCOCCOC(=O)c2ccc(-c3c4nc(c(-c5ccccc5)c5ccc([nH]5)c(-c5ccccc5)c5nc(c(-c6ccccc6)c6ccc3[nH]6)C=C5)C=C4)cc2)[C@@H]2C=C[C@H]1C2
REMARK SMILES IDX 23 1 22 2 21 3 20 4 19 5 18 6 16 7 17 8 15 9 14 10 84 11
REMARK SMILES IDX 81 12 83 13 85 14 82 15 12 16 11 17 13 19 10 20 5 21 6 22
REMARK SMILES IDX 7 23 9 24 8 25 3 26 4 27 2 28 1 29 24 30 25 31 26 32 27 33
REMARK SMILES IDX 28 34 29 35 30 36 31 37 32 38 33 39 34 40 80 41 35 42 79 43
REMARK SMILES IDX 36 44 37 45 38 46 73 47 39 48 78 49 72 50 74 51 40 52 77 53
REMARK SMILES IDX 71 54 70 55 41 57 63 58 48 59 62 60 49 61 52 62 61 63 75 64
REMARK SMILES IDX 50 65 51 66 60 68 76 69 53 70 42 71 43 72 47 73 44 74 46 75
REMARK SMILES IDX 45 76 64 77 65 78 69 79 66 80 68 81 67 82 54 83 55 84 59 85
REMARK SMILES IDX 56 86 58 87 57 88
REMARK H PARENT 11 18 74 56 52 67
REMARK Flexibility Score: inf
ROOT
ATOM      1  C   UNL A   1      34.573  33.011  28.706  1.00  0.00     0.188 C 
ENDROOT
BRANCH   1   2
ATOM      2  C   UNL A   1      34.825  31.824  27.743  1.00  0.00     0.188 C 
BRANCH   2   3
ATOM      3  O   UNL A   1      34.265  30.549  28.023  1.00  0.00    -0.376 OA
BRANCH   3   4
ATOM      4  C   UNL A   1      33.771  29.769  26.949  1.00  0.00     0.202 C 
BRANCH   4   5
ATOM      5  C   UNL A   1      33.022  28.461  27.238  1.00  0.00     0.261 C 
BRANCH   5   6
ATOM      6  O   UNL A   1      33.091  27.418  26.244  1.00  0.00    -0.463 OA
BRANCH   6   7
ATOM      7  C   UNL A   1      31.998  26.628  26.060  1.00  0.00     0.310 C 
ATOM      8  O   UNL A   1      31.599  25.822  26.891  1.00  0.00    -0.252 OA
BRANCH   7   9
ATOM      9  C   UNL A   1      31.341  26.797  24.682  1.00  0.00     0.119 C 
ATOM     10  C   UNL A   1      32.248  26.706  23.406  1.00  0.00     0.100 C 
ATOM     11  C   UNL A   1      31.967  28.103  22.736  1.00  0.00     0.025 C 
ATOM     12  C   UNL A   1      30.727  28.223  24.585  1.00  0.00     0.027 C 
ATOM     13  C   UNL A   1      30.512  28.148  22.304  1.00  0.00    -0.027 C 
ATOM     14  C   UNL A   1      31.833  29.046  23.927  1.00  0.00     0.017 C 
ATOM     15  C   UNL A   1      29.768  28.209  23.419  1.00  0.00    -0.027 C 
BRANCH  10  16
ATOM     16  C   UNL A   1      32.055  25.630  22.336  1.00  0.00     0.228 C 
ATOM     17  N   UNL A   1      31.942  24.296  22.550  1.00  0.00    -0.326 N 
ATOM     18  H   UNL A   1      31.723  23.789  21.734  1.00  0.00     0.169 HD
ATOM     19  O   UNL A   1      32.016  25.971  21.143  1.00  0.00    -0.274 OA
BRANCH  17  20
ATOM     20  C   UNL A   1      32.071  23.487  23.682  1.00  0.00     0.044 A 
ATOM     21  C   UNL A   1      33.283  22.864  24.021  1.00  0.00    -0.022 A 
ATOM     22  C   UNL A   1      33.206  21.745  24.888  1.00  0.00     0.006 A 
ATOM     23  C   UNL A   1      32.022  21.369  25.511  1.00  0.00     0.000 A 
ATOM     24  C   UNL A   1      30.967  23.267  24.498  1.00  0.00     0.026 A 
ATOM     25  C   UNL A   1      30.925  22.196  25.390  1.00  0.00     0.002 A 
BRANCH  21  26
ATOM     26  C   UNL A   1      34.698  23.335  23.671  1.00  0.00     0.018 C 
ATOM     27  C   UNL A   1      35.842  22.311  23.716  1.00  0.00     0.013 C 
BRANCH  26  28
ATOM     28  C   UNL A   1      35.097  24.638  24.398  1.00  0.00     0.005 C 
ATOM     29  C   UNL A   1      35.064  24.486  25.915  1.00  0.00     0.004 C 
ENDBRANCH  26  28
ENDBRANCH  21  26
ENDBRANCH  17  20
ENDBRANCH  10  16
ENDBRANCH   7   9
ENDBRANCH   6   7
ENDBRANCH   5   6
ENDBRANCH   4   5
ENDBRANCH   3   4
ENDBRANCH   2   3
ENDBRANCH   1   2
BRANCH   1  30
ATOM     30  O   UNL A   1      33.407  33.769  28.448  1.00  0.00    -0.377 OA
BRANCH  30  31
ATOM     31  C   UNL A   1      33.261  34.914  29.278  1.00  0.00     0.188 C 
BRANCH  31  32
ATOM     32  C   UNL A   1      34.078  34.909  30.587  1.00  0.00     0.188 C 
BRANCH  32  33
ATOM     33  O   UNL A   1      33.293  34.808  31.764  1.00  0.00    -0.376 OA
BRANCH  33  34
ATOM     34  C   UNL A   1      33.659  33.986  32.858  1.00  0.00     0.202 C 
BRANCH  34  35
ATOM     35  C   UNL A   1      35.143  33.719  33.167  1.00  0.00     0.261 C 
BRANCH  35  36
ATOM     36  O   UNL A   1      35.639  32.422  32.835  1.00  0.00    -0.460 OA
BRANCH  36  37
ATOM     37  C   UNL A   1      36.752  32.021  33.488  1.00  0.00     0.338 C 
ATOM     38  O   UNL A   1      36.971  32.087  34.677  1.00  0.00    -0.246 OA
BRANCH  37  39
ATOM     39  C   UNL A   1      37.584  31.274  32.521  1.00  0.00     0.060 A 
ATOM     40  C   UNL A   1      38.509  30.352  33.026  1.00  0.00     0.016 A 
ATOM     41  C   UNL A   1      37.449  31.471  31.144  1.00  0.00     0.016 A 
ATOM     42  C   UNL A   1      39.349  29.668  32.158  1.00  0.00     0.010 A 
ATOM     43  C   UNL A   1      38.321  30.815  30.274  1.00  0.00     0.010 A 
ATOM     44  C   UNL A   1      39.309  29.958  30.789  1.00  0.00    -0.014 A 
BRANCH  44  45
ATOM     45  C   UNL A   1      40.498  29.609  29.984  1.00  0.00     0.031 A 
ATOM     46  C   UNL A   1      40.466  28.307  29.231  1.00  0.00     0.074 A 
ATOM     47  C   UNL A   1      41.521  30.465  29.836  1.00  0.00     0.049 A 
ATOM     48  N   UNL A   1      41.347  27.797  28.412  1.00  0.00    -0.248 NA
ATOM     49  C   UNL A   1      39.269  27.468  29.425  1.00  0.00     0.031 C 
ATOM     50  C   UNL A   1      41.624  31.784  30.456  1.00  0.00     0.029 A 
ATOM     51  N   UNL A   1      42.667  30.347  29.094  1.00  0.00    -0.354 N 
ATOM     52  C   UNL A   1      40.812  26.584  27.995  1.00  0.00     0.074 A 
ATOM     53  C   UNL A   1      39.551  26.413  28.679  1.00  0.00     0.031 C 
ATOM     54  C   UNL A   1      42.777  32.357  30.065  1.00  0.00     0.029 A 
ATOM     55  C   UNL A   1      43.499  31.433  29.193  1.00  0.00     0.049 A 
ATOM     56  H   UNL A   1      42.874  29.558  28.541  1.00  0.00     0.167 HD
ATOM     57  C   UNL A   1      41.320  25.693  27.114  1.00  0.00     0.031 A 
ATOM     58  C   UNL A   1      44.711  31.644  28.647  1.00  0.00     0.031 A 
ATOM     59  C   UNL A   1      42.585  25.855  26.452  1.00  0.00     0.049 A 
ATOM     60  C   UNL A   1      45.300  30.591  27.743  1.00  0.00     0.074 A 
ATOM     61  C   UNL A   1      43.202  25.008  25.550  1.00  0.00     0.029 A 
ATOM     62  N   UNL A   1      43.431  26.939  26.632  1.00  0.00    -0.354 N 
ATOM     63  N   UNL A   1      44.784  29.451  27.348  1.00  0.00    -0.248 NA
ATOM     64  C   UNL A   1      46.635  30.868  27.195  1.00  0.00     0.031 C 
ATOM     65  C   UNL A   1      44.451  25.550  25.231  1.00  0.00     0.029 A 
ATOM     66  C   UNL A   1      44.577  26.772  25.876  1.00  0.00     0.049 A 
ATOM     67  H   UNL A   1      43.244  27.712  27.212  1.00  0.00     0.167 HD
ATOM     68  C   UNL A   1      45.714  28.894  26.477  1.00  0.00     0.074 A 
ATOM     69  C   UNL A   1      46.814  29.832  26.389  1.00  0.00     0.031 C 
ATOM     70  C   UNL A   1      45.662  27.717  25.803  1.00  0.00     0.031 A 
BRANCH  57  71
ATOM     71  C   UNL A   1      40.522  24.444  26.861  1.00  0.00    -0.014 A 
ATOM     72  C   UNL A   1      39.217  24.497  26.343  1.00  0.00     0.009 A 
ATOM     73  C   UNL A   1      41.089  23.191  27.142  1.00  0.00     0.009 A 
ATOM     74  C   UNL A   1      38.486  23.324  26.147  1.00  0.00     0.001 A 
ATOM     75  C   UNL A   1      40.367  22.019  26.913  1.00  0.00     0.001 A 
ATOM     76  C   UNL A   1      39.064  22.086  26.427  1.00  0.00     0.000 A 
ENDBRANCH  57  71
BRANCH  58  77
ATOM     77  C   UNL A   1      45.463  32.891  28.945  1.00  0.00    -0.014 A 
ATOM     78  C   UNL A   1      45.379  34.004  28.094  1.00  0.00     0.009 A 
ATOM     79  C   UNL A   1      46.301  32.961  30.069  1.00  0.00     0.009 A 
ATOM     80  C   UNL A   1      46.147  35.145  28.342  1.00  0.00     0.001 A 
ATOM     81  C   UNL A   1      47.042  34.115  30.334  1.00  0.00     0.001 A 
ATOM     82  C   UNL A   1      46.975  35.201  29.463  1.00  0.00     0.000 A 
ENDBRANCH  58  77
BRANCH  70  83
ATOM     83  C   UNL A   1      46.802  27.410  24.869  1.00  0.00    -0.014 A 
ATOM     84  C   UNL A   1      46.902  28.007  23.603  1.00  0.00     0.009 A 
ATOM     85  C   UNL A   1      47.803  26.514  25.278  1.00  0.00     0.009 A 
ATOM     86  C   UNL A   1      47.953  27.671  22.745  1.00  0.00     0.001 A 
ATOM     87  C   UNL A   1      48.872  26.210  24.435  1.00  0.00     0.001 A 
ATOM     88  C   UNL A   1      48.937  26.776  23.162  1.00  0.00     0.000 A 
ENDBRANCH  70  83
ENDBRANCH  44  45
ENDBRANCH  37  39
ENDBRANCH  36  37
ENDBRANCH  35  36
ENDBRANCH  34  35
ENDBRANCH  33  34
ENDBRANCH  32  33
ENDBRANCH  31  32
ENDBRANCH  30  31
ENDBRANCH   1  30
TORSDOF 24
ENDMDL
MODEL 3
REMARK VINA RESULT:      -9.6      1.018      2.865
REMARK SMILES CC[C@@H](C)c1ccccc1NC(=O)[C@@H]1[C@@H](C(=O)OCCOCCOCCOCCOC(=O)c2ccc(-c3c4nc(c(-c5ccccc5)c5ccc([nH]5)c(-c5ccccc5)c5nc(c(-c6ccccc6)c6ccc3[nH]6)C=C5)C=C4)cc2)[C@@H]2C=C[C@H]1C2
REMARK SMILES IDX 23 1 22 2 21 3 20 4 19 5 18 6 16 7 17 8 15 9 14 10 84 11
REMARK SMILES IDX 81 12 83 13 85 14 82 15 12 16 11 17 13 19 10 20 5 21 6 22
REMARK SMILES IDX 7 23 9 24 8 25 3 26 4 27 2 28 1 29 24 30 25 31 26 32 27 33
REMARK SMILES IDX 28 34 29 35 30 36 31 37 32 38 33 39 34 40 80 41 35 42 79 43
REMARK SMILES IDX 36 44 37 45 38 46 73 47 39 48 78 49 72 50 74 51 40 52 77 53
REMARK SMILES IDX 71 54 70 55 41 57 63 58 48 59 62 60 49 61 52 62 61 63 75 64
REMARK SMILES IDX 50 65 51 66 60 68 76 69 53 70 42 71 43 72 47 73 44 74 46 75
REMARK SMILES IDX 45 76 64 77 65 78 69 79 66 80 68 81 67 82 54 83 55 84 59 85
REMARK SMILES IDX 56 86 58 87 57 88
REMARK H PARENT 11 18 74 56 52 67
REMARK Flexibility Score: inf
ROOT
ATOM      1  C   UNL A   1      34.361  33.208  28.440  1.00  0.00     0.188 C 
ENDROOT
BRANCH   1   2
ATOM      2  C   UNL A   1      34.047  31.960  27.579  1.00  0.00     0.188 C 
BRANCH   2   3
ATOM      3  O   UNL A   1      34.112  30.662  28.155  1.00  0.00    -0.376 OA
BRANCH   3   4
ATOM      4  C   UNL A   1      34.440  29.562  27.327  1.00  0.00     0.202 C 
BRANCH   4   5
ATOM      5  C   UNL A   1      33.423  28.431  27.122  1.00  0.00     0.261 C 
BRANCH   5   6
ATOM      6  O   UNL A   1      33.846  27.279  26.365  1.00  0.00    -0.463 OA
BRANCH   6   7
ATOM      7  C   UNL A   1      32.912  26.350  26.025  1.00  0.00     0.310 C 
ATOM      8  O   UNL A   1      31.763  26.361  26.450  1.00  0.00    -0.252 OA
BRANCH   7   9
ATOM      9  C   UNL A   1      33.448  25.246  25.103  1.00  0.00     0.119 C 
ATOM     10  C   UNL A   1      32.700  23.868  25.076  1.00  0.00     0.100 C 
ATOM     11  C   UNL A   1      33.864  22.884  25.473  1.00  0.00     0.025 C 
ATOM     12  C   UNL A   1      34.887  24.864  25.553  1.00  0.00     0.027 C 
ATOM     13  C   UNL A   1      34.908  22.900  24.370  1.00  0.00    -0.027 C 
ATOM     14  C   UNL A   1      34.667  23.682  26.496  1.00  0.00     0.017 C 
ATOM     15  C   UNL A   1      35.515  24.096  24.414  1.00  0.00    -0.027 C 
BRANCH  10  16
ATOM     16  C   UNL A   1      32.039  23.317  23.811  1.00  0.00     0.228 C 
ATOM     17  N   UNL A   1      31.233  24.003  22.963  1.00  0.00    -0.326 N 
ATOM     18  H   UNL A   1      30.993  23.491  22.156  1.00  0.00     0.169 HD
ATOM     19  O   UNL A   1      32.215  22.125  23.512  1.00  0.00    -0.274 OA
BRANCH  17  20
ATOM     20  C   UNL A   1      30.669  25.281  22.990  1.00  0.00     0.044 A 
ATOM     21  C   UNL A   1      31.370  26.417  22.555  1.00  0.00    -0.022 A 
ATOM     22  C   UNL A   1      30.910  27.672  23.027  1.00  0.00     0.006 A 
ATOM     23  C   UNL A   1      29.731  27.806  23.750  1.00  0.00     0.000 A 
ATOM     24  C   UNL A   1      29.379  25.451  23.481  1.00  0.00     0.026 A 
ATOM     25  C   UNL A   1      28.916  26.701  23.888  1.00  0.00     0.002 A 
BRANCH  21  26
ATOM     26  C   UNL A   1      32.495  26.471  21.517  1.00  0.00     0.018 C 
ATOM     27  C   UNL A   1      32.583  25.346  20.475  1.00  0.00     0.013 C 
BRANCH  26  28
ATOM     28  C   UNL A   1      33.880  26.752  22.140  1.00  0.00     0.005 C 
ATOM     29  C   UNL A   1      34.120  28.240  22.367  1.00  0.00     0.004 C 
ENDBRANCH  26  28
ENDBRANCH  21  26
ENDBRANCH  17  20
ENDBRANCH  10  16
ENDBRANCH   7   9
ENDBRANCH   6   7
ENDBRANCH   5   6
ENDBRANCH   4   5
ENDBRANCH   3   4
ENDBRANCH   2   3
ENDBRANCH   1   2
BRANCH   1  30
ATOM     30  O   UNL A   1      33.344  34.189  28.486  1.00  0.00    -0.377 OA
BRANCH  30  31
ATOM     31  C   UNL A   1      33.491  35.133  29.538  1.00  0.00     0.188 C 
BRANCH  31  32
ATOM     32  C   UNL A   1      34.221  34.631  30.801  1.00  0.00     0.188 C 
BRANCH  32  33
ATOM     33  O   UNL A   1      33.373  34.407  31.916  1.00  0.00    -0.376 OA
BRANCH  33  34
ATOM     34  C   UNL A   1      33.744  33.581  33.004  1.00  0.00     0.202 C 
BRANCH  34  35
ATOM     35  C   UNL A   1      35.150  33.691  33.620  1.00  0.00     0.261 C 
BRANCH  35  36
ATOM     36  O   UNL A   1      35.805  32.462  33.937  1.00  0.00    -0.460 OA
BRANCH  36  37
ATOM     37  C   UNL A   1      37.141  32.526  34.122  1.00  0.00     0.338 C 
ATOM     38  O   UNL A   1      37.732  33.019  35.058  1.00  0.00    -0.246 OA
BRANCH  37  39
ATOM     39  C   UNL A   1      37.770  31.685  33.081  1.00  0.00     0.060 A 
ATOM     40  C   UNL A   1      38.752  30.770  33.480  1.00  0.00     0.016 A 
ATOM     41  C   UNL A   1      37.394  31.791  31.739  1.00  0.00     0.016 A 
ATOM     42  C   UNL A   1      39.407  29.999  32.530  1.00  0.00     0.010 A 
ATOM     43  C   UNL A   1      38.081  31.047  30.779  1.00  0.00     0.010 A 
ATOM     44  C   UNL A   1      39.127  30.194  31.173  1.00  0.00    -0.014 A 
BRANCH  44  45
ATOM     45  C   UNL A   1      40.144  29.751  30.197  1.00  0.00     0.031 A 
ATOM     46  C   UNL A   1      41.313  30.667  29.950  1.00  0.00     0.074 A 
ATOM     47  C   UNL A   1      40.094  28.533  29.634  1.00  0.00     0.049 A 
ATOM     48  N   UNL A   1      42.364  30.491  29.194  1.00  0.00    -0.248 NA
ATOM     49  C   UNL A   1      41.293  31.958  30.662  1.00  0.00     0.031 C 
ATOM     50  C   UNL A   1      39.052  27.534  29.859  1.00  0.00     0.029 A 
ATOM     51  N   UNL A   1      40.964  27.929  28.765  1.00  0.00    -0.354 N 
ATOM     52  C   UNL A   1      43.126  31.644  29.341  1.00  0.00     0.074 A 
ATOM     53  C   UNL A   1      42.402  32.529  30.223  1.00  0.00     0.031 C 
ATOM     54  C   UNL A   1      39.345  26.435  29.142  1.00  0.00     0.029 A 
ATOM     55  C   UNL A   1      40.577  26.667  28.392  1.00  0.00     0.049 A 
ATOM     56  H   UNL A   1      41.788  28.359  28.439  1.00  0.00     0.167 HD
ATOM     57  C   UNL A   1      44.328  31.938  28.796  1.00  0.00     0.031 A 
ATOM     58  C   UNL A   1      41.154  25.808  27.531  1.00  0.00     0.031 A 
ATOM     59  C   UNL A   1      45.035  31.065  27.901  1.00  0.00     0.049 A 
ATOM     60  C   UNL A   1      42.446  26.199  26.860  1.00  0.00     0.074 A 
ATOM     61  C   UNL A   1      46.254  31.268  27.279  1.00  0.00     0.029 A 
ATOM     62  N   UNL A   1      44.577  29.821  27.492  1.00  0.00    -0.354 N 
ATOM     63  N   UNL A   1      43.164  27.287  27.010  1.00  0.00    -0.248 NA
ATOM     64  C   UNL A   1      43.014  25.230  25.914  1.00  0.00     0.031 C 
ATOM     65  C   UNL A   1      46.504  30.174  26.446  1.00  0.00     0.029 A 
ATOM     66  C   UNL A   1      45.478  29.255  26.608  1.00  0.00     0.049 A 
ATOM     67  H   UNL A   1      43.736  29.404  27.787  1.00  0.00     0.167 HD
ATOM     68  C   UNL A   1      44.286  27.115  26.207  1.00  0.00     0.074 A 
ATOM     69  C   UNL A   1      44.160  25.812  25.590  1.00  0.00     0.031 C 
ATOM     70  C   UNL A   1      45.332  27.955  26.003  1.00  0.00     0.031 A 
BRANCH  57  71
ATOM     71  C   UNL A   1      44.921  33.281  29.120  1.00  0.00    -0.014 A 
ATOM     72  C   UNL A   1      45.771  33.463  30.223  1.00  0.00     0.009 A 
ATOM     73  C   UNL A   1      44.625  34.384  28.304  1.00  0.00     0.009 A 
ATOM     74  C   UNL A   1      46.282  34.728  30.522  1.00  0.00     0.001 A 
ATOM     75  C   UNL A   1      45.165  35.640  28.585  1.00  0.00     0.001 A 
ATOM     76  C   UNL A   1      45.983  35.813  29.699  1.00  0.00     0.000 A 
ENDBRANCH  57  71
BRANCH  58  77
ATOM     77  C   UNL A   1      40.514  24.498  27.235  1.00  0.00    -0.014 A 
ATOM     78  C   UNL A   1      41.101  23.297  27.662  1.00  0.00     0.009 A 
ATOM     79  C   UNL A   1      39.327  24.442  26.488  1.00  0.00     0.009 A 
ATOM     80  C   UNL A   1      40.533  22.068  27.315  1.00  0.00     0.001 A 
ATOM     81  C   UNL A   1      38.742  23.215  26.171  1.00  0.00     0.001 A 
ATOM     82  C   UNL A   1      39.353  22.028  26.573  1.00  0.00     0.000 A 
ENDBRANCH  58  77
BRANCH  70  83
ATOM     83  C   UNL A   1      46.447  27.462  25.120  1.00  0.00    -0.014 A 
ATOM     84  C   UNL A   1      46.735  28.065  23.885  1.00  0.00     0.009 A 
ATOM     85  C   UNL A   1      47.235  26.380  25.546  1.00  0.00     0.009 A 
ATOM     86  C   UNL A   1      47.752  27.559  23.073  1.00  0.00     0.001 A 
ATOM     87  C   UNL A   1      48.275  25.901  24.750  1.00  0.00     0.001 A 
ATOM     88  C   UNL A   1      48.522  26.480  23.506  1.00  0.00     0.000 A 
ENDBRANCH  70  83
ENDBRANCH  44  45
ENDBRANCH  37  39
ENDBRANCH  36  37
ENDBRANCH  35  36
ENDBRANCH  34  35
ENDBRANCH  33  34
ENDBRANCH  32  33
ENDBRANCH  31  32
ENDBRANCH  30  31
ENDBRANCH   1  30
TORSDOF 24
ENDMDL
