MODEL 1
REMARK VINA RESULT:      -5.3      0.000      0.000
REMARK SMILES NS(=O)(=O)c1ccc(-n2nc(C(=O)NCCCCCCCCCCC(=O)OCCOCCOCCOCCOC(=O)c3ccc(-c4c5nc(c(-c6ccccc6)c6ccc([nH]6)c(-c6ccccc6)c6nc(c(-c7ccccc7)c7ccc4[nH]7)C=C6)C=C5)cc3)cc2-c2ccccc2)cc1
REMARK SMILES IDX 27 1 25 2 26 3 24 4 23 5 22 6 21 7 20 8 19 9 18 10 17 11
REMARK SMILES IDX 16 12 15 13 14 14 12 15 13 16 11 18 9 19 10 20 91 21 90 22
REMARK SMILES IDX 8 23 5 24 6 25 99 26 7 27 98 28 2 29 3 30 4 31 1 32 92 35
REMARK SMILES IDX 93 36 97 37 94 38 96 39 95 40 28 41 29 42 30 43 31 44 32 45
REMARK SMILES IDX 33 46 34 47 35 48 36 49 37 50 38 51 39 52 40 53 41 54 42 55
REMARK SMILES IDX 43 56 89 57 44 58 88 59 45 60 46 61 47 62 82 63 48 64 87 65
REMARK SMILES IDX 81 66 83 67 49 68 86 69 80 70 79 71 50 73 72 74 57 75 71 76
REMARK SMILES IDX 58 77 61 78 70 79 84 80 59 81 60 82 69 84 85 85 62 86 51 87
REMARK SMILES IDX 52 88 56 89 53 90 55 91 54 92 73 93 74 94 78 95 75 96 77 97
REMARK SMILES IDX 76 98 63 99 64 100 68 101 65 102 67 103 66 104
REMARK H PARENT 14 17 1 33 1 34 83 72 61 83
REMARK Flexibility Score: inf
ROOT
ATOM      1  O   UNL A   1      51.921  27.591  33.571  1.00  0.00    -0.463 OA
ENDROOT
BRANCH   1   2
ATOM      2  C   UNL A   1      51.569  28.237  34.701  1.00  0.00     0.305 C 
ATOM      3  O   UNL A   1      51.761  27.804  35.831  1.00  0.00    -0.252 OA
BRANCH   2   4
ATOM      4  C   UNL A   1      50.976  29.621  34.470  1.00  0.00     0.123 C 
BRANCH   4   5
ATOM      5  C   UNL A   1      49.695  30.105  35.156  1.00  0.00     0.012 C 
BRANCH   5   6
ATOM      6  C   UNL A   1      49.542  31.616  35.306  1.00  0.00     0.001 C 
BRANCH   6   7
ATOM      7  C   UNL A   1      48.186  32.070  34.782  1.00  0.00     0.000 C 
BRANCH   7   8
ATOM      8  C   UNL A   1      48.040  31.765  33.291  1.00  0.00     0.000 C 
BRANCH   8   9
ATOM      9  C   UNL A   1      47.905  33.044  32.455  1.00  0.00     0.000 C 
BRANCH   9  10
ATOM     10  C   UNL A   1      46.940  34.041  33.108  1.00  0.00     0.000 C 
BRANCH  10  11
ATOM     11  C   UNL A   1      45.702  34.301  32.238  1.00  0.00     0.002 C 
BRANCH  11  12
ATOM     12  C   UNL A   1      45.593  35.764  31.808  1.00  0.00     0.021 C 
BRANCH  12  13
ATOM     13  C   UNL A   1      46.631  36.601  32.542  1.00  0.00     0.116 C 
BRANCH  13  14
ATOM     14  N   UNL A   1      45.968  37.577  33.361  1.00  0.00    -0.351 N 
ATOM     15  C   UNL A   1      45.338  38.754  33.057  1.00  0.00     0.271 C 
ATOM     16  O   UNL A   1      45.042  39.460  34.024  1.00  0.00    -0.267 OA
ATOM     17  H   UNL A   1      45.965  37.359  34.321  1.00  0.00     0.163 HD
BRANCH  15  18
ATOM     18  C   UNL A   1      44.984  39.115  31.668  1.00  0.00     0.151 A 
ATOM     19  N   UNL A   1      45.041  40.319  29.894  1.00  0.00    -0.232 N 
ATOM     20  N   UNL A   1      45.732  40.022  31.011  1.00  0.00    -0.162 NA
ATOM     21  C   UNL A   1      43.945  39.504  29.715  1.00  0.00     0.075 A 
ATOM     22  C   UNL A   1      43.942  38.680  30.816  1.00  0.00     0.065 A 
BRANCH  19  23
ATOM     23  C   UNL A   1      45.506  41.298  29.000  1.00  0.00     0.065 A 
ATOM     24  C   UNL A   1      46.046  43.107  26.994  1.00  0.00     0.082 A 
ATOM     25  C   UNL A   1      45.334  43.530  28.122  1.00  0.00     0.024 A 
ATOM     26  C   UNL A   1      46.532  41.797  26.888  1.00  0.00     0.024 A 
ATOM     27  C   UNL A   1      45.053  42.617  29.128  1.00  0.00     0.030 A 
ATOM     28  C   UNL A   1      46.286  40.891  27.915  1.00  0.00     0.030 A 
BRANCH  24  29
ATOM     29  S   UNL A   1      46.282  44.285  25.703  1.00  0.00     0.238 S 
ATOM     30  O   UNL A   1      45.002  44.821  25.337  1.00  0.00    -0.207 OA
ATOM     31  O   UNL A   1      47.204  43.710  24.739  1.00  0.00    -0.207 OA
BRANCH  29  32
ATOM     32  N   UNL A   1      47.127  45.543  26.425  1.00  0.00    -0.225 NA
ATOM     33  H   UNL A   1      46.860  45.613  27.407  1.00  0.00     0.137 HD
ATOM     34  H   UNL A   1      46.906  46.418  25.949  1.00  0.00     0.137 HD
ENDBRANCH  29  32
ENDBRANCH  24  29
ENDBRANCH  19  23
BRANCH  21  35
ATOM     35  C   UNL A   1      43.069  39.435  28.552  1.00  0.00     0.000 A 
ATOM     36  C   UNL A   1      43.075  38.313  27.715  1.00  0.00     0.010 A 
ATOM     37  C   UNL A   1      42.174  40.482  28.295  1.00  0.00     0.010 A 
ATOM     38  C   UNL A   1      42.216  38.251  26.619  1.00  0.00     0.001 A 
ATOM     39  C   UNL A   1      41.312  40.415  27.202  1.00  0.00     0.001 A 
ATOM     40  C   UNL A   1      41.336  39.302  26.363  1.00  0.00     0.000 A 
ENDBRANCH  21  35
ENDBRANCH  15  18
ENDBRANCH  13  14
ENDBRANCH  12  13
ENDBRANCH  11  12
ENDBRANCH  10  11
ENDBRANCH   9  10
ENDBRANCH   8   9
ENDBRANCH   7   8
ENDBRANCH   6   7
ENDBRANCH   5   6
ENDBRANCH   4   5
ENDBRANCH   2   4
ENDBRANCH   1   2
BRANCH   1  41
ATOM     41  C   UNL A   1      51.068  27.714  32.427  1.00  0.00     0.261 C 
BRANCH  41  42
ATOM     42  C   UNL A   1      51.562  27.009  31.152  1.00  0.00     0.202 C 
BRANCH  42  43
ATOM     43  O   UNL A   1      50.929  25.861  30.609  1.00  0.00    -0.376 OA
BRANCH  43  44
ATOM     44  C   UNL A   1      50.171  25.944  29.417  1.00  0.00     0.188 C 
BRANCH  44  45
ATOM     45  C   UNL A   1      49.420  27.240  29.068  1.00  0.00     0.188 C 
BRANCH  45  46
ATOM     46  O   UNL A   1      48.017  27.242  29.198  1.00  0.00    -0.377 OA
BRANCH  46  47
ATOM     47  C   UNL A   1      47.259  26.500  28.256  1.00  0.00     0.188 C 
BRANCH  47  48
ATOM     48  C   UNL A   1      46.911  27.095  26.869  1.00  0.00     0.188 C 
BRANCH  48  49
ATOM     49  O   UNL A   1      47.290  26.322  25.738  1.00  0.00    -0.376 OA
BRANCH  49  50
ATOM     50  C   UNL A   1      46.365  25.882  24.757  1.00  0.00     0.202 C 
BRANCH  50  51
ATOM     51  C   UNL A   1      45.379  24.770  25.123  1.00  0.00     0.261 C 
BRANCH  51  52
ATOM     52  O   UNL A   1      44.152  25.256  25.631  1.00  0.00    -0.460 OA
BRANCH  52  53
ATOM     53  C   UNL A   1      43.137  24.382  25.512  1.00  0.00     0.338 C 
ATOM     54  O   UNL A   1      43.080  23.408  24.781  1.00  0.00    -0.246 OA
BRANCH  53  55
ATOM     55  C   UNL A   1      42.021  24.857  26.330  1.00  0.00     0.060 A 
ATOM     56  C   UNL A   1      41.322  25.927  25.777  1.00  0.00     0.016 A 
ATOM     57  C   UNL A   1      42.115  24.631  27.709  1.00  0.00     0.016 A 
ATOM     58  C   UNL A   1      41.071  26.988  26.605  1.00  0.00     0.010 A 
ATOM     59  C   UNL A   1      41.891  25.698  28.528  1.00  0.00     0.010 A 
ATOM     60  C   UNL A   1      41.493  26.893  27.935  1.00  0.00    -0.014 A 
BRANCH  60  61
ATOM     61  C   UNL A   1      41.420  28.075  28.750  1.00  0.00     0.031 A 
ATOM     62  C   UNL A   1      42.531  28.989  28.437  1.00  0.00     0.074 A 
ATOM     63  C   UNL A   1      40.398  28.301  29.595  1.00  0.00     0.049 A 
ATOM     64  N   UNL A   1      43.597  29.185  29.136  1.00  0.00    -0.248 NA
ATOM     65  C   UNL A   1      42.594  29.528  27.066  1.00  0.00     0.031 C 
ATOM     66  C   UNL A   1      39.140  27.561  29.740  1.00  0.00     0.029 A 
ATOM     67  N   UNL A   1      40.232  29.338  30.451  1.00  0.00    -0.354 N 
ATOM     68  C   UNL A   1      44.353  30.072  28.384  1.00  0.00     0.074 A 
ATOM     69  C   UNL A   1      43.834  30.011  27.045  1.00  0.00     0.031 C 
ATOM     70  C   UNL A   1      38.257  28.318  30.435  1.00  0.00     0.029 A 
ATOM     71  C   UNL A   1      38.929  29.524  30.890  1.00  0.00     0.049 A 
ATOM     72  H   UNL A   1      40.977  29.914  30.738  1.00  0.00     0.167 HD
ATOM     73  C   UNL A   1      45.077  31.049  28.993  1.00  0.00     0.031 A 
ATOM     74  C   UNL A   1      38.450  30.633  31.511  1.00  0.00     0.031 A 
ATOM     75  C   UNL A   1      45.275  30.755  30.391  1.00  0.00     0.049 A 
ATOM     76  C   UNL A   1      39.618  31.410  31.999  1.00  0.00     0.074 A 
ATOM     77  C   UNL A   1      45.879  29.735  31.097  1.00  0.00     0.029 A 
ATOM     78  N   UNL A   1      44.427  31.386  31.275  1.00  0.00    -0.354 N 
ATOM     79  N   UNL A   1      40.400  30.995  32.955  1.00  0.00    -0.248 NA
ATOM     80  C   UNL A   1      40.206  32.388  31.094  1.00  0.00     0.031 C 
ATOM     81  C   UNL A   1      45.048  29.528  32.237  1.00  0.00     0.029 A 
ATOM     82  C   UNL A   1      44.024  30.477  32.216  1.00  0.00     0.049 A 
ATOM     83  H   UNL A   1      44.158  32.332  31.236  1.00  0.00     0.167 HD
ATOM     84  C   UNL A   1      41.684  31.302  32.522  1.00  0.00     0.074 A 
ATOM     85  C   UNL A   1      41.496  32.238  31.414  1.00  0.00     0.031 C 
ATOM     86  C   UNL A   1      42.751  30.538  32.902  1.00  0.00     0.031 A 
BRANCH  73  87
ATOM     87  C   UNL A   1      45.139  32.459  28.451  1.00  0.00    -0.014 A 
ATOM     88  C   UNL A   1      46.354  33.153  28.556  1.00  0.00     0.009 A 
ATOM     89  C   UNL A   1      44.005  33.228  28.112  1.00  0.00     0.009 A 
ATOM     90  C   UNL A   1      46.409  34.546  28.429  1.00  0.00     0.001 A 
ATOM     91  C   UNL A   1      44.062  34.611  27.945  1.00  0.00     0.001 A 
ATOM     92  C   UNL A   1      45.260  35.275  28.137  1.00  0.00     0.000 A 
ENDBRANCH  73  87
BRANCH  74  93
ATOM     93  C   UNL A   1      37.097  31.233  31.425  1.00  0.00    -0.014 A 
ATOM     94  C   UNL A   1      36.342  31.492  32.580  1.00  0.00     0.009 A 
ATOM     95  C   UNL A   1      36.659  31.805  30.217  1.00  0.00     0.009 A 
ATOM     96  C   UNL A   1      35.205  32.313  32.530  1.00  0.00     0.001 A 
ATOM     97  C   UNL A   1      35.525  32.625  30.167  1.00  0.00     0.001 A 
ATOM     98  C   UNL A   1      34.804  32.888  31.326  1.00  0.00     0.000 A 
ENDBRANCH  74  93
BRANCH  86  99
ATOM     99  C   UNL A   1      42.530  29.514  33.990  1.00  0.00    -0.014 A 
ATOM    100  C   UNL A   1      42.568  29.817  35.365  1.00  0.00     0.009 A 
ATOM    101  C   UNL A   1      42.117  28.231  33.604  1.00  0.00     0.009 A 
ATOM    102  C   UNL A   1      42.225  28.852  36.319  1.00  0.00     0.001 A 
ATOM    103  C   UNL A   1      41.755  27.276  34.555  1.00  0.00     0.001 A 
ATOM    104  C   UNL A   1      41.813  27.584  35.912  1.00  0.00     0.000 A 
ENDBRANCH  86  99
ENDBRANCH  60  61
ENDBRANCH  53  55
ENDBRANCH  52  53
ENDBRANCH  51  52
ENDBRANCH  50  51
ENDBRANCH  49  50
ENDBRANCH  48  49
ENDBRANCH  47  48
ENDBRANCH  46  47
ENDBRANCH  45  46
ENDBRANCH  44  45
ENDBRANCH  43  44
ENDBRANCH  42  43
ENDBRANCH  41  42
ENDBRANCH   1  41
TORSDOF 35
ENDMDL
MODEL 2
REMARK VINA RESULT:      -5.3      5.229     12.318
REMARK SMILES NS(=O)(=O)c1ccc(-n2nc(C(=O)NCCCCCCCCCCC(=O)OCCOCCOCCOCCOC(=O)c3ccc(-c4c5nc(c(-c6ccccc6)c6ccc([nH]6)c(-c6ccccc6)c6nc(c(-c7ccccc7)c7ccc4[nH]7)C=C6)C=C5)cc3)cc2-c2ccccc2)cc1
REMARK SMILES IDX 27 1 25 2 26 3 24 4 23 5 22 6 21 7 20 8 19 9 18 10 17 11
REMARK SMILES IDX 16 12 15 13 14 14 12 15 13 16 11 18 9 19 10 20 91 21 90 22
REMARK SMILES IDX 8 23 5 24 6 25 99 26 7 27 98 28 2 29 3 30 4 31 1 32 92 35
REMARK SMILES IDX 93 36 97 37 94 38 96 39 95 40 28 41 29 42 30 43 31 44 32 45
REMARK SMILES IDX 33 46 34 47 35 48 36 49 37 50 38 51 39 52 40 53 41 54 42 55
REMARK SMILES IDX 43 56 89 57 44 58 88 59 45 60 46 61 47 62 82 63 48 64 87 65
REMARK SMILES IDX 81 66 83 67 49 68 86 69 80 70 79 71 50 73 72 74 57 75 71 76
REMARK SMILES IDX 58 77 61 78 70 79 84 80 59 81 60 82 69 84 85 85 62 86 51 87
REMARK SMILES IDX 52 88 56 89 53 90 55 91 54 92 73 93 74 94 78 95 75 96 77 97
REMARK SMILES IDX 76 98 63 99 64 100 68 101 65 102 67 103 66 104
REMARK H PARENT 14 17 1 33 1 34 83 72 61 83
REMARK Flexibility Score: inf
ROOT
ATOM      1  O   UNL A   1      44.943  32.691  25.174  1.00  0.00    -0.463 OA
ENDROOT
BRANCH   1   2
ATOM      2  C   UNL A   1      45.257  32.276  26.418  1.00  0.00     0.305 C 
ATOM      3  O   UNL A   1      45.926  32.927  27.213  1.00  0.00    -0.252 OA
BRANCH   2   4
ATOM      4  C   UNL A   1      44.636  30.941  26.807  1.00  0.00     0.123 C 
BRANCH   4   5
ATOM      5  C   UNL A   1      44.125  30.638  28.219  1.00  0.00     0.012 C 
BRANCH   5   6
ATOM      6  C   UNL A   1      44.046  29.163  28.604  1.00  0.00     0.001 C 
BRANCH   6   7
ATOM      7  C   UNL A   1      43.868  29.013  30.109  1.00  0.00     0.000 C 
BRANCH   7   8
ATOM      8  C   UNL A   1      43.025  27.782  30.445  1.00  0.00     0.000 C 
BRANCH   8   9
ATOM      9  C   UNL A   1      43.828  26.734  31.226  1.00  0.00     0.000 C 
BRANCH   9  10
ATOM     10  C   UNL A   1      43.895  27.078  32.719  1.00  0.00     0.000 C 
BRANCH  10  11
ATOM     11  C   UNL A   1      45.336  27.316  33.193  1.00  0.00     0.002 C 
BRANCH  11  12
ATOM     12  C   UNL A   1      45.501  28.668  33.889  1.00  0.00     0.021 C 
BRANCH  12  13
ATOM     13  C   UNL A   1      44.236  29.498  33.720  1.00  0.00     0.116 C 
BRANCH  13  14
ATOM     14  N   UNL A   1      44.576  30.788  33.189  1.00  0.00    -0.351 N 
ATOM     15  C   UNL A   1      43.817  31.890  32.898  1.00  0.00     0.271 C 
ATOM     16  O   UNL A   1      44.394  32.776  32.263  1.00  0.00    -0.267 OA
ATOM     17  H   UNL A   1      45.536  30.902  32.999  1.00  0.00     0.163 HD
BRANCH  15  18
ATOM     18  C   UNL A   1      42.423  32.025  33.371  1.00  0.00     0.151 A 
ATOM     19  N   UNL A   1      40.315  32.350  33.150  1.00  0.00    -0.232 N 
ATOM     20  N   UNL A   1      41.415  31.955  32.480  1.00  0.00    -0.162 NA
ATOM     21  C   UNL A   1      40.543  32.510  34.499  1.00  0.00     0.075 A 
ATOM     22  C   UNL A   1      41.880  32.234  34.660  1.00  0.00     0.065 A 
BRANCH  19  23
ATOM     23  C   UNL A   1      39.077  32.464  32.494  1.00  0.00     0.065 A 
ATOM     24  C   UNL A   1      36.479  32.766  31.632  1.00  0.00     0.082 A 
ATOM     25  C   UNL A   1      37.337  33.871  31.617  1.00  0.00     0.024 A 
ATOM     26  C   UNL A   1      36.928  31.500  32.030  1.00  0.00     0.024 A 
ATOM     27  C   UNL A   1      38.643  33.722  32.060  1.00  0.00     0.030 A 
ATOM     28  C   UNL A   1      38.250  31.340  32.436  1.00  0.00     0.030 A 
BRANCH  24  29
ATOM     29  S   UNL A   1      34.803  33.041  31.155  1.00  0.00     0.238 S 
ATOM     30  O   UNL A   1      33.957  32.743  32.276  1.00  0.00    -0.207 OA
ATOM     31  O   UNL A   1      34.611  32.453  29.842  1.00  0.00    -0.207 OA
BRANCH  29  32
ATOM     32  N   UNL A   1      34.695  34.699  30.917  1.00  0.00    -0.225 NA
ATOM     33  H   UNL A   1      34.260  35.133  31.731  1.00  0.00     0.137 HD
ATOM     34  H   UNL A   1      34.130  34.887  30.088  1.00  0.00     0.137 HD
ENDBRANCH  29  32
ENDBRANCH  24  29
ENDBRANCH  19  23
BRANCH  21  35
ATOM     35  C   UNL A   1      39.558  32.772  35.541  1.00  0.00     0.000 A 
ATOM     36  C   UNL A   1      38.956  31.720  36.241  1.00  0.00     0.010 A 
ATOM     37  C   UNL A   1      39.246  34.094  35.883  1.00  0.00     0.010 A 
ATOM     38  C   UNL A   1      38.033  31.986  37.250  1.00  0.00     0.001 A 
ATOM     39  C   UNL A   1      38.328  34.359  36.898  1.00  0.00     0.001 A 
ATOM     40  C   UNL A   1      37.719  33.304  37.578  1.00  0.00     0.000 A 
ENDBRANCH  21  35
ENDBRANCH  15  18
ENDBRANCH  13  14
ENDBRANCH  12  13
ENDBRANCH  11  12
ENDBRANCH  10  11
ENDBRANCH   9  10
ENDBRANCH   8   9
ENDBRANCH   7   8
ENDBRANCH   6   7
ENDBRANCH   5   6
ENDBRANCH   4   5
ENDBRANCH   2   4
ENDBRANCH   1   2
BRANCH   1  41
ATOM     41  C   UNL A   1      43.739  33.445  24.995  1.00  0.00     0.261 C 
BRANCH  41  42
ATOM     42  C   UNL A   1      43.699  34.811  25.702  1.00  0.00     0.202 C 
BRANCH  42  43
ATOM     43  O   UNL A   1      42.490  35.454  26.072  1.00  0.00    -0.376 OA
BRANCH  43  44
ATOM     44  C   UNL A   1      42.160  35.654  27.434  1.00  0.00     0.188 C 
BRANCH  44  45
ATOM     45  C   UNL A   1      42.499  36.987  28.122  1.00  0.00     0.188 C 
BRANCH  45  46
ATOM     46  O   UNL A   1      43.854  37.373  28.178  1.00  0.00    -0.377 OA
BRANCH  46  47
ATOM     47  C   UNL A   1      44.341  38.246  27.172  1.00  0.00     0.188 C 
BRANCH  47  48
ATOM     48  C   UNL A   1      45.861  38.403  26.921  1.00  0.00     0.188 C 
BRANCH  48  49
ATOM     49  O   UNL A   1      46.695  38.381  28.072  1.00  0.00    -0.376 OA
BRANCH  49  50
ATOM     50  C   UNL A   1      48.112  38.377  27.999  1.00  0.00     0.202 C 
BRANCH  50  51
ATOM     51  C   UNL A   1      48.894  37.459  28.942  1.00  0.00     0.261 C 
BRANCH  51  52
ATOM     52  O   UNL A   1      48.874  36.102  28.545  1.00  0.00    -0.460 OA
BRANCH  52  53
ATOM     53  C   UNL A   1      49.610  35.300  29.335  1.00  0.00     0.338 C 
ATOM     54  O   UNL A   1      49.565  35.213  30.549  1.00  0.00    -0.246 OA
BRANCH  53  55
ATOM     55  C   UNL A   1      50.593  34.608  28.501  1.00  0.00     0.060 A 
ATOM     56  C   UNL A   1      50.250  34.534  27.154  1.00  0.00     0.016 A 
ATOM     57  C   UNL A   1      51.399  33.659  29.143  1.00  0.00     0.016 A 
ATOM     58  C   UNL A   1      50.369  33.308  26.558  1.00  0.00     0.010 A 
ATOM     59  C   UNL A   1      51.491  32.429  28.559  1.00  0.00     0.010 A 
ATOM     60  C   UNL A   1      50.861  32.250  27.331  1.00  0.00    -0.014 A 
BRANCH  60  61
ATOM     61  C   UNL A   1      50.792  30.925  26.778  1.00  0.00     0.031 A 
ATOM     62  C   UNL A   1      49.823  30.103  27.523  1.00  0.00     0.074 A 
ATOM     63  C   UNL A   1      51.473  30.573  25.674  1.00  0.00     0.049 A 
ATOM     64  N   UNL A   1      50.085  29.184  28.388  1.00  0.00    -0.248 NA
ATOM     65  C   UNL A   1      48.417  30.546  27.511  1.00  0.00     0.031 C 
ATOM     66  C   UNL A   1      52.230  31.421  24.746  1.00  0.00     0.029 A 
ATOM     67  N   UNL A   1      51.539  29.356  25.081  1.00  0.00    -0.354 N 
ATOM     68  C   UNL A   1      48.844  28.769  28.847  1.00  0.00     0.074 A 
ATOM     69  C   UNL A   1      47.915  29.810  28.500  1.00  0.00     0.031 C 
ATOM     70  C   UNL A   1      52.450  30.737  23.597  1.00  0.00     0.029 A 
ATOM     71  C   UNL A   1      51.971  29.375  23.763  1.00  0.00     0.049 A 
ATOM     72  H   UNL A   1      51.300  28.523  25.550  1.00  0.00     0.167 HD
ATOM     73  C   UNL A   1      48.616  27.458  29.129  1.00  0.00     0.031 A 
ATOM     74  C   UNL A   1      51.859  28.354  22.874  1.00  0.00     0.031 A 
ATOM     75  C   UNL A   1      49.854  26.738  29.295  1.00  0.00     0.049 A 
ATOM     76  C   UNL A   1      51.589  27.117  23.650  1.00  0.00     0.074 A 
ATOM     77  C   UNL A   1      50.930  26.834  30.155  1.00  0.00     0.029 A 
ATOM     78  N   UNL A   1      50.293  26.016  28.207  1.00  0.00    -0.354 N 
ATOM     79  N   UNL A   1      52.465  26.567  24.442  1.00  0.00    -0.248 NA
ATOM     80  C   UNL A   1      50.199  26.785  23.935  1.00  0.00     0.031 C 
ATOM     81  C   UNL A   1      52.074  26.548  29.353  1.00  0.00     0.029 A 
ATOM     82  C   UNL A   1      51.641  26.215  28.067  1.00  0.00     0.049 A 
ATOM     83  H   UNL A   1      49.732  25.452  27.628  1.00  0.00     0.167 HD
ATOM     84  C   UNL A   1      51.743  26.197  25.570  1.00  0.00     0.074 A 
ATOM     85  C   UNL A   1      50.340  26.274  25.163  1.00  0.00     0.031 C 
ATOM     86  C   UNL A   1      52.337  26.161  26.799  1.00  0.00     0.031 A 
BRANCH  73  87
ATOM     87  C   UNL A   1      47.329  26.765  28.739  1.00  0.00    -0.014 A 
ATOM     88  C   UNL A   1      46.897  25.688  29.527  1.00  0.00     0.009 A 
ATOM     89  C   UNL A   1      46.687  26.928  27.494  1.00  0.00     0.009 A 
ATOM     90  C   UNL A   1      45.950  24.773  29.051  1.00  0.00     0.001 A 
ATOM     91  C   UNL A   1      45.715  26.042  27.032  1.00  0.00     0.001 A 
ATOM     92  C   UNL A   1      45.370  24.944  27.799  1.00  0.00     0.000 A 
ENDBRANCH  73  87
BRANCH  74  93
ATOM     93  C   UNL A   1      51.638  28.419  21.411  1.00  0.00    -0.014 A 
ATOM     94  C   UNL A   1      52.546  29.078  20.566  1.00  0.00     0.009 A 
ATOM     95  C   UNL A   1      50.671  27.593  20.809  1.00  0.00     0.009 A 
ATOM     96  C   UNL A   1      52.501  28.897  19.176  1.00  0.00     0.001 A 
ATOM     97  C   UNL A   1      50.627  27.411  19.422  1.00  0.00     0.001 A 
ATOM     98  C   UNL A   1      51.549  28.055  18.605  1.00  0.00     0.000 A 
ENDBRANCH  74  93
BRANCH  86  99
ATOM     99  C   UNL A   1      53.840  26.292  26.858  1.00  0.00    -0.014 A 
ATOM    100  C   UNL A   1      54.712  25.196  27.009  1.00  0.00     0.009 A 
ATOM    101  C   UNL A   1      54.396  27.551  26.595  1.00  0.00     0.009 A 
ATOM    102  C   UNL A   1      56.099  25.370  26.923  1.00  0.00     0.001 A 
ATOM    103  C   UNL A   1      55.777  27.720  26.488  1.00  0.00     0.001 A 
ATOM    104  C   UNL A   1      56.629  26.631  26.657  1.00  0.00     0.000 A 
ENDBRANCH  86  99
ENDBRANCH  60  61
ENDBRANCH  53  55
ENDBRANCH  52  53
ENDBRANCH  51  52
ENDBRANCH  50  51
ENDBRANCH  49  50
ENDBRANCH  48  49
ENDBRANCH  47  48
ENDBRANCH  46  47
ENDBRANCH  45  46
ENDBRANCH  44  45
ENDBRANCH  43  44
ENDBRANCH  42  43
ENDBRANCH  41  42
ENDBRANCH   1  41
TORSDOF 35
ENDMDL
MODEL 3
REMARK VINA RESULT:      -5.3      3.867     11.973
REMARK SMILES NS(=O)(=O)c1ccc(-n2nc(C(=O)NCCCCCCCCCCC(=O)OCCOCCOCCOCCOC(=O)c3ccc(-c4c5nc(c(-c6ccccc6)c6ccc([nH]6)c(-c6ccccc6)c6nc(c(-c7ccccc7)c7ccc4[nH]7)C=C6)C=C5)cc3)cc2-c2ccccc2)cc1
REMARK SMILES IDX 27 1 25 2 26 3 24 4 23 5 22 6 21 7 20 8 19 9 18 10 17 11
REMARK SMILES IDX 16 12 15 13 14 14 12 15 13 16 11 18 9 19 10 20 91 21 90 22
REMARK SMILES IDX 8 23 5 24 6 25 99 26 7 27 98 28 2 29 3 30 4 31 1 32 92 35
REMARK SMILES IDX 93 36 97 37 94 38 96 39 95 40 28 41 29 42 30 43 31 44 32 45
REMARK SMILES IDX 33 46 34 47 35 48 36 49 37 50 38 51 39 52 40 53 41 54 42 55
REMARK SMILES IDX 43 56 89 57 44 58 88 59 45 60 46 61 47 62 82 63 48 64 87 65
REMARK SMILES IDX 81 66 83 67 49 68 86 69 80 70 79 71 50 73 72 74 57 75 71 76
REMARK SMILES IDX 58 77 61 78 70 79 84 80 59 81 60 82 69 84 85 85 62 86 51 87
REMARK SMILES IDX 52 88 56 89 53 90 55 91 54 92 73 93 74 94 78 95 75 96 77 97
REMARK SMILES IDX 76 98 63 99 64 100 68 101 65 102 67 103 66 104
REMARK H PARENT 14 17 1 33 1 34 83 72 61 83
REMARK Flexibility Score: inf
ROOT
ATOM      1  O   UNL A   1      47.567  27.372  32.227  1.00  0.00    -0.463 OA
ENDROOT
BRANCH   1   2
ATOM      2  C   UNL A   1      48.631  26.712  31.725  1.00  0.00     0.305 C 
ATOM      3  O   UNL A   1      49.775  26.829  32.147  1.00  0.00    -0.252 OA
BRANCH   2   4
ATOM      4  C   UNL A   1      48.287  25.722  30.621  1.00  0.00     0.123 C 
BRANCH   4   5
ATOM      5  C   UNL A   1      48.815  25.852  29.189  1.00  0.00     0.012 C 
BRANCH   5   6
ATOM      6  C   UNL A   1      48.014  25.132  28.108  1.00  0.00     0.001 C 
BRANCH   6   7
ATOM      7  C   UNL A   1      46.961  26.060  27.516  1.00  0.00     0.000 C 
BRANCH   7   8
ATOM      8  C   UNL A   1      45.630  25.333  27.324  1.00  0.00     0.000 C 
BRANCH   8   9
ATOM      9  C   UNL A   1      45.660  23.917  27.911  1.00  0.00     0.000 C 
BRANCH   9  10
ATOM     10  C   UNL A   1      44.253  23.310  27.985  1.00  0.00     0.000 C 
BRANCH  10  11
ATOM     11  C   UNL A   1      43.310  24.143  28.865  1.00  0.00     0.002 C 
BRANCH  11  12
ATOM     12  C   UNL A   1      41.843  23.966  28.472  1.00  0.00     0.021 C 
BRANCH  12  13
ATOM     13  C   UNL A   1      41.203  25.324  28.223  1.00  0.00     0.116 C 
BRANCH  13  14
ATOM     14  N   UNL A   1      42.215  26.267  27.835  1.00  0.00    -0.351 N 
ATOM     15  C   UNL A   1      42.190  27.627  27.679  1.00  0.00     0.271 C 
ATOM     16  O   UNL A   1      43.186  28.115  27.140  1.00  0.00    -0.267 OA
ATOM     17  H   UNL A   1      43.091  25.859  27.646  1.00  0.00     0.163 HD
BRANCH  15  18
ATOM     18  C   UNL A   1      41.072  28.451  28.183  1.00  0.00     0.151 A 
ATOM     19  N   UNL A   1      39.814  29.314  29.692  1.00  0.00    -0.232 N 
ATOM     20  N   UNL A   1      41.039  28.792  29.486  1.00  0.00    -0.162 NA
ATOM     21  C   UNL A   1      39.107  29.485  28.522  1.00  0.00     0.075 A 
ATOM     22  C   UNL A   1      39.936  28.998  27.540  1.00  0.00     0.065 A 
BRANCH  19  23
ATOM     23  C   UNL A   1      39.411  29.715  30.976  1.00  0.00     0.065 A 
ATOM     24  C   UNL A   1      39.047  30.378  33.625  1.00  0.00     0.082 A 
ATOM     25  C   UNL A   1      39.450  31.368  32.722  1.00  0.00     0.024 A 
ATOM     26  C   UNL A   1      38.777  29.070  33.200  1.00  0.00     0.024 A 
ATOM     27  C   UNL A   1      39.643  31.032  31.390  1.00  0.00     0.030 A 
ATOM     28  C   UNL A   1      38.930  28.743  31.856  1.00  0.00     0.030 A 
BRANCH  24  29
ATOM     29  S   UNL A   1      38.918  30.840  35.322  1.00  0.00     0.238 S 
ATOM     30  O   UNL A   1      39.395  29.751  36.127  1.00  0.00    -0.207 OA
ATOM     31  O   UNL A   1      37.619  31.458  35.519  1.00  0.00    -0.207 OA
BRANCH  29  32
ATOM     32  N   UNL A   1      40.032  32.082  35.510  1.00  0.00    -0.225 NA
ATOM     33  H   UNL A   1      39.595  32.858  36.007  1.00  0.00     0.137 HD
ATOM     34  H   UNL A   1      40.344  32.399  34.592  1.00  0.00     0.137 HD
ENDBRANCH  29  32
ENDBRANCH  24  29
ENDBRANCH  19  23
BRANCH  21  35
ATOM     35  C   UNL A   1      37.826  30.160  28.349  1.00  0.00     0.000 A 
ATOM     36  C   UNL A   1      36.679  29.444  27.990  1.00  0.00     0.010 A 
ATOM     37  C   UNL A   1      37.730  31.536  28.595  1.00  0.00     0.010 A 
ATOM     38  C   UNL A   1      35.458  30.099  27.851  1.00  0.00     0.001 A 
ATOM     39  C   UNL A   1      36.506  32.189  28.461  1.00  0.00     0.001 A 
ATOM     40  C   UNL A   1      35.372  31.471  28.086  1.00  0.00     0.000 A 
ENDBRANCH  21  35
ENDBRANCH  15  18
ENDBRANCH  13  14
ENDBRANCH  12  13
ENDBRANCH  11  12
ENDBRANCH  10  11
ENDBRANCH   9  10
ENDBRANCH   8   9
ENDBRANCH   7   8
ENDBRANCH   6   7
ENDBRANCH   5   6
ENDBRANCH   4   5
ENDBRANCH   2   4
ENDBRANCH   1   2
BRANCH   1  41
ATOM     41  C   UNL A   1      47.747  28.731  32.643  1.00  0.00     0.261 C 
BRANCH  41  42
ATOM     42  C   UNL A   1      47.329  29.043  34.090  1.00  0.00     0.202 C 
BRANCH  42  43
ATOM     43  O   UNL A   1      46.774  28.070  34.961  1.00  0.00    -0.376 OA
BRANCH  43  44
ATOM     44  C   UNL A   1      46.210  28.444  36.204  1.00  0.00     0.188 C 
BRANCH  44  45
ATOM     45  C   UNL A   1      45.798  29.904  36.457  1.00  0.00     0.188 C 
BRANCH  45  46
ATOM     46  O   UNL A   1      45.165  30.207  37.679  1.00  0.00    -0.377 OA
BRANCH  46  47
ATOM     47  C   UNL A   1      44.330  31.353  37.730  1.00  0.00     0.188 C 
BRANCH  47  48
ATOM     48  C   UNL A   1      43.997  32.154  36.448  1.00  0.00     0.188 C 
BRANCH  48  49
ATOM     49  O   UNL A   1      42.779  32.885  36.459  1.00  0.00    -0.376 OA
BRANCH  49  50
ATOM     50  C   UNL A   1      42.710  34.276  36.189  1.00  0.00     0.202 C 
BRANCH  50  51
ATOM     51  C   UNL A   1      43.454  35.242  37.115  1.00  0.00     0.261 C 
BRANCH  51  52
ATOM     52  O   UNL A   1      43.246  36.601  36.789  1.00  0.00    -0.460 OA
BRANCH  52  53
ATOM     53  C   UNL A   1      44.363  37.238  36.396  1.00  0.00     0.338 C 
ATOM     54  O   UNL A   1      45.452  37.229  36.944  1.00  0.00    -0.246 OA
BRANCH  53  55
ATOM     55  C   UNL A   1      44.037  38.071  35.238  1.00  0.00     0.060 A 
ATOM     56  C   UNL A   1      43.144  37.484  34.345  1.00  0.00     0.016 A 
ATOM     57  C   UNL A   1      45.000  39.013  34.855  1.00  0.00     0.016 A 
ATOM     58  C   UNL A   1      43.483  37.531  33.020  1.00  0.00     0.010 A 
ATOM     59  C   UNL A   1      45.354  39.036  33.538  1.00  0.00     0.010 A 
ATOM     60  C   UNL A   1      44.664  38.193  32.670  1.00  0.00    -0.014 A 
BRANCH  60  61
ATOM     61  C   UNL A   1      45.130  38.067  31.316  1.00  0.00     0.031 A 
ATOM     62  C   UNL A   1      44.235  38.783  30.393  1.00  0.00     0.074 A 
ATOM     63  C   UNL A   1      46.285  37.450  31.010  1.00  0.00     0.049 A 
ATOM     64  N   UNL A   1      43.355  38.265  29.604  1.00  0.00    -0.248 NA
ATOM     65  C   UNL A   1      44.110  40.241  30.572  1.00  0.00     0.031 C 
ATOM     66  C   UNL A   1      47.339  36.966  31.909  1.00  0.00     0.029 A 
ATOM     67  N   UNL A   1      46.812  37.217  29.784  1.00  0.00    -0.354 N 
ATOM     68  C   UNL A   1      42.734  39.352  29.008  1.00  0.00     0.074 A 
ATOM     69  C   UNL A   1      43.029  40.491  29.835  1.00  0.00     0.031 C 
ATOM     70  C   UNL A   1      48.466  36.740  31.190  1.00  0.00     0.029 A 
ATOM     71  C   UNL A   1      48.170  36.935  29.780  1.00  0.00     0.049 A 
ATOM     72  H   UNL A   1      46.273  37.247  28.960  1.00  0.00     0.167 HD
ATOM     73  C   UNL A   1      42.355  39.300  27.703  1.00  0.00     0.031 A 
ATOM     74  C   UNL A   1      48.982  36.944  28.691  1.00  0.00     0.031 A 
ATOM     75  C   UNL A   1      42.293  37.937  27.234  1.00  0.00     0.049 A 
ATOM     76  C   UNL A   1      48.112  36.895  27.488  1.00  0.00     0.074 A 
ATOM     77  C   UNL A   1      41.569  36.816  27.588  1.00  0.00     0.029 A 
ATOM     78  N   UNL A   1      43.382  37.485  26.523  1.00  0.00    -0.354 N 
ATOM     79  N   UNL A   1      47.397  35.854  27.168  1.00  0.00    -0.248 NA
ATOM     80  C   UNL A   1      47.651  38.161  26.934  1.00  0.00     0.031 C 
ATOM     81  C   UNL A   1      42.480  35.728  27.452  1.00  0.00     0.029 A 
ATOM     82  C   UNL A   1      43.687  36.220  26.950  1.00  0.00     0.049 A 
ATOM     83  H   UNL A   1      43.860  37.986  25.823  1.00  0.00     0.167 HD
ATOM     84  C   UNL A   1      46.175  36.374  26.761  1.00  0.00     0.074 A 
ATOM     85  C   UNL A   1      46.421  37.801  26.552  1.00  0.00     0.031 C 
ATOM     86  C   UNL A   1      45.021  35.661  26.926  1.00  0.00     0.031 A 
BRANCH  73  87
ATOM     87  C   UNL A   1      42.554  40.466  26.761  1.00  0.00    -0.014 A 
ATOM     88  C   UNL A   1      41.531  40.756  25.846  1.00  0.00     0.009 A 
ATOM     89  C   UNL A   1      43.794  41.100  26.537  1.00  0.00     0.009 A 
ATOM     90  C   UNL A   1      41.768  41.552  24.719  1.00  0.00     0.001 A 
ATOM     91  C   UNL A   1      44.024  41.927  25.438  1.00  0.00     0.001 A 
ATOM     92  C   UNL A   1      43.018  42.126  24.509  1.00  0.00     0.000 A 
ENDBRANCH  73  87
BRANCH  74  93
ATOM     93  C   UNL A   1      50.411  37.322  28.603  1.00  0.00    -0.014 A 
ATOM     94  C   UNL A   1      50.910  38.445  29.283  1.00  0.00     0.009 A 
ATOM     95  C   UNL A   1      51.346  36.417  28.067  1.00  0.00     0.009 A 
ATOM     96  C   UNL A   1      52.291  38.640  29.441  1.00  0.00     0.001 A 
ATOM     97  C   UNL A   1      52.723  36.611  28.225  1.00  0.00     0.001 A 
ATOM     98  C   UNL A   1      53.196  37.717  28.922  1.00  0.00     0.000 A 
ENDBRANCH  74  93
BRANCH  86  99
ATOM     99  C   UNL A   1      45.144  34.211  27.331  1.00  0.00    -0.014 A 
ATOM    100  C   UNL A   1      44.973  33.136  26.437  1.00  0.00     0.009 A 
ATOM    101  C   UNL A   1      45.600  33.931  28.626  1.00  0.00     0.009 A 
ATOM    102  C   UNL A   1      45.229  31.821  26.844  1.00  0.00     0.001 A 
ATOM    103  C   UNL A   1      45.877  32.623  29.024  1.00  0.00     0.001 A 
ATOM    104  C   UNL A   1      45.687  31.567  28.136  1.00  0.00     0.000 A 
ENDBRANCH  86  99
ENDBRANCH  60  61
ENDBRANCH  53  55
ENDBRANCH  52  53
ENDBRANCH  51  52
ENDBRANCH  50  51
ENDBRANCH  49  50
ENDBRANCH  48  49
ENDBRANCH  47  48
ENDBRANCH  46  47
ENDBRANCH  45  46
ENDBRANCH  44  45
ENDBRANCH  43  44
ENDBRANCH  42  43
ENDBRANCH  41  42
ENDBRANCH   1  41
TORSDOF 35
ENDMDL
