MODEL 1
REMARK VINA RESULT:      -8.2      0.000      0.000
REMARK SMILES C=CC[C@H](CNC(=O)OC(C)(C)C)C(=O)OCCOCCOCCOCCOC(=O)c1ccc(-c2c3nc(c(-c4ccccc4)c4ccc([nH]4)c(-c4ccccc4)c4nc(c(-c5ccccc5)c5ccc2[nH]5)C=C4)C=C3)cc1
REMARK SMILES IDX 21 1 20 2 19 3 18 4 17 5 16 6 14 7 15 8 4 9 3 10 2 11 1 12
REMARK SMILES IDX 5 13 6 14 7 15 8 17 9 18 10 19 11 20 12 21 13 22 22 23 23 24
REMARK SMILES IDX 24 25 25 26 26 27 27 28 28 29 29 30 30 31 31 32 32 33 78 34
REMARK SMILES IDX 33 35 77 36 34 37 35 38 36 39 71 40 37 41 76 42 70 43 72 44
REMARK SMILES IDX 38 45 75 46 69 47 68 48 39 50 61 51 46 52 60 53 47 54 50 55
REMARK SMILES IDX 59 56 73 57 48 58 49 59 58 61 74 62 51 63 40 64 41 65 45 66
REMARK SMILES IDX 42 67 44 68 43 69 62 70 63 71 67 72 64 73 66 74 65 75 52 76
REMARK SMILES IDX 53 77 57 78 54 79 56 80 55 81
REMARK H PARENT 6 16 72 49 50 60
REMARK Flexibility Score: inf
ROOT
ATOM      1  C   UNL A   1      34.368  21.482  25.118  1.00  0.00     0.188 C 
ENDROOT
BRANCH   1   2
ATOM      2  C   UNL A   1      32.899  21.067  25.276  1.00  0.00     0.188 C 
BRANCH   2   3
ATOM      3  O   UNL A   1      31.940  21.957  25.813  1.00  0.00    -0.376 OA
BRANCH   3   4
ATOM      4  C   UNL A   1      32.299  23.102  26.566  1.00  0.00     0.202 C 
BRANCH   4   5
ATOM      5  C   UNL A   1      31.660  24.492  26.392  1.00  0.00     0.261 C 
BRANCH   5   6
ATOM      6  O   UNL A   1      32.491  25.653  26.563  1.00  0.00    -0.463 OA
BRANCH   6   7
ATOM      7  C   UNL A   1      31.937  26.822  26.163  1.00  0.00     0.311 C 
ATOM      8  O   UNL A   1      30.734  26.982  25.965  1.00  0.00    -0.252 OA
BRANCH   7   9
ATOM      9  C   UNL A   1      32.936  27.927  25.869  1.00  0.00     0.122 C 
BRANCH   9  10
ATOM     10  C   UNL A   1      33.019  28.894  27.060  1.00  0.00     0.044 C 
BRANCH  10  11
ATOM     11  C   UNL A   1      33.409  30.304  26.709  1.00  0.00    -0.034 C 
ATOM     12  C   UNL A   1      33.591  31.252  27.638  1.00  0.00     0.004 C 
ENDBRANCH  10  11
ENDBRANCH   9  10
BRANCH   9  13
ATOM     13  C   UNL A   1      32.951  28.646  24.518  1.00  0.00     0.135 C 
BRANCH  13  14
ATOM     14  N   UNL A   1      31.695  28.748  23.814  1.00  0.00    -0.321 N 
ATOM     15  C   UNL A   1      31.412  28.118  22.635  1.00  0.00     0.407 C 
ATOM     16  H   UNL A   1      30.993  29.310  24.212  1.00  0.00     0.167 HD
ATOM     17  O   UNL A   1      30.326  28.237  22.080  1.00  0.00    -0.225 OA
BRANCH  15  18
ATOM     18  O   UNL A   1      32.463  27.399  22.175  1.00  0.00    -0.444 OA
BRANCH  18  19
ATOM     19  C   UNL A   1      32.446  25.954  22.105  1.00  0.00     0.106 C 
ATOM     20  C   UNL A   1      31.239  25.342  22.821  1.00  0.00     0.056 C 
ATOM     21  C   UNL A   1      32.541  25.511  20.644  1.00  0.00     0.056 C 
ATOM     22  C   UNL A   1      33.722  25.513  22.842  1.00  0.00     0.056 C 
ENDBRANCH  18  19
ENDBRANCH  15  18
ENDBRANCH  13  14
ENDBRANCH   9  13
ENDBRANCH   7   9
ENDBRANCH   6   7
ENDBRANCH   5   6
ENDBRANCH   4   5
ENDBRANCH   3   4
ENDBRANCH   2   3
ENDBRANCH   1   2
BRANCH   1  23
ATOM     23  O   UNL A   1      34.649  22.374  24.058  1.00  0.00    -0.377 OA
BRANCH  23  24
ATOM     24  C   UNL A   1      36.017  22.648  23.768  1.00  0.00     0.188 C 
BRANCH  24  25
ATOM     25  C   UNL A   1      37.110  21.808  24.460  1.00  0.00     0.188 C 
BRANCH  25  26
ATOM     26  O   UNL A   1      37.721  22.449  25.570  1.00  0.00    -0.376 OA
BRANCH  26  27
ATOM     27  C   UNL A   1      38.946  21.945  26.078  1.00  0.00     0.202 C 
BRANCH  27  28
ATOM     28  C   UNL A   1      39.372  20.523  25.676  1.00  0.00     0.261 C 
BRANCH  28  29
ATOM     29  O   UNL A   1      40.362  19.890  26.502  1.00  0.00    -0.460 OA
BRANCH  29  30
ATOM     30  C   UNL A   1      41.643  19.901  26.080  1.00  0.00     0.338 C 
ATOM     31  O   UNL A   1      42.170  19.131  25.301  1.00  0.00    -0.246 OA
BRANCH  30  32
ATOM     32  C   UNL A   1      42.267  21.146  26.574  1.00  0.00     0.060 A 
ATOM     33  C   UNL A   1      42.281  21.393  27.953  1.00  0.00     0.016 A 
ATOM     34  C   UNL A   1      42.809  22.072  25.681  1.00  0.00     0.016 A 
ATOM     35  C   UNL A   1      42.781  22.600  28.440  1.00  0.00     0.010 A 
ATOM     36  C   UNL A   1      43.291  23.290  26.167  1.00  0.00     0.010 A 
ATOM     37  C   UNL A   1      43.229  23.577  27.543  1.00  0.00    -0.014 A 
BRANCH  37  38
ATOM     38  C   UNL A   1      43.389  24.974  28.015  1.00  0.00     0.031 A 
ATOM     39  C   UNL A   1      44.782  25.470  28.292  1.00  0.00     0.074 A 
ATOM     40  C   UNL A   1      42.336  25.797  28.158  1.00  0.00     0.049 A 
ATOM     41  N   UNL A   1      45.180  26.636  28.733  1.00  0.00    -0.248 NA
ATOM     42  C   UNL A   1      45.875  24.516  28.041  1.00  0.00     0.031 C 
ATOM     43  C   UNL A   1      40.947  25.457  27.863  1.00  0.00     0.029 A 
ATOM     44  N   UNL A   1      42.285  27.097  28.590  1.00  0.00    -0.354 N 
ATOM     45  C   UNL A   1      46.563  26.549  28.827  1.00  0.00     0.074 A 
ATOM     46  C   UNL A   1      46.933  25.208  28.432  1.00  0.00     0.031 C 
ATOM     47  C   UNL A   1      40.175  26.527  28.124  1.00  0.00     0.029 A 
ATOM     48  C   UNL A   1      41.013  27.610  28.639  1.00  0.00     0.049 A 
ATOM     49  H   UNL A   1      43.085  27.614  28.842  1.00  0.00     0.167 HD
ATOM     50  C   UNL A   1      47.451  27.499  29.205  1.00  0.00     0.031 A 
ATOM     51  C   UNL A   1      40.576  28.809  29.069  1.00  0.00     0.031 A 
ATOM     52  C   UNL A   1      47.081  28.825  29.619  1.00  0.00     0.049 A 
ATOM     53  C   UNL A   1      41.571  29.821  29.574  1.00  0.00     0.074 A 
ATOM     54  C   UNL A   1      47.900  29.868  30.012  1.00  0.00     0.029 A 
ATOM     55  N   UNL A   1      45.775  29.286  29.707  1.00  0.00    -0.354 N 
ATOM     56  N   UNL A   1      42.878  29.738  29.642  1.00  0.00    -0.248 NA
ATOM     57  C   UNL A   1      41.026  31.099  30.053  1.00  0.00     0.031 C 
ATOM     58  C   UNL A   1      47.088  30.936  30.406  1.00  0.00     0.029 A 
ATOM     59  C   UNL A   1      45.766  30.588  30.180  1.00  0.00     0.049 A 
ATOM     60  H   UNL A   1      44.974  28.766  29.470  1.00  0.00     0.167 HD
ATOM     61  C   UNL A   1      43.315  30.963  30.133  1.00  0.00     0.074 A 
ATOM     62  C   UNL A   1      42.131  31.775  30.337  1.00  0.00     0.031 C 
ATOM     63  C   UNL A   1      44.579  31.384  30.381  1.00  0.00     0.031 A 
BRANCH  50  64
ATOM     64  C   UNL A   1      48.903  27.104  29.241  1.00  0.00    -0.014 A 
ATOM     65  C   UNL A   1      49.741  27.264  28.125  1.00  0.00     0.009 A 
ATOM     66  C   UNL A   1      49.439  26.551  30.415  1.00  0.00     0.009 A 
ATOM     67  C   UNL A   1      51.068  26.828  28.168  1.00  0.00     0.001 A 
ATOM     68  C   UNL A   1      50.776  26.151  30.466  1.00  0.00     0.001 A 
ATOM     69  C   UNL A   1      51.584  26.276  29.338  1.00  0.00     0.000 A 
ENDBRANCH  50  64
BRANCH  51  70
ATOM     70  C   UNL A   1      39.122  29.122  29.042  1.00  0.00    -0.014 A 
ATOM     71  C   UNL A   1      38.325  28.912  30.177  1.00  0.00     0.009 A 
ATOM     72  C   UNL A   1      38.523  29.629  27.878  1.00  0.00     0.009 A 
ATOM     73  C   UNL A   1      36.955  29.183  30.142  1.00  0.00     0.001 A 
ATOM     74  C   UNL A   1      37.159  29.929  27.855  1.00  0.00     0.001 A 
ATOM     75  C   UNL A   1      36.374  29.698  28.984  1.00  0.00     0.000 A 
ENDBRANCH  51  70
BRANCH  63  76
ATOM     76  C   UNL A   1      44.761  32.804  30.849  1.00  0.00    -0.014 A 
ATOM     77  C   UNL A   1      44.805  33.134  32.213  1.00  0.00     0.009 A 
ATOM     78  C   UNL A   1      44.931  33.825  29.899  1.00  0.00     0.009 A 
ATOM     79  C   UNL A   1      44.974  34.462  32.612  1.00  0.00     0.001 A 
ATOM     80  C   UNL A   1      45.136  35.145  30.301  1.00  0.00     0.001 A 
ATOM     81  C   UNL A   1      45.145  35.465  31.657  1.00  0.00     0.000 A 
ENDBRANCH  63  76
ENDBRANCH  37  38
ENDBRANCH  30  32
ENDBRANCH  29  30
ENDBRANCH  28  29
ENDBRANCH  27  28
ENDBRANCH  26  27
ENDBRANCH  25  26
ENDBRANCH  24  25
ENDBRANCH  23  24
ENDBRANCH   1  23
TORSDOF 26
ENDMDL
MODEL 2
REMARK VINA RESULT:      -7.8      1.181      2.493
REMARK SMILES C=CC[C@H](CNC(=O)OC(C)(C)C)C(=O)OCCOCCOCCOCCOC(=O)c1ccc(-c2c3nc(c(-c4ccccc4)c4ccc([nH]4)c(-c4ccccc4)c4nc(c(-c5ccccc5)c5ccc2[nH]5)C=C4)C=C3)cc1
REMARK SMILES IDX 21 1 20 2 19 3 18 4 17 5 16 6 14 7 15 8 4 9 3 10 2 11 1 12
REMARK SMILES IDX 5 13 6 14 7 15 8 17 9 18 10 19 11 20 12 21 13 22 22 23 23 24
REMARK SMILES IDX 24 25 25 26 26 27 27 28 28 29 29 30 30 31 31 32 32 33 78 34
REMARK SMILES IDX 33 35 77 36 34 37 35 38 36 39 71 40 37 41 76 42 70 43 72 44
REMARK SMILES IDX 38 45 75 46 69 47 68 48 39 50 61 51 46 52 60 53 47 54 50 55
REMARK SMILES IDX 59 56 73 57 48 58 49 59 58 61 74 62 51 63 40 64 41 65 45 66
REMARK SMILES IDX 42 67 44 68 43 69 62 70 63 71 67 72 64 73 66 74 65 75 52 76
REMARK SMILES IDX 53 77 57 78 54 79 56 80 55 81
REMARK H PARENT 6 16 72 49 50 60
REMARK Flexibility Score: inf
ROOT
ATOM      1  C   UNL A   1      34.359  21.786  24.850  1.00  0.00     0.188 C 
ENDROOT
BRANCH   1   2
ATOM      2  C   UNL A   1      33.301  20.848  24.256  1.00  0.00     0.188 C 
BRANCH   2   3
ATOM      3  O   UNL A   1      32.209  21.354  23.512  1.00  0.00    -0.376 OA
BRANCH   3   4
ATOM      4  C   UNL A   1      31.419  22.442  23.960  1.00  0.00     0.202 C 
BRANCH   4   5
ATOM      5  C   UNL A   1      31.014  23.640  23.082  1.00  0.00     0.261 C 
BRANCH   5   6
ATOM      6  O   UNL A   1      31.917  24.755  22.988  1.00  0.00    -0.463 OA
BRANCH   6   7
ATOM      7  C   UNL A   1      31.445  25.822  22.301  1.00  0.00     0.311 C 
ATOM      8  O   UNL A   1      31.735  26.071  21.132  1.00  0.00    -0.252 OA
BRANCH   7   9
ATOM      9  C   UNL A   1      30.592  26.774  23.120  1.00  0.00     0.122 C 
BRANCH   9  10
ATOM     10  C   UNL A   1      30.541  28.153  22.443  1.00  0.00     0.044 C 
BRANCH  10  11
ATOM     11  C   UNL A   1      29.240  28.891  22.598  1.00  0.00    -0.034 C 
ATOM     12  C   UNL A   1      29.167  30.114  23.139  1.00  0.00     0.004 C 
ENDBRANCH  10  11
ENDBRANCH   9  10
BRANCH   9  13
ATOM     13  C   UNL A   1      30.738  26.865  24.641  1.00  0.00     0.135 C 
BRANCH  13  14
ATOM     14  N   UNL A   1      31.962  26.358  25.214  1.00  0.00    -0.321 N 
ATOM     15  C   UNL A   1      33.012  27.136  25.615  1.00  0.00     0.407 C 
ATOM     16  H   UNL A   1      32.046  25.384  25.324  1.00  0.00     0.167 HD
ATOM     17  O   UNL A   1      34.029  26.653  26.099  1.00  0.00    -0.225 OA
BRANCH  15  18
ATOM     18  O   UNL A   1      32.789  28.451  25.387  1.00  0.00    -0.444 OA
BRANCH  18  19
ATOM     19  C   UNL A   1      32.538  29.394  26.456  1.00  0.00     0.106 C 
ATOM     20  C   UNL A   1      31.777  28.769  27.629  1.00  0.00     0.056 C 
ATOM     21  C   UNL A   1      33.857  30.034  26.894  1.00  0.00     0.056 C 
ATOM     22  C   UNL A   1      31.648  30.476  25.821  1.00  0.00     0.056 C 
ENDBRANCH  18  19
ENDBRANCH  15  18
ENDBRANCH  13  14
ENDBRANCH   9  13
ENDBRANCH   7   9
ENDBRANCH   6   7
ENDBRANCH   5   6
ENDBRANCH   4   5
ENDBRANCH   3   4
ENDBRANCH   2   3
ENDBRANCH   1   2
BRANCH   1  23
ATOM     23  O   UNL A   1      34.830  22.810  23.997  1.00  0.00    -0.377 OA
BRANCH  23  24
ATOM     24  C   UNL A   1      36.222  22.833  23.694  1.00  0.00     0.188 C 
BRANCH  24  25
ATOM     25  C   UNL A   1      37.147  21.789  24.352  1.00  0.00     0.188 C 
BRANCH  25  26
ATOM     26  O   UNL A   1      37.662  22.183  25.616  1.00  0.00    -0.376 OA
BRANCH  26  27
ATOM     27  C   UNL A   1      38.970  21.779  25.991  1.00  0.00     0.202 C 
BRANCH  27  28
ATOM     28  C   UNL A   1      39.377  20.315  25.755  1.00  0.00     0.261 C 
BRANCH  28  29
ATOM     29  O   UNL A   1      40.409  19.789  26.605  1.00  0.00    -0.460 OA
BRANCH  29  30
ATOM     30  C   UNL A   1      41.669  19.754  26.126  1.00  0.00     0.338 C 
ATOM     31  O   UNL A   1      42.154  18.920  25.386  1.00  0.00    -0.246 OA
BRANCH  30  32
ATOM     32  C   UNL A   1      42.324  21.026  26.495  1.00  0.00     0.060 A 
ATOM     33  C   UNL A   1      42.464  21.345  27.852  1.00  0.00     0.016 A 
ATOM     34  C   UNL A   1      42.770  21.907  25.508  1.00  0.00     0.016 A 
ATOM     35  C   UNL A   1      42.995  22.578  28.227  1.00  0.00     0.010 A 
ATOM     36  C   UNL A   1      43.283  23.151  25.884  1.00  0.00     0.010 A 
ATOM     37  C   UNL A   1      43.347  23.510  27.243  1.00  0.00    -0.014 A 
BRANCH  37  38
ATOM     38  C   UNL A   1      43.536  24.930  27.625  1.00  0.00     0.031 A 
ATOM     39  C   UNL A   1      44.937  25.477  27.635  1.00  0.00     0.074 A 
ATOM     40  C   UNL A   1      42.495  25.728  27.917  1.00  0.00     0.049 A 
ATOM     41  N   UNL A   1      45.364  26.672  27.954  1.00  0.00    -0.248 NA
ATOM     42  C   UNL A   1      46.004  24.544  27.235  1.00  0.00     0.031 C 
ATOM     43  C   UNL A   1      41.089  25.336  27.882  1.00  0.00     0.029 A 
ATOM     44  N   UNL A   1      42.473  27.044  28.301  1.00  0.00    -0.354 N 
ATOM     45  C   UNL A   1      46.745  26.629  27.810  1.00  0.00     0.074 A 
ATOM     46  C   UNL A   1      47.088  25.283  27.409  1.00  0.00     0.031 C 
ATOM     47  C   UNL A   1      40.336  26.394  28.232  1.00  0.00     0.029 A 
ATOM     48  C   UNL A   1      41.211  27.522  28.551  1.00  0.00     0.049 A 
ATOM     49  H   UNL A   1      43.286  27.594  28.390  1.00  0.00     0.167 HD
ATOM     50  C   UNL A   1      47.650  27.620  27.990  1.00  0.00     0.031 A 
ATOM     51  C   UNL A   1      40.813  28.726  29.004  1.00  0.00     0.031 A 
ATOM     52  C   UNL A   1      47.310  28.952  28.410  1.00  0.00     0.049 A 
ATOM     53  C   UNL A   1      41.844  29.787  29.288  1.00  0.00     0.074 A 
ATOM     54  C   UNL A   1      48.147  30.034  28.614  1.00  0.00     0.029 A 
ATOM     55  N   UNL A   1      46.024  29.379  28.707  1.00  0.00    -0.354 N 
ATOM     56  N   UNL A   1      43.145  29.744  29.131  1.00  0.00    -0.248 NA
ATOM     57  C   UNL A   1      41.345  31.070  29.805  1.00  0.00     0.031 C 
ATOM     58  C   UNL A   1      47.378  31.095  29.101  1.00  0.00     0.029 A 
ATOM     59  C   UNL A   1      46.050  30.699  29.124  1.00  0.00     0.049 A 
ATOM     60  H   UNL A   1      45.213  28.826  28.633  1.00  0.00     0.167 HD
ATOM     61  C   UNL A   1      43.616  31.002  29.489  1.00  0.00     0.074 A 
ATOM     62  C   UNL A   1      42.457  31.788  29.865  1.00  0.00     0.031 C 
ATOM     63  C   UNL A   1      44.888  31.469  29.497  1.00  0.00     0.031 A 
BRANCH  50  64
ATOM     64  C   UNL A   1      49.100  27.268  27.788  1.00  0.00    -0.014 A 
ATOM     65  C   UNL A   1      49.626  27.003  26.513  1.00  0.00     0.009 A 
ATOM     66  C   UNL A   1      49.953  27.191  28.900  1.00  0.00     0.009 A 
ATOM     67  C   UNL A   1      50.960  26.616  26.363  1.00  0.00     0.001 A 
ATOM     68  C   UNL A   1      51.295  26.840  28.744  1.00  0.00     0.001 A 
ATOM     69  C   UNL A   1      51.793  26.539  27.478  1.00  0.00     0.000 A 
ENDBRANCH  50  64
BRANCH  51  70
ATOM     70  C   UNL A   1      39.366  28.996  29.219  1.00  0.00    -0.014 A 
ATOM     71  C   UNL A   1      38.765  28.723  30.456  1.00  0.00     0.009 A 
ATOM     72  C   UNL A   1      38.578  29.525  28.184  1.00  0.00     0.009 A 
ATOM     73  C   UNL A   1      37.400  28.954  30.648  1.00  0.00     0.001 A 
ATOM     74  C   UNL A   1      37.221  29.785  28.388  1.00  0.00     0.001 A 
ATOM     75  C   UNL A   1      36.631  29.491  29.616  1.00  0.00     0.000 A 
ENDBRANCH  51  70
BRANCH  63  76
ATOM     76  C   UNL A   1      45.097  32.913  29.871  1.00  0.00    -0.014 A 
ATOM     77  C   UNL A   1      45.362  33.305  31.193  1.00  0.00     0.009 A 
ATOM     78  C   UNL A   1      45.066  33.895  28.867  1.00  0.00     0.009 A 
ATOM     79  C   UNL A   1      45.550  34.654  31.505  1.00  0.00     0.001 A 
ATOM     80  C   UNL A   1      45.291  35.238  29.176  1.00  0.00     0.001 A 
ATOM     81  C   UNL A   1      45.520  35.617  30.496  1.00  0.00     0.000 A 
ENDBRANCH  63  76
ENDBRANCH  37  38
ENDBRANCH  30  32
ENDBRANCH  29  30
ENDBRANCH  28  29
ENDBRANCH  27  28
ENDBRANCH  26  27
ENDBRANCH  25  26
ENDBRANCH  24  25
ENDBRANCH  23  24
ENDBRANCH   1  23
TORSDOF 26
ENDMDL
MODEL 3
REMARK VINA RESULT:      -7.4      1.274      2.197
REMARK SMILES C=CC[C@H](CNC(=O)OC(C)(C)C)C(=O)OCCOCCOCCOCCOC(=O)c1ccc(-c2c3nc(c(-c4ccccc4)c4ccc([nH]4)c(-c4ccccc4)c4nc(c(-c5ccccc5)c5ccc2[nH]5)C=C4)C=C3)cc1
REMARK SMILES IDX 21 1 20 2 19 3 18 4 17 5 16 6 14 7 15 8 4 9 3 10 2 11 1 12
REMARK SMILES IDX 5 13 6 14 7 15 8 17 9 18 10 19 11 20 12 21 13 22 22 23 23 24
REMARK SMILES IDX 24 25 25 26 26 27 27 28 28 29 29 30 30 31 31 32 32 33 78 34
REMARK SMILES IDX 33 35 77 36 34 37 35 38 36 39 71 40 37 41 76 42 70 43 72 44
REMARK SMILES IDX 38 45 75 46 69 47 68 48 39 50 61 51 46 52 60 53 47 54 50 55
REMARK SMILES IDX 59 56 73 57 48 58 49 59 58 61 74 62 51 63 40 64 41 65 45 66
REMARK SMILES IDX 42 67 44 68 43 69 62 70 63 71 67 72 64 73 66 74 65 75 52 76
REMARK SMILES IDX 53 77 57 78 54 79 56 80 55 81
REMARK H PARENT 6 16 72 49 50 60
REMARK Flexibility Score: inf
ROOT
ATOM      1  C   UNL A   1      34.384  21.671  25.448  1.00  0.00     0.188 C 
ENDROOT
BRANCH   1   2
ATOM      2  C   UNL A   1      33.139  20.961  24.901  1.00  0.00     0.188 C 
BRANCH   2   3
ATOM      3  O   UNL A   1      32.451  21.458  23.769  1.00  0.00    -0.376 OA
BRANCH   3   4
ATOM      4  C   UNL A   1      31.504  22.509  23.852  1.00  0.00     0.202 C 
BRANCH   4   5
ATOM      5  C   UNL A   1      31.648  23.866  23.140  1.00  0.00     0.261 C 
BRANCH   5   6
ATOM      6  O   UNL A   1      32.864  24.609  23.324  1.00  0.00    -0.463 OA
BRANCH   6   7
ATOM      7  C   UNL A   1      33.112  25.551  22.383  1.00  0.00     0.311 C 
ATOM      8  O   UNL A   1      33.384  25.298  21.211  1.00  0.00    -0.252 OA
BRANCH   7   9
ATOM      9  C   UNL A   1      33.134  26.976  22.905  1.00  0.00     0.122 C 
BRANCH   9  10
ATOM     10  C   UNL A   1      33.948  27.050  24.206  1.00  0.00     0.044 C 
BRANCH  10  11
ATOM     11  C   UNL A   1      33.279  27.785  25.335  1.00  0.00    -0.034 C 
ATOM     12  C   UNL A   1      33.811  28.878  25.897  1.00  0.00     0.004 C 
ENDBRANCH  10  11
ENDBRANCH   9  10
BRANCH   9  13
ATOM     13  C   UNL A   1      31.862  27.826  22.952  1.00  0.00     0.135 C 
BRANCH  13  14
ATOM     14  N   UNL A   1      30.618  27.132  23.185  1.00  0.00    -0.321 N 
ATOM     15  C   UNL A   1      29.437  27.741  23.505  1.00  0.00     0.407 C 
ATOM     16  H   UNL A   1      30.620  26.151  23.107  1.00  0.00     0.167 HD
ATOM     17  O   UNL A   1      28.407  27.102  23.690  1.00  0.00    -0.225 OA
BRANCH  15  18
ATOM     18  O   UNL A   1      29.567  29.084  23.610  1.00  0.00    -0.444 OA
BRANCH  18  19
ATOM     19  C   UNL A   1      28.783  30.005  22.818  1.00  0.00     0.106 C 
ATOM     20  C   UNL A   1      28.195  31.148  23.649  1.00  0.00     0.056 C 
ATOM     21  C   UNL A   1      29.621  30.512  21.643  1.00  0.00     0.056 C 
ATOM     22  C   UNL A   1      27.623  29.158  22.269  1.00  0.00     0.056 C 
ENDBRANCH  18  19
ENDBRANCH  15  18
ENDBRANCH  13  14
ENDBRANCH   9  13
ENDBRANCH   7   9
ENDBRANCH   6   7
ENDBRANCH   5   6
ENDBRANCH   4   5
ENDBRANCH   3   4
ENDBRANCH   2   3
ENDBRANCH   1   2
BRANCH   1  23
ATOM     23  O   UNL A   1      34.829  22.795  24.715  1.00  0.00    -0.377 OA
BRANCH  23  24
ATOM     24  C   UNL A   1      36.173  22.786  24.240  1.00  0.00     0.188 C 
BRANCH  24  25
ATOM     25  C   UNL A   1      37.129  21.676  24.721  1.00  0.00     0.188 C 
BRANCH  25  26
ATOM     26  O   UNL A   1      37.852  22.001  25.899  1.00  0.00    -0.376 OA
BRANCH  26  27
ATOM     27  C   UNL A   1      39.231  21.679  25.980  1.00  0.00     0.202 C 
BRANCH  27  28
ATOM     28  C   UNL A   1      39.655  20.219  25.748  1.00  0.00     0.261 C 
BRANCH  28  29
ATOM     29  O   UNL A   1      40.731  19.725  26.561  1.00  0.00    -0.460 OA
BRANCH  29  30
ATOM     30  C   UNL A   1      41.981  19.778  26.060  1.00  0.00     0.338 C 
ATOM     31  O   UNL A   1      42.481  19.032  25.240  1.00  0.00    -0.246 OA
BRANCH  30  32
ATOM     32  C   UNL A   1      42.599  21.037  26.529  1.00  0.00     0.060 A 
ATOM     33  C   UNL A   1      42.567  21.335  27.897  1.00  0.00     0.016 A 
ATOM     34  C   UNL A   1      43.178  21.925  25.621  1.00  0.00     0.016 A 
ATOM     35  C   UNL A   1      43.060  22.555  28.356  1.00  0.00     0.010 A 
ATOM     36  C   UNL A   1      43.652  23.157  26.078  1.00  0.00     0.010 A 
ATOM     37  C   UNL A   1      43.546  23.496  27.440  1.00  0.00    -0.014 A 
BRANCH  37  38
ATOM     38  C   UNL A   1      43.700  24.908  27.864  1.00  0.00     0.031 A 
ATOM     39  C   UNL A   1      45.095  25.437  28.062  1.00  0.00     0.074 A 
ATOM     40  C   UNL A   1      42.640  25.716  28.034  1.00  0.00     0.049 A 
ATOM     41  N   UNL A   1      45.490  26.622  28.452  1.00  0.00    -0.248 NA
ATOM     42  C   UNL A   1      46.193  24.495  27.787  1.00  0.00     0.031 C 
ATOM     43  C   UNL A   1      41.245  25.343  27.814  1.00  0.00     0.029 A 
ATOM     44  N   UNL A   1      42.584  27.027  28.432  1.00  0.00    -0.354 N 
ATOM     45  C   UNL A   1      46.878  26.562  28.484  1.00  0.00     0.074 A 
ATOM     46  C   UNL A   1      47.255  25.217  28.110  1.00  0.00     0.031 C 
ATOM     47  C   UNL A   1      40.466  26.406  28.081  1.00  0.00     0.029 A 
ATOM     48  C   UNL A   1      41.305  27.518  28.526  1.00  0.00     0.049 A 
ATOM     49  H   UNL A   1      43.384  27.565  28.632  1.00  0.00     0.167 HD
ATOM     50  C   UNL A   1      47.763  27.538  28.793  1.00  0.00     0.031 A 
ATOM     51  C   UNL A   1      40.866  28.720  28.942  1.00  0.00     0.031 A 
ATOM     52  C   UNL A   1      47.388  28.869  29.187  1.00  0.00     0.049 A 
ATOM     53  C   UNL A   1      41.864  29.764  29.372  1.00  0.00     0.074 A 
ATOM     54  C   UNL A   1      48.204  29.937  29.512  1.00  0.00     0.029 A 
ATOM     55  N   UNL A   1      46.079  29.309  29.324  1.00  0.00    -0.354 N 
ATOM     56  N   UNL A   1      43.174  29.706  29.382  1.00  0.00    -0.248 NA
ATOM     57  C   UNL A   1      41.317  31.046  29.841  1.00  0.00     0.031 C 
ATOM     58  C   UNL A   1      47.391  31.001  29.914  1.00  0.00     0.029 A 
ATOM     59  C   UNL A   1      46.066  30.623  29.761  1.00  0.00     0.049 A 
ATOM     60  H   UNL A   1      45.278  28.767  29.139  1.00  0.00     0.167 HD
ATOM     61  C   UNL A   1      43.609  30.953  29.817  1.00  0.00     0.074 A 
ATOM     62  C   UNL A   1      42.421  31.749  30.054  1.00  0.00     0.031 C 
ATOM     63  C   UNL A   1      44.876  31.403  29.995  1.00  0.00     0.031 A 
BRANCH  50  64
ATOM     64  C   UNL A   1      49.224  27.171  28.773  1.00  0.00    -0.014 A 
ATOM     65  C   UNL A   1      49.880  26.684  29.916  1.00  0.00     0.009 A 
ATOM     66  C   UNL A   1      49.958  27.327  27.587  1.00  0.00     0.009 A 
ATOM     67  C   UNL A   1      51.250  26.414  29.884  1.00  0.00     0.001 A 
ATOM     68  C   UNL A   1      51.319  27.020  27.549  1.00  0.00     0.001 A 
ATOM     69  C   UNL A   1      51.967  26.579  28.701  1.00  0.00     0.000 A 
ENDBRANCH  50  64
BRANCH  51  70
ATOM     70  C   UNL A   1      39.407  29.007  28.975  1.00  0.00    -0.014 A 
ATOM     71  C   UNL A   1      38.661  28.787  30.143  1.00  0.00     0.009 A 
ATOM     72  C   UNL A   1      38.751  29.498  27.835  1.00  0.00     0.009 A 
ATOM     73  C   UNL A   1      37.286  29.032  30.163  1.00  0.00     0.001 A 
ATOM     74  C   UNL A   1      37.382  29.773  27.868  1.00  0.00     0.001 A 
ATOM     75  C   UNL A   1      36.649  29.532  29.028  1.00  0.00     0.000 A 
ENDBRANCH  51  70
BRANCH  63  76
ATOM     76  C   UNL A   1      45.051  32.839  30.414  1.00  0.00    -0.014 A 
ATOM     77  C   UNL A   1      44.798  33.903  29.533  1.00  0.00     0.009 A 
ATOM     78  C   UNL A   1      45.440  33.129  31.732  1.00  0.00     0.009 A 
ATOM     79  C   UNL A   1      44.971  35.224  29.954  1.00  0.00     0.001 A 
ATOM     80  C   UNL A   1      45.576  34.450  32.160  1.00  0.00     0.001 A 
ATOM     81  C   UNL A   1      45.354  35.496  31.268  1.00  0.00     0.000 A 
ENDBRANCH  63  76
ENDBRANCH  37  38
ENDBRANCH  30  32
ENDBRANCH  29  30
ENDBRANCH  28  29
ENDBRANCH  27  28
ENDBRANCH  26  27
ENDBRANCH  25  26
ENDBRANCH  24  25
ENDBRANCH  23  24
ENDBRANCH   1  23
TORSDOF 26
ENDMDL
