MODEL 1
REMARK VINA RESULT:      -8.8      0.000      0.000
REMARK SMILES Cc1ccc(-c2cnnc(-n3nc(C)c4c3NC(=O)C[C@@H]4c3ccc(C(=O)OCCOCCOCCOCCOC(=O)c4ccc(-c5c6nc(c(-c7ccccc7)c7ccc([nH]7)c(-c7ccccc7)c7nc(c(-c8ccccc8)c8ccc5[nH]8)C=C7)C=C6)cc4)cc3)n2)cc1
REMARK SMILES IDX 33 1 32 2 31 3 30 4 29 5 28 6 26 7 27 8 25 9 22 10 23 11
REMARK SMILES IDX 92 12 24 13 91 14 21 15 11 16 12 17 16 18 13 19 15 20 17 21
REMARK SMILES IDX 14 22 18 23 20 25 19 26 10 27 6 28 7 29 93 30 8 31 9 32 5 33
REMARK SMILES IDX 1 34 2 35 3 36 95 37 4 38 94 39 34 40 35 41 36 42 37 43
REMARK SMILES IDX 38 44 39 45 40 46 41 47 42 48 43 49 44 50 90 51 45 52 89 53
REMARK SMILES IDX 46 54 47 55 48 56 83 57 49 58 88 59 82 60 84 61 50 62 87 63
REMARK SMILES IDX 81 64 80 65 51 67 73 68 58 69 72 70 59 71 62 72 71 73 85 74
REMARK SMILES IDX 60 75 61 76 70 78 86 79 63 80 52 81 53 82 57 83 54 84 56 85
REMARK SMILES IDX 55 86 74 87 75 88 79 89 76 90 78 91 77 92 64 93 65 94 69 95
REMARK SMILES IDX 66 96 68 97 67 98
REMARK H PARENT 17 24 84 66 62 77
REMARK Flexibility Score: inf
ROOT
ATOM      1  C   UNL A   1      48.181  32.605  27.322  1.00  0.00     0.188 C 
ENDROOT
BRANCH   1   2
ATOM      2  C   UNL A   1      47.715  32.665  28.831  1.00  0.00     0.188 C 
BRANCH   2   3
ATOM      3  O   UNL A   1      46.382  33.319  29.369  1.00  0.00    -0.376 OA
BRANCH   3   4
ATOM      4  C   UNL A   1      46.012  34.846  29.944  1.00  0.00     0.202 C 
BRANCH   4   5
ATOM      5  C   UNL A   1      44.660  36.102  29.829  1.00  0.00     0.261 C 
BRANCH   5   6
ATOM      6  O   UNL A   1      42.833  35.965  29.659  1.00  0.00    -0.460 OA
BRANCH   6   7
ATOM      7  C   UNL A   1      41.566  35.006  29.527  1.00  0.00     0.338 C 
ATOM      8  O   UNL A   1      40.484  35.488  29.172  1.00  0.00    -0.246 OA
BRANCH   7   9
ATOM      9  C   UNL A   1      41.367  33.424  30.016  1.00  0.00     0.060 A 
ATOM     10  C   UNL A   1      41.268  30.491  30.201  1.00  0.00    -0.040 A 
ATOM     11  C   UNL A   1      42.443  31.249  30.453  1.00  0.00     0.005 A 
ATOM     12  C   UNL A   1      40.115  31.236  30.072  1.00  0.00     0.005 A 
ATOM     13  C   UNL A   1      42.500  32.676  30.333  1.00  0.00     0.016 A 
ATOM     14  C   UNL A   1      40.171  32.656  30.096  1.00  0.00     0.016 A 
BRANCH  10  15
ATOM     15  C   UNL A   1      41.310  28.966  30.212  1.00  0.00     0.064 C 
ATOM     16  N   UNL A   1      40.777  26.542  27.553  1.00  0.00    -0.180 N 
ATOM     17  N   UNL A   1      41.500  27.393  26.780  1.00  0.00    -0.168 NA
ATOM     18  C   UNL A   1      40.265  27.264  28.621  1.00  0.00     0.143 A 
ATOM     19  C   UNL A   1      41.820  28.406  27.597  1.00  0.00     0.066 A 
ATOM     20  C   UNL A   1      41.178  28.287  28.862  1.00  0.00     0.026 A 
ATOM     21  N   UNL A   1      39.120  27.150  29.379  1.00  0.00    -0.310 N 
ATOM     22  C   UNL A   1      42.688  29.460  27.033  1.00  0.00     0.069 C 
ATOM     23  C   UNL A   1      39.005  28.001  30.525  1.00  0.00     0.226 C 
ATOM     24  H   UNL A   1      38.410  26.510  29.143  1.00  0.00     0.171 HD
ATOM     25  C   UNL A   1      40.305  28.361  31.203  1.00  0.00     0.113 C 
ATOM     26  O   UNL A   1      37.887  28.255  30.932  1.00  0.00    -0.275 OA
BRANCH  16  27
ATOM     27  C   UNL A   1      40.916  25.119  27.404  1.00  0.00     0.272 A 
ATOM     28  C   UNL A   1      41.905  23.214  26.582  1.00  0.00     0.095 A 
ATOM     29  C   UNL A   1      40.741  22.507  26.836  1.00  0.00     0.164 A 
ATOM     30  N   UNL A   1      42.006  24.562  26.814  1.00  0.00    -0.208 NA
ATOM     31  N   UNL A   1      39.688  23.103  27.407  1.00  0.00    -0.153 NA
ATOM     32  N   UNL A   1      39.799  24.412  27.731  1.00  0.00    -0.109 NA
BRANCH  28  33
ATOM     33  C   UNL A   1      43.113  22.484  26.160  1.00  0.00     0.002 A 
ATOM     34  C   UNL A   1      46.567  20.329  24.651  1.00  0.00     0.044 C 
ATOM     35  C   UNL A   1      45.363  21.076  25.147  1.00  0.00    -0.051 A 
ATOM     36  C   UNL A   1      45.452  22.440  25.442  1.00  0.00     0.004 A 
ATOM     37  C   UNL A   1      44.142  20.423  25.341  1.00  0.00     0.004 A 
ATOM     38  C   UNL A   1      44.341  23.135  25.939  1.00  0.00     0.011 A 
ATOM     39  C   UNL A   1      43.036  21.119  25.844  1.00  0.00     0.011 A 
ENDBRANCH  28  33
ENDBRANCH  16  27
ENDBRANCH  10  15
ENDBRANCH   7   9
ENDBRANCH   6   7
ENDBRANCH   5   6
ENDBRANCH   4   5
ENDBRANCH   3   4
ENDBRANCH   2   3
ENDBRANCH   1   2
BRANCH   1  40
ATOM     40  O   UNL A   1      48.260  31.355  26.652  1.00  0.00    -0.377 OA
BRANCH  40  41
ATOM     41  C   UNL A   1      47.424  30.385  27.246  1.00  0.00     0.188 C 
BRANCH  41  42
ATOM     42  C   UNL A   1      47.269  29.143  26.368  1.00  0.00     0.188 C 
BRANCH  42  43
ATOM     43  O   UNL A   1      48.516  28.543  26.063  1.00  0.00    -0.376 OA
BRANCH  43  44
ATOM     44  C   UNL A   1      48.637  27.575  25.053  1.00  0.00     0.202 C 
BRANCH  44  45
ATOM     45  C   UNL A   1      49.337  26.346  25.624  1.00  0.00     0.261 C 
BRANCH  45  46
ATOM     46  O   UNL A   1      49.323  26.405  27.075  1.00  0.00    -0.460 OA
BRANCH  46  47
ATOM     47  C   UNL A   1      48.519  25.500  27.701  1.00  0.00     0.338 C 
ATOM     48  O   UNL A   1      48.333  24.344  27.324  1.00  0.00    -0.246 OA
BRANCH  47  49
ATOM     49  C   UNL A   1      47.680  26.199  28.733  1.00  0.00     0.060 A 
ATOM     50  C   UNL A   1      48.172  26.401  30.016  1.00  0.00     0.016 A 
ATOM     51  C   UNL A   1      46.303  26.348  28.531  1.00  0.00     0.016 A 
ATOM     52  C   UNL A   1      47.262  26.533  31.084  1.00  0.00     0.010 A 
ATOM     53  C   UNL A   1      45.417  26.266  29.618  1.00  0.00     0.010 A 
ATOM     54  C   UNL A   1      45.891  26.189  30.938  1.00  0.00    -0.014 A 
BRANCH  54  55
ATOM     55  C   UNL A   1      44.818  25.820  32.155  1.00  0.00     0.031 A 
ATOM     56  C   UNL A   1      44.644  27.546  32.556  1.00  0.00     0.074 A 
ATOM     57  C   UNL A   1      44.409  24.414  32.990  1.00  0.00     0.049 A 
ATOM     58  N   UNL A   1      44.867  28.095  33.733  1.00  0.00    -0.248 NA
ATOM     59  C   UNL A   1      44.496  28.653  31.581  1.00  0.00     0.031 C 
ATOM     60  C   UNL A   1      43.487  24.028  34.328  1.00  0.00     0.029 A 
ATOM     61  N   UNL A   1      44.953  22.989  33.090  1.00  0.00    -0.354 N 
ATOM     62  C   UNL A   1      44.233  29.291  33.758  1.00  0.00     0.074 A 
ATOM     63  C   UNL A   1      44.365  29.719  32.389  1.00  0.00     0.031 C 
ATOM     64  C   UNL A   1      43.649  22.826  34.873  1.00  0.00     0.029 A 
ATOM     65  C   UNL A   1      44.870  22.369  34.363  1.00  0.00     0.049 A 
ATOM     66  H   UNL A   1      45.339  22.525  32.312  1.00  0.00     0.167 HD
ATOM     67  C   UNL A   1      43.380  29.611  34.787  1.00  0.00     0.031 A 
ATOM     68  C   UNL A   1      45.905  22.056  35.214  1.00  0.00     0.031 A 
ATOM     69  C   UNL A   1      43.211  28.526  35.830  1.00  0.00     0.049 A 
ATOM     70  C   UNL A   1      45.834  22.954  36.500  1.00  0.00     0.074 A 
ATOM     71  C   UNL A   1      42.115  27.737  36.175  1.00  0.00     0.029 A 
ATOM     72  N   UNL A   1      44.295  27.907  36.492  1.00  0.00    -0.354 N 
ATOM     73  N   UNL A   1      45.139  24.072  36.576  1.00  0.00    -0.248 NA
ATOM     74  C   UNL A   1      46.476  22.670  37.777  1.00  0.00     0.031 C 
ATOM     75  C   UNL A   1      42.547  26.621  36.957  1.00  0.00     0.029 A 
ATOM     76  C   UNL A   1      43.918  26.714  37.150  1.00  0.00     0.049 A 
ATOM     77  H   UNL A   1      45.212  28.268  36.495  1.00  0.00     0.167 HD
ATOM     78  C   UNL A   1      45.296  24.708  37.782  1.00  0.00     0.074 A 
ATOM     79  C   UNL A   1      46.074  23.720  38.530  1.00  0.00     0.031 C 
ATOM     80  C   UNL A   1      44.829  25.979  38.072  1.00  0.00     0.031 A 
BRANCH  67  81
ATOM     81  C   UNL A   1      42.372  30.748  34.560  1.00  0.00    -0.014 A 
ATOM     82  C   UNL A   1      41.073  30.502  34.084  1.00  0.00     0.009 A 
ATOM     83  C   UNL A   1      42.679  32.111  34.759  1.00  0.00     0.009 A 
ATOM     84  C   UNL A   1      40.198  31.541  33.712  1.00  0.00     0.001 A 
ATOM     85  C   UNL A   1      41.837  33.156  34.345  1.00  0.00     0.001 A 
ATOM     86  C   UNL A   1      40.594  32.869  33.808  1.00  0.00     0.000 A 
ENDBRANCH  67  81
BRANCH  68  87
ATOM     87  C   UNL A   1      47.132  21.475  34.558  1.00  0.00    -0.014 A 
ATOM     88  C   UNL A   1      48.318  22.245  34.617  1.00  0.00     0.009 A 
ATOM     89  C   UNL A   1      47.266  20.135  34.160  1.00  0.00     0.009 A 
ATOM     90  C   UNL A   1      49.584  21.670  34.447  1.00  0.00     0.001 A 
ATOM     91  C   UNL A   1      48.541  19.547  34.039  1.00  0.00     0.001 A 
ATOM     92  C   UNL A   1      49.697  20.306  34.209  1.00  0.00     0.000 A 
ENDBRANCH  68  87
BRANCH  80  93
ATOM     93  C   UNL A   1      45.105  26.698  39.382  1.00  0.00    -0.014 A 
ATOM     94  C   UNL A   1      44.392  26.492  40.566  1.00  0.00     0.009 A 
ATOM     95  C   UNL A   1      46.227  27.560  39.468  1.00  0.00     0.009 A 
ATOM     96  C   UNL A   1      44.740  27.153  41.751  1.00  0.00     0.001 A 
ATOM     97  C   UNL A   1      46.615  28.173  40.657  1.00  0.00     0.001 A 
ATOM     98  C   UNL A   1      45.857  27.983  41.801  1.00  0.00     0.000 A 
ENDBRANCH  80  93
ENDBRANCH  54  55
ENDBRANCH  47  49
ENDBRANCH  46  47
ENDBRANCH  45  46
ENDBRANCH  44  45
ENDBRANCH  43  44
ENDBRANCH  42  43
ENDBRANCH  41  42
ENDBRANCH  40  41
ENDBRANCH   1  40
TORSDOF 23
ENDMDL
MODEL 2
REMARK VINA RESULT:      -8.8      5.983     12.432
REMARK SMILES Cc1ccc(-c2cnnc(-n3nc(C)c4c3NC(=O)C[C@@H]4c3ccc(C(=O)OCCOCCOCCOCCOC(=O)c4ccc(-c5c6nc(c(-c7ccccc7)c7ccc([nH]7)c(-c7ccccc7)c7nc(c(-c8ccccc8)c8ccc5[nH]8)C=C7)C=C6)cc4)cc3)n2)cc1
REMARK SMILES IDX 33 1 32 2 31 3 30 4 29 5 28 6 26 7 27 8 25 9 22 10 23 11
REMARK SMILES IDX 92 12 24 13 91 14 21 15 11 16 12 17 16 18 13 19 15 20 17 21
REMARK SMILES IDX 14 22 18 23 20 25 19 26 10 27 6 28 7 29 93 30 8 31 9 32 5 33
REMARK SMILES IDX 1 34 2 35 3 36 95 37 4 38 94 39 34 40 35 41 36 42 37 43
REMARK SMILES IDX 38 44 39 45 40 46 41 47 42 48 43 49 44 50 90 51 45 52 89 53
REMARK SMILES IDX 46 54 47 55 48 56 83 57 49 58 88 59 82 60 84 61 50 62 87 63
REMARK SMILES IDX 81 64 80 65 51 67 73 68 58 69 72 70 59 71 62 72 71 73 85 74
REMARK SMILES IDX 60 75 61 76 70 78 86 79 63 80 52 81 53 82 57 83 54 84 56 85
REMARK SMILES IDX 55 86 74 87 75 88 79 89 76 90 78 91 77 92 64 93 65 94 69 95
REMARK SMILES IDX 66 96 68 97 67 98
REMARK H PARENT 17 24 84 66 62 77
REMARK Flexibility Score: inf
ROOT
ATOM      1  C   UNL A   1      41.015  29.562  32.571  1.00  0.00     0.188 C 
ENDROOT
BRANCH   1   2
ATOM      2  C   UNL A   1      39.600  28.978  32.964  1.00  0.00     0.188 C 
BRANCH   2   3
ATOM      3  O   UNL A   1      38.589  29.607  34.002  1.00  0.00    -0.376 OA
BRANCH   3   4
ATOM      4  C   UNL A   1      38.774  30.213  35.550  1.00  0.00     0.202 C 
BRANCH   4   5
ATOM      5  C   UNL A   1      39.408  31.729  36.399  1.00  0.00     0.261 C 
BRANCH   5   6
ATOM      6  O   UNL A   1      39.309  33.523  36.001  1.00  0.00    -0.460 OA
BRANCH   6   7
ATOM      7  C   UNL A   1      38.803  34.647  34.989  1.00  0.00     0.338 C 
ATOM      8  O   UNL A   1      39.102  35.827  35.206  1.00  0.00    -0.246 OA
BRANCH   7   9
ATOM      9  C   UNL A   1      37.701  34.545  33.742  1.00  0.00     0.060 A 
ATOM     10  C   UNL A   1      35.734  33.657  31.744  1.00  0.00    -0.040 A 
ATOM     11  C   UNL A   1      35.386  34.024  33.071  1.00  0.00     0.005 A 
ATOM     12  C   UNL A   1      37.033  33.949  31.384  1.00  0.00     0.005 A 
ATOM     13  C   UNL A   1      36.347  34.427  34.054  1.00  0.00     0.016 A 
ATOM     14  C   UNL A   1      37.940  34.483  32.340  1.00  0.00     0.016 A 
BRANCH  10  15
ATOM     15  C   UNL A   1      34.681  33.105  30.789  1.00  0.00     0.064 C 
ATOM     16  N   UNL A   1      34.967  30.799  27.991  1.00  0.00    -0.180 N 
ATOM     17  N   UNL A   1      35.816  30.104  28.791  1.00  0.00    -0.168 NA
ATOM     18  C   UNL A   1      34.919  32.106  28.450  1.00  0.00     0.143 A 
ATOM     19  C   UNL A   1      35.859  30.806  29.931  1.00  0.00     0.066 A 
ATOM     20  C   UNL A   1      35.155  32.037  29.821  1.00  0.00     0.026 A 
ATOM     21  N   UNL A   1      34.717  33.322  27.832  1.00  0.00    -0.310 N 
ATOM     22  C   UNL A   1      36.660  30.230  31.031  1.00  0.00     0.069 C 
ATOM     23  C   UNL A   1      34.575  34.470  28.674  1.00  0.00     0.226 C 
ATOM     24  H   UNL A   1      34.672  33.397  26.851  1.00  0.00     0.171 HD
ATOM     25  C   UNL A   1      33.947  34.216  30.023  1.00  0.00     0.113 C 
ATOM     26  O   UNL A   1      34.845  35.558  28.199  1.00  0.00    -0.275 OA
BRANCH  16  27
ATOM     27  C   UNL A   1      34.057  30.111  27.116  1.00  0.00     0.272 A 
ATOM     28  C   UNL A   1      33.500  28.541  25.533  1.00  0.00     0.095 A 
ATOM     29  C   UNL A   1      32.371  29.274  25.211  1.00  0.00     0.164 A 
ATOM     30  N   UNL A   1      34.408  28.971  26.467  1.00  0.00    -0.208 NA
ATOM     31  N   UNL A   1      32.072  30.399  25.870  1.00  0.00    -0.153 NA
ATOM     32  N   UNL A   1      32.906  30.793  26.862  1.00  0.00    -0.109 NA
BRANCH  28  33
ATOM     33  C   UNL A   1      33.682  27.202  24.945  1.00  0.00     0.002 A 
ATOM     34  C   UNL A   1      34.018  23.159  23.396  1.00  0.00     0.044 C 
ATOM     35  C   UNL A   1      33.882  24.549  23.949  1.00  0.00    -0.051 A 
ATOM     36  C   UNL A   1      33.193  25.530  23.227  1.00  0.00     0.004 A 
ATOM     37  C   UNL A   1      34.452  24.894  25.177  1.00  0.00     0.004 A 
ATOM     38  C   UNL A   1      33.091  26.837  23.720  1.00  0.00     0.011 A 
ATOM     39  C   UNL A   1      34.355  26.203  25.665  1.00  0.00     0.011 A 
ENDBRANCH  28  33
ENDBRANCH  16  27
ENDBRANCH  10  15
ENDBRANCH   7   9
ENDBRANCH   6   7
ENDBRANCH   5   6
ENDBRANCH   4   5
ENDBRANCH   3   4
ENDBRANCH   2   3
ENDBRANCH   1   2
BRANCH   1  40
ATOM     40  O   UNL A   1      41.610  30.578  33.364  1.00  0.00    -0.377 OA
BRANCH  40  41
ATOM     41  C   UNL A   1      42.750  30.108  34.053  1.00  0.00     0.188 C 
BRANCH  41  42
ATOM     42  C   UNL A   1      42.512  30.012  35.561  1.00  0.00     0.188 C 
BRANCH  42  43
ATOM     43  O   UNL A   1      43.530  30.656  36.307  1.00  0.00    -0.376 OA
BRANCH  43  44
ATOM     44  C   UNL A   1      44.667  31.193  35.684  1.00  0.00     0.202 C 
BRANCH  44  45
ATOM     45  C   UNL A   1      45.047  32.495  36.383  1.00  0.00     0.261 C 
BRANCH  45  46
ATOM     46  O   UNL A   1      44.649  33.625  35.562  1.00  0.00    -0.460 OA
BRANCH  46  47
ATOM     47  C   UNL A   1      43.417  34.145  35.820  1.00  0.00     0.338 C 
ATOM     48  O   UNL A   1      42.789  33.983  36.865  1.00  0.00    -0.246 OA
BRANCH  47  49
ATOM     49  C   UNL A   1      42.823  34.691  34.553  1.00  0.00     0.060 A 
ATOM     50  C   UNL A   1      41.878  33.956  33.848  1.00  0.00     0.016 A 
ATOM     51  C   UNL A   1      43.440  35.762  33.896  1.00  0.00     0.016 A 
ATOM     52  C   UNL A   1      41.737  34.174  32.462  1.00  0.00     0.010 A 
ATOM     53  C   UNL A   1      43.444  35.821  32.493  1.00  0.00     0.010 A 
ATOM     54  C   UNL A   1      42.707  34.905  31.724  1.00  0.00    -0.014 A 
BRANCH  54  55
ATOM     55  C   UNL A   1      42.963  34.848  30.080  1.00  0.00     0.031 A 
ATOM     56  C   UNL A   1      44.252  33.640  30.302  1.00  0.00     0.074 A 
ATOM     57  C   UNL A   1      42.540  35.831  28.778  1.00  0.00     0.049 A 
ATOM     58  N   UNL A   1      45.498  33.751  29.890  1.00  0.00    -0.248 NA
ATOM     59  C   UNL A   1      44.198  32.468  31.209  1.00  0.00     0.031 C 
ATOM     60  C   UNL A   1      42.925  35.918  27.156  1.00  0.00     0.029 A 
ATOM     61  N   UNL A   1      41.920  37.215  28.593  1.00  0.00    -0.354 N 
ATOM     62  C   UNL A   1      46.035  32.509  29.853  1.00  0.00     0.074 A 
ATOM     63  C   UNL A   1      45.380  31.876  30.970  1.00  0.00     0.031 C 
ATOM     64  C   UNL A   1      42.622  37.035  26.501  1.00  0.00     0.029 A 
ATOM     65  C   UNL A   1      42.405  37.985  27.505  1.00  0.00     0.049 A 
ATOM     66  H   UNL A   1      41.219  37.554  29.196  1.00  0.00     0.167 HD
ATOM     67  C   UNL A   1      46.662  32.049  28.721  1.00  0.00     0.031 A 
ATOM     68  C   UNL A   1      43.171  39.127  27.560  1.00  0.00     0.031 A 
ATOM     69  C   UNL A   1      46.668  33.021  27.561  1.00  0.00     0.049 A 
ATOM     70  C   UNL A   1      44.608  38.836  26.998  1.00  0.00     0.074 A 
ATOM     71  C   UNL A   1      46.042  32.981  26.315  1.00  0.00     0.029 A 
ATOM     72  N   UNL A   1      47.129  34.353  27.664  1.00  0.00    -0.354 N 
ATOM     73  N   UNL A   1      45.111  37.626  26.860  1.00  0.00    -0.248 NA
ATOM     74  C   UNL A   1      45.556  39.835  26.520  1.00  0.00     0.031 C 
ATOM     75  C   UNL A   1      46.054  34.282  25.724  1.00  0.00     0.029 A 
ATOM     76  C   UNL A   1      46.724  35.153  26.571  1.00  0.00     0.049 A 
ATOM     77  H   UNL A   1      47.673  34.687  28.415  1.00  0.00     0.167 HD
ATOM     78  C   UNL A   1      46.409  37.643  26.414  1.00  0.00     0.074 A 
ATOM     79  C   UNL A   1      46.596  39.065  26.126  1.00  0.00     0.031 C 
ATOM     80  C   UNL A   1      47.237  36.534  26.349  1.00  0.00     0.031 A 
BRANCH  67  81
ATOM     81  C   UNL A   1      46.854  30.531  28.569  1.00  0.00    -0.014 A 
ATOM     82  C   UNL A   1      48.097  29.915  28.796  1.00  0.00     0.009 A 
ATOM     83  C   UNL A   1      45.829  29.657  28.149  1.00  0.00     0.009 A 
ATOM     84  C   UNL A   1      48.329  28.558  28.499  1.00  0.00     0.001 A 
ATOM     85  C   UNL A   1      46.059  28.316  27.802  1.00  0.00     0.001 A 
ATOM     86  C   UNL A   1      47.319  27.766  27.968  1.00  0.00     0.000 A 
ENDBRANCH  67  81
BRANCH  68  87
ATOM     87  C   UNL A   1      42.776  40.124  28.619  1.00  0.00    -0.014 A 
ATOM     88  C   UNL A   1      41.420  40.530  28.646  1.00  0.00     0.009 A 
ATOM     89  C   UNL A   1      43.557  40.453  29.739  1.00  0.00     0.009 A 
ATOM     90  C   UNL A   1      40.836  41.086  29.791  1.00  0.00     0.001 A 
ATOM     91  C   UNL A   1      42.958  40.966  30.906  1.00  0.00     0.001 A 
ATOM     92  C   UNL A   1      41.595  41.256  30.941  1.00  0.00     0.000 A 
ENDBRANCH  68  87
BRANCH  80  93
ATOM     93  C   UNL A   1      48.700  36.600  25.946  1.00  0.00    -0.014 A 
ATOM     94  C   UNL A   1      49.230  36.034  24.784  1.00  0.00     0.009 A 
ATOM     95  C   UNL A   1      49.591  37.378  26.728  1.00  0.00     0.009 A 
ATOM     96  C   UNL A   1      50.583  36.184  24.452  1.00  0.00     0.001 A 
ATOM     97  C   UNL A   1      50.923  37.581  26.371  1.00  0.00     0.001 A 
ATOM     98  C   UNL A   1      51.426  36.966  25.237  1.00  0.00     0.000 A 
ENDBRANCH  80  93
ENDBRANCH  54  55
ENDBRANCH  47  49
ENDBRANCH  46  47
ENDBRANCH  45  46
ENDBRANCH  44  45
ENDBRANCH  43  44
ENDBRANCH  42  43
ENDBRANCH  41  42
ENDBRANCH  40  41
ENDBRANCH   1  40
TORSDOF 23
ENDMDL
MODEL 3
REMARK VINA RESULT:      -8.5      3.933      9.778
REMARK SMILES Cc1ccc(-c2cnnc(-n3nc(C)c4c3NC(=O)C[C@@H]4c3ccc(C(=O)OCCOCCOCCOCCOC(=O)c4ccc(-c5c6nc(c(-c7ccccc7)c7ccc([nH]7)c(-c7ccccc7)c7nc(c(-c8ccccc8)c8ccc5[nH]8)C=C7)C=C6)cc4)cc3)n2)cc1
REMARK SMILES IDX 33 1 32 2 31 3 30 4 29 5 28 6 26 7 27 8 25 9 22 10 23 11
REMARK SMILES IDX 92 12 24 13 91 14 21 15 11 16 12 17 16 18 13 19 15 20 17 21
REMARK SMILES IDX 14 22 18 23 20 25 19 26 10 27 6 28 7 29 93 30 8 31 9 32 5 33
REMARK SMILES IDX 1 34 2 35 3 36 95 37 4 38 94 39 34 40 35 41 36 42 37 43
REMARK SMILES IDX 38 44 39 45 40 46 41 47 42 48 43 49 44 50 90 51 45 52 89 53
REMARK SMILES IDX 46 54 47 55 48 56 83 57 49 58 88 59 82 60 84 61 50 62 87 63
REMARK SMILES IDX 81 64 80 65 51 67 73 68 58 69 72 70 59 71 62 72 71 73 85 74
REMARK SMILES IDX 60 75 61 76 70 78 86 79 63 80 52 81 53 82 57 83 54 84 56 85
REMARK SMILES IDX 55 86 74 87 75 88 79 89 76 90 78 91 77 92 64 93 65 94 69 95
REMARK SMILES IDX 66 96 68 97 67 98
REMARK H PARENT 17 24 84 66 62 77
REMARK Flexibility Score: inf
ROOT
ATOM      1  C   UNL A   1      51.050  27.317  34.374  1.00  0.00     0.188 C 
ENDROOT
BRANCH   1   2
ATOM      2  C   UNL A   1      52.001  27.886  33.248  1.00  0.00     0.188 C 
BRANCH   2   3
ATOM      3  O   UNL A   1      51.888  27.596  31.699  1.00  0.00    -0.376 OA
BRANCH   3   4
ATOM      4  C   UNL A   1      50.603  27.200  30.704  1.00  0.00     0.202 C 
BRANCH   4   5
ATOM      5  C   UNL A   1      49.707  25.701  30.094  1.00  0.00     0.261 C 
BRANCH   5   6
ATOM      6  O   UNL A   1      48.084  25.464  29.260  1.00  0.00    -0.460 OA
BRANCH   6   7
ATOM      7  C   UNL A   1      47.187  24.560  28.301  1.00  0.00     0.338 C 
ATOM      8  O   UNL A   1      47.635  24.233  27.195  1.00  0.00    -0.246 OA
BRANCH   7   9
ATOM      9  C   UNL A   1      45.582  24.130  28.430  1.00  0.00     0.060 A 
ATOM     10  C   UNL A   1      42.643  24.036  28.358  1.00  0.00    -0.040 A 
ATOM     11  C   UNL A   1      43.461  23.693  27.249  1.00  0.00     0.005 A 
ATOM     12  C   UNL A   1      43.322  24.212  29.546  1.00  0.00     0.005 A 
ATOM     13  C   UNL A   1      44.892  23.768  27.273  1.00  0.00     0.016 A 
ATOM     14  C   UNL A   1      44.741  24.144  29.578  1.00  0.00     0.016 A 
BRANCH  10  15
ATOM     15  C   UNL A   1      41.124  24.067  28.224  1.00  0.00     0.064 C 
ATOM     16  N   UNL A   1      38.897  22.386  25.890  1.00  0.00    -0.180 N 
ATOM     17  N   UNL A   1      39.699  21.305  26.072  1.00  0.00    -0.168 NA
ATOM     18  C   UNL A   1      39.621  23.518  26.233  1.00  0.00     0.143 A 
ATOM     19  C   UNL A   1      40.633  21.717  26.940  1.00  0.00     0.066 A 
ATOM     20  C   UNL A   1      40.526  23.110  27.209  1.00  0.00     0.026 A 
ATOM     21  N   UNL A   1      39.598  24.826  25.798  1.00  0.00    -0.310 N 
ATOM     22  C   UNL A   1      41.611  20.704  27.387  1.00  0.00     0.069 C 
ATOM     23  C   UNL A   1      40.402  25.770  26.514  1.00  0.00     0.226 C 
ATOM     24  H   UNL A   1      39.050  25.100  25.027  1.00  0.00     0.171 HD
ATOM     25  C   UNL A   1      40.587  25.486  27.985  1.00  0.00     0.113 C 
ATOM     26  O   UNL A   1      40.757  26.773  25.924  1.00  0.00    -0.275 OA
BRANCH  16  27
ATOM     27  C   UNL A   1      37.476  22.227  25.743  1.00  0.00     0.272 A 
ATOM     28  C   UNL A   1      35.285  22.848  26.050  1.00  0.00     0.095 A 
ATOM     29  C   UNL A   1      34.888  21.542  25.815  1.00  0.00     0.164 A 
ATOM     30  N   UNL A   1      36.606  23.217  26.071  1.00  0.00    -0.208 NA
ATOM     31  N   UNL A   1      35.784  20.598  25.507  1.00  0.00    -0.153 NA
ATOM     32  N   UNL A   1      37.086  20.961  25.430  1.00  0.00    -0.109 NA
BRANCH  28  33
ATOM     33  C   UNL A   1      34.262  23.901  26.167  1.00  0.00     0.002 A 
ATOM     34  C   UNL A   1      31.214  26.994  26.227  1.00  0.00     0.044 C 
ATOM     35  C   UNL A   1      32.265  25.922  26.179  1.00  0.00    -0.051 A 
ATOM     36  C   UNL A   1      31.962  24.620  26.594  1.00  0.00     0.004 A 
ATOM     37  C   UNL A   1      33.561  26.204  25.741  1.00  0.00     0.004 A 
ATOM     38  C   UNL A   1      32.946  23.623  26.584  1.00  0.00     0.011 A 
ATOM     39  C   UNL A   1      34.545  25.208  25.739  1.00  0.00     0.011 A 
ENDBRANCH  28  33
ENDBRANCH  16  27
ENDBRANCH  10  15
ENDBRANCH   7   9
ENDBRANCH   6   7
ENDBRANCH   5   6
ENDBRANCH   4   5
ENDBRANCH   3   4
ENDBRANCH   2   3
ENDBRANCH   1   2
BRANCH   1  40
ATOM     40  O   UNL A   1      51.274  26.018  34.904  1.00  0.00    -0.377 OA
BRANCH  40  41
ATOM     41  C   UNL A   1      51.106  25.014  33.925  1.00  0.00     0.188 C 
BRANCH  41  42
ATOM     42  C   UNL A   1      49.636  24.636  33.735  1.00  0.00     0.188 C 
BRANCH  42  43
ATOM     43  O   UNL A   1      48.915  24.657  34.955  1.00  0.00    -0.376 OA
BRANCH  43  44
ATOM     44  C   UNL A   1      47.632  25.221  35.039  1.00  0.00     0.202 C 
BRANCH  44  45
ATOM     45  C   UNL A   1      46.785  24.387  35.996  1.00  0.00     0.261 C 
BRANCH  45  46
ATOM     46  O   UNL A   1      45.385  24.740  35.845  1.00  0.00    -0.460 OA
BRANCH  46  47
ATOM     47  C   UNL A   1      44.668  24.839  37.000  1.00  0.00     0.338 C 
ATOM     48  O   UNL A   1      44.870  24.174  38.014  1.00  0.00    -0.246 OA
BRANCH  47  49
ATOM     49  C   UNL A   1      43.431  25.657  36.758  1.00  0.00     0.060 A 
ATOM     50  C   UNL A   1      42.354  25.112  36.070  1.00  0.00     0.016 A 
ATOM     51  C   UNL A   1      43.470  27.047  36.913  1.00  0.00     0.016 A 
ATOM     52  C   UNL A   1      41.474  25.974  35.384  1.00  0.00     0.010 A 
ATOM     53  C   UNL A   1      42.723  27.874  36.058  1.00  0.00     0.010 A 
ATOM     54  C   UNL A   1      41.808  27.334  35.140  1.00  0.00    -0.014 A 
BRANCH  54  55
ATOM     55  C   UNL A   1      41.159  28.328  33.974  1.00  0.00     0.031 A 
ATOM     56  C   UNL A   1      42.614  28.135  32.968  1.00  0.00     0.074 A 
ATOM     57  C   UNL A   1      39.888  29.435  33.932  1.00  0.00     0.049 A 
ATOM     58  N   UNL A   1      43.382  29.107  32.520  1.00  0.00    -0.248 NA
ATOM     59  C   UNL A   1      43.332  26.863  32.715  1.00  0.00     0.031 C 
ATOM     60  C   UNL A   1      39.319  30.581  32.858  1.00  0.00     0.029 A 
ATOM     61  N   UNL A   1      38.953  30.085  34.951  1.00  0.00    -0.354 N 
ATOM     62  C   UNL A   1      44.098  28.623  31.478  1.00  0.00     0.074 A 
ATOM     63  C   UNL A   1      44.309  27.255  31.880  1.00  0.00     0.031 C 
ATOM     64  C   UNL A   1      38.457  31.486  33.310  1.00  0.00     0.029 A 
ATOM     65  C   UNL A   1      38.585  31.432  34.703  1.00  0.00     0.049 A 
ATOM     66  H   UNL A   1      38.621  29.594  35.738  1.00  0.00     0.167 HD
ATOM     67  C   UNL A   1      44.117  29.284  30.273  1.00  0.00     0.031 A 
ATOM     68  C   UNL A   1      38.964  32.550  35.411  1.00  0.00     0.031 A 
ATOM     69  C   UNL A   1      43.273  30.539  30.226  1.00  0.00     0.049 A 
ATOM     70  C   UNL A   1      39.903  33.450  34.532  1.00  0.00     0.074 A 
ATOM     71  C   UNL A   1      42.114  30.849  29.516  1.00  0.00     0.029 A 
ATOM     72  N   UNL A   1      43.383  31.586  31.168  1.00  0.00    -0.354 N 
ATOM     73  N   UNL A   1      40.530  33.023  33.454  1.00  0.00    -0.248 NA
ATOM     74  C   UNL A   1      40.181  34.864  34.751  1.00  0.00     0.031 C 
ATOM     75  C   UNL A   1      41.497  32.010  30.078  1.00  0.00     0.029 A 
ATOM     76  C   UNL A   1      42.281  32.472  31.124  1.00  0.00     0.049 A 
ATOM     77  H   UNL A   1      44.143  31.688  31.786  1.00  0.00     0.167 HD
ATOM     78  C   UNL A   1      41.344  33.980  32.905  1.00  0.00     0.074 A 
ATOM     79  C   UNL A   1      41.002  35.150  33.715  1.00  0.00     0.031 C 
ATOM     80  C   UNL A   1      42.249  33.756  31.880  1.00  0.00     0.031 A 
BRANCH  67  81
ATOM     81  C   UNL A   1      44.558  28.498  29.027  1.00  0.00    -0.014 A 
ATOM     82  C   UNL A   1      45.906  28.420  28.638  1.00  0.00     0.009 A 
ATOM     83  C   UNL A   1      43.654  27.846  28.161  1.00  0.00     0.009 A 
ATOM     84  C   UNL A   1      46.304  27.850  27.414  1.00  0.00     0.001 A 
ATOM     85  C   UNL A   1      44.032  27.319  26.915  1.00  0.00     0.001 A 
ATOM     86  C   UNL A   1      45.363  27.331  26.535  1.00  0.00     0.000 A 
ENDBRANCH  67  81
BRANCH  68  87
ATOM     87  C   UNL A   1      38.964  32.399  36.911  1.00  0.00    -0.014 A 
ATOM     88  C   UNL A   1      40.118  32.843  37.601  1.00  0.00     0.009 A 
ATOM     89  C   UNL A   1      37.826  32.132  37.687  1.00  0.00     0.009 A 
ATOM     90  C   UNL A   1      40.089  33.159  38.965  1.00  0.00     0.001 A 
ATOM     91  C   UNL A   1      37.783  32.497  39.048  1.00  0.00     0.001 A 
ATOM     92  C   UNL A   1      38.904  33.035  39.678  1.00  0.00     0.000 A 
ENDBRANCH  68  87
BRANCH  80  93
ATOM     93  C   UNL A   1      43.210  34.812  31.360  1.00  0.00    -0.014 A 
ATOM     94  C   UNL A   1      44.190  35.441  32.131  1.00  0.00     0.009 A 
ATOM     95  C   UNL A   1      43.208  35.117  29.976  1.00  0.00     0.009 A 
ATOM     96  C   UNL A   1      45.077  36.368  31.566  1.00  0.00     0.001 A 
ATOM     97  C   UNL A   1      44.126  35.991  29.397  1.00  0.00     0.001 A 
ATOM     98  C   UNL A   1      45.054  36.633  30.199  1.00  0.00     0.000 A 
ENDBRANCH  80  93
ENDBRANCH  54  55
ENDBRANCH  47  49
ENDBRANCH  46  47
ENDBRANCH  45  46
ENDBRANCH  44  45
ENDBRANCH  43  44
ENDBRANCH  42  43
ENDBRANCH  41  42
ENDBRANCH  40  41
ENDBRANCH   1  40
TORSDOF 23
ENDMDL
