MODEL 1
REMARK VINA RESULT:      -8.5      0.000      0.000
REMARK SMILES C[C@H](C(=O)OCCOCCOCCOCCOC(=O)c1ccc(-c2c3nc(c(-c4ccccc4)c4ccc([nH]4)c(-c4ccccc4)c4nc(c(-c5ccccc5)c5ccc2[nH]5)C=C4)C=C3)cc1)[C@H](C)[NH+]1CCN(S(C)(=O)=O)CC1
REMARK SMILES IDX 10 1 9 2 8 3 7 4 6 5 5 6 3 7 4 8 2 9 1 10 68 11 69 12 70 13
REMARK SMILES IDX 71 14 79 15 72 17 78 18 73 19 74 20 75 21 76 22 77 23 11 24
REMARK SMILES IDX 12 25 13 26 14 27 15 28 16 29 17 30 18 31 19 32 20 33 21 34
REMARK SMILES IDX 67 35 22 36 66 37 23 38 24 39 25 40 60 41 26 42 65 43 59 44
REMARK SMILES IDX 61 45 27 46 64 47 58 48 57 49 28 51 50 52 35 53 49 54 36 55
REMARK SMILES IDX 39 56 48 57 62 58 37 59 38 60 47 62 63 63 40 64 29 65 30 66
REMARK SMILES IDX 34 67 31 68 33 69 32 70 51 71 52 72 56 73 53 74 55 75 54 76
REMARK SMILES IDX 41 77 42 78 46 79 43 80 45 81 44 82
REMARK H PARENT 70 16 61 50 39 61
REMARK Flexibility Score: inf
ROOT
ATOM      1  C   UNL A   1      33.911  34.783  29.542  1.00  0.00     0.188 C 
ENDROOT
BRANCH   1   2
ATOM      2  C   UNL A   1      33.509  33.962  28.292  1.00  0.00     0.188 C 
BRANCH   2   3
ATOM      3  O   UNL A   1      34.570  33.283  27.638  1.00  0.00    -0.376 OA
BRANCH   3   4
ATOM      4  C   UNL A   1      35.051  32.102  28.256  1.00  0.00     0.202 C 
BRANCH   4   5
ATOM      5  C   UNL A   1      34.245  30.840  27.928  1.00  0.00     0.261 C 
BRANCH   5   6
ATOM      6  O   UNL A   1      33.665  30.838  26.612  1.00  0.00    -0.463 OA
BRANCH   6   7
ATOM      7  C   UNL A   1      32.426  30.299  26.457  1.00  0.00     0.314 C 
ATOM      8  O   UNL A   1      31.389  30.942  26.405  1.00  0.00    -0.252 OA
BRANCH   7   9
ATOM      9  C   UNL A   1      32.532  28.780  26.352  1.00  0.00     0.154 C 
ATOM     10  C   UNL A   1      31.738  28.227  27.533  1.00  0.00     0.026 C 
BRANCH   9  11
ATOM     11  C   UNL A   1      32.334  28.167  24.897  1.00  0.00     0.195 C 
ATOM     12  C   UNL A   1      30.927  27.685  24.485  1.00  0.00     0.076 C 
BRANCH  11  13
ATOM     13  N   UNL A   1      33.446  27.359  24.342  1.00  0.00    -0.330 N 
ATOM     14  C   UNL A   1      33.854  26.206  25.152  1.00  0.00     0.279 C 
ATOM     15  C   UNL A   1      33.248  26.919  22.936  1.00  0.00     0.279 C 
ATOM     16  H   UNL A   1      34.208  28.036  24.366  1.00  0.00     0.348 HD
ATOM     17  C   UNL A   1      32.954  24.975  25.074  1.00  0.00     0.163 C 
ATOM     18  C   UNL A   1      32.507  25.580  22.670  1.00  0.00     0.163 C 
ATOM     19  N   UNL A   1      32.794  24.519  23.677  1.00  0.00    -0.191 NA
BRANCH  19  20
ATOM     20  S   UNL A   1      33.649  23.155  23.192  1.00  0.00     0.211 S 
ATOM     21  C   UNL A   1      33.973  22.349  24.746  1.00  0.00     0.176 C 
ATOM     22  O   UNL A   1      32.747  22.303  22.436  1.00  0.00    -0.212 OA
ATOM     23  O   UNL A   1      34.908  23.587  22.640  1.00  0.00    -0.212 OA
ENDBRANCH  19  20
ENDBRANCH  11  13
ENDBRANCH   9  11
ENDBRANCH   7   9
ENDBRANCH   6   7
ENDBRANCH   5   6
ENDBRANCH   4   5
ENDBRANCH   3   4
ENDBRANCH   2   3
ENDBRANCH   1   2
BRANCH   1  24
ATOM     24  O   UNL A   1      33.422  34.462  30.836  1.00  0.00    -0.377 OA
BRANCH  24  25
ATOM     25  C   UNL A   1      33.534  35.472  31.822  1.00  0.00     0.188 C 
BRANCH  25  26
ATOM     26  C   UNL A   1      34.976  35.645  32.353  1.00  0.00     0.188 C 
BRANCH  26  27
ATOM     27  O   UNL A   1      35.109  35.329  33.730  1.00  0.00    -0.376 OA
BRANCH  27  28
ATOM     28  C   UNL A   1      35.170  33.983  34.161  1.00  0.00     0.202 C 
BRANCH  28  29
ATOM     29  C   UNL A   1      36.494  33.245  34.431  1.00  0.00     0.261 C 
BRANCH  29  30
ATOM     30  O   UNL A   1      36.660  31.937  33.879  1.00  0.00    -0.460 OA
BRANCH  30  31
ATOM     31  C   UNL A   1      36.412  31.759  32.564  1.00  0.00     0.338 C 
ATOM     32  O   UNL A   1      35.369  31.964  31.975  1.00  0.00    -0.246 OA
BRANCH  31  33
ATOM     33  C   UNL A   1      37.725  31.506  31.927  1.00  0.00     0.060 A 
ATOM     34  C   UNL A   1      37.910  31.875  30.585  1.00  0.00     0.016 A 
ATOM     35  C   UNL A   1      38.797  31.019  32.680  1.00  0.00     0.016 A 
ATOM     36  C   UNL A   1      39.167  31.761  29.995  1.00  0.00     0.010 A 
ATOM     37  C   UNL A   1      40.042  30.848  32.073  1.00  0.00     0.010 A 
ATOM     38  C   UNL A   1      40.220  31.195  30.723  1.00  0.00    -0.014 A 
BRANCH  38  39
ATOM     39  C   UNL A   1      41.405  30.702  29.990  1.00  0.00     0.031 A 
ATOM     40  C   UNL A   1      41.299  29.345  29.354  1.00  0.00     0.074 A 
ATOM     41  C   UNL A   1      42.521  31.438  29.859  1.00  0.00     0.049 A 
ATOM     42  N   UNL A   1      42.193  28.667  28.684  1.00  0.00    -0.248 NA
ATOM     43  C   UNL A   1      40.001  28.658  29.495  1.00  0.00     0.031 C 
ATOM     44  C   UNL A   1      42.715  32.792  30.375  1.00  0.00     0.029 A 
ATOM     45  N   UNL A   1      43.710  31.135  29.246  1.00  0.00    -0.354 N 
ATOM     46  C   UNL A   1      41.570  27.476  28.335  1.00  0.00     0.074 A 
ATOM     47  C   UNL A   1      40.235  27.508  28.887  1.00  0.00     0.031 C 
ATOM     48  C   UNL A   1      43.959  33.200  30.061  1.00  0.00     0.029 A 
ATOM     49  C   UNL A   1      44.655  32.124  29.358  1.00  0.00     0.049 A 
ATOM     50  H   UNL A   1      43.870  30.288  28.769  1.00  0.00     0.167 HD
ATOM     51  C   UNL A   1      42.068  26.443  27.619  1.00  0.00     0.031 A 
ATOM     52  C   UNL A   1      45.941  32.141  28.956  1.00  0.00     0.031 A 
ATOM     53  C   UNL A   1      43.404  26.404  27.096  1.00  0.00     0.049 A 
ATOM     54  C   UNL A   1      46.503  30.933  28.247  1.00  0.00     0.074 A 
ATOM     55  C   UNL A   1      44.007  25.409  26.350  1.00  0.00     0.029 A 
ATOM     56  N   UNL A   1      44.349  27.402  27.278  1.00  0.00    -0.354 N 
ATOM     57  N   UNL A   1      45.902  29.821  27.898  1.00  0.00    -0.248 NA
ATOM     58  C   UNL A   1      47.924  30.989  27.871  1.00  0.00     0.031 C 
ATOM     59  C   UNL A   1      45.340  25.773  26.141  1.00  0.00     0.029 A 
ATOM     60  C   UNL A   1      45.544  27.030  26.689  1.00  0.00     0.049 A 
ATOM     61  H   UNL A   1      44.193  28.248  27.756  1.00  0.00     0.167 HD
ATOM     62  C   UNL A   1      46.858  29.064  27.231  1.00  0.00     0.074 A 
ATOM     63  C   UNL A   1      48.075  29.849  27.213  1.00  0.00     0.031 C 
ATOM     64  C   UNL A   1      46.742  27.830  26.680  1.00  0.00     0.031 A 
BRANCH  51  65
ATOM     65  C   UNL A   1      41.175  25.252  27.413  1.00  0.00    -0.014 A 
ATOM     66  C   UNL A   1      41.409  24.033  28.072  1.00  0.00     0.009 A 
ATOM     67  C   UNL A   1      40.069  25.359  26.556  1.00  0.00     0.009 A 
ATOM     68  C   UNL A   1      40.572  22.939  27.850  1.00  0.00     0.001 A 
ATOM     69  C   UNL A   1      39.215  24.272  26.362  1.00  0.00     0.001 A 
ATOM     70  C   UNL A   1      39.472  23.061  27.001  1.00  0.00     0.000 A 
ENDBRANCH  51  65
BRANCH  52  71
ATOM     71  C   UNL A   1      46.802  33.322  29.232  1.00  0.00    -0.014 A 
ATOM     72  C   UNL A   1      46.937  34.349  28.283  1.00  0.00     0.009 A 
ATOM     73  C   UNL A   1      47.526  33.412  30.431  1.00  0.00     0.009 A 
ATOM     74  C   UNL A   1      47.801  35.421  28.515  1.00  0.00     0.001 A 
ATOM     75  C   UNL A   1      48.365  34.502  30.675  1.00  0.00     0.001 A 
ATOM     76  C   UNL A   1      48.511  35.499  29.713  1.00  0.00     0.000 A 
ENDBRANCH  52  71
BRANCH  64  77
ATOM     77  C   UNL A   1      47.944  27.273  25.965  1.00  0.00    -0.014 A 
ATOM     78  C   UNL A   1      48.254  27.645  24.648  1.00  0.00     0.009 A 
ATOM     79  C   UNL A   1      48.808  26.400  26.645  1.00  0.00     0.009 A 
ATOM     80  C   UNL A   1      49.384  27.124  24.015  1.00  0.00     0.001 A 
ATOM     81  C   UNL A   1      49.956  25.910  26.023  1.00  0.00     0.001 A 
ATOM     82  C   UNL A   1      50.238  26.262  24.706  1.00  0.00     0.000 A 
ENDBRANCH  64  77
ENDBRANCH  38  39
ENDBRANCH  31  33
ENDBRANCH  30  31
ENDBRANCH  29  30
ENDBRANCH  28  29
ENDBRANCH  27  28
ENDBRANCH  26  27
ENDBRANCH  25  26
ENDBRANCH  24  25
ENDBRANCH   1  24
TORSDOF 23
ENDMDL
MODEL 2
REMARK VINA RESULT:      -8.4      1.576      6.032
REMARK SMILES C[C@H](C(=O)OCCOCCOCCOCCOC(=O)c1ccc(-c2c3nc(c(-c4ccccc4)c4ccc([nH]4)c(-c4ccccc4)c4nc(c(-c5ccccc5)c5ccc2[nH]5)C=C4)C=C3)cc1)[C@H](C)[NH+]1CCN(S(C)(=O)=O)CC1
REMARK SMILES IDX 10 1 9 2 8 3 7 4 6 5 5 6 3 7 4 8 2 9 1 10 68 11 69 12 70 13
REMARK SMILES IDX 71 14 79 15 72 17 78 18 73 19 74 20 75 21 76 22 77 23 11 24
REMARK SMILES IDX 12 25 13 26 14 27 15 28 16 29 17 30 18 31 19 32 20 33 21 34
REMARK SMILES IDX 67 35 22 36 66 37 23 38 24 39 25 40 60 41 26 42 65 43 59 44
REMARK SMILES IDX 61 45 27 46 64 47 58 48 57 49 28 51 50 52 35 53 49 54 36 55
REMARK SMILES IDX 39 56 48 57 62 58 37 59 38 60 47 62 63 63 40 64 29 65 30 66
REMARK SMILES IDX 34 67 31 68 33 69 32 70 51 71 52 72 56 73 53 74 55 75 54 76
REMARK SMILES IDX 41 77 42 78 46 79 43 80 45 81 44 82
REMARK H PARENT 70 16 61 50 39 61
REMARK Flexibility Score: inf
ROOT
ATOM      1  C   UNL A   1      33.097  34.295  28.222  1.00  0.00     0.188 C 
ENDROOT
BRANCH   1   2
ATOM      2  C   UNL A   1      32.612  33.170  27.275  1.00  0.00     0.188 C 
BRANCH   2   3
ATOM      3  O   UNL A   1      33.595  32.218  26.901  1.00  0.00    -0.376 OA
BRANCH   3   4
ATOM      4  C   UNL A   1      33.760  31.098  27.753  1.00  0.00     0.202 C 
BRANCH   4   5
ATOM      5  C   UNL A   1      33.110  29.809  27.238  1.00  0.00     0.261 C 
BRANCH   5   6
ATOM      6  O   UNL A   1      33.105  29.683  25.805  1.00  0.00    -0.463 OA
BRANCH   6   7
ATOM      7  C   UNL A   1      32.063  29.030  25.222  1.00  0.00     0.314 C 
ATOM      8  O   UNL A   1      31.126  29.577  24.661  1.00  0.00    -0.252 OA
BRANCH   7   9
ATOM      9  C   UNL A   1      32.251  27.523  25.367  1.00  0.00     0.154 C 
ATOM     10  C   UNL A   1      30.989  27.013  26.058  1.00  0.00     0.026 C 
BRANCH   9  11
ATOM     11  C   UNL A   1      32.827  26.766  24.091  1.00  0.00     0.195 C 
ATOM     12  C   UNL A   1      31.834  26.271  23.017  1.00  0.00     0.076 C 
BRANCH  11  13
ATOM     13  N   UNL A   1      34.000  25.884  24.294  1.00  0.00    -0.330 N 
ATOM     14  C   UNL A   1      34.143  25.324  25.643  1.00  0.00     0.279 C 
ATOM     15  C   UNL A   1      34.129  24.789  23.298  1.00  0.00     0.279 C 
ATOM     16  H   UNL A   1      34.765  26.543  24.154  1.00  0.00     0.348 HD
ATOM     17  C   UNL A   1      33.231  24.149  25.985  1.00  0.00     0.163 C 
ATOM     18  C   UNL A   1      33.412  23.439  23.574  1.00  0.00     0.163 C 
ATOM     19  N   UNL A   1      33.395  23.046  25.012  1.00  0.00    -0.191 NA
BRANCH  19  20
ATOM     20  S   UNL A   1      34.275  21.698  25.494  1.00  0.00     0.211 S 
ATOM     21  C   UNL A   1      35.892  22.058  24.841  1.00  0.00     0.176 C 
ATOM     22  O   UNL A   1      34.373  21.718  26.943  1.00  0.00    -0.212 OA
ATOM     23  O   UNL A   1      33.755  20.549  24.796  1.00  0.00    -0.212 OA
ENDBRANCH  19  20
ENDBRANCH  11  13
ENDBRANCH   9  11
ENDBRANCH   7   9
ENDBRANCH   6   7
ENDBRANCH   5   6
ENDBRANCH   4   5
ENDBRANCH   3   4
ENDBRANCH   2   3
ENDBRANCH   1   2
BRANCH   1  24
ATOM     24  O   UNL A   1      32.687  34.357  29.581  1.00  0.00    -0.377 OA
BRANCH  24  25
ATOM     25  C   UNL A   1      33.090  35.502  30.311  1.00  0.00     0.188 C 
BRANCH  25  26
ATOM     26  C   UNL A   1      34.565  35.441  30.768  1.00  0.00     0.188 C 
BRANCH  26  27
ATOM     27  O   UNL A   1      34.722  35.568  32.173  1.00  0.00    -0.376 OA
BRANCH  27  28
ATOM     28  C   UNL A   1      34.464  34.473  33.032  1.00  0.00     0.202 C 
BRANCH  28  29
ATOM     29  C   UNL A   1      35.577  33.684  33.746  1.00  0.00     0.261 C 
BRANCH  29  30
ATOM     30  O   UNL A   1      35.798  32.327  33.353  1.00  0.00    -0.460 OA
BRANCH  30  31
ATOM     31  C   UNL A   1      35.342  31.926  32.148  1.00  0.00     0.338 C 
ATOM     32  O   UNL A   1      34.305  32.252  31.604  1.00  0.00    -0.246 OA
BRANCH  31  33
ATOM     33  C   UNL A   1      36.462  31.205  31.501  1.00  0.00     0.060 A 
ATOM     34  C   UNL A   1      37.463  30.641  32.310  1.00  0.00     0.016 A 
ATOM     35  C   UNL A   1      36.463  30.987  30.120  1.00  0.00     0.016 A 
ATOM     36  C   UNL A   1      38.461  29.855  31.740  1.00  0.00     0.010 A 
ATOM     37  C   UNL A   1      37.497  30.250  29.542  1.00  0.00     0.010 A 
ATOM     38  C   UNL A   1      38.511  29.706  30.349  1.00  0.00    -0.014 A 
BRANCH  38  39
ATOM     39  C   UNL A   1      39.769  29.237  29.729  1.00  0.00     0.031 A 
ATOM     40  C   UNL A   1      40.877  30.242  29.589  1.00  0.00     0.074 A 
ATOM     41  C   UNL A   1      39.939  27.964  29.336  1.00  0.00     0.049 A 
ATOM     42  N   UNL A   1      42.063  30.104  29.058  1.00  0.00    -0.248 NA
ATOM     43  C   UNL A   1      40.607  31.589  30.124  1.00  0.00     0.031 C 
ATOM     44  C   UNL A   1      38.962  26.888  29.482  1.00  0.00     0.029 A 
ATOM     45  N   UNL A   1      41.013  27.366  28.726  1.00  0.00    -0.354 N 
ATOM     46  C   UNL A   1      42.672  31.346  29.186  1.00  0.00     0.074 A 
ATOM     47  C   UNL A   1      41.721  32.231  29.819  1.00  0.00     0.031 C 
ATOM     48  C   UNL A   1      39.481  25.759  28.965  1.00  0.00     0.029 A 
ATOM     49  C   UNL A   1      40.807  26.044  28.422  1.00  0.00     0.049 A 
ATOM     50  H   UNL A   1      41.852  27.841  28.527  1.00  0.00     0.167 HD
ATOM     51  C   UNL A   1      43.916  31.717  28.808  1.00  0.00     0.031 A 
ATOM     52  C   UNL A   1      41.597  25.176  27.760  1.00  0.00     0.031 A 
ATOM     53  C   UNL A   1      44.847  30.841  28.156  1.00  0.00     0.049 A 
ATOM     54  C   UNL A   1      42.941  25.644  27.258  1.00  0.00     0.074 A 
ATOM     55  C   UNL A   1      46.136  31.113  27.737  1.00  0.00     0.029 A 
ATOM     56  N   UNL A   1      44.581  29.524  27.815  1.00  0.00    -0.354 N 
ATOM     57  N   UNL A   1      43.522  26.812  27.405  1.00  0.00    -0.248 NA
ATOM     58  C   UNL A   1      43.741  24.669  26.503  1.00  0.00     0.031 C 
ATOM     59  C   UNL A   1      46.626  29.982  27.079  1.00  0.00     0.029 A 
ATOM     60  C   UNL A   1      45.670  28.980  27.158  1.00  0.00     0.049 A 
ATOM     61  H   UNL A   1      43.743  29.047  28.011  1.00  0.00     0.167 HD
ATOM     62  C   UNL A   1      44.766  26.698  26.794  1.00  0.00     0.074 A 
ATOM     63  C   UNL A   1      44.861  25.344  26.288  1.00  0.00     0.031 C 
ATOM     64  C   UNL A   1      45.745  27.628  26.666  1.00  0.00     0.031 A 
BRANCH  51  65
ATOM     65  C   UNL A   1      44.311  33.148  29.043  1.00  0.00    -0.014 A 
ATOM     66  C   UNL A   1      44.284  34.099  28.009  1.00  0.00     0.009 A 
ATOM     67  C   UNL A   1      44.701  33.553  30.329  1.00  0.00     0.009 A 
ATOM     68  C   UNL A   1      44.670  35.417  28.253  1.00  0.00     0.001 A 
ATOM     69  C   UNL A   1      45.055  34.880  30.576  1.00  0.00     0.001 A 
ATOM     70  C   UNL A   1      45.049  35.808  29.537  1.00  0.00     0.000 A 
ENDBRANCH  51  65
BRANCH  52  71
ATOM     71  C   UNL A   1      41.139  23.785  27.503  1.00  0.00    -0.014 A 
ATOM     72  C   UNL A   1      41.696  22.705  28.207  1.00  0.00     0.009 A 
ATOM     73  C   UNL A   1      40.169  23.523  26.523  1.00  0.00     0.009 A 
ATOM     74  C   UNL A   1      41.315  21.394  27.913  1.00  0.00     0.001 A 
ATOM     75  C   UNL A   1      39.765  22.213  26.253  1.00  0.00     0.001 A 
ATOM     76  C   UNL A   1      40.347  21.149  26.939  1.00  0.00     0.000 A 
ENDBRANCH  52  71
BRANCH  64  77
ATOM     77  C   UNL A   1      47.023  27.201  25.997  1.00  0.00    -0.014 A 
ATOM     78  C   UNL A   1      48.089  26.654  26.728  1.00  0.00     0.009 A 
ATOM     79  C   UNL A   1      47.139  27.302  24.601  1.00  0.00     0.009 A 
ATOM     80  C   UNL A   1      49.258  26.253  26.078  1.00  0.00     0.001 A 
ATOM     81  C   UNL A   1      48.293  26.867  23.950  1.00  0.00     0.001 A 
ATOM     82  C   UNL A   1      49.357  26.354  24.689  1.00  0.00     0.000 A 
ENDBRANCH  64  77
ENDBRANCH  38  39
ENDBRANCH  31  33
ENDBRANCH  30  31
ENDBRANCH  29  30
ENDBRANCH  28  29
ENDBRANCH  27  28
ENDBRANCH  26  27
ENDBRANCH  25  26
ENDBRANCH  24  25
ENDBRANCH   1  24
TORSDOF 23
ENDMDL
MODEL 3
REMARK VINA RESULT:      -8.0      4.923     10.697
REMARK SMILES C[C@H](C(=O)OCCOCCOCCOCCOC(=O)c1ccc(-c2c3nc(c(-c4ccccc4)c4ccc([nH]4)c(-c4ccccc4)c4nc(c(-c5ccccc5)c5ccc2[nH]5)C=C4)C=C3)cc1)[C@H](C)[NH+]1CCN(S(C)(=O)=O)CC1
REMARK SMILES IDX 10 1 9 2 8 3 7 4 6 5 5 6 3 7 4 8 2 9 1 10 68 11 69 12 70 13
REMARK SMILES IDX 71 14 79 15 72 17 78 18 73 19 74 20 75 21 76 22 77 23 11 24
REMARK SMILES IDX 12 25 13 26 14 27 15 28 16 29 17 30 18 31 19 32 20 33 21 34
REMARK SMILES IDX 67 35 22 36 66 37 23 38 24 39 25 40 60 41 26 42 65 43 59 44
REMARK SMILES IDX 61 45 27 46 64 47 58 48 57 49 28 51 50 52 35 53 49 54 36 55
REMARK SMILES IDX 39 56 48 57 62 58 37 59 38 60 47 62 63 63 40 64 29 65 30 66
REMARK SMILES IDX 34 67 31 68 33 69 32 70 51 71 52 72 56 73 53 74 55 75 54 76
REMARK SMILES IDX 41 77 42 78 46 79 43 80 45 81 44 82
REMARK H PARENT 70 16 61 50 39 61
REMARK Flexibility Score: inf
ROOT
ATOM      1  C   UNL A   1      42.882  25.192  27.100  1.00  0.00     0.188 C 
ENDROOT
BRANCH   1   2
ATOM      2  C   UNL A   1      42.102  25.601  28.373  1.00  0.00     0.188 C 
BRANCH   2   3
ATOM      3  O   UNL A   1      41.957  26.997  28.581  1.00  0.00    -0.376 OA
BRANCH   3   4
ATOM      4  C   UNL A   1      40.757  27.432  29.195  1.00  0.00     0.202 C 
BRANCH   4   5
ATOM      5  C   UNL A   1      40.855  28.801  29.879  1.00  0.00     0.261 C 
BRANCH   5   6
ATOM      6  O   UNL A   1      39.593  29.474  30.034  1.00  0.00    -0.463 OA
BRANCH   6   7
ATOM      7  C   UNL A   1      39.280  29.977  31.259  1.00  0.00     0.314 C 
ATOM      8  O   UNL A   1      39.449  29.390  32.317  1.00  0.00    -0.252 OA
BRANCH   7   9
ATOM      9  C   UNL A   1      38.699  31.381  31.108  1.00  0.00     0.154 C 
ATOM     10  C   UNL A   1      38.621  31.636  29.604  1.00  0.00     0.026 C 
BRANCH   9  11
ATOM     11  C   UNL A   1      37.460  31.727  32.044  1.00  0.00     0.195 C 
ATOM     12  C   UNL A   1      36.229  30.797  32.012  1.00  0.00     0.076 C 
BRANCH  11  13
ATOM     13  N   UNL A   1      37.142  33.159  32.249  1.00  0.00    -0.330 N 
ATOM     14  C   UNL A   1      36.582  33.855  31.085  1.00  0.00     0.279 C 
ATOM     15  C   UNL A   1      36.292  33.440  33.436  1.00  0.00     0.279 C 
ATOM     16  H   UNL A   1      38.072  33.543  32.417  1.00  0.00     0.348 HD
ATOM     17  C   UNL A   1      35.107  33.595  30.789  1.00  0.00     0.163 C 
ATOM     18  C   UNL A   1      34.748  33.402  33.275  1.00  0.00     0.163 C 
ATOM     19  N   UNL A   1      34.264  33.914  31.961  1.00  0.00    -0.191 NA
BRANCH  19  20
ATOM     20  S   UNL A   1      33.377  35.342  31.927  1.00  0.00     0.211 S 
ATOM     21  C   UNL A   1      33.278  35.674  30.181  1.00  0.00     0.176 C 
ATOM     22  O   UNL A   1      32.034  35.048  32.395  1.00  0.00    -0.212 OA
ATOM     23  O   UNL A   1      34.171  36.378  32.536  1.00  0.00    -0.212 OA
ENDBRANCH  19  20
ENDBRANCH  11  13
ENDBRANCH   9  11
ENDBRANCH   7   9
ENDBRANCH   6   7
ENDBRANCH   5   6
ENDBRANCH   4   5
ENDBRANCH   3   4
ENDBRANCH   2   3
ENDBRANCH   1   2
BRANCH   1  24
ATOM     24  O   UNL A   1      42.291  24.391  26.086  1.00  0.00    -0.377 OA
BRANCH  24  25
ATOM     25  C   UNL A   1      42.775  23.065  25.966  1.00  0.00     0.188 C 
BRANCH  25  26
ATOM     26  C   UNL A   1      43.541  22.816  24.647  1.00  0.00     0.188 C 
BRANCH  26  27
ATOM     27  O   UNL A   1      44.898  22.449  24.846  1.00  0.00    -0.376 OA
BRANCH  27  28
ATOM     28  C   UNL A   1      45.526  22.653  26.097  1.00  0.00     0.202 C 
BRANCH  28  29
ATOM     29  C   UNL A   1      46.535  23.788  26.357  1.00  0.00     0.261 C 
BRANCH  29  30
ATOM     30  O   UNL A   1      46.662  24.814  25.369  1.00  0.00    -0.460 OA
BRANCH  30  31
ATOM     31  C   UNL A   1      47.500  25.842  25.616  1.00  0.00     0.338 C 
ATOM     32  O   UNL A   1      48.536  26.105  25.037  1.00  0.00    -0.246 OA
BRANCH  31  33
ATOM     33  C   UNL A   1      46.792  26.734  26.562  1.00  0.00     0.060 A 
ATOM     34  C   UNL A   1      47.449  27.136  27.736  1.00  0.00     0.016 A 
ATOM     35  C   UNL A   1      45.540  27.263  26.236  1.00  0.00     0.016 A 
ATOM     36  C   UNL A   1      46.858  28.070  28.583  1.00  0.00     0.010 A 
ATOM     37  C   UNL A   1      44.920  28.154  27.115  1.00  0.00     0.010 A 
ATOM     38  C   UNL A   1      45.568  28.537  28.302  1.00  0.00    -0.014 A 
BRANCH  38  39
ATOM     39  C   UNL A   1      44.795  29.184  29.382  1.00  0.00     0.031 A 
ATOM     40  C   UNL A   1      44.519  28.363  30.610  1.00  0.00     0.074 A 
ATOM     41  C   UNL A   1      44.382  30.459  29.299  1.00  0.00     0.049 A 
ATOM     42  N   UNL A   1      43.843  28.674  31.685  1.00  0.00    -0.248 NA
ATOM     43  C   UNL A   1      45.086  27.002  30.625  1.00  0.00     0.031 C 
ATOM     44  C   UNL A   1      44.647  31.372  28.189  1.00  0.00     0.029 A 
ATOM     45  N   UNL A   1      43.641  31.205  30.181  1.00  0.00    -0.354 N 
ATOM     46  C   UNL A   1      43.896  27.547  32.494  1.00  0.00     0.074 A 
ATOM     47  C   UNL A   1      44.644  26.537  31.781  1.00  0.00     0.031 C 
ATOM     48  C   UNL A   1      44.068  32.557  28.454  1.00  0.00     0.029 A 
ATOM     49  C   UNL A   1      43.363  32.472  29.732  1.00  0.00     0.049 A 
ATOM     50  H   UNL A   1      43.338  30.864  31.053  1.00  0.00     0.167 HD
ATOM     51  C   UNL A   1      43.365  27.368  33.724  1.00  0.00     0.031 A 
ATOM     52  C   UNL A   1      42.605  33.439  30.286  1.00  0.00     0.031 A 
ATOM     53  C   UNL A   1      42.600  28.365  34.418  1.00  0.00     0.049 A 
ATOM     54  C   UNL A   1      41.939  33.177  31.615  1.00  0.00     0.074 A 
ATOM     55  C   UNL A   1      42.024  28.290  35.671  1.00  0.00     0.029 A 
ATOM     56  N   UNL A   1      42.293  29.617  33.906  1.00  0.00    -0.354 N 
ATOM     57  N   UNL A   1      42.014  32.119  32.387  1.00  0.00    -0.248 NA
ATOM     58  C   UNL A   1      41.088  34.250  32.150  1.00  0.00     0.031 C 
ATOM     59  C   UNL A   1      41.307  29.470  35.890  1.00  0.00     0.029 A 
ATOM     60  C   UNL A   1      41.504  30.310  34.805  1.00  0.00     0.049 A 
ATOM     61  H   UNL A   1      42.592  29.960  33.033  1.00  0.00     0.167 HD
ATOM     62  C   UNL A   1      41.253  32.413  33.512  1.00  0.00     0.074 A 
ATOM     63  C   UNL A   1      40.736  33.754  33.328  1.00  0.00     0.031 C 
ATOM     64  C   UNL A   1      41.004  31.646  34.602  1.00  0.00     0.031 A 
BRANCH  51  65
ATOM     65  C   UNL A   1      43.552  26.022  34.367  1.00  0.00    -0.014 A 
ATOM     66  C   UNL A   1      44.714  25.706  35.089  1.00  0.00     0.009 A 
ATOM     67  C   UNL A   1      42.536  25.060  34.261  1.00  0.00     0.009 A 
ATOM     68  C   UNL A   1      44.867  24.443  35.664  1.00  0.00     0.001 A 
ATOM     69  C   UNL A   1      42.677  23.810  34.864  1.00  0.00     0.001 A 
ATOM     70  C   UNL A   1      43.846  23.499  35.556  1.00  0.00     0.000 A 
ENDBRANCH  51  65
BRANCH  52  71
ATOM     71  C   UNL A   1      42.406  34.735  29.585  1.00  0.00    -0.014 A 
ATOM     72  C   UNL A   1      41.315  34.923  28.720  1.00  0.00     0.009 A 
ATOM     73  C   UNL A   1      43.327  35.781  29.745  1.00  0.00     0.009 A 
ATOM     74  C   UNL A   1      41.171  36.116  28.008  1.00  0.00     0.001 A 
ATOM     75  C   UNL A   1      43.163  36.986  29.057  1.00  0.00     0.001 A 
ATOM     76  C   UNL A   1      42.092  37.148  28.181  1.00  0.00     0.000 A 
ENDBRANCH  52  71
BRANCH  64  77
ATOM     77  C   UNL A   1      40.179  32.254  35.705  1.00  0.00    -0.014 A 
ATOM     78  C   UNL A   1      38.805  31.998  35.822  1.00  0.00     0.009 A 
ATOM     79  C   UNL A   1      40.806  33.056  36.673  1.00  0.00     0.009 A 
ATOM     80  C   UNL A   1      38.068  32.565  36.865  1.00  0.00     0.001 A 
ATOM     81  C   UNL A   1      40.075  33.591  37.734  1.00  0.00     0.001 A 
ATOM     82  C   UNL A   1      38.705  33.355  37.823  1.00  0.00     0.000 A 
ENDBRANCH  64  77
ENDBRANCH  38  39
ENDBRANCH  31  33
ENDBRANCH  30  31
ENDBRANCH  29  30
ENDBRANCH  28  29
ENDBRANCH  27  28
ENDBRANCH  26  27
ENDBRANCH  25  26
ENDBRANCH  24  25
ENDBRANCH   1  24
TORSDOF 23
ENDMDL
