MODEL 1
REMARK VINA RESULT:      -6.8      0.000      0.000
REMARK SMILES C[C@@H](C(=O)OCCOCCOCCOCCOC(=O)c1ccc(-c2c3nc(c(-c4ccccc4)c4ccc([nH]4)c(-c4ccccc4)c4nc(c(-c5ccccc5)c5ccc2[nH]5)C=C4)C=C3)cc1)c1ccc2c3cc(Cl)ccc3n(C(=O)c3ccc(Cl)cc3)c2c1
REMARK SMILES IDX 10 1 9 2 8 3 7 4 6 5 5 6 3 7 4 8 2 9 1 10 68 11 69 12 90 13
REMARK SMILES IDX 70 14 89 15 71 16 79 17 72 18 78 19 73 20 77 21 74 22 76 23
REMARK SMILES IDX 75 24 80 25 81 26 82 27 83 28 88 29 84 30 87 31 85 32 86 33
REMARK SMILES IDX 11 34 12 35 13 36 14 37 15 38 16 39 17 40 18 41 19 42 20 43
REMARK SMILES IDX 21 44 67 45 22 46 66 47 23 48 24 49 25 50 60 51 26 52 65 53
REMARK SMILES IDX 59 54 61 55 27 56 64 57 58 58 57 59 28 61 50 62 35 63 49 64
REMARK SMILES IDX 36 65 39 66 48 67 62 68 37 69 38 70 47 72 63 73 40 74 29 75
REMARK SMILES IDX 30 76 34 77 31 78 33 79 32 80 51 81 52 82 56 83 53 84 55 85
REMARK SMILES IDX 54 86 41 87 42 88 46 89 43 90 45 91 44 92
REMARK H PARENT 61 60 39 71
REMARK Flexibility Score: inf
ROOT
ATOM      1  C   UNL A   1      47.431  26.417  32.522  1.00  0.00     0.188 C 
ENDROOT
BRANCH   1   2
ATOM      2  C   UNL A   1      46.551  27.337  33.379  1.00  0.00     0.188 C 
BRANCH   2   3
ATOM      3  O   UNL A   1      45.982  26.702  34.514  1.00  0.00    -0.376 OA
BRANCH   3   4
ATOM      4  C   UNL A   1      44.928  25.792  34.271  1.00  0.00     0.202 C 
BRANCH   4   5
ATOM      5  C   UNL A   1      43.500  26.223  34.641  1.00  0.00     0.261 C 
BRANCH   5   6
ATOM      6  O   UNL A   1      42.875  27.158  33.744  1.00  0.00    -0.463 OA
BRANCH   6   7
ATOM      7  C   UNL A   1      41.635  27.614  34.041  1.00  0.00     0.313 C 
ATOM      8  O   UNL A   1      40.781  26.936  34.603  1.00  0.00    -0.252 OA
BRANCH   7   9
ATOM      9  C   UNL A   1      41.420  29.086  33.640  1.00  0.00     0.126 C 
ATOM     10  C   UNL A   1      41.481  30.097  34.805  1.00  0.00     0.025 C 
BRANCH   9  11
ATOM     11  C   UNL A   1      40.228  29.333  32.704  1.00  0.00    -0.032 A 
ATOM     12  C   UNL A   1      38.993  29.707  33.245  1.00  0.00     0.005 A 
ATOM     13  C   UNL A   1      40.326  29.230  31.304  1.00  0.00     0.032 A 
ATOM     14  C   UNL A   1      37.919  30.073  32.423  1.00  0.00     0.011 A 
ATOM     15  C   UNL A   1      39.196  29.441  30.482  1.00  0.00     0.057 A 
ATOM     16  C   UNL A   1      38.037  29.969  31.021  1.00  0.00     0.008 A 
ATOM     17  N   UNL A   1      38.992  29.220  29.102  1.00  0.00    -0.276 N 
ATOM     18  C   UNL A   1      37.222  30.357  29.927  1.00  0.00     0.009 A 
ATOM     19  C   UNL A   1      37.756  29.786  28.759  1.00  0.00     0.057 A 
ATOM     20  C   UNL A   1      36.046  31.131  29.860  1.00  0.00     0.031 A 
ATOM     21  C   UNL A   1      37.006  29.805  27.566  1.00  0.00     0.029 A 
ATOM     22  C   UNL A   1      35.380  31.254  28.648  1.00  0.00     0.041 A 
ATOM     23  C   UNL A   1      35.823  30.562  27.528  1.00  0.00     0.023 A 
ATOM     24  Cl  UNL A   1      33.983  32.254  28.551  1.00  0.00    -0.084 Cl
BRANCH  17  25
ATOM     25  C   UNL A   1      39.894  28.456  28.313  1.00  0.00     0.262 C 
ATOM     26  O   UNL A   1      40.773  29.113  27.754  1.00  0.00    -0.268 OA
BRANCH  25  27
ATOM     27  C   UNL A   1      39.959  26.998  28.008  1.00  0.00     0.040 A 
ATOM     28  C   UNL A   1      40.584  26.635  26.791  1.00  0.00     0.015 A 
ATOM     29  C   UNL A   1      39.278  26.012  28.724  1.00  0.00     0.015 A 
ATOM     30  C   UNL A   1      40.521  25.331  26.294  1.00  0.00     0.021 A 
ATOM     31  C   UNL A   1      39.239  24.693  28.237  1.00  0.00     0.021 A 
ATOM     32  C   UNL A   1      39.843  24.362  27.021  1.00  0.00     0.041 A 
ATOM     33  Cl  UNL A   1      39.714  22.765  26.396  1.00  0.00    -0.084 Cl
ENDBRANCH  25  27
ENDBRANCH  17  25
ENDBRANCH   9  11
ENDBRANCH   7   9
ENDBRANCH   6   7
ENDBRANCH   5   6
ENDBRANCH   4   5
ENDBRANCH   3   4
ENDBRANCH   2   3
ENDBRANCH   1   2
BRANCH   1  34
ATOM     34  O   UNL A   1      47.263  26.484  31.115  1.00  0.00    -0.377 OA
BRANCH  34  35
ATOM     35  C   UNL A   1      45.969  26.799  30.603  1.00  0.00     0.188 C 
BRANCH  35  36
ATOM     36  C   UNL A   1      45.748  27.987  29.626  1.00  0.00     0.188 C 
BRANCH  36  37
ATOM     37  O   UNL A   1      45.455  27.634  28.286  1.00  0.00    -0.376 OA
BRANCH  37  38
ATOM     38  C   UNL A   1      46.268  28.166  27.255  1.00  0.00     0.202 C 
BRANCH  38  39
ATOM     39  C   UNL A   1      46.271  29.690  27.075  1.00  0.00     0.261 C 
BRANCH  39  40
ATOM     40  O   UNL A   1      45.173  30.244  26.332  1.00  0.00    -0.460 OA
BRANCH  40  41
ATOM     41  C   UNL A   1      44.983  31.579  26.390  1.00  0.00     0.338 C 
ATOM     42  O   UNL A   1      45.242  32.403  25.526  1.00  0.00    -0.246 OA
BRANCH  41  43
ATOM     43  C   UNL A   1      44.204  31.864  27.611  1.00  0.00     0.060 A 
ATOM     44  C   UNL A   1      44.094  33.188  28.062  1.00  0.00     0.016 A 
ATOM     45  C   UNL A   1      43.558  30.830  28.290  1.00  0.00     0.016 A 
ATOM     46  C   UNL A   1      43.363  33.476  29.213  1.00  0.00     0.010 A 
ATOM     47  C   UNL A   1      42.852  31.114  29.461  1.00  0.00     0.010 A 
ATOM     48  C   UNL A   1      42.785  32.433  29.946  1.00  0.00    -0.014 A 
BRANCH  48  49
ATOM     49  C   UNL A   1      42.312  32.685  31.327  1.00  0.00     0.031 A 
ATOM     50  C   UNL A   1      43.321  32.619  32.440  1.00  0.00     0.074 A 
ATOM     51  C   UNL A   1      41.030  32.991  31.590  1.00  0.00     0.049 A 
ATOM     52  N   UNL A   1      43.148  32.754  33.729  1.00  0.00    -0.248 NA
ATOM     53  C   UNL A   1      44.715  32.362  32.042  1.00  0.00     0.031 C 
ATOM     54  C   UNL A   1      39.971  33.146  30.595  1.00  0.00     0.029 A 
ATOM     55  N   UNL A   1      40.404  33.223  32.790  1.00  0.00    -0.354 N 
ATOM     56  C   UNL A   1      44.406  32.584  34.295  1.00  0.00     0.074 A 
ATOM     57  C   UNL A   1      45.326  32.308  33.214  1.00  0.00     0.031 C 
ATOM     58  C   UNL A   1      38.821  33.439  31.228  1.00  0.00     0.029 A 
ATOM     59  C   UNL A   1      39.057  33.454  32.670  1.00  0.00     0.049 A 
ATOM     60  H   UNL A   1      40.878  33.221  33.653  1.00  0.00     0.167 HD
ATOM     61  C   UNL A   1      44.764  32.653  35.598  1.00  0.00     0.031 A 
ATOM     62  C   UNL A   1      38.119  33.633  33.622  1.00  0.00     0.031 A 
ATOM     63  C   UNL A   1      43.844  32.908  36.672  1.00  0.00     0.049 A 
ATOM     64  C   UNL A   1      38.526  33.610  35.073  1.00  0.00     0.074 A 
ATOM     65  C   UNL A   1      44.108  33.011  38.026  1.00  0.00     0.029 A 
ATOM     66  N   UNL A   1      42.478  33.089  36.514  1.00  0.00    -0.354 N 
ATOM     67  N   UNL A   1      39.720  33.472  35.598  1.00  0.00    -0.248 NA
ATOM     68  C   UNL A   1      37.452  33.775  36.064  1.00  0.00     0.031 C 
ATOM     69  C   UNL A   1      42.892  33.183  38.694  1.00  0.00     0.029 A 
ATOM     70  C   UNL A   1      41.881  33.266  37.750  1.00  0.00     0.049 A 
ATOM     71  H   UNL A   1      42.004  33.090  35.651  1.00  0.00     0.167 HD
ATOM     72  C   UNL A   1      39.547  33.569  36.974  1.00  0.00     0.074 A 
ATOM     73  C   UNL A   1      38.133  33.791  37.201  1.00  0.00     0.031 C 
ATOM     74  C   UNL A   1      40.473  33.486  37.961  1.00  0.00     0.031 A 
BRANCH  61  75
ATOM     75  C   UNL A   1      46.208  32.398  35.931  1.00  0.00    -0.014 A 
ATOM     76  C   UNL A   1      46.684  31.104  36.199  1.00  0.00     0.009 A 
ATOM     77  C   UNL A   1      47.111  33.472  35.958  1.00  0.00     0.009 A 
ATOM     78  C   UNL A   1      48.027  30.899  36.524  1.00  0.00     0.001 A 
ATOM     79  C   UNL A   1      48.459  33.260  36.250  1.00  0.00     0.001 A 
ATOM     80  C   UNL A   1      48.913  31.975  36.544  1.00  0.00     0.000 A 
ENDBRANCH  61  75
BRANCH  62  81
ATOM     81  C   UNL A   1      36.694  33.825  33.241  1.00  0.00    -0.014 A 
ATOM     82  C   UNL A   1      36.182  35.110  33.003  1.00  0.00     0.009 A 
ATOM     83  C   UNL A   1      35.829  32.724  33.140  1.00  0.00     0.009 A 
ATOM     84  C   UNL A   1      34.831  35.291  32.699  1.00  0.00     0.001 A 
ATOM     85  C   UNL A   1      34.485  32.904  32.803  1.00  0.00     0.001 A 
ATOM     86  C   UNL A   1      33.985  34.188  32.593  1.00  0.00     0.000 A 
ENDBRANCH  62  81
BRANCH  74  87
ATOM     87  C   UNL A   1      40.000  33.682  39.376  1.00  0.00    -0.014 A 
ATOM     88  C   UNL A   1      40.007  32.633  40.307  1.00  0.00     0.009 A 
ATOM     89  C   UNL A   1      39.583  34.957  39.795  1.00  0.00     0.009 A 
ATOM     90  C   UNL A   1      39.571  32.847  41.617  1.00  0.00     0.001 A 
ATOM     91  C   UNL A   1      39.182  35.176  41.113  1.00  0.00     0.001 A 
ATOM     92  C   UNL A   1      39.165  34.119  42.021  1.00  0.00     0.000 A 
ENDBRANCH  74  87
ENDBRANCH  48  49
ENDBRANCH  41  43
ENDBRANCH  40  41
ENDBRANCH  39  40
ENDBRANCH  38  39
ENDBRANCH  37  38
ENDBRANCH  36  37
ENDBRANCH  35  36
ENDBRANCH  34  35
ENDBRANCH   1  34
TORSDOF 23
ENDMDL
MODEL 2
REMARK VINA RESULT:      -6.5      3.274     10.383
REMARK SMILES C[C@@H](C(=O)OCCOCCOCCOCCOC(=O)c1ccc(-c2c3nc(c(-c4ccccc4)c4ccc([nH]4)c(-c4ccccc4)c4nc(c(-c5ccccc5)c5ccc2[nH]5)C=C4)C=C3)cc1)c1ccc2c3cc(Cl)ccc3n(C(=O)c3ccc(Cl)cc3)c2c1
REMARK SMILES IDX 10 1 9 2 8 3 7 4 6 5 5 6 3 7 4 8 2 9 1 10 68 11 69 12 90 13
REMARK SMILES IDX 70 14 89 15 71 16 79 17 72 18 78 19 73 20 77 21 74 22 76 23
REMARK SMILES IDX 75 24 80 25 81 26 82 27 83 28 88 29 84 30 87 31 85 32 86 33
REMARK SMILES IDX 11 34 12 35 13 36 14 37 15 38 16 39 17 40 18 41 19 42 20 43
REMARK SMILES IDX 21 44 67 45 22 46 66 47 23 48 24 49 25 50 60 51 26 52 65 53
REMARK SMILES IDX 59 54 61 55 27 56 64 57 58 58 57 59 28 61 50 62 35 63 49 64
REMARK SMILES IDX 36 65 39 66 48 67 62 68 37 69 38 70 47 72 63 73 40 74 29 75
REMARK SMILES IDX 30 76 34 77 31 78 33 79 32 80 51 81 52 82 56 83 53 84 55 85
REMARK SMILES IDX 54 86 41 87 42 88 46 89 43 90 45 91 44 92
REMARK H PARENT 61 60 39 71
REMARK Flexibility Score: inf
ROOT
ATOM      1  C   UNL A   1      35.435  33.752  31.667  1.00  0.00     0.188 C 
ENDROOT
BRANCH   1   2
ATOM      2  C   UNL A   1      36.911  33.750  31.245  1.00  0.00     0.188 C 
BRANCH   2   3
ATOM      3  O   UNL A   1      37.414  32.465  30.907  1.00  0.00    -0.376 OA
BRANCH   3   4
ATOM      4  C   UNL A   1      38.294  31.864  31.835  1.00  0.00     0.202 C 
BRANCH   4   5
ATOM      5  C   UNL A   1      38.528  30.349  31.732  1.00  0.00     0.261 C 
BRANCH   5   6
ATOM      6  O   UNL A   1      39.837  29.945  31.290  1.00  0.00    -0.463 OA
BRANCH   6   7
ATOM      7  C   UNL A   1      40.059  29.805  29.962  1.00  0.00     0.313 C 
ATOM      8  O   UNL A   1      39.556  30.531  29.110  1.00  0.00    -0.252 OA
BRANCH   7   9
ATOM      9  C   UNL A   1      41.044  28.668  29.630  1.00  0.00     0.126 C 
ATOM     10  C   UNL A   1      42.315  29.103  28.870  1.00  0.00     0.025 C 
BRANCH   9  11
ATOM     11  C   UNL A   1      40.399  27.409  29.032  1.00  0.00    -0.032 A 
ATOM     12  C   UNL A   1      39.006  27.294  29.009  1.00  0.00     0.005 A 
ATOM     13  C   UNL A   1      41.154  26.363  28.470  1.00  0.00     0.032 A 
ATOM     14  C   UNL A   1      38.374  26.228  28.353  1.00  0.00     0.011 A 
ATOM     15  C   UNL A   1      40.519  25.209  27.954  1.00  0.00     0.057 A 
ATOM     16  C   UNL A   1      39.146  25.190  27.789  1.00  0.00     0.008 A 
ATOM     17  N   UNL A   1      41.043  23.972  27.519  1.00  0.00    -0.276 N 
ATOM     18  C   UNL A   1      38.852  24.065  26.977  1.00  0.00     0.009 A 
ATOM     19  C   UNL A   1      39.998  23.257  26.916  1.00  0.00     0.057 A 
ATOM     20  C   UNL A   1      37.672  23.669  26.315  1.00  0.00     0.031 A 
ATOM     21  C   UNL A   1      39.909  21.956  26.380  1.00  0.00     0.029 A 
ATOM     22  C   UNL A   1      37.633  22.437  25.675  1.00  0.00     0.041 A 
ATOM     23  C   UNL A   1      38.716  21.571  25.748  1.00  0.00     0.023 A 
ATOM     24  Cl  UNL A   1      36.217  21.982  24.809  1.00  0.00    -0.084 Cl
BRANCH  17  25
ATOM     25  C   UNL A   1      42.382  23.576  27.788  1.00  0.00     0.262 C 
ATOM     26  O   UNL A   1      42.674  23.531  28.984  1.00  0.00    -0.268 OA
BRANCH  25  27
ATOM     27  C   UNL A   1      43.518  23.233  26.886  1.00  0.00     0.040 A 
ATOM     28  C   UNL A   1      43.191  22.548  25.692  1.00  0.00     0.015 A 
ATOM     29  C   UNL A   1      44.864  23.355  27.234  1.00  0.00     0.015 A 
ATOM     30  C   UNL A   1      44.176  21.988  24.874  1.00  0.00     0.021 A 
ATOM     31  C   UNL A   1      45.856  22.815  26.395  1.00  0.00     0.021 A 
ATOM     32  C   UNL A   1      45.510  22.122  25.233  1.00  0.00     0.041 A 
ATOM     33  Cl  UNL A   1      46.728  21.394  24.262  1.00  0.00    -0.084 Cl
ENDBRANCH  25  27
ENDBRANCH  17  25
ENDBRANCH   9  11
ENDBRANCH   7   9
ENDBRANCH   6   7
ENDBRANCH   5   6
ENDBRANCH   4   5
ENDBRANCH   3   4
ENDBRANCH   2   3
ENDBRANCH   1   2
BRANCH   1  34
ATOM     34  O   UNL A   1      35.102  33.076  32.868  1.00  0.00    -0.377 OA
BRANCH  34  35
ATOM     35  C   UNL A   1      35.186  33.798  34.096  1.00  0.00     0.188 C 
BRANCH  35  36
ATOM     36  C   UNL A   1      36.481  33.794  34.955  1.00  0.00     0.188 C 
BRANCH  36  37
ATOM     37  O   UNL A   1      36.292  33.638  36.350  1.00  0.00    -0.376 OA
BRANCH  37  38
ATOM     38  C   UNL A   1      37.338  33.060  37.112  1.00  0.00     0.202 C 
BRANCH  38  39
ATOM     39  C   UNL A   1      38.342  34.015  37.770  1.00  0.00     0.261 C 
BRANCH  39  40
ATOM     40  O   UNL A   1      39.682  33.983  37.253  1.00  0.00    -0.460 OA
BRANCH  40  41
ATOM     41  C   UNL A   1      40.463  32.936  37.590  1.00  0.00     0.338 C 
ATOM     42  O   UNL A   1      40.464  32.320  38.645  1.00  0.00    -0.246 OA
BRANCH  41  43
ATOM     43  C   UNL A   1      41.188  32.515  36.374  1.00  0.00     0.060 A 
ATOM     44  C   UNL A   1      40.477  31.918  35.323  1.00  0.00     0.016 A 
ATOM     45  C   UNL A   1      42.561  32.739  36.262  1.00  0.00     0.016 A 
ATOM     46  C   UNL A   1      41.145  31.514  34.167  1.00  0.00     0.010 A 
ATOM     47  C   UNL A   1      43.235  32.305  35.119  1.00  0.00     0.010 A 
ATOM     48  C   UNL A   1      42.535  31.658  34.085  1.00  0.00    -0.014 A 
BRANCH  48  49
ATOM     49  C   UNL A   1      43.283  30.932  33.033  1.00  0.00     0.031 A 
ATOM     50  C   UNL A   1      43.611  31.672  31.765  1.00  0.00     0.074 A 
ATOM     51  C   UNL A   1      43.684  29.661  33.200  1.00  0.00     0.049 A 
ATOM     52  N   UNL A   1      44.211  31.246  30.684  1.00  0.00    -0.248 NA
ATOM     53  C   UNL A   1      43.202  33.086  31.711  1.00  0.00     0.031 C 
ATOM     54  C   UNL A   1      43.482  28.856  34.403  1.00  0.00     0.029 A 
ATOM     55  N   UNL A   1      44.349  28.822  32.339  1.00  0.00    -0.354 N 
ATOM     56  C   UNL A   1      44.239  32.332  29.819  1.00  0.00     0.074 A 
ATOM     57  C   UNL A   1      43.571  33.428  30.487  1.00  0.00     0.031 C 
ATOM     58  C   UNL A   1      44.006  27.634  34.200  1.00  0.00     0.029 A 
ATOM     59  C   UNL A   1      44.543  27.561  32.843  1.00  0.00     0.049 A 
ATOM     60  H   UNL A   1      44.656  29.101  31.446  1.00  0.00     0.167 HD
ATOM     61  C   UNL A   1      44.773  32.413  28.579  1.00  0.00     0.031 A 
ATOM     62  C   UNL A   1      45.074  26.466  32.261  1.00  0.00     0.031 A 
ATOM     63  C   UNL A   1      45.419  31.318  27.909  1.00  0.00     0.049 A 
ATOM     64  C   UNL A   1      45.576  26.554  30.843  1.00  0.00     0.074 A 
ATOM     65  C   UNL A   1      46.005  31.299  26.656  1.00  0.00     0.029 A 
ATOM     66  N   UNL A   1      45.552  30.041  28.433  1.00  0.00    -0.354 N 
ATOM     67  N   UNL A   1      45.620  27.591  30.041  1.00  0.00    -0.248 NA
ATOM     68  C   UNL A   1      46.111  25.318  30.253  1.00  0.00     0.031 C 
ATOM     69  C   UNL A   1      46.431  29.993  26.394  1.00  0.00     0.029 A 
ATOM     70  C   UNL A   1      46.179  29.218  27.514  1.00  0.00     0.049 A 
ATOM     71  H   UNL A   1      45.246  29.762  29.326  1.00  0.00     0.167 HD
ATOM     72  C   UNL A   1      46.216  27.142  28.868  1.00  0.00     0.074 A 
ATOM     73  C   UNL A   1      46.530  25.742  29.069  1.00  0.00     0.031 C 
ATOM     74  C   UNL A   1      46.485  27.826  27.728  1.00  0.00     0.031 A 
BRANCH  61  75
ATOM     75  C   UNL A   1      44.633  33.721  27.850  1.00  0.00    -0.014 A 
ATOM     76  C   UNL A   1      45.753  34.493  27.499  1.00  0.00     0.009 A 
ATOM     77  C   UNL A   1      43.355  34.179  27.493  1.00  0.00     0.009 A 
ATOM     78  C   UNL A   1      45.592  35.714  26.840  1.00  0.00     0.001 A 
ATOM     79  C   UNL A   1      43.199  35.383  26.803  1.00  0.00     0.001 A 
ATOM     80  C   UNL A   1      44.317  36.154  26.488  1.00  0.00     0.000 A 
ENDBRANCH  61  75
BRANCH  62  81
ATOM     81  C   UNL A   1      45.137  25.180  33.006  1.00  0.00    -0.014 A 
ATOM     82  C   UNL A   1      46.234  24.882  33.831  1.00  0.00     0.009 A 
ATOM     83  C   UNL A   1      44.113  24.229  32.874  1.00  0.00     0.009 A 
ATOM     84  C   UNL A   1      46.315  23.651  34.486  1.00  0.00     0.001 A 
ATOM     85  C   UNL A   1      44.181  23.012  33.556  1.00  0.00     0.001 A 
ATOM     86  C   UNL A   1      45.286  22.720  34.352  1.00  0.00     0.000 A 
ENDBRANCH  62  81
BRANCH  74  87
ATOM     87  C   UNL A   1      47.193  27.087  26.624  1.00  0.00    -0.014 A 
ATOM     88  C   UNL A   1      48.591  26.989  26.584  1.00  0.00     0.009 A 
ATOM     89  C   UNL A   1      46.438  26.438  25.633  1.00  0.00     0.009 A 
ATOM     90  C   UNL A   1      49.220  26.287  25.552  1.00  0.00     0.001 A 
ATOM     91  C   UNL A   1      47.068  25.709  24.624  1.00  0.00     0.001 A 
ATOM     92  C   UNL A   1      48.459  25.643  24.577  1.00  0.00     0.000 A 
ENDBRANCH  74  87
ENDBRANCH  48  49
ENDBRANCH  41  43
ENDBRANCH  40  41
ENDBRANCH  39  40
ENDBRANCH  38  39
ENDBRANCH  37  38
ENDBRANCH  36  37
ENDBRANCH  35  36
ENDBRANCH  34  35
ENDBRANCH   1  34
TORSDOF 23
ENDMDL
MODEL 3
REMARK VINA RESULT:      -6.5     11.882     16.618
REMARK SMILES C[C@@H](C(=O)OCCOCCOCCOCCOC(=O)c1ccc(-c2c3nc(c(-c4ccccc4)c4ccc([nH]4)c(-c4ccccc4)c4nc(c(-c5ccccc5)c5ccc2[nH]5)C=C4)C=C3)cc1)c1ccc2c3cc(Cl)ccc3n(C(=O)c3ccc(Cl)cc3)c2c1
REMARK SMILES IDX 10 1 9 2 8 3 7 4 6 5 5 6 3 7 4 8 2 9 1 10 68 11 69 12 90 13
REMARK SMILES IDX 70 14 89 15 71 16 79 17 72 18 78 19 73 20 77 21 74 22 76 23
REMARK SMILES IDX 75 24 80 25 81 26 82 27 83 28 88 29 84 30 87 31 85 32 86 33
REMARK SMILES IDX 11 34 12 35 13 36 14 37 15 38 16 39 17 40 18 41 19 42 20 43
REMARK SMILES IDX 21 44 67 45 22 46 66 47 23 48 24 49 25 50 60 51 26 52 65 53
REMARK SMILES IDX 59 54 61 55 27 56 64 57 58 58 57 59 28 61 50 62 35 63 49 64
REMARK SMILES IDX 36 65 39 66 48 67 62 68 37 69 38 70 47 72 63 73 40 74 29 75
REMARK SMILES IDX 30 76 34 77 31 78 33 79 32 80 51 81 52 82 56 83 53 84 55 85
REMARK SMILES IDX 54 86 41 87 42 88 46 89 43 90 45 91 44 92
REMARK H PARENT 61 60 39 71
REMARK Flexibility Score: inf
ROOT
ATOM      1  C   UNL A   1      45.280  31.925  26.374  1.00  0.00     0.188 C 
ENDROOT
BRANCH   1   2
ATOM      2  C   UNL A   1      45.991  30.570  26.263  1.00  0.00     0.188 C 
BRANCH   2   3
ATOM      3  O   UNL A   1      46.652  30.164  27.453  1.00  0.00    -0.376 OA
BRANCH   3   4
ATOM      4  C   UNL A   1      45.863  29.512  28.427  1.00  0.00     0.202 C 
BRANCH   4   5
ATOM      5  C   UNL A   1      45.783  27.978  28.385  1.00  0.00     0.261 C 
BRANCH   5   6
ATOM      6  O   UNL A   1      44.459  27.422  28.298  1.00  0.00    -0.463 OA
BRANCH   6   7
ATOM      7  C   UNL A   1      43.466  28.186  27.784  1.00  0.00     0.313 C 
ATOM      8  O   UNL A   1      42.929  29.102  28.398  1.00  0.00    -0.252 OA
BRANCH   7   9
ATOM      9  C   UNL A   1      43.108  27.815  26.332  1.00  0.00     0.126 C 
ATOM     10  C   UNL A   1      41.807  28.450  25.795  1.00  0.00     0.025 C 
BRANCH   9  11
ATOM     11  C   UNL A   1      43.214  26.318  26.002  1.00  0.00    -0.032 A 
ATOM     12  C   UNL A   1      44.202  25.877  25.117  1.00  0.00     0.005 A 
ATOM     13  C   UNL A   1      42.372  25.351  26.581  1.00  0.00     0.032 A 
ATOM     14  C   UNL A   1      44.422  24.511  24.892  1.00  0.00     0.011 A 
ATOM     15  C   UNL A   1      42.488  23.986  26.228  1.00  0.00     0.057 A 
ATOM     16  C   UNL A   1      43.572  23.554  25.485  1.00  0.00     0.008 A 
ATOM     17  N   UNL A   1      41.666  22.875  26.515  1.00  0.00    -0.276 N 
ATOM     18  C   UNL A   1      43.580  22.138  25.568  1.00  0.00     0.009 A 
ATOM     19  C   UNL A   1      42.346  21.723  26.096  1.00  0.00     0.057 A 
ATOM     20  C   UNL A   1      44.547  21.182  25.200  1.00  0.00     0.031 A 
ATOM     21  C   UNL A   1      41.991  20.360  26.055  1.00  0.00     0.029 A 
ATOM     22  C   UNL A   1      44.236  19.831  25.286  1.00  0.00     0.041 A 
ATOM     23  C   UNL A   1      42.962  19.425  25.659  1.00  0.00     0.023 A 
ATOM     24  Cl  UNL A   1      45.439  18.662  24.900  1.00  0.00    -0.084 Cl
BRANCH  17  25
ATOM     25  C   UNL A   1      40.352  23.017  27.041  1.00  0.00     0.262 C 
ATOM     26  O   UNL A   1      40.305  23.249  28.250  1.00  0.00    -0.268 OA
BRANCH  25  27
ATOM     27  C   UNL A   1      39.009  22.907  26.405  1.00  0.00     0.040 A 
ATOM     28  C   UNL A   1      38.745  21.716  25.687  1.00  0.00     0.015 A 
ATOM     29  C   UNL A   1      38.099  23.960  26.300  1.00  0.00     0.015 A 
ATOM     30  C   UNL A   1      37.616  21.582  24.876  1.00  0.00     0.021 A 
ATOM     31  C   UNL A   1      36.947  23.814  25.505  1.00  0.00     0.021 A 
ATOM     32  C   UNL A   1      36.719  22.638  24.787  1.00  0.00     0.041 A 
ATOM     33  Cl  UNL A   1      35.351  22.505  23.753  1.00  0.00    -0.084 Cl
ENDBRANCH  25  27
ENDBRANCH  17  25
ENDBRANCH   9  11
ENDBRANCH   7   9
ENDBRANCH   6   7
ENDBRANCH   5   6
ENDBRANCH   4   5
ENDBRANCH   3   4
ENDBRANCH   2   3
ENDBRANCH   1   2
BRANCH   1  34
ATOM     34  O   UNL A   1      45.954  33.056  25.847  1.00  0.00    -0.377 OA
BRANCH  34  35
ATOM     35  C   UNL A   1      45.170  34.153  25.379  1.00  0.00     0.188 C 
BRANCH  35  36
ATOM     36  C   UNL A   1      43.618  34.126  25.437  1.00  0.00     0.188 C 
BRANCH  36  37
ATOM     37  O   UNL A   1      43.024  34.976  26.403  1.00  0.00    -0.376 OA
BRANCH  37  38
ATOM     38  C   UNL A   1      42.865  36.348  26.087  1.00  0.00     0.202 C 
BRANCH  38  39
ATOM     39  C   UNL A   1      43.121  37.364  27.208  1.00  0.00     0.261 C 
BRANCH  39  40
ATOM     40  O   UNL A   1      44.139  38.346  26.955  1.00  0.00    -0.460 OA
BRANCH  40  41
ATOM     41  C   UNL A   1      44.040  39.533  27.587  1.00  0.00     0.338 C 
ATOM     42  O   UNL A   1      43.818  39.726  28.773  1.00  0.00    -0.246 OA
BRANCH  41  43
ATOM     43  C   UNL A   1      44.457  40.580  26.633  1.00  0.00     0.060 A 
ATOM     44  C   UNL A   1      45.492  40.309  25.725  1.00  0.00     0.016 A 
ATOM     45  C   UNL A   1      43.805  41.813  26.613  1.00  0.00     0.016 A 
ATOM     46  C   UNL A   1      45.899  41.285  24.816  1.00  0.00     0.010 A 
ATOM     47  C   UNL A   1      44.234  42.802  25.725  1.00  0.00     0.010 A 
ATOM     48  C   UNL A   1      45.307  42.553  24.851  1.00  0.00    -0.014 A 
BRANCH  48  49
ATOM     49  C   UNL A   1      45.954  43.680  24.141  1.00  0.00     0.031 A 
ATOM     50  C   UNL A   1      45.408  44.072  22.797  1.00  0.00     0.074 A 
ATOM     51  C   UNL A   1      46.982  44.357  24.680  1.00  0.00     0.049 A 
ATOM     52  N   UNL A   1      45.827  44.988  21.962  1.00  0.00    -0.248 NA
ATOM     53  C   UNL A   1      44.227  43.326  22.329  1.00  0.00     0.031 C 
ATOM     54  C   UNL A   1      47.563  44.115  25.999  1.00  0.00     0.029 A 
ATOM     55  N   UNL A   1      47.723  45.394  24.169  1.00  0.00    -0.354 N 
ATOM     56  C   UNL A   1      44.972  44.917  20.869  1.00  0.00     0.074 A 
ATOM     57  C   UNL A   1      44.030  43.852  21.131  1.00  0.00     0.031 C 
ATOM     58  C   UNL A   1      48.578  44.976  26.190  1.00  0.00     0.029 A 
ATOM     59  C   UNL A   1      48.742  45.800  24.994  1.00  0.00     0.049 A 
ATOM     60  H   UNL A   1      47.541  45.806  23.293  1.00  0.00     0.167 HD
ATOM     61  C   UNL A   1      44.971  45.672  19.746  1.00  0.00     0.031 A 
ATOM     62  C   UNL A   1      49.709  46.716  24.793  1.00  0.00     0.031 A 
ATOM     63  C   UNL A   1      45.920  46.717  19.478  1.00  0.00     0.049 A 
ATOM     64  C   UNL A   1      49.745  47.479  23.493  1.00  0.00     0.074 A 
ATOM     65  C   UNL A   1      45.997  47.550  18.376  1.00  0.00     0.029 A 
ATOM     66  N   UNL A   1      46.968  47.065  20.318  1.00  0.00    -0.354 N 
ATOM     67  N   UNL A   1      48.920  47.423  22.475  1.00  0.00    -0.248 NA
ATOM     68  C   UNL A   1      50.845  48.439  23.319  1.00  0.00     0.031 C 
ATOM     69  C   UNL A   1      47.133  48.353  18.516  1.00  0.00     0.029 A 
ATOM     70  C   UNL A   1      47.718  48.075  19.741  1.00  0.00     0.049 A 
ATOM     71  H   UNL A   1      47.151  46.654  21.193  1.00  0.00     0.167 HD
ATOM     72  C   UNL A   1      49.380  48.361  21.558  1.00  0.00     0.074 A 
ATOM     73  C   UNL A   1      50.548  48.982  22.147  1.00  0.00     0.031 C 
ATOM     74  C   UNL A   1      48.879  48.683  20.340  1.00  0.00     0.031 A 
BRANCH  61  75
ATOM     75  C   UNL A   1      43.935  45.355  18.702  1.00  0.00    -0.014 A 
ATOM     76  C   UNL A   1      44.164  44.391  17.707  1.00  0.00     0.009 A 
ATOM     77  C   UNL A   1      42.700  46.021  18.730  1.00  0.00     0.009 A 
ATOM     78  C   UNL A   1      43.192  44.131  16.738  1.00  0.00     0.001 A 
ATOM     79  C   UNL A   1      41.716  45.734  17.782  1.00  0.00     0.001 A 
ATOM     80  C   UNL A   1      41.968  44.797  16.781  1.00  0.00     0.000 A 
ENDBRANCH  61  75
BRANCH  62  81
ATOM     81  C   UNL A   1      50.744  46.953  25.835  1.00  0.00    -0.014 A 
ATOM     82  C   UNL A   1      52.060  46.496  25.656  1.00  0.00     0.009 A 
ATOM     83  C   UNL A   1      50.414  47.613  27.030  1.00  0.00     0.009 A 
ATOM     84  C   UNL A   1      53.015  46.673  26.660  1.00  0.00     0.001 A 
ATOM     85  C   UNL A   1      51.379  47.817  28.019  1.00  0.00     0.001 A 
ATOM     86  C   UNL A   1      52.675  47.338  27.838  1.00  0.00     0.000 A 
ENDBRANCH  62  81
BRANCH  74  87
ATOM     87  C   UNL A   1      49.560  49.788  19.578  1.00  0.00    -0.014 A 
ATOM     88  C   UNL A   1      50.734  49.561  18.845  1.00  0.00     0.009 A 
ATOM     89  C   UNL A   1      48.986  51.070  19.559  1.00  0.00     0.009 A 
ATOM     90  C   UNL A   1      51.339  50.605  18.139  1.00  0.00     0.001 A 
ATOM     91  C   UNL A   1      49.573  52.101  18.824  1.00  0.00     0.001 A 
ATOM     92  C   UNL A   1      50.755  51.871  18.124  1.00  0.00     0.000 A 
ENDBRANCH  74  87
ENDBRANCH  48  49
ENDBRANCH  41  43
ENDBRANCH  40  41
ENDBRANCH  39  40
ENDBRANCH  38  39
ENDBRANCH  37  38
ENDBRANCH  36  37
ENDBRANCH  35  36
ENDBRANCH  34  35
ENDBRANCH   1  34
TORSDOF 23
ENDMDL
