MODEL 1
REMARK VINA RESULT:     -10.6      0.000      0.000
REMARK SMILES O=C(Cn1nc(C(=O)OCCOCCOCCOCCOC(=O)c2ccc(-c3c4nc(c(-c5ccccc5)c5ccc([nH]5)c(-c5ccccc5)c5nc(c(-c6ccccc6)c6ccc3[nH]6)C=C5)C=C4)cc2)c2ccccc2c1=O)Nc1ccc2c(c1)C(=O)c1ccccc1C2=O
REMARK SMILES IDX 14 1 13 2 12 3 11 4 10 5 9 6 7 7 8 8 6 9 4 10 5 11 78 12
REMARK SMILES IDX 77 13 79 14 72 15 76 16 73 17 75 18 74 19 3 20 2 21 1 22
REMARK SMILES IDX 80 23 81 25 82 26 86 27 83 28 85 29 84 30 87 31 95 32 88 33
REMARK SMILES IDX 89 34 94 35 96 36 90 37 93 38 91 39 92 40 15 41 16 42 17 43
REMARK SMILES IDX 18 44 19 45 20 46 21 47 22 48 23 49 24 50 25 51 71 52 26 53
REMARK SMILES IDX 70 54 27 55 28 56 29 57 64 58 30 59 69 60 63 61 65 62 31 63
REMARK SMILES IDX 68 64 62 65 61 66 32 68 54 69 39 70 53 71 40 72 43 73 52 74
REMARK SMILES IDX 66 75 41 76 42 77 51 79 67 80 44 81 33 82 34 83 38 84 35 85
REMARK SMILES IDX 37 86 36 87 55 88 56 89 60 90 57 91 59 92 58 93 45 94 46 95
REMARK SMILES IDX 50 96 47 97 49 98 48 99
REMARK H PARENT 80 24 65 67 43 78
REMARK Flexibility Score: inf
ROOT
ATOM      1  C   UNL A   1      35.115  21.233  24.916  1.00  0.00     0.188 C 
ENDROOT
BRANCH   1   2
ATOM      2  C   UNL A   1      33.646  21.355  24.496  1.00  0.00     0.188 C 
BRANCH   2   3
ATOM      3  O   UNL A   1      33.399  21.932  23.216  1.00  0.00    -0.376 OA
BRANCH   3   4
ATOM      4  C   UNL A   1      32.926  23.279  23.166  1.00  0.00     0.202 C 
BRANCH   4   5
ATOM      5  C   UNL A   1      33.958  24.366  22.852  1.00  0.00     0.261 C 
BRANCH   5   6
ATOM      6  O   UNL A   1      33.334  25.346  21.999  1.00  0.00    -0.458 OA
BRANCH   6   7
ATOM      7  C   UNL A   1      33.601  26.639  22.289  1.00  0.00     0.359 C 
ATOM      8  O   UNL A   1      34.043  27.490  21.565  1.00  0.00    -0.244 OA
BRANCH   7   9
ATOM      9  C   UNL A   1      33.024  26.933  23.677  1.00  0.00     0.176 A 
ATOM     10  N   UNL A   1      33.304  27.717  25.847  1.00  0.00    -0.219 N 
ATOM     11  N   UNL A   1      33.806  27.474  24.569  1.00  0.00    -0.161 NA
ATOM     12  C   UNL A   1      31.990  27.431  26.220  1.00  0.00     0.275 A 
ATOM     13  C   UNL A   1      31.133  26.788  25.209  1.00  0.00     0.051 A 
ATOM     14  O   UNL A   1      31.519  27.690  27.323  1.00  0.00    -0.267 OA
ATOM     15  C   UNL A   1      31.628  26.542  23.935  1.00  0.00     0.022 A 
ATOM     16  C   UNL A   1      29.819  26.428  25.533  1.00  0.00     0.014 A 
ATOM     17  C   UNL A   1      30.813  25.918  22.979  1.00  0.00     0.011 A 
ATOM     18  C   UNL A   1      29.010  25.803  24.584  1.00  0.00     0.001 A 
ATOM     19  C   UNL A   1      29.509  25.543  23.311  1.00  0.00     0.001 A 
BRANCH  10  20
ATOM     20  C   UNL A   1      34.143  28.473  26.812  1.00  0.00     0.248 C 
BRANCH  20  21
ATOM     21  C   UNL A   1      33.896  29.978  26.958  1.00  0.00     0.246 C 
ATOM     22  O   UNL A   1      33.081  30.590  26.275  1.00  0.00    -0.273 OA
ATOM     23  N   UNL A   1      34.715  30.539  27.895  1.00  0.00    -0.324 N 
ATOM     24  H   UNL A   1      35.264  29.919  28.428  1.00  0.00     0.169 HD
BRANCH  23  25
ATOM     25  C   UNL A   1      34.857  31.888  28.174  1.00  0.00     0.042 A 
ATOM     26  C   UNL A   1      33.760  32.741  28.308  1.00  0.00     0.027 A 
ATOM     27  C   UNL A   1      36.136  32.267  28.578  1.00  0.00     0.039 A 
ATOM     28  C   UNL A   1      33.907  33.849  29.133  1.00  0.00     0.015 A 
ATOM     29  C   UNL A   1      36.293  33.411  29.325  1.00  0.00     0.036 A 
ATOM     30  C   UNL A   1      35.143  34.036  29.772  1.00  0.00     0.034 A 
ATOM     31  C   UNL A   1      37.596  33.688  29.946  1.00  0.00     0.194 C 
ATOM     32  C   UNL A   1      35.115  34.245  31.225  1.00  0.00     0.194 C 
ATOM     33  O   UNL A   1      38.641  33.453  29.355  1.00  0.00    -0.289 OA
ATOM     34  C   UNL A   1      37.594  34.093  31.359  1.00  0.00     0.034 A 
ATOM     35  C   UNL A   1      36.369  34.178  32.002  1.00  0.00     0.034 A 
ATOM     36  O   UNL A   1      34.034  34.309  31.787  1.00  0.00    -0.289 OA
ATOM     37  C   UNL A   1      38.783  34.145  32.091  1.00  0.00     0.013 A 
ATOM     38  C   UNL A   1      36.329  34.159  33.393  1.00  0.00     0.013 A 
ATOM     39  C   UNL A   1      38.733  34.188  33.486  1.00  0.00     0.001 A 
ATOM     40  C   UNL A   1      37.504  34.161  34.140  1.00  0.00     0.001 A 
ENDBRANCH  23  25
ENDBRANCH  20  21
ENDBRANCH  10  20
ENDBRANCH   7   9
ENDBRANCH   6   7
ENDBRANCH   5   6
ENDBRANCH   4   5
ENDBRANCH   3   4
ENDBRANCH   2   3
ENDBRANCH   1   2
BRANCH   1  41
ATOM     41  O   UNL A   1      35.433  21.992  26.070  1.00  0.00    -0.377 OA
BRANCH  41  42
ATOM     42  C   UNL A   1      36.458  22.964  25.889  1.00  0.00     0.188 C 
BRANCH  42  43
ATOM     43  C   UNL A   1      37.592  22.442  25.001  1.00  0.00     0.188 C 
BRANCH  43  44
ATOM     44  O   UNL A   1      38.593  21.630  25.617  1.00  0.00    -0.376 OA
BRANCH  44  45
ATOM     45  C   UNL A   1      38.562  20.229  25.368  1.00  0.00     0.202 C 
BRANCH  45  46
ATOM     46  C   UNL A   1      39.808  19.450  25.792  1.00  0.00     0.261 C 
BRANCH  46  47
ATOM     47  O   UNL A   1      40.250  19.737  27.133  1.00  0.00    -0.460 OA
BRANCH  47  48
ATOM     48  C   UNL A   1      41.569  20.032  27.274  1.00  0.00     0.338 C 
ATOM     49  O   UNL A   1      42.500  19.246  27.240  1.00  0.00    -0.246 OA
BRANCH  48  50
ATOM     50  C   UNL A   1      41.764  21.499  27.399  1.00  0.00     0.060 A 
ATOM     51  C   UNL A   1      42.034  22.102  28.628  1.00  0.00     0.016 A 
ATOM     52  C   UNL A   1      41.651  22.297  26.249  1.00  0.00     0.016 A 
ATOM     53  C   UNL A   1      42.141  23.498  28.709  1.00  0.00     0.010 A 
ATOM     54  C   UNL A   1      41.715  23.699  26.344  1.00  0.00     0.010 A 
ATOM     55  C   UNL A   1      41.928  24.317  27.584  1.00  0.00    -0.014 A 
BRANCH  55  56
ATOM     56  C   UNL A   1      42.191  25.776  27.695  1.00  0.00     0.031 A 
ATOM     57  C   UNL A   1      41.322  26.771  28.407  1.00  0.00     0.074 A 
ATOM     58  C   UNL A   1      43.334  26.211  27.145  1.00  0.00     0.049 A 
ATOM     59  N   UNL A   1      41.648  27.943  28.898  1.00  0.00    -0.248 NA
ATOM     60  C   UNL A   1      39.914  26.429  28.605  1.00  0.00     0.031 C 
ATOM     61  C   UNL A   1      44.277  25.366  26.416  1.00  0.00     0.029 A 
ATOM     62  N   UNL A   1      43.889  27.459  27.115  1.00  0.00    -0.354 N 
ATOM     63  C   UNL A   1      40.529  28.403  29.584  1.00  0.00     0.074 A 
ATOM     64  C   UNL A   1      39.488  27.416  29.392  1.00  0.00     0.031 C 
ATOM     65  C   UNL A   1      45.296  26.124  25.997  1.00  0.00     0.029 A 
ATOM     66  C   UNL A   1      45.067  27.503  26.423  1.00  0.00     0.049 A 
ATOM     67  H   UNL A   1      43.483  28.246  27.548  1.00  0.00     0.167 HD
ATOM     68  C   UNL A   1      40.385  29.555  30.284  1.00  0.00     0.031 A 
ATOM     69  C   UNL A   1      45.882  28.535  26.151  1.00  0.00     0.031 A 
ATOM     70  C   UNL A   1      41.329  30.645  30.242  1.00  0.00     0.049 A 
ATOM     71  C   UNL A   1      45.594  29.878  26.738  1.00  0.00     0.074 A 
ATOM     72  C   UNL A   1      41.282  31.856  30.913  1.00  0.00     0.029 A 
ATOM     73  N   UNL A   1      42.431  30.699  29.402  1.00  0.00    -0.354 N 
ATOM     74  N   UNL A   1      44.642  30.223  27.570  1.00  0.00    -0.248 NA
ATOM     75  C   UNL A   1      46.502  30.969  26.369  1.00  0.00     0.031 C 
ATOM     76  C   UNL A   1      42.280  32.685  30.386  1.00  0.00     0.029 A 
ATOM     77  C   UNL A   1      43.006  31.959  29.458  1.00  0.00     0.049 A 
ATOM     78  H   UNL A   1      42.756  29.953  28.849  1.00  0.00     0.167 HD
ATOM     79  C   UNL A   1      44.845  31.568  27.843  1.00  0.00     0.074 A 
ATOM     80  C   UNL A   1      46.014  31.973  27.089  1.00  0.00     0.031 C 
ATOM     81  C   UNL A   1      44.132  32.381  28.660  1.00  0.00     0.031 A 
BRANCH  68  82
ATOM     82  C   UNL A   1      39.160  29.735  31.142  1.00  0.00    -0.014 A 
ATOM     83  C   UNL A   1      37.909  29.992  30.559  1.00  0.00     0.009 A 
ATOM     84  C   UNL A   1      39.288  29.831  32.537  1.00  0.00     0.009 A 
ATOM     85  C   UNL A   1      36.817  30.361  31.352  1.00  0.00     0.001 A 
ATOM     86  C   UNL A   1      38.191  30.187  33.329  1.00  0.00     0.001 A 
ATOM     87  C   UNL A   1      36.960  30.461  32.735  1.00  0.00     0.000 A 
ENDBRANCH  68  82
BRANCH  69  88
ATOM     88  C   UNL A   1      47.054  28.262  25.291  1.00  0.00    -0.014 A 
ATOM     89  C   UNL A   1      46.887  28.169  23.897  1.00  0.00     0.009 A 
ATOM     90  C   UNL A   1      48.281  27.903  25.860  1.00  0.00     0.009 A 
ATOM     91  C   UNL A   1      47.911  27.670  23.096  1.00  0.00     0.001 A 
ATOM     92  C   UNL A   1      49.314  27.428  25.050  1.00  0.00     0.001 A 
ATOM     93  C   UNL A   1      49.122  27.296  23.674  1.00  0.00     0.000 A 
ENDBRANCH  69  88
BRANCH  81  94
ATOM     94  C   UNL A   1      44.566  33.817  28.761  1.00  0.00    -0.014 A 
ATOM     95  C   UNL A   1      44.106  34.758  27.827  1.00  0.00     0.009 A 
ATOM     96  C   UNL A   1      45.482  34.226  29.742  1.00  0.00     0.009 A 
ATOM     97  C   UNL A   1      44.563  36.077  27.865  1.00  0.00     0.001 A 
ATOM     98  C   UNL A   1      45.915  35.553  29.797  1.00  0.00     0.001 A 
ATOM     99  C   UNL A   1      45.461  36.475  28.853  1.00  0.00     0.000 A 
ENDBRANCH  81  94
ENDBRANCH  55  56
ENDBRANCH  48  50
ENDBRANCH  47  48
ENDBRANCH  46  47
ENDBRANCH  45  46
ENDBRANCH  44  45
ENDBRANCH  43  44
ENDBRANCH  42  43
ENDBRANCH  41  42
ENDBRANCH   1  41
TORSDOF 23
ENDMDL
MODEL 2
REMARK VINA RESULT:     -10.3      2.980      9.827
REMARK SMILES O=C(Cn1nc(C(=O)OCCOCCOCCOCCOC(=O)c2ccc(-c3c4nc(c(-c5ccccc5)c5ccc([nH]5)c(-c5ccccc5)c5nc(c(-c6ccccc6)c6ccc3[nH]6)C=C5)C=C4)cc2)c2ccccc2c1=O)Nc1ccc2c(c1)C(=O)c1ccccc1C2=O
REMARK SMILES IDX 14 1 13 2 12 3 11 4 10 5 9 6 7 7 8 8 6 9 4 10 5 11 78 12
REMARK SMILES IDX 77 13 79 14 72 15 76 16 73 17 75 18 74 19 3 20 2 21 1 22
REMARK SMILES IDX 80 23 81 25 82 26 86 27 83 28 85 29 84 30 87 31 95 32 88 33
REMARK SMILES IDX 89 34 94 35 96 36 90 37 93 38 91 39 92 40 15 41 16 42 17 43
REMARK SMILES IDX 18 44 19 45 20 46 21 47 22 48 23 49 24 50 25 51 71 52 26 53
REMARK SMILES IDX 70 54 27 55 28 56 29 57 64 58 30 59 69 60 63 61 65 62 31 63
REMARK SMILES IDX 68 64 62 65 61 66 32 68 54 69 39 70 53 71 40 72 43 73 52 74
REMARK SMILES IDX 66 75 41 76 42 77 51 79 67 80 44 81 33 82 34 83 38 84 35 85
REMARK SMILES IDX 37 86 36 87 55 88 56 89 60 90 57 91 59 92 58 93 45 94 46 95
REMARK SMILES IDX 50 96 47 97 49 98 48 99
REMARK H PARENT 80 24 65 67 43 78
REMARK Flexibility Score: inf
ROOT
ATOM      1  C   UNL A   1      37.002  31.155  30.018  1.00  0.00     0.188 C 
ENDROOT
BRANCH   1   2
ATOM      2  C   UNL A   1      38.447  31.517  29.657  1.00  0.00     0.188 C 
BRANCH   2   3
ATOM      3  O   UNL A   1      39.151  30.580  28.844  1.00  0.00    -0.376 OA
BRANCH   3   4
ATOM      4  C   UNL A   1      39.247  29.232  29.303  1.00  0.00     0.202 C 
BRANCH   4   5
ATOM      5  C   UNL A   1      38.572  28.157  28.446  1.00  0.00     0.261 C 
BRANCH   5   6
ATOM      6  O   UNL A   1      39.390  26.971  28.484  1.00  0.00    -0.458 OA
BRANCH   6   7
ATOM      7  C   UNL A   1      40.027  26.654  27.335  1.00  0.00     0.359 C 
ATOM      8  O   UNL A   1      40.662  27.372  26.611  1.00  0.00    -0.244 OA
BRANCH   7   9
ATOM      9  C   UNL A   1      40.007  25.128  27.198  1.00  0.00     0.176 A 
ATOM     10  N   UNL A   1      38.935  23.185  26.507  1.00  0.00    -0.219 N 
ATOM     11  N   UNL A   1      38.982  24.574  26.610  1.00  0.00    -0.161 NA
ATOM     12  C   UNL A   1      39.945  22.347  26.983  1.00  0.00     0.275 A 
ATOM     13  C   UNL A   1      41.076  22.989  27.674  1.00  0.00     0.051 A 
ATOM     14  O   UNL A   1      39.942  21.127  26.851  1.00  0.00    -0.267 OA
ATOM     15  C   UNL A   1      41.128  24.373  27.782  1.00  0.00     0.022 A 
ATOM     16  C   UNL A   1      42.099  22.204  28.220  1.00  0.00     0.014 A 
ATOM     17  C   UNL A   1      42.200  24.981  28.451  1.00  0.00     0.011 A 
ATOM     18  C   UNL A   1      43.163  22.808  28.891  1.00  0.00     0.001 A 
ATOM     19  C   UNL A   1      43.209  24.194  29.012  1.00  0.00     0.001 A 
BRANCH  10  20
ATOM     20  C   UNL A   1      37.850  22.565  25.704  1.00  0.00     0.248 C 
BRANCH  20  21
ATOM     21  C   UNL A   1      36.443  23.159  25.813  1.00  0.00     0.246 C 
ATOM     22  O   UNL A   1      35.880  23.350  26.886  1.00  0.00    -0.273 OA
ATOM     23  N   UNL A   1      35.894  23.397  24.585  1.00  0.00    -0.324 N 
ATOM     24  H   UNL A   1      36.487  23.275  23.808  1.00  0.00     0.169 HD
BRANCH  23  25
ATOM     25  C   UNL A   1      34.594  23.791  24.318  1.00  0.00     0.042 A 
ATOM     26  C   UNL A   1      33.491  23.008  24.662  1.00  0.00     0.027 A 
ATOM     27  C   UNL A   1      34.458  25.126  23.939  1.00  0.00     0.039 A 
ATOM     28  C   UNL A   1      32.295  23.665  24.922  1.00  0.00     0.015 A 
ATOM     29  C   UNL A   1      33.248  25.754  24.117  1.00  0.00     0.036 A 
ATOM     30  C   UNL A   1      32.276  25.065  24.819  1.00  0.00     0.034 A 
ATOM     31  C   UNL A   1      33.164  27.211  23.940  1.00  0.00     0.194 C 
ATOM     32  C   UNL A   1      31.740  25.808  25.966  1.00  0.00     0.194 C 
ATOM     33  O   UNL A   1      33.776  27.775  23.044  1.00  0.00    -0.289 OA
ATOM     34  C   UNL A   1      32.460  27.975  24.980  1.00  0.00     0.034 A 
ATOM     35  C   UNL A   1      31.932  27.270  26.050  1.00  0.00     0.034 A 
ATOM     36  O   UNL A   1      31.287  25.182  26.910  1.00  0.00    -0.289 OA
ATOM     37  C   UNL A   1      32.534  29.369  25.019  1.00  0.00     0.013 A 
ATOM     38  C   UNL A   1      31.624  27.949  27.225  1.00  0.00     0.013 A 
ATOM     39  C   UNL A   1      32.163  30.048  26.181  1.00  0.00     0.001 A 
ATOM     40  C   UNL A   1      31.739  29.334  27.299  1.00  0.00     0.001 A 
ENDBRANCH  23  25
ENDBRANCH  20  21
ENDBRANCH  10  20
ENDBRANCH   7   9
ENDBRANCH   6   7
ENDBRANCH   5   6
ENDBRANCH   4   5
ENDBRANCH   3   4
ENDBRANCH   2   3
ENDBRANCH   1   2
BRANCH   1  41
ATOM     41  O   UNL A   1      36.225  32.275  30.407  1.00  0.00    -0.377 OA
BRANCH  41  42
ATOM     42  C   UNL A   1      35.200  31.997  31.357  1.00  0.00     0.188 C 
BRANCH  42  43
ATOM     43  C   UNL A   1      35.157  33.042  32.476  1.00  0.00     0.188 C 
BRANCH  43  44
ATOM     44  O   UNL A   1      35.847  32.739  33.689  1.00  0.00    -0.376 OA
BRANCH  44  45
ATOM     45  C   UNL A   1      36.655  33.756  34.269  1.00  0.00     0.202 C 
BRANCH  45  46
ATOM     46  C   UNL A   1      37.069  33.530  35.724  1.00  0.00     0.261 C 
BRANCH  46  47
ATOM     47  O   UNL A   1      37.493  32.183  36.009  1.00  0.00    -0.460 OA
BRANCH  47  48
ATOM     48  C   UNL A   1      38.757  32.045  36.486  1.00  0.00     0.338 C 
ATOM     49  O   UNL A   1      39.127  32.218  37.635  1.00  0.00    -0.246 OA
BRANCH  48  50
ATOM     50  C   UNL A   1      39.667  31.559  35.417  1.00  0.00     0.060 A 
ATOM     51  C   UNL A   1      39.226  30.693  34.416  1.00  0.00     0.016 A 
ATOM     52  C   UNL A   1      41.010  31.967  35.433  1.00  0.00     0.016 A 
ATOM     53  C   UNL A   1      40.138  30.204  33.469  1.00  0.00     0.010 A 
ATOM     54  C   UNL A   1      41.929  31.440  34.509  1.00  0.00     0.010 A 
ATOM     55  C   UNL A   1      41.507  30.524  33.534  1.00  0.00    -0.014 A 
BRANCH  55  56
ATOM     56  C   UNL A   1      42.401  30.094  32.427  1.00  0.00     0.031 A 
ATOM     57  C   UNL A   1      42.735  30.902  31.207  1.00  0.00     0.074 A 
ATOM     58  C   UNL A   1      42.986  28.896  32.575  1.00  0.00     0.049 A 
ATOM     59  N   UNL A   1      43.777  30.801  30.416  1.00  0.00    -0.248 NA
ATOM     60  C   UNL A   1      41.804  31.957  30.810  1.00  0.00     0.031 C 
ATOM     61  C   UNL A   1      42.756  27.995  33.701  1.00  0.00     0.029 A 
ATOM     62  N   UNL A   1      43.884  28.240  31.781  1.00  0.00    -0.354 N 
ATOM     63  C   UNL A   1      43.694  31.867  29.526  1.00  0.00     0.074 A 
ATOM     64  C   UNL A   1      42.464  32.567  29.828  1.00  0.00     0.031 C 
ATOM     65  C   UNL A   1      43.488  26.890  33.523  1.00  0.00     0.029 A 
ATOM     66  C   UNL A   1      44.227  27.010  32.267  1.00  0.00     0.049 A 
ATOM     67  H   UNL A   1      44.247  28.615  30.945  1.00  0.00     0.167 HD
ATOM     68  C   UNL A   1      44.556  32.206  28.537  1.00  0.00     0.031 A 
ATOM     69  C   UNL A   1      45.043  26.069  31.766  1.00  0.00     0.031 A 
ATOM     70  C   UNL A   1      45.624  31.355  28.073  1.00  0.00     0.049 A 
ATOM     71  C   UNL A   1      45.829  26.356  30.528  1.00  0.00     0.074 A 
ATOM     72  C   UNL A   1      46.557  31.600  27.078  1.00  0.00     0.029 A 
ATOM     73  N   UNL A   1      45.831  30.052  28.497  1.00  0.00    -0.354 N 
ATOM     74  N   UNL A   1      45.892  27.467  29.836  1.00  0.00    -0.248 NA
ATOM     75  C   UNL A   1      46.670  25.271  30.013  1.00  0.00     0.031 C 
ATOM     76  C   UNL A   1      47.241  30.407  26.817  1.00  0.00     0.029 A 
ATOM     77  C   UNL A   1      46.800  29.447  27.713  1.00  0.00     0.049 A 
ATOM     78  H   UNL A   1      45.359  29.620  29.246  1.00  0.00     0.167 HD
ATOM     79  C   UNL A   1      46.796  27.226  28.812  1.00  0.00     0.074 A 
ATOM     80  C   UNL A   1      47.257  25.862  28.979  1.00  0.00     0.031 C 
ATOM     81  C   UNL A   1      47.215  28.070  27.838  1.00  0.00     0.031 A 
BRANCH  68  82
ATOM     82  C   UNL A   1      44.387  33.537  27.850  1.00  0.00    -0.014 A 
ATOM     83  C   UNL A   1      44.707  34.732  28.515  1.00  0.00     0.009 A 
ATOM     84  C   UNL A   1      43.738  33.609  26.607  1.00  0.00     0.009 A 
ATOM     85  C   UNL A   1      44.361  35.969  27.962  1.00  0.00     0.001 A 
ATOM     86  C   UNL A   1      43.406  34.847  26.049  1.00  0.00     0.001 A 
ATOM     87  C   UNL A   1      43.709  36.025  26.731  1.00  0.00     0.000 A 
ENDBRANCH  68  82
BRANCH  69  88
ATOM     88  C   UNL A   1      45.135  24.790  32.505  1.00  0.00    -0.014 A 
ATOM     89  C   UNL A   1      44.126  23.822  32.346  1.00  0.00     0.009 A 
ATOM     90  C   UNL A   1      46.103  24.617  33.500  1.00  0.00     0.009 A 
ATOM     91  C   UNL A   1      44.056  22.730  33.208  1.00  0.00     0.001 A 
ATOM     92  C   UNL A   1      46.044  23.507  34.344  1.00  0.00     0.001 A 
ATOM     93  C   UNL A   1      45.012  22.576  34.209  1.00  0.00     0.000 A 
ENDBRANCH  69  88
BRANCH  81  94
ATOM     94  C   UNL A   1      48.201  27.539  26.835  1.00  0.00    -0.014 A 
ATOM     95  C   UNL A   1      49.579  27.661  27.070  1.00  0.00     0.009 A 
ATOM     96  C   UNL A   1      47.766  26.976  25.625  1.00  0.00     0.009 A 
ATOM     97  C   UNL A   1      50.502  27.241  26.111  1.00  0.00     0.001 A 
ATOM     98  C   UNL A   1      48.692  26.530  24.680  1.00  0.00     0.001 A 
ATOM     99  C   UNL A   1      50.058  26.670  24.919  1.00  0.00     0.000 A 
ENDBRANCH  81  94
ENDBRANCH  55  56
ENDBRANCH  48  50
ENDBRANCH  47  48
ENDBRANCH  46  47
ENDBRANCH  45  46
ENDBRANCH  44  45
ENDBRANCH  43  44
ENDBRANCH  42  43
ENDBRANCH  41  42
ENDBRANCH   1  41
TORSDOF 23
ENDMDL
MODEL 3
REMARK VINA RESULT:     -10.3      0.832      5.246
REMARK SMILES O=C(Cn1nc(C(=O)OCCOCCOCCOCCOC(=O)c2ccc(-c3c4nc(c(-c5ccccc5)c5ccc([nH]5)c(-c5ccccc5)c5nc(c(-c6ccccc6)c6ccc3[nH]6)C=C5)C=C4)cc2)c2ccccc2c1=O)Nc1ccc2c(c1)C(=O)c1ccccc1C2=O
REMARK SMILES IDX 14 1 13 2 12 3 11 4 10 5 9 6 7 7 8 8 6 9 4 10 5 11 78 12
REMARK SMILES IDX 77 13 79 14 72 15 76 16 73 17 75 18 74 19 3 20 2 21 1 22
REMARK SMILES IDX 80 23 81 25 82 26 86 27 83 28 85 29 84 30 87 31 95 32 88 33
REMARK SMILES IDX 89 34 94 35 96 36 90 37 93 38 91 39 92 40 15 41 16 42 17 43
REMARK SMILES IDX 18 44 19 45 20 46 21 47 22 48 23 49 24 50 25 51 71 52 26 53
REMARK SMILES IDX 70 54 27 55 28 56 29 57 64 58 30 59 69 60 63 61 65 62 31 63
REMARK SMILES IDX 68 64 62 65 61 66 32 68 54 69 39 70 53 71 40 72 43 73 52 74
REMARK SMILES IDX 66 75 41 76 42 77 51 79 67 80 44 81 33 82 34 83 38 84 35 85
REMARK SMILES IDX 37 86 36 87 55 88 56 89 60 90 57 91 59 92 58 93 45 94 46 95
REMARK SMILES IDX 50 96 47 97 49 98 48 99
REMARK H PARENT 80 24 65 67 43 78
REMARK Flexibility Score: inf
ROOT
ATOM      1  C   UNL A   1      35.338  21.935  24.699  1.00  0.00     0.188 C 
ENDROOT
BRANCH   1   2
ATOM      2  C   UNL A   1      33.872  21.983  24.256  1.00  0.00     0.188 C 
BRANCH   2   3
ATOM      3  O   UNL A   1      33.627  22.426  22.923  1.00  0.00    -0.376 OA
BRANCH   3   4
ATOM      4  C   UNL A   1      33.035  23.712  22.740  1.00  0.00     0.202 C 
BRANCH   4   5
ATOM      5  C   UNL A   1      33.980  24.917  22.730  1.00  0.00     0.261 C 
BRANCH   5   6
ATOM      6  O   UNL A   1      33.397  25.940  21.898  1.00  0.00    -0.458 OA
BRANCH   6   7
ATOM      7  C   UNL A   1      33.582  27.214  22.308  1.00  0.00     0.359 C 
ATOM      8  O   UNL A   1      33.952  28.158  21.664  1.00  0.00    -0.244 OA
BRANCH   7   9
ATOM      9  C   UNL A   1      33.016  27.333  23.726  1.00  0.00     0.176 A 
ATOM     10  N   UNL A   1      33.291  27.915  25.959  1.00  0.00    -0.219 N 
ATOM     11  N   UNL A   1      33.781  27.831  24.658  1.00  0.00    -0.161 NA
ATOM     12  C   UNL A   1      32.003  27.513  26.319  1.00  0.00     0.275 A 
ATOM     13  C   UNL A   1      31.167  26.922  25.261  1.00  0.00     0.051 A 
ATOM     14  O   UNL A   1      31.539  27.632  27.449  1.00  0.00    -0.267 OA
ATOM     15  C   UNL A   1      31.651  26.833  23.962  1.00  0.00     0.022 A 
ATOM     16  C   UNL A   1      29.883  26.450  25.565  1.00  0.00     0.014 A 
ATOM     17  C   UNL A   1      30.857  26.258  22.960  1.00  0.00     0.011 A 
ATOM     18  C   UNL A   1      29.095  25.873  24.569  1.00  0.00     0.001 A 
ATOM     19  C   UNL A   1      29.585  25.771  23.270  1.00  0.00     0.001 A 
BRANCH  10  20
ATOM     20  C   UNL A   1      34.100  28.622  26.984  1.00  0.00     0.248 C 
BRANCH  20  21
ATOM     21  C   UNL A   1      33.850  30.119  27.194  1.00  0.00     0.246 C 
ATOM     22  O   UNL A   1      32.961  30.735  26.615  1.00  0.00    -0.273 OA
ATOM     23  N   UNL A   1      34.755  30.670  28.056  1.00  0.00    -0.324 N 
ATOM     24  H   UNL A   1      35.364  30.045  28.513  1.00  0.00     0.169 HD
BRANCH  23  25
ATOM     25  C   UNL A   1      34.907  32.014  28.354  1.00  0.00     0.042 A 
ATOM     26  C   UNL A   1      33.899  32.948  28.118  1.00  0.00     0.027 A 
ATOM     27  C   UNL A   1      36.015  32.311  29.148  1.00  0.00     0.039 A 
ATOM     28  C   UNL A   1      33.860  34.070  28.937  1.00  0.00     0.015 A 
ATOM     29  C   UNL A   1      36.013  33.465  29.895  1.00  0.00     0.036 A 
ATOM     30  C   UNL A   1      34.835  34.188  29.940  1.00  0.00     0.034 A 
ATOM     31  C   UNL A   1      37.064  33.667  30.903  1.00  0.00     0.194 C 
ATOM     32  C   UNL A   1      34.357  34.448  31.303  1.00  0.00     0.194 C 
ATOM     33  O   UNL A   1      38.221  33.336  30.684  1.00  0.00    -0.289 OA
ATOM     34  C   UNL A   1      36.639  34.119  32.235  1.00  0.00     0.034 A 
ATOM     35  C   UNL A   1      35.283  34.316  32.446  1.00  0.00     0.034 A 
ATOM     36  O   UNL A   1      33.161  34.610  31.484  1.00  0.00    -0.289 OA
ATOM     37  C   UNL A   1      37.528  34.109  33.313  1.00  0.00     0.013 A 
ATOM     38  C   UNL A   1      34.795  34.347  33.749  1.00  0.00     0.013 A 
ATOM     39  C   UNL A   1      37.035  34.203  34.616  1.00  0.00     0.001 A 
ATOM     40  C   UNL A   1      35.663  34.288  34.836  1.00  0.00     0.001 A 
ENDBRANCH  23  25
ENDBRANCH  20  21
ENDBRANCH  10  20
ENDBRANCH   7   9
ENDBRANCH   6   7
ENDBRANCH   5   6
ENDBRANCH   4   5
ENDBRANCH   3   4
ENDBRANCH   2   3
ENDBRANCH   1   2
BRANCH   1  41
ATOM     41  O   UNL A   1      35.564  22.552  25.955  1.00  0.00    -0.377 OA
BRANCH  41  42
ATOM     42  C   UNL A   1      36.747  23.342  26.036  1.00  0.00     0.188 C 
BRANCH  42  43
ATOM     43  C   UNL A   1      37.930  22.674  25.329  1.00  0.00     0.188 C 
BRANCH  43  44
ATOM     44  O   UNL A   1      38.547  21.562  25.980  1.00  0.00    -0.376 OA
BRANCH  44  45
ATOM     45  C   UNL A   1      38.240  20.256  25.506  1.00  0.00     0.202 C 
BRANCH  45  46
ATOM     46  C   UNL A   1      39.433  19.319  25.318  1.00  0.00     0.261 C 
BRANCH  46  47
ATOM     47  O   UNL A   1      40.324  19.270  26.449  1.00  0.00    -0.460 OA
BRANCH  47  48
ATOM     48  C   UNL A   1      41.633  19.523  26.187  1.00  0.00     0.338 C 
ATOM     49  O   UNL A   1      42.434  18.763  25.670  1.00  0.00    -0.246 OA
BRANCH  48  50
ATOM     50  C   UNL A   1      41.974  20.923  26.545  1.00  0.00     0.060 A 
ATOM     51  C   UNL A   1      42.200  21.309  27.867  1.00  0.00     0.016 A 
ATOM     52  C   UNL A   1      42.050  21.884  25.524  1.00  0.00     0.016 A 
ATOM     53  C   UNL A   1      42.450  22.656  28.165  1.00  0.00     0.010 A 
ATOM     54  C   UNL A   1      42.257  23.240  25.832  1.00  0.00     0.010 A 
ATOM     55  C   UNL A   1      42.427  23.646  27.163  1.00  0.00    -0.014 A 
BRANCH  55  56
ATOM     56  C   UNL A   1      42.836  25.033  27.511  1.00  0.00     0.031 A 
ATOM     57  C   UNL A   1      44.152  25.669  27.169  1.00  0.00     0.074 A 
ATOM     58  C   UNL A   1      41.917  25.776  28.144  1.00  0.00     0.049 A 
ATOM     59  N   UNL A   1      44.444  26.944  27.065  1.00  0.00    -0.248 NA
ATOM     60  C   UNL A   1      45.289  24.788  26.906  1.00  0.00     0.031 C 
ATOM     61  C   UNL A   1      40.597  25.296  28.548  1.00  0.00     0.029 A 
ATOM     62  N   UNL A   1      41.954  27.079  28.552  1.00  0.00    -0.354 N 
ATOM     63  C   UNL A   1      45.749  27.005  26.585  1.00  0.00     0.074 A 
ATOM     64  C   UNL A   1      46.219  25.640  26.481  1.00  0.00     0.031 C 
ATOM     65  C   UNL A   1      39.948  26.292  29.160  1.00  0.00     0.029 A 
ATOM     66  C   UNL A   1      40.813  27.469  29.196  1.00  0.00     0.049 A 
ATOM     67  H   UNL A   1      42.723  27.676  28.399  1.00  0.00     0.167 HD
ATOM     68  C   UNL A   1      46.484  28.104  26.287  1.00  0.00     0.031 A 
ATOM     69  C   UNL A   1      40.486  28.643  29.760  1.00  0.00     0.031 A 
ATOM     70  C   UNL A   1      46.107  29.448  26.649  1.00  0.00     0.049 A 
ATOM     71  C   UNL A   1      41.414  29.807  29.633  1.00  0.00     0.074 A 
ATOM     72  C   UNL A   1      46.777  30.634  26.395  1.00  0.00     0.029 A 
ATOM     73  N   UNL A   1      45.013  29.772  27.437  1.00  0.00    -0.354 N 
ATOM     74  N   UNL A   1      42.544  29.887  28.974  1.00  0.00    -0.248 NA
ATOM     75  C   UNL A   1      41.014  31.047  30.306  1.00  0.00     0.031 C 
ATOM     76  C   UNL A   1      46.160  31.651  27.133  1.00  0.00     0.029 A 
ATOM     77  C   UNL A   1      45.051  31.117  27.768  1.00  0.00     0.049 A 
ATOM     78  H   UNL A   1      44.314  29.140  27.719  1.00  0.00     0.167 HD
ATOM     79  C   UNL A   1      42.985  31.193  29.135  1.00  0.00     0.074 A 
ATOM     80  C   UNL A   1      41.996  31.868  29.951  1.00  0.00     0.031 C 
ATOM     81  C   UNL A   1      44.101  31.776  28.632  1.00  0.00     0.031 A 
BRANCH  68  82
ATOM     82  C   UNL A   1      47.791  27.927  25.558  1.00  0.00    -0.014 A 
ATOM     83  C   UNL A   1      47.813  27.668  24.178  1.00  0.00     0.009 A 
ATOM     84  C   UNL A   1      48.992  27.838  26.281  1.00  0.00     0.009 A 
ATOM     85  C   UNL A   1      49.003  27.302  23.541  1.00  0.00     0.001 A 
ATOM     86  C   UNL A   1      50.184  27.486  25.639  1.00  0.00     0.001 A 
ATOM     87  C   UNL A   1      50.187  27.209  24.272  1.00  0.00     0.000 A 
ENDBRANCH  68  82
BRANCH  69  88
ATOM     88  C   UNL A   1      39.186  28.717  30.463  1.00  0.00    -0.014 A 
ATOM     89  C   UNL A   1      38.070  29.264  29.805  1.00  0.00     0.009 A 
ATOM     90  C   UNL A   1      39.106  28.431  31.831  1.00  0.00     0.009 A 
ATOM     91  C   UNL A   1      36.914  29.574  30.517  1.00  0.00     0.001 A 
ATOM     92  C   UNL A   1      37.935  28.719  32.535  1.00  0.00     0.001 A 
ATOM     93  C   UNL A   1      36.849  29.305  31.882  1.00  0.00     0.000 A 
ENDBRANCH  69  88
BRANCH  81  94
ATOM     94  C   UNL A   1      44.348  33.218  28.979  1.00  0.00    -0.014 A 
ATOM     95  C   UNL A   1      44.958  33.554  30.197  1.00  0.00     0.009 A 
ATOM     96  C   UNL A   1      43.916  34.247  28.129  1.00  0.00     0.009 A 
ATOM     97  C   UNL A   1      45.121  34.891  30.563  1.00  0.00     0.001 A 
ATOM     98  C   UNL A   1      44.108  35.584  28.483  1.00  0.00     0.001 A 
ATOM     99  C   UNL A   1      44.702  35.905  29.703  1.00  0.00     0.000 A 
ENDBRANCH  81  94
ENDBRANCH  55  56
ENDBRANCH  48  50
ENDBRANCH  47  48
ENDBRANCH  46  47
ENDBRANCH  45  46
ENDBRANCH  44  45
ENDBRANCH  43  44
ENDBRANCH  42  43
ENDBRANCH  41  42
ENDBRANCH   1  41
TORSDOF 23
ENDMDL
