MODEL 1
REMARK VINA RESULT:      -8.6      0.000      0.000
REMARK SMILES O=C(CNC(=O)c1ccc(Cl)cc1Cl)OCCOCCOCCOCCOC(=O)c1ccc(-c2c3nc(c(-c4ccccc4)c4ccc([nH]4)c(-c4ccccc4)c4nc(c(-c5ccccc5)c5ccc2[nH]5)C=C4)C=C3)cc1
REMARK SMILES IDX 21 1 20 2 19 3 18 4 17 5 16 6 15 7 2 8 1 9 3 10 4 11 5 12
REMARK SMILES IDX 6 14 7 15 8 16 13 17 9 18 12 19 14 20 10 21 11 22 22 23
REMARK SMILES IDX 23 24 24 25 25 26 26 27 27 28 28 29 29 30 30 31 31 32 77 33
REMARK SMILES IDX 32 34 76 35 33 36 34 37 35 38 70 39 36 40 75 41 69 42 71 43
REMARK SMILES IDX 37 44 74 45 68 46 67 47 38 49 60 50 45 51 59 52 46 53 49 54
REMARK SMILES IDX 58 55 72 56 47 57 48 58 57 60 73 61 50 62 39 63 40 64 44 65
REMARK SMILES IDX 41 66 43 67 42 68 61 69 62 70 66 71 63 72 65 73 64 74 51 75
REMARK SMILES IDX 52 76 56 77 53 78 55 79 54 80
REMARK H PARENT 4 13 71 48 49 59
REMARK Flexibility Score: inf
ROOT
ATOM      1  O   UNL A   1      37.445  22.526  24.653  1.00  0.00    -0.377 OA
ENDROOT
BRANCH   1   2
ATOM      2  C   UNL A   1      36.444  21.538  24.781  1.00  0.00     0.188 C 
BRANCH   2   3
ATOM      3  C   UNL A   1      35.573  21.439  26.043  1.00  0.00     0.188 C 
BRANCH   3   4
ATOM      4  O   UNL A   1      34.343  22.147  26.125  1.00  0.00    -0.376 OA
BRANCH   4   5
ATOM      5  C   UNL A   1      33.123  21.424  26.210  1.00  0.00     0.202 C 
BRANCH   5   6
ATOM      6  C   UNL A   1      32.178  21.312  25.014  1.00  0.00     0.261 C 
BRANCH   6   7
ATOM      7  O   UNL A   1      31.271  22.384  24.742  1.00  0.00    -0.462 OA
BRANCH   7   8
ATOM      8  C   UNL A   1      31.506  23.461  23.971  1.00  0.00     0.325 C 
ATOM      9  O   UNL A   1      30.559  24.178  23.647  1.00  0.00    -0.250 OA
BRANCH   8  10
ATOM     10  C   UNL A   1      32.890  23.702  23.381  1.00  0.00     0.239 C 
BRANCH  10  11
ATOM     11  N   UNL A   1      33.026  24.695  22.328  1.00  0.00    -0.341 N 
ATOM     12  C   UNL A   1      33.243  26.049  22.378  1.00  0.00     0.253 C 
ATOM     13  H   UNL A   1      32.949  24.331  21.417  1.00  0.00     0.164 HD
ATOM     14  O   UNL A   1      33.664  26.601  21.365  1.00  0.00    -0.269 OA
BRANCH  12  15
ATOM     15  C   UNL A   1      32.934  26.870  23.575  1.00  0.00     0.058 A 
ATOM     16  C   UNL A   1      33.850  27.001  24.629  1.00  0.00     0.017 A 
ATOM     17  C   UNL A   1      31.712  27.567  23.644  1.00  0.00     0.055 A 
ATOM     18  C   UNL A   1      33.521  27.762  25.758  1.00  0.00     0.021 A 
ATOM     19  C   UNL A   1      31.400  28.349  24.762  1.00  0.00     0.041 A 
ATOM     20  Cl  UNL A   1      30.480  27.439  22.433  1.00  0.00    -0.083 Cl
ATOM     21  C   UNL A   1      32.300  28.432  25.818  1.00  0.00     0.042 A 
ATOM     22  Cl  UNL A   1      31.893  29.357  27.210  1.00  0.00    -0.084 Cl
ENDBRANCH  12  15
ENDBRANCH  10  11
ENDBRANCH   8  10
ENDBRANCH   7   8
ENDBRANCH   6   7
ENDBRANCH   5   6
ENDBRANCH   4   5
ENDBRANCH   3   4
ENDBRANCH   2   3
ENDBRANCH   1   2
BRANCH   1  23
ATOM     23  C   UNL A   1      37.896  23.216  25.800  1.00  0.00     0.188 C 
BRANCH  23  24
ATOM     24  C   UNL A   1      39.207  22.823  26.509  1.00  0.00     0.188 C 
BRANCH  24  25
ATOM     25  O   UNL A   1      39.958  21.821  25.840  1.00  0.00    -0.376 OA
BRANCH  25  26
ATOM     26  C   UNL A   1      40.023  20.566  26.509  1.00  0.00     0.202 C 
BRANCH  26  27
ATOM     27  C   UNL A   1      41.040  19.566  25.937  1.00  0.00     0.261 C 
BRANCH  27  28
ATOM     28  O   UNL A   1      42.391  19.709  26.411  1.00  0.00    -0.460 OA
BRANCH  28  29
ATOM     29  C   UNL A   1      43.289  20.353  25.632  1.00  0.00     0.338 C 
ATOM     30  O   UNL A   1      43.828  19.924  24.626  1.00  0.00    -0.246 OA
BRANCH  29  31
ATOM     31  C   UNL A   1      43.313  21.770  26.076  1.00  0.00     0.060 A 
ATOM     32  C   UNL A   1      43.278  22.784  25.107  1.00  0.00     0.016 A 
ATOM     33  C   UNL A   1      43.226  22.097  27.432  1.00  0.00     0.016 A 
ATOM     34  C   UNL A   1      43.142  24.123  25.495  1.00  0.00     0.010 A 
ATOM     35  C   UNL A   1      43.115  23.437  27.819  1.00  0.00     0.010 A 
ATOM     36  C   UNL A   1      43.082  24.460  26.854  1.00  0.00    -0.014 A 
BRANCH  36  37
ATOM     37  C   UNL A   1      43.156  25.877  27.292  1.00  0.00     0.031 A 
ATOM     38  C   UNL A   1      44.518  26.482  27.498  1.00  0.00     0.074 A 
ATOM     39  C   UNL A   1      42.053  26.610  27.538  1.00  0.00     0.049 A 
ATOM     40  N   UNL A   1      44.843  27.658  27.971  1.00  0.00    -0.248 NA
ATOM     41  C   UNL A   1      45.669  25.643  27.123  1.00  0.00     0.031 C 
ATOM     42  C   UNL A   1      40.674  26.163  27.347  1.00  0.00     0.029 A 
ATOM     43  N   UNL A   1      41.927  27.888  28.029  1.00  0.00    -0.354 N 
ATOM     44  C   UNL A   1      46.231  27.694  27.962  1.00  0.00     0.074 A 
ATOM     45  C   UNL A   1      46.689  26.422  27.450  1.00  0.00     0.031 C 
ATOM     46  C   UNL A   1      39.840  27.147  27.736  1.00  0.00     0.029 A 
ATOM     47  C   UNL A   1      40.625  28.274  28.241  1.00  0.00     0.049 A 
ATOM     48  H   UNL A   1      42.698  28.474  28.210  1.00  0.00     0.167 HD
ATOM     49  C   UNL A   1      47.054  28.696  28.348  1.00  0.00     0.031 A 
ATOM     50  C   UNL A   1      40.126  29.389  28.812  1.00  0.00     0.031 A 
ATOM     51  C   UNL A   1      46.607  29.956  28.875  1.00  0.00     0.049 A 
ATOM     52  C   UNL A   1      41.070  30.452  29.322  1.00  0.00     0.074 A 
ATOM     53  C   UNL A   1      47.371  31.044  29.263  1.00  0.00     0.029 A 
ATOM     54  N   UNL A   1      45.283  30.291  29.103  1.00  0.00    -0.354 N 
ATOM     55  N   UNL A   1      42.379  30.497  29.258  1.00  0.00    -0.248 NA
ATOM     56  C   UNL A   1      40.464  31.615  29.990  1.00  0.00     0.031 C 
ATOM     57  C   UNL A   1      46.512  32.013  29.789  1.00  0.00     0.029 A 
ATOM     58  C   UNL A   1      45.210  31.552  29.669  1.00  0.00     0.049 A 
ATOM     59  H   UNL A   1      44.511  29.718  28.894  1.00  0.00     0.167 HD
ATOM     60  C   UNL A   1      42.747  31.698  29.854  1.00  0.00     0.074 A 
ATOM     61  C   UNL A   1      41.527  32.363  30.252  1.00  0.00     0.031 C 
ATOM     62  C   UNL A   1      43.989  32.203  30.059  1.00  0.00     0.031 A 
BRANCH  49  63
ATOM     63  C   UNL A   1      48.533  28.458  28.257  1.00  0.00    -0.014 A 
ATOM     64  C   UNL A   1      49.256  28.801  27.104  1.00  0.00     0.009 A 
ATOM     65  C   UNL A   1      49.220  27.941  29.366  1.00  0.00     0.009 A 
ATOM     66  C   UNL A   1      50.640  28.615  27.062  1.00  0.00     0.001 A 
ATOM     67  C   UNL A   1      50.605  27.780  29.329  1.00  0.00     0.001 A 
ATOM     68  C   UNL A   1      51.313  28.114  28.176  1.00  0.00     0.000 A 
ENDBRANCH  49  63
BRANCH  50  69
ATOM     69  C   UNL A   1      38.657  29.555  29.003  1.00  0.00    -0.014 A 
ATOM     70  C   UNL A   1      38.054  29.277  30.240  1.00  0.00     0.009 A 
ATOM     71  C   UNL A   1      37.838  29.921  27.922  1.00  0.00     0.009 A 
ATOM     72  C   UNL A   1      36.664  29.325  30.380  1.00  0.00     0.001 A 
ATOM     73  C   UNL A   1      36.452  30.001  28.074  1.00  0.00     0.001 A 
ATOM     74  C   UNL A   1      35.864  29.691  29.298  1.00  0.00     0.000 A 
ENDBRANCH  50  69
BRANCH  62  75
ATOM     75  C   UNL A   1      44.092  33.548  30.723  1.00  0.00    -0.014 A 
ATOM     76  C   UNL A   1      44.026  34.735  29.976  1.00  0.00     0.009 A 
ATOM     77  C   UNL A   1      44.198  33.630  32.121  1.00  0.00     0.009 A 
ATOM     78  C   UNL A   1      44.092  35.975  30.615  1.00  0.00     0.001 A 
ATOM     79  C   UNL A   1      44.233  34.871  32.759  1.00  0.00     0.001 A 
ATOM     80  C   UNL A   1      44.189  36.042  32.004  1.00  0.00     0.000 A 
ENDBRANCH  62  75
ENDBRANCH  36  37
ENDBRANCH  29  31
ENDBRANCH  28  29
ENDBRANCH  27  28
ENDBRANCH  26  27
ENDBRANCH  25  26
ENDBRANCH  24  25
ENDBRANCH  23  24
ENDBRANCH   1  23
TORSDOF 22
ENDMDL
MODEL 2
REMARK VINA RESULT:      -8.6      3.860      5.025
REMARK SMILES O=C(CNC(=O)c1ccc(Cl)cc1Cl)OCCOCCOCCOCCOC(=O)c1ccc(-c2c3nc(c(-c4ccccc4)c4ccc([nH]4)c(-c4ccccc4)c4nc(c(-c5ccccc5)c5ccc2[nH]5)C=C4)C=C3)cc1
REMARK SMILES IDX 21 1 20 2 19 3 18 4 17 5 16 6 15 7 2 8 1 9 3 10 4 11 5 12
REMARK SMILES IDX 6 14 7 15 8 16 13 17 9 18 12 19 14 20 10 21 11 22 22 23
REMARK SMILES IDX 23 24 24 25 25 26 26 27 27 28 28 29 29 30 30 31 31 32 77 33
REMARK SMILES IDX 32 34 76 35 33 36 34 37 35 38 70 39 36 40 75 41 69 42 71 43
REMARK SMILES IDX 37 44 74 45 68 46 67 47 38 49 60 50 45 51 59 52 46 53 49 54
REMARK SMILES IDX 58 55 72 56 47 57 48 58 57 60 73 61 50 62 39 63 40 64 44 65
REMARK SMILES IDX 41 66 43 67 42 68 61 69 62 70 66 71 63 72 65 73 64 74 51 75
REMARK SMILES IDX 52 76 56 77 53 78 55 79 54 80
REMARK H PARENT 4 13 71 48 49 59
REMARK Flexibility Score: inf
ROOT
ATOM      1  O   UNL A   1      36.152  20.485  25.385  1.00  0.00    -0.377 OA
ENDROOT
BRANCH   1   2
ATOM      2  C   UNL A   1      35.323  21.510  25.890  1.00  0.00     0.188 C 
BRANCH   2   3
ATOM      3  C   UNL A   1      33.936  21.787  25.290  1.00  0.00     0.188 C 
BRANCH   3   4
ATOM      4  O   UNL A   1      33.705  21.608  23.898  1.00  0.00    -0.376 OA
BRANCH   4   5
ATOM      5  C   UNL A   1      32.715  22.389  23.247  1.00  0.00     0.202 C 
BRANCH   5   6
ATOM      6  C   UNL A   1      32.918  22.907  21.823  1.00  0.00     0.261 C 
BRANCH   6   7
ATOM      7  O   UNL A   1      33.493  24.203  21.631  1.00  0.00    -0.462 OA
BRANCH   7   8
ATOM      8  C   UNL A   1      32.887  25.281  21.099  1.00  0.00     0.325 C 
ATOM      9  O   UNL A   1      32.994  25.487  19.890  1.00  0.00    -0.250 OA
BRANCH   8  10
ATOM     10  C   UNL A   1      32.213  26.310  21.998  1.00  0.00     0.239 C 
BRANCH  10  11
ATOM     11  N   UNL A   1      30.983  25.932  22.675  1.00  0.00    -0.341 N 
ATOM     12  C   UNL A   1      30.213  26.594  23.598  1.00  0.00     0.253 C 
ATOM     13  H   UNL A   1      30.641  25.043  22.427  1.00  0.00     0.164 HD
ATOM     14  O   UNL A   1      29.053  26.220  23.753  1.00  0.00    -0.269 OA
BRANCH  12  15
ATOM     15  C   UNL A   1      30.740  27.691  24.447  1.00  0.00     0.058 A 
ATOM     16  C   UNL A   1      30.646  29.033  24.051  1.00  0.00     0.017 A 
ATOM     17  C   UNL A   1      31.314  27.388  25.697  1.00  0.00     0.055 A 
ATOM     18  C   UNL A   1      31.175  30.046  24.862  1.00  0.00     0.021 A 
ATOM     19  C   UNL A   1      31.815  28.406  26.516  1.00  0.00     0.041 A 
ATOM     20  Cl  UNL A   1      31.536  25.768  26.269  1.00  0.00    -0.083 Cl
ATOM     21  C   UNL A   1      31.755  29.728  26.088  1.00  0.00     0.042 A 
ATOM     22  Cl  UNL A   1      32.414  30.971  27.077  1.00  0.00    -0.084 Cl
ENDBRANCH  12  15
ENDBRANCH  10  11
ENDBRANCH   8  10
ENDBRANCH   7   8
ENDBRANCH   6   7
ENDBRANCH   5   6
ENDBRANCH   4   5
ENDBRANCH   3   4
ENDBRANCH   2   3
ENDBRANCH   1   2
BRANCH   1  23
ATOM     23  C   UNL A   1      37.435  20.804  24.886  1.00  0.00     0.188 C 
BRANCH  23  24
ATOM     24  C   UNL A   1      38.200  22.047  25.379  1.00  0.00     0.188 C 
BRANCH  24  25
ATOM     25  O   UNL A   1      39.059  21.808  26.483  1.00  0.00    -0.376 OA
BRANCH  25  26
ATOM     26  C   UNL A   1      40.181  20.974  26.208  1.00  0.00     0.202 C 
BRANCH  26  27
ATOM     27  C   UNL A   1      41.542  21.686  26.187  1.00  0.00     0.261 C 
BRANCH  27  28
ATOM     28  O   UNL A   1      41.513  23.080  25.834  1.00  0.00    -0.460 OA
BRANCH  28  29
ATOM     29  C   UNL A   1      42.641  23.813  25.979  1.00  0.00     0.338 C 
ATOM     30  O   UNL A   1      43.638  23.769  25.281  1.00  0.00    -0.246 OA
BRANCH  29  31
ATOM     31  C   UNL A   1      42.350  24.861  26.990  1.00  0.00     0.060 A 
ATOM     32  C   UNL A   1      43.100  26.048  26.971  1.00  0.00     0.016 A 
ATOM     33  C   UNL A   1      41.259  24.740  27.855  1.00  0.00     0.016 A 
ATOM     34  C   UNL A   1      42.749  27.115  27.807  1.00  0.00     0.010 A 
ATOM     35  C   UNL A   1      40.925  25.798  28.707  1.00  0.00     0.010 A 
ATOM     36  C   UNL A   1      41.672  26.989  28.695  1.00  0.00    -0.014 A 
BRANCH  36  37
ATOM     37  C   UNL A   1      41.419  28.018  29.736  1.00  0.00     0.031 A 
ATOM     38  C   UNL A   1      42.234  27.961  30.999  1.00  0.00     0.074 A 
ATOM     39  C   UNL A   1      40.469  28.963  29.593  1.00  0.00     0.049 A 
ATOM     40  N   UNL A   1      42.131  28.679  32.088  1.00  0.00    -0.248 NA
ATOM     41  C   UNL A   1      43.308  26.954  31.039  1.00  0.00     0.031 C 
ATOM     42  C   UNL A   1      39.633  29.157  28.409  1.00  0.00     0.029 A 
ATOM     43  N   UNL A   1      40.037  29.928  30.471  1.00  0.00    -0.354 N 
ATOM     44  C   UNL A   1      43.115  28.203  32.944  1.00  0.00     0.074 A 
ATOM     45  C   UNL A   1      43.797  27.129  32.257  1.00  0.00     0.031 C 
ATOM     46  C   UNL A   1      38.773  30.166  28.646  1.00  0.00     0.029 A 
ATOM     47  C   UNL A   1      38.971  30.661  30.008  1.00  0.00     0.049 A 
ATOM     48  H   UNL A   1      40.454  30.081  31.351  1.00  0.00     0.167 HD
ATOM     49  C   UNL A   1      43.424  28.620  34.193  1.00  0.00     0.031 A 
ATOM     50  C   UNL A   1      38.218  31.595  30.625  1.00  0.00     0.031 A 
ATOM     51  C   UNL A   1      42.740  29.674  34.890  1.00  0.00     0.049 A 
ATOM     52  C   UNL A   1      38.524  31.974  32.054  1.00  0.00     0.074 A 
ATOM     53  C   UNL A   1      43.006  30.185  36.149  1.00  0.00     0.029 A 
ATOM     54  N   UNL A   1      41.647  30.365  34.397  1.00  0.00    -0.354 N 
ATOM     55  N   UNL A   1      39.492  31.555  32.833  1.00  0.00    -0.248 NA
ATOM     56  C   UNL A   1      37.628  32.953  32.690  1.00  0.00     0.031 C 
ATOM     57  C   UNL A   1      42.031  31.142  36.445  1.00  0.00     0.029 A 
ATOM     58  C   UNL A   1      41.198  31.269  35.344  1.00  0.00     0.049 A 
ATOM     59  H   UNL A   1      41.249  30.234  33.506  1.00  0.00     0.167 HD
ATOM     60  C   UNL A   1      39.333  32.233  34.036  1.00  0.00     0.074 A 
ATOM     61  C   UNL A   1      38.192  33.109  33.879  1.00  0.00     0.031 C 
ATOM     62  C   UNL A   1      40.063  32.136  35.175  1.00  0.00     0.031 A 
BRANCH  49  63
ATOM     63  C   UNL A   1      44.529  27.904  34.914  1.00  0.00    -0.014 A 
ATOM     64  C   UNL A   1      44.289  26.716  35.621  1.00  0.00     0.009 A 
ATOM     65  C   UNL A   1      45.842  28.394  34.828  1.00  0.00     0.009 A 
ATOM     66  C   UNL A   1      45.343  26.042  36.242  1.00  0.00     0.001 A 
ATOM     67  C   UNL A   1      46.895  27.705  35.428  1.00  0.00     0.001 A 
ATOM     68  C   UNL A   1      46.645  26.532  36.138  1.00  0.00     0.000 A 
ENDBRANCH  49  63
BRANCH  50  69
ATOM     69  C   UNL A   1      37.048  32.209  29.934  1.00  0.00    -0.014 A 
ATOM     70  C   UNL A   1      35.758  31.675  30.087  1.00  0.00     0.009 A 
ATOM     71  C   UNL A   1      37.231  33.289  29.055  1.00  0.00     0.009 A 
ATOM     72  C   UNL A   1      34.686  32.185  29.348  1.00  0.00     0.001 A 
ATOM     73  C   UNL A   1      36.151  33.818  28.344  1.00  0.00     0.001 A 
ATOM     74  C   UNL A   1      34.883  33.258  28.480  1.00  0.00     0.000 A 
ENDBRANCH  50  69
BRANCH  62  75
ATOM     75  C   UNL A   1      39.669  33.011  36.332  1.00  0.00    -0.014 A 
ATOM     76  C   UNL A   1      40.197  34.304  36.479  1.00  0.00     0.009 A 
ATOM     77  C   UNL A   1      38.713  32.558  37.255  1.00  0.00     0.009 A 
ATOM     78  C   UNL A   1      39.794  35.113  37.543  1.00  0.00     0.001 A 
ATOM     79  C   UNL A   1      38.290  33.381  38.300  1.00  0.00     0.001 A 
ATOM     80  C   UNL A   1      38.838  34.654  38.449  1.00  0.00     0.000 A 
ENDBRANCH  62  75
ENDBRANCH  36  37
ENDBRANCH  29  31
ENDBRANCH  28  29
ENDBRANCH  27  28
ENDBRANCH  26  27
ENDBRANCH  25  26
ENDBRANCH  24  25
ENDBRANCH  23  24
ENDBRANCH   1  23
TORSDOF 22
ENDMDL
MODEL 3
REMARK VINA RESULT:      -8.5      1.528      1.960
REMARK SMILES O=C(CNC(=O)c1ccc(Cl)cc1Cl)OCCOCCOCCOCCOC(=O)c1ccc(-c2c3nc(c(-c4ccccc4)c4ccc([nH]4)c(-c4ccccc4)c4nc(c(-c5ccccc5)c5ccc2[nH]5)C=C4)C=C3)cc1
REMARK SMILES IDX 21 1 20 2 19 3 18 4 17 5 16 6 15 7 2 8 1 9 3 10 4 11 5 12
REMARK SMILES IDX 6 14 7 15 8 16 13 17 9 18 12 19 14 20 10 21 11 22 22 23
REMARK SMILES IDX 23 24 24 25 25 26 26 27 27 28 28 29 29 30 30 31 31 32 77 33
REMARK SMILES IDX 32 34 76 35 33 36 34 37 35 38 70 39 36 40 75 41 69 42 71 43
REMARK SMILES IDX 37 44 74 45 68 46 67 47 38 49 60 50 45 51 59 52 46 53 49 54
REMARK SMILES IDX 58 55 72 56 47 57 48 58 57 60 73 61 50 62 39 63 40 64 44 65
REMARK SMILES IDX 41 66 43 67 42 68 61 69 62 70 66 71 63 72 65 73 64 74 51 75
REMARK SMILES IDX 52 76 56 77 53 78 55 79 54 80
REMARK H PARENT 4 13 71 48 49 59
REMARK Flexibility Score: inf
ROOT
ATOM      1  O   UNL A   1      34.850  21.160  24.660  1.00  0.00    -0.377 OA
ENDROOT
BRANCH   1   2
ATOM      2  C   UNL A   1      33.496  21.251  25.052  1.00  0.00     0.188 C 
BRANCH   2   3
ATOM      3  C   UNL A   1      33.079  22.023  26.314  1.00  0.00     0.188 C 
BRANCH   3   4
ATOM      4  O   UNL A   1      32.212  23.145  26.217  1.00  0.00    -0.376 OA
BRANCH   4   5
ATOM      5  C   UNL A   1      31.113  23.105  25.319  1.00  0.00     0.202 C 
BRANCH   5   6
ATOM      6  C   UNL A   1      31.151  23.843  23.980  1.00  0.00     0.261 C 
BRANCH   6   7
ATOM      7  O   UNL A   1      32.108  23.446  22.995  1.00  0.00    -0.462 OA
BRANCH   7   8
ATOM      8  C   UNL A   1      32.833  24.259  22.204  1.00  0.00     0.325 C 
ATOM      9  O   UNL A   1      34.054  24.107  22.156  1.00  0.00    -0.250 OA
BRANCH   8  10
ATOM     10  C   UNL A   1      32.176  25.442  21.503  1.00  0.00     0.239 C 
BRANCH  10  11
ATOM     11  N   UNL A   1      32.963  26.648  21.305  1.00  0.00    -0.341 N 
ATOM     12  C   UNL A   1      33.511  27.533  22.199  1.00  0.00     0.253 C 
ATOM     13  H   UNL A   1      33.132  26.870  20.361  1.00  0.00     0.164 HD
ATOM     14  O   UNL A   1      34.413  28.266  21.802  1.00  0.00    -0.269 OA
BRANCH  12  15
ATOM     15  C   UNL A   1      33.020  27.677  23.592  1.00  0.00     0.058 A 
ATOM     16  C   UNL A   1      33.674  27.058  24.666  1.00  0.00     0.017 A 
ATOM     17  C   UNL A   1      31.896  28.485  23.853  1.00  0.00     0.055 A 
ATOM     18  C   UNL A   1      33.174  27.191  25.968  1.00  0.00     0.021 A 
ATOM     19  C   UNL A   1      31.417  28.638  25.159  1.00  0.00     0.041 A 
ATOM     20  Cl  UNL A   1      30.974  29.255  22.605  1.00  0.00    -0.083 Cl
ATOM     21  C   UNL A   1      32.051  27.980  26.207  1.00  0.00     0.042 A 
ATOM     22  Cl  UNL A   1      31.430  28.134  27.804  1.00  0.00    -0.084 Cl
ENDBRANCH  12  15
ENDBRANCH  10  11
ENDBRANCH   8  10
ENDBRANCH   7   8
ENDBRANCH   6   7
ENDBRANCH   5   6
ENDBRANCH   4   5
ENDBRANCH   3   4
ENDBRANCH   2   3
ENDBRANCH   1   2
BRANCH   1  23
ATOM     23  C   UNL A   1      35.725  22.241  24.911  1.00  0.00     0.188 C 
BRANCH  23  24
ATOM     24  C   UNL A   1      37.001  22.059  25.755  1.00  0.00     0.188 C 
BRANCH  24  25
ATOM     25  O   UNL A   1      38.052  21.374  25.091  1.00  0.00    -0.376 OA
BRANCH  25  26
ATOM     26  C   UNL A   1      38.027  19.956  25.221  1.00  0.00     0.202 C 
BRANCH  26  27
ATOM     27  C   UNL A   1      39.381  19.298  25.529  1.00  0.00     0.261 C 
BRANCH  27  28
ATOM     28  O   UNL A   1      39.994  19.683  26.772  1.00  0.00    -0.460 OA
BRANCH  28  29
ATOM     29  C   UNL A   1      41.338  19.833  26.816  1.00  0.00     0.338 C 
ATOM     30  O   UNL A   1      42.178  18.997  26.535  1.00  0.00    -0.246 OA
BRANCH  29  31
ATOM     31  C   UNL A   1      41.607  21.278  27.026  1.00  0.00     0.060 A 
ATOM     32  C   UNL A   1      41.356  22.174  25.975  1.00  0.00     0.016 A 
ATOM     33  C   UNL A   1      41.965  21.765  28.287  1.00  0.00     0.016 A 
ATOM     34  C   UNL A   1      41.451  23.555  26.190  1.00  0.00     0.010 A 
ATOM     35  C   UNL A   1      42.083  23.143  28.493  1.00  0.00     0.010 A 
ATOM     36  C   UNL A   1      41.836  24.047  27.445  1.00  0.00    -0.014 A 
BRANCH  36  37
ATOM     37  C   UNL A   1      42.152  25.486  27.635  1.00  0.00     0.031 A 
ATOM     38  C   UNL A   1      43.525  25.965  27.249  1.00  0.00     0.074 A 
ATOM     39  C   UNL A   1      41.266  26.350  28.167  1.00  0.00     0.049 A 
ATOM     40  N   UNL A   1      44.071  27.143  27.411  1.00  0.00    -0.248 NA
ATOM     41  C   UNL A   1      44.401  24.978  26.594  1.00  0.00     0.031 C 
ATOM     42  C   UNL A   1      39.892  26.032  28.551  1.00  0.00     0.029 A 
ATOM     43  N   UNL A   1      41.408  27.678  28.496  1.00  0.00    -0.354 N 
ATOM     44  C   UNL A   1      45.355  27.034  26.892  1.00  0.00     0.074 A 
ATOM     45  C   UNL A   1      45.513  25.676  26.421  1.00  0.00     0.031 C 
ATOM     46  C   UNL A   1      39.323  27.130  29.084  1.00  0.00     0.029 A 
ATOM     47  C   UNL A   1      40.304  28.215  29.115  1.00  0.00     0.049 A 
ATOM     48  H   UNL A   1      42.223  28.196  28.304  1.00  0.00     0.167 HD
ATOM     49  C   UNL A   1      46.319  27.980  26.816  1.00  0.00     0.031 A 
ATOM     50  C   UNL A   1      40.121  29.428  29.675  1.00  0.00     0.031 A 
ATOM     51  C   UNL A   1      46.177  29.326  27.298  1.00  0.00     0.049 A 
ATOM     52  C   UNL A   1      41.248  30.433  29.662  1.00  0.00     0.074 A 
ATOM     53  C   UNL A   1      47.092  30.362  27.234  1.00  0.00     0.029 A 
ATOM     54  N   UNL A   1      45.056  29.817  27.946  1.00  0.00    -0.354 N 
ATOM     55  N   UNL A   1      42.438  30.336  29.120  1.00  0.00    -0.248 NA
ATOM     56  C   UNL A   1      41.005  31.715  30.344  1.00  0.00     0.031 C 
ATOM     57  C   UNL A   1      46.550  31.463  27.904  1.00  0.00     0.029 A 
ATOM     58  C   UNL A   1      45.274  31.129  28.328  1.00  0.00     0.049 A 
ATOM     59  H   UNL A   1      44.230  29.309  28.110  1.00  0.00     0.167 HD
ATOM     60  C   UNL A   1      43.072  31.547  29.376  1.00  0.00     0.074 A 
ATOM     61  C   UNL A   1      42.130  32.371  30.100  1.00  0.00     0.031 C 
ATOM     62  C   UNL A   1      44.327  31.939  29.047  1.00  0.00     0.031 A 
BRANCH  49  63
ATOM     63  C   UNL A   1      47.640  27.582  26.225  1.00  0.00    -0.014 A 
ATOM     64  C   UNL A   1      47.874  27.663  24.843  1.00  0.00     0.009 A 
ATOM     65  C   UNL A   1      48.685  27.181  27.072  1.00  0.00     0.009 A 
ATOM     66  C   UNL A   1      49.127  27.334  24.322  1.00  0.00     0.001 A 
ATOM     67  C   UNL A   1      49.942  26.878  26.550  1.00  0.00     0.001 A 
ATOM     68  C   UNL A   1      50.161  26.950  25.175  1.00  0.00     0.000 A 
ENDBRANCH  49  63
BRANCH  50  69
ATOM     69  C   UNL A   1      38.843  29.763  30.365  1.00  0.00    -0.014 A 
ATOM     70  C   UNL A   1      38.641  29.430  31.714  1.00  0.00     0.009 A 
ATOM     71  C   UNL A   1      37.786  30.353  29.651  1.00  0.00     0.009 A 
ATOM     72  C   UNL A   1      37.400  29.644  32.321  1.00  0.00     0.001 A 
ATOM     73  C   UNL A   1      36.558  30.597  30.271  1.00  0.00     0.001 A 
ATOM     74  C   UNL A   1      36.361  30.231  31.600  1.00  0.00     0.000 A 
ENDBRANCH  50  69
BRANCH  62  75
ATOM     75  C   UNL A   1      44.750  33.327  29.443  1.00  0.00    -0.014 A 
ATOM     76  C   UNL A   1      44.493  34.430  28.615  1.00  0.00     0.009 A 
ATOM     77  C   UNL A   1      45.362  33.540  30.689  1.00  0.00     0.009 A 
ATOM     78  C   UNL A   1      44.865  35.715  29.015  1.00  0.00     0.001 A 
ATOM     79  C   UNL A   1      45.704  34.829  31.100  1.00  0.00     0.001 A 
ATOM     80  C   UNL A   1      45.464  35.914  30.258  1.00  0.00     0.000 A 
ENDBRANCH  62  75
ENDBRANCH  36  37
ENDBRANCH  29  31
ENDBRANCH  28  29
ENDBRANCH  27  28
ENDBRANCH  26  27
ENDBRANCH  25  26
ENDBRANCH  24  25
ENDBRANCH  23  24
ENDBRANCH   1  23
TORSDOF 22
ENDMDL
