MODEL 1
REMARK VINA RESULT:      -9.4      0.000      0.000
REMARK SMILES Cc1ccc(C(=O)OCCOCCOCCOCCOC(=O)c2ccc(-c3c4nc(c(-c5ccccc5)c5ccc([nH]5)c(-c5ccccc5)c5nc(c(-c6ccccc6)c6ccc3[nH]6)C=C5)C=C4)cc2)c2c1N[C@H](c1ccccc1F)[C@H]1CC=C[C@@H]21
REMARK SMILES IDX 15 1 14 2 13 3 12 4 11 5 10 6 9 7 8 8 6 9 7 10 5 11 1 12
REMARK SMILES IDX 2 13 3 14 72 15 4 16 71 17 73 18 86 19 74 20 82 22 85 23
REMARK SMILES IDX 83 24 84 25 75 26 76 27 80 28 77 29 79 30 81 31 78 32 16 33
REMARK SMILES IDX 17 34 18 35 19 36 20 37 21 38 22 39 23 40 24 41 70 42 25 43
REMARK SMILES IDX 69 44 26 45 27 46 28 47 63 48 29 49 68 50 62 51 64 52 30 53
REMARK SMILES IDX 67 54 61 55 60 56 31 58 53 59 38 60 52 61 39 62 42 63 51 64
REMARK SMILES IDX 65 65 40 66 41 67 50 69 66 70 43 71 32 72 33 73 37 74 34 75
REMARK SMILES IDX 36 76 35 77 54 78 55 79 59 80 56 81 58 82 57 83 44 84 45 85
REMARK SMILES IDX 49 86 46 87 48 88 47 89
REMARK H PARENT 73 21 64 57 42 68
REMARK Flexibility Score: inf
ROOT
ATOM      1  C   UNL A   1      45.534  22.668  25.827  1.00  0.00     0.188 C 
ENDROOT
BRANCH   1   2
ATOM      2  O   UNL A   1      46.198  21.413  25.791  1.00  0.00    -0.377 OA
BRANCH   2   3
ATOM      3  C   UNL A   1      46.381  20.768  24.543  1.00  0.00     0.188 C 
BRANCH   3   4
ATOM      4  C   UNL A   1      46.454  19.230  24.508  1.00  0.00     0.188 C 
BRANCH   4   5
ATOM      5  O   UNL A   1      45.396  18.546  25.173  1.00  0.00    -0.376 OA
BRANCH   5   6
ATOM      6  C   UNL A   1      44.095  18.826  24.666  1.00  0.00     0.202 C 
BRANCH   6   7
ATOM      7  C   UNL A   1      43.012  18.756  25.744  1.00  0.00     0.261 C 
BRANCH   7   8
ATOM      8  O   UNL A   1      42.149  19.905  25.761  1.00  0.00    -0.460 OA
BRANCH   8   9
ATOM      9  C   UNL A   1      41.355  20.063  26.847  1.00  0.00     0.338 C 
ATOM     10  O   UNL A   1      41.497  19.502  27.918  1.00  0.00    -0.246 OA
BRANCH   9  11
ATOM     11  C   UNL A   1      40.290  21.045  26.504  1.00  0.00     0.065 A 
ATOM     12  C   UNL A   1      37.000  23.561  25.297  1.00  0.00     0.046 C 
ATOM     13  C   UNL A   1      38.181  22.720  25.708  1.00  0.00    -0.028 A 
ATOM     14  C   UNL A   1      38.162  21.359  25.385  1.00  0.00     0.006 A 
ATOM     15  C   UNL A   1      39.265  23.256  26.441  1.00  0.00     0.042 A 
ATOM     16  C   UNL A   1      39.199  20.528  25.788  1.00  0.00     0.016 A 
ATOM     17  C   UNL A   1      40.355  22.428  26.814  1.00  0.00    -0.003 A 
ATOM     18  N   UNL A   1      39.268  24.604  26.773  1.00  0.00    -0.377 N 
ATOM     19  C   UNL A   1      41.613  23.093  27.351  1.00  0.00     0.050 C 
ATOM     20  C   UNL A   1      40.185  25.100  27.787  1.00  0.00     0.117 C 
ATOM     21  H   UNL A   1      38.650  25.224  26.322  1.00  0.00     0.161 HD
ATOM     22  C   UNL A   1      41.596  24.646  27.388  1.00  0.00     0.031 C 
ATOM     23  C   UNL A   1      42.048  22.774  28.753  1.00  0.00    -0.023 C 
ATOM     24  C   UNL A   1      42.671  25.008  28.427  1.00  0.00     0.034 C 
ATOM     25  C   UNL A   1      42.664  23.815  29.325  1.00  0.00    -0.030 C 
BRANCH  20  26
ATOM     26  C   UNL A   1      39.905  26.576  27.982  1.00  0.00     0.010 A 
ATOM     27  C   UNL A   1      40.310  27.460  26.960  1.00  0.00     0.009 A 
ATOM     28  C   UNL A   1      39.310  27.127  29.119  1.00  0.00     0.128 A 
ATOM     29  C   UNL A   1      40.111  28.838  27.073  1.00  0.00     0.001 A 
ATOM     30  C   UNL A   1      39.104  28.503  29.234  1.00  0.00     0.039 A 
ATOM     31  F   UNL A   1      38.913  26.348  30.134  1.00  0.00    -0.207 F 
ATOM     32  C   UNL A   1      39.505  29.359  28.211  1.00  0.00     0.003 A 
ENDBRANCH  20  26
ENDBRANCH   9  11
ENDBRANCH   8   9
ENDBRANCH   7   8
ENDBRANCH   6   7
ENDBRANCH   5   6
ENDBRANCH   4   5
ENDBRANCH   3   4
ENDBRANCH   2   3
ENDBRANCH   1   2
BRANCH   1  33
ATOM     33  C   UNL A   1      45.675  23.652  24.647  1.00  0.00     0.188 C 
BRANCH  33  34
ATOM     34  O   UNL A   1      44.681  24.669  24.604  1.00  0.00    -0.376 OA
BRANCH  34  35
ATOM     35  C   UNL A   1      44.767  25.671  25.607  1.00  0.00     0.202 C 
BRANCH  35  36
ATOM     36  C   UNL A   1      44.822  27.098  25.054  1.00  0.00     0.261 C 
BRANCH  36  37
ATOM     37  O   UNL A   1      45.624  28.017  25.812  1.00  0.00    -0.460 OA
BRANCH  37  38
ATOM     38  C   UNL A   1      46.966  27.894  25.733  1.00  0.00     0.338 C 
ATOM     39  O   UNL A   1      47.697  28.229  24.820  1.00  0.00    -0.246 OA
BRANCH  38  40
ATOM     40  C   UNL A   1      47.431  27.426  27.051  1.00  0.00     0.060 A 
ATOM     41  C   UNL A   1      47.797  26.083  27.210  1.00  0.00     0.016 A 
ATOM     42  C   UNL A   1      47.531  28.328  28.112  1.00  0.00     0.016 A 
ATOM     43  C   UNL A   1      48.259  25.635  28.446  1.00  0.00     0.010 A 
ATOM     44  C   UNL A   1      47.951  27.869  29.358  1.00  0.00     0.010 A 
ATOM     45  C   UNL A   1      48.289  26.518  29.536  1.00  0.00    -0.014 A 
BRANCH  45  46
ATOM     46  C   UNL A   1      48.429  25.981  30.905  1.00  0.00     0.031 A 
ATOM     47  C   UNL A   1      49.811  25.611  31.369  1.00  0.00     0.074 A 
ATOM     48  C   UNL A   1      47.370  25.820  31.716  1.00  0.00     0.049 A 
ATOM     49  N   UNL A   1      50.187  25.082  32.502  1.00  0.00    -0.248 NA
ATOM     50  C   UNL A   1      50.916  25.880  30.430  1.00  0.00     0.031 C 
ATOM     51  C   UNL A   1      45.993  26.192  31.401  1.00  0.00     0.029 A 
ATOM     52  N   UNL A   1      47.300  25.291  32.981  1.00  0.00    -0.354 N 
ATOM     53  C   UNL A   1      51.568  24.967  32.417  1.00  0.00     0.074 A 
ATOM     54  C   UNL A   1      51.965  25.462  31.119  1.00  0.00     0.031 C 
ATOM     55  C   UNL A   1      45.210  25.872  32.448  1.00  0.00     0.029 A 
ATOM     56  C   UNL A   1      46.026  25.250  33.490  1.00  0.00     0.049 A 
ATOM     57  H   UNL A   1      48.089  24.972  33.476  1.00  0.00     0.167 HD
ATOM     58  C   UNL A   1      52.431  24.492  33.340  1.00  0.00     0.031 A 
ATOM     59  C   UNL A   1      45.573  24.749  34.656  1.00  0.00     0.031 A 
ATOM     60  C   UNL A   1      52.039  23.963  34.614  1.00  0.00     0.049 A 
ATOM     61  C   UNL A   1      46.541  24.124  35.624  1.00  0.00     0.074 A 
ATOM     62  C   UNL A   1      52.845  23.442  35.610  1.00  0.00     0.029 A 
ATOM     63  N   UNL A   1      50.732  23.881  35.061  1.00  0.00    -0.354 N 
ATOM     64  N   UNL A   1      47.845  24.021  35.533  1.00  0.00    -0.248 NA
ATOM     65  C   UNL A   1      45.977  23.544  36.853  1.00  0.00     0.031 C 
ATOM     66  C   UNL A   1      52.018  23.002  36.646  1.00  0.00     0.029 A 
ATOM     67  C   UNL A   1      50.705  23.296  36.312  1.00  0.00     0.049 A 
ATOM     68  H   UNL A   1      49.941  24.192  34.563  1.00  0.00     0.167 HD
ATOM     69  C   UNL A   1      48.258  23.383  36.696  1.00  0.00     0.074 A 
ATOM     70  C   UNL A   1      47.070  23.125  37.481  1.00  0.00     0.031 C 
ATOM     71  C   UNL A   1      49.513  23.047  37.080  1.00  0.00     0.031 A 
BRANCH  58  72
ATOM     72  C   UNL A   1      53.888  24.501  32.997  1.00  0.00    -0.014 A 
ATOM     73  C   UNL A   1      54.685  25.618  33.289  1.00  0.00     0.009 A 
ATOM     74  C   UNL A   1      54.484  23.358  32.443  1.00  0.00     0.009 A 
ATOM     75  C   UNL A   1      56.055  25.591  33.029  1.00  0.00     0.001 A 
ATOM     76  C   UNL A   1      55.857  23.328  32.200  1.00  0.00     0.001 A 
ATOM     77  C   UNL A   1      56.640  24.444  32.491  1.00  0.00     0.000 A 
ENDBRANCH  58  72
BRANCH  59  78
ATOM     78  C   UNL A   1      44.122  24.813  34.969  1.00  0.00    -0.014 A 
ATOM     79  C   UNL A   1      43.513  26.040  35.270  1.00  0.00     0.009 A 
ATOM     80  C   UNL A   1      43.337  23.649  34.953  1.00  0.00     0.009 A 
ATOM     81  C   UNL A   1      42.146  26.099  35.552  1.00  0.00     0.001 A 
ATOM     82  C   UNL A   1      41.967  23.715  35.216  1.00  0.00     0.001 A 
ATOM     83  C   UNL A   1      41.374  24.939  35.519  1.00  0.00     0.000 A 
ENDBRANCH  59  78
BRANCH  71  84
ATOM     84  C   UNL A   1      49.695  22.379  38.411  1.00  0.00    -0.014 A 
ATOM     85  C   UNL A   1      49.711  20.982  38.517  1.00  0.00     0.009 A 
ATOM     86  C   UNL A   1      49.994  23.158  39.540  1.00  0.00     0.009 A 
ATOM     87  C   UNL A   1      50.024  20.375  39.735  1.00  0.00     0.001 A 
ATOM     88  C   UNL A   1      50.325  22.547  40.750  1.00  0.00     0.001 A 
ATOM     89  C   UNL A   1      50.340  21.157  40.845  1.00  0.00     0.000 A 
ENDBRANCH  71  84
ENDBRANCH  45  46
ENDBRANCH  38  40
ENDBRANCH  37  38
ENDBRANCH  36  37
ENDBRANCH  35  36
ENDBRANCH  34  35
ENDBRANCH  33  34
ENDBRANCH   1  33
TORSDOF 21
ENDMDL
MODEL 2
REMARK VINA RESULT:      -9.3      7.829     11.470
REMARK SMILES Cc1ccc(C(=O)OCCOCCOCCOCCOC(=O)c2ccc(-c3c4nc(c(-c5ccccc5)c5ccc([nH]5)c(-c5ccccc5)c5nc(c(-c6ccccc6)c6ccc3[nH]6)C=C5)C=C4)cc2)c2c1N[C@H](c1ccccc1F)[C@H]1CC=C[C@@H]21
REMARK SMILES IDX 15 1 14 2 13 3 12 4 11 5 10 6 9 7 8 8 6 9 7 10 5 11 1 12
REMARK SMILES IDX 2 13 3 14 72 15 4 16 71 17 73 18 86 19 74 20 82 22 85 23
REMARK SMILES IDX 83 24 84 25 75 26 76 27 80 28 77 29 79 30 81 31 78 32 16 33
REMARK SMILES IDX 17 34 18 35 19 36 20 37 21 38 22 39 23 40 24 41 70 42 25 43
REMARK SMILES IDX 69 44 26 45 27 46 28 47 63 48 29 49 68 50 62 51 64 52 30 53
REMARK SMILES IDX 67 54 61 55 60 56 31 58 53 59 38 60 52 61 39 62 42 63 51 64
REMARK SMILES IDX 65 65 40 66 41 67 50 69 66 70 43 71 32 72 33 73 37 74 34 75
REMARK SMILES IDX 36 76 35 77 54 78 55 79 59 80 56 81 58 82 57 83 44 84 45 85
REMARK SMILES IDX 49 86 46 87 48 88 47 89
REMARK H PARENT 73 21 64 57 42 68
REMARK Flexibility Score: inf
ROOT
ATOM      1  C   UNL A   1      45.255  23.022  26.041  1.00  0.00     0.188 C 
ENDROOT
BRANCH   1   2
ATOM      2  O   UNL A   1      46.035  21.836  25.973  1.00  0.00    -0.377 OA
BRANCH   2   3
ATOM      3  C   UNL A   1      46.352  21.296  24.702  1.00  0.00     0.188 C 
BRANCH   3   4
ATOM      4  C   UNL A   1      46.438  19.766  24.548  1.00  0.00     0.188 C 
BRANCH   4   5
ATOM      5  O   UNL A   1      45.450  19.019  25.251  1.00  0.00    -0.376 OA
BRANCH   5   6
ATOM      6  C   UNL A   1      44.157  19.032  24.654  1.00  0.00     0.202 C 
BRANCH   6   7
ATOM      7  C   UNL A   1      43.031  18.886  25.678  1.00  0.00     0.261 C 
BRANCH   7   8
ATOM      8  O   UNL A   1      42.123  20.001  25.691  1.00  0.00    -0.460 OA
BRANCH   8   9
ATOM      9  C   UNL A   1      41.357  20.158  26.797  1.00  0.00     0.338 C 
ATOM     10  O   UNL A   1      41.524  19.594  27.862  1.00  0.00    -0.246 OA
BRANCH   9  11
ATOM     11  C   UNL A   1      40.288  21.146  26.483  1.00  0.00     0.065 A 
ATOM     12  C   UNL A   1      36.979  23.679  25.369  1.00  0.00     0.046 C 
ATOM     13  C   UNL A   1      38.167  22.831  25.746  1.00  0.00    -0.028 A 
ATOM     14  C   UNL A   1      38.131  21.470  25.426  1.00  0.00     0.006 A 
ATOM     15  C   UNL A   1      39.275  23.363  26.446  1.00  0.00     0.042 A 
ATOM     16  C   UNL A   1      39.174  20.634  25.800  1.00  0.00     0.016 A 
ATOM     17  C   UNL A   1      40.370  22.529  26.788  1.00  0.00    -0.003 A 
ATOM     18  N   UNL A   1      39.295  24.711  26.775  1.00  0.00    -0.377 N 
ATOM     19  C   UNL A   1      41.647  23.188  27.287  1.00  0.00     0.050 C 
ATOM     20  C   UNL A   1      40.244  25.204  27.761  1.00  0.00     0.117 C 
ATOM     21  H   UNL A   1      38.667  25.335  26.342  1.00  0.00     0.161 HD
ATOM     22  C   UNL A   1      41.640  24.741  27.322  1.00  0.00     0.031 C 
ATOM     23  C   UNL A   1      42.121  22.869  28.677  1.00  0.00    -0.023 C 
ATOM     24  C   UNL A   1      42.747  25.098  28.329  1.00  0.00     0.034 C 
ATOM     25  C   UNL A   1      42.760  23.907  29.229  1.00  0.00    -0.030 C 
BRANCH  20  26
ATOM     26  C   UNL A   1      39.978  26.682  27.962  1.00  0.00     0.010 A 
ATOM     27  C   UNL A   1      40.433  27.570  26.965  1.00  0.00     0.009 A 
ATOM     28  C   UNL A   1      39.350  27.230  29.082  1.00  0.00     0.128 A 
ATOM     29  C   UNL A   1      40.250  28.949  27.085  1.00  0.00     0.001 A 
ATOM     30  C   UNL A   1      39.160  28.607  29.204  1.00  0.00     0.039 A 
ATOM     31  F   UNL A   1      38.905  26.447  30.073  1.00  0.00    -0.207 F 
ATOM     32  C   UNL A   1      39.611  29.468  28.206  1.00  0.00     0.003 A 
ENDBRANCH  20  26
ENDBRANCH   9  11
ENDBRANCH   8   9
ENDBRANCH   7   8
ENDBRANCH   6   7
ENDBRANCH   5   6
ENDBRANCH   4   5
ENDBRANCH   3   4
ENDBRANCH   2   3
ENDBRANCH   1   2
BRANCH   1  33
ATOM     33  C   UNL A   1      45.167  23.962  24.822  1.00  0.00     0.188 C 
BRANCH  33  34
ATOM     34  O   UNL A   1      44.310  25.083  25.001  1.00  0.00    -0.376 OA
BRANCH  34  35
ATOM     35  C   UNL A   1      44.901  26.238  25.579  1.00  0.00     0.202 C 
BRANCH  35  36
ATOM     36  C   UNL A   1      44.138  27.534  25.290  1.00  0.00     0.261 C 
BRANCH  36  37
ATOM     37  O   UNL A   1      44.420  28.622  26.185  1.00  0.00    -0.460 OA
BRANCH  37  38
ATOM     38  C   UNL A   1      45.464  29.425  25.888  1.00  0.00     0.338 C 
ATOM     39  O   UNL A   1      46.346  29.238  25.074  1.00  0.00    -0.246 OA
BRANCH  38  40
ATOM     40  C   UNL A   1      45.253  30.687  26.620  1.00  0.00     0.060 A 
ATOM     41  C   UNL A   1      46.237  31.682  26.566  1.00  0.00     0.016 A 
ATOM     42  C   UNL A   1      44.066  30.890  27.328  1.00  0.00     0.016 A 
ATOM     43  C   UNL A   1      46.039  32.888  27.236  1.00  0.00     0.010 A 
ATOM     44  C   UNL A   1      43.888  32.078  28.033  1.00  0.00     0.010 A 
ATOM     45  C   UNL A   1      44.884  33.067  28.011  1.00  0.00    -0.014 A 
BRANCH  45  46
ATOM     46  C   UNL A   1      44.829  34.170  28.994  1.00  0.00     0.031 A 
ATOM     47  C   UNL A   1      44.372  35.515  28.503  1.00  0.00     0.074 A 
ATOM     48  C   UNL A   1      45.176  33.993  30.280  1.00  0.00     0.049 A 
ATOM     49  N   UNL A   1      44.282  36.645  29.154  1.00  0.00    -0.248 NA
ATOM     50  C   UNL A   1      43.956  35.596  27.091  1.00  0.00     0.031 C 
ATOM     51  C   UNL A   1      45.582  32.726  30.885  1.00  0.00     0.029 A 
ATOM     52  N   UNL A   1      45.242  34.899  31.309  1.00  0.00    -0.354 N 
ATOM     53  C   UNL A   1      43.789  37.562  28.237  1.00  0.00     0.074 A 
ATOM     54  C   UNL A   1      43.615  36.871  26.981  1.00  0.00     0.031 C 
ATOM     55  C   UNL A   1      45.862  32.939  32.184  1.00  0.00     0.029 A 
ATOM     56  C   UNL A   1      45.682  34.357  32.491  1.00  0.00     0.049 A 
ATOM     57  H   UNL A   1      44.997  35.847  31.208  1.00  0.00     0.167 HD
ATOM     58  C   UNL A   1      43.503  38.869  28.425  1.00  0.00     0.031 A 
ATOM     59  C   UNL A   1      45.927  34.948  33.677  1.00  0.00     0.031 A 
ATOM     60  C   UNL A   1      43.710  39.570  29.659  1.00  0.00     0.049 A 
ATOM     61  C   UNL A   1      45.706  36.428  33.832  1.00  0.00     0.074 A 
ATOM     62  C   UNL A   1      43.465  40.902  29.937  1.00  0.00     0.029 A 
ATOM     63  N   UNL A   1      44.218  38.998  30.811  1.00  0.00    -0.354 N 
ATOM     64  N   UNL A   1      45.239  37.287  32.958  1.00  0.00    -0.248 NA
ATOM     65  C   UNL A   1      46.047  37.023  35.134  1.00  0.00     0.031 C 
ATOM     66  C   UNL A   1      43.869  41.148  31.252  1.00  0.00     0.029 A 
ATOM     67  C   UNL A   1      44.317  39.956  31.801  1.00  0.00     0.049 A 
ATOM     68  H   UNL A   1      44.472  38.051  30.911  1.00  0.00     0.167 HD
ATOM     69  C   UNL A   1      45.213  38.515  33.607  1.00  0.00     0.074 A 
ATOM     70  C   UNL A   1      45.707  38.293  34.950  1.00  0.00     0.031 C 
ATOM     71  C   UNL A   1      44.810  39.718  33.132  1.00  0.00     0.031 A 
BRANCH  58  72
ATOM     72  C   UNL A   1      42.955  39.633  27.261  1.00  0.00    -0.014 A 
ATOM     73  C   UNL A   1      41.571  39.712  27.044  1.00  0.00     0.009 A 
ATOM     74  C   UNL A   1      43.825  40.340  26.416  1.00  0.00     0.009 A 
ATOM     75  C   UNL A   1      41.068  40.483  25.996  1.00  0.00     0.001 A 
ATOM     76  C   UNL A   1      43.316  41.124  25.380  1.00  0.00     0.001 A 
ATOM     77  C   UNL A   1      41.940  41.194  25.171  1.00  0.00     0.000 A 
ENDBRANCH  58  72
BRANCH  59  78
ATOM     78  C   UNL A   1      46.421  34.132  34.816  1.00  0.00    -0.014 A 
ATOM     79  C   UNL A   1      47.797  33.948  35.015  1.00  0.00     0.009 A 
ATOM     80  C   UNL A   1      45.519  33.547  35.719  1.00  0.00     0.009 A 
ATOM     81  C   UNL A   1      48.260  33.191  36.094  1.00  0.00     0.001 A 
ATOM     82  C   UNL A   1      45.986  32.807  36.807  1.00  0.00     0.001 A 
ATOM     83  C   UNL A   1      47.356  32.627  36.992  1.00  0.00     0.000 A 
ENDBRANCH  59  78
BRANCH  71  84
ATOM     84  C   UNL A   1      44.859  40.900  34.055  1.00  0.00    -0.014 A 
ATOM     85  C   UNL A   1      45.997  41.715  34.119  1.00  0.00     0.009 A 
ATOM     86  C   UNL A   1      43.703  41.277  34.758  1.00  0.00     0.009 A 
ATOM     87  C   UNL A   1      45.976  42.890  34.872  1.00  0.00     0.001 A 
ATOM     88  C   UNL A   1      43.680  42.462  35.493  1.00  0.00     0.001 A 
ATOM     89  C   UNL A   1      44.816  43.267  35.549  1.00  0.00     0.000 A 
ENDBRANCH  71  84
ENDBRANCH  45  46
ENDBRANCH  38  40
ENDBRANCH  37  38
ENDBRANCH  36  37
ENDBRANCH  35  36
ENDBRANCH  34  35
ENDBRANCH  33  34
ENDBRANCH   1  33
TORSDOF 21
ENDMDL
MODEL 3
REMARK VINA RESULT:      -8.8     12.150     15.729
REMARK SMILES Cc1ccc(C(=O)OCCOCCOCCOCCOC(=O)c2ccc(-c3c4nc(c(-c5ccccc5)c5ccc([nH]5)c(-c5ccccc5)c5nc(c(-c6ccccc6)c6ccc3[nH]6)C=C5)C=C4)cc2)c2c1N[C@H](c1ccccc1F)[C@H]1CC=C[C@@H]21
REMARK SMILES IDX 15 1 14 2 13 3 12 4 11 5 10 6 9 7 8 8 6 9 7 10 5 11 1 12
REMARK SMILES IDX 2 13 3 14 72 15 4 16 71 17 73 18 86 19 74 20 82 22 85 23
REMARK SMILES IDX 83 24 84 25 75 26 76 27 80 28 77 29 79 30 81 31 78 32 16 33
REMARK SMILES IDX 17 34 18 35 19 36 20 37 21 38 22 39 23 40 24 41 70 42 25 43
REMARK SMILES IDX 69 44 26 45 27 46 28 47 63 48 29 49 68 50 62 51 64 52 30 53
REMARK SMILES IDX 67 54 61 55 60 56 31 58 53 59 38 60 52 61 39 62 42 63 51 64
REMARK SMILES IDX 65 65 40 66 41 67 50 69 66 70 43 71 32 72 33 73 37 74 34 75
REMARK SMILES IDX 36 76 35 77 54 78 55 79 59 80 56 81 58 82 57 83 44 84 45 85
REMARK SMILES IDX 49 86 46 87 48 88 47 89
REMARK H PARENT 73 21 64 57 42 68
REMARK Flexibility Score: inf
ROOT
ATOM      1  C   UNL A   1      34.529  33.157  33.382  1.00  0.00     0.188 C 
ENDROOT
BRANCH   1   2
ATOM      2  O   UNL A   1      33.916  34.384  33.012  1.00  0.00    -0.377 OA
BRANCH   2   3
ATOM      3  C   UNL A   1      34.530  35.602  33.398  1.00  0.00     0.188 C 
BRANCH   3   4
ATOM      4  C   UNL A   1      33.745  36.915  33.222  1.00  0.00     0.188 C 
BRANCH   4   5
ATOM      5  O   UNL A   1      32.824  36.942  32.135  1.00  0.00    -0.376 OA
BRANCH   5   6
ATOM      6  C   UNL A   1      33.420  36.824  30.847  1.00  0.00     0.202 C 
BRANCH   6   7
ATOM      7  C   UNL A   1      32.680  35.839  29.942  1.00  0.00     0.261 C 
BRANCH   7   8
ATOM      8  O   UNL A   1      33.400  34.614  29.722  1.00  0.00    -0.460 OA
BRANCH   8   9
ATOM      9  C   UNL A   1      34.065  34.494  28.548  1.00  0.00     0.338 C 
ATOM     10  O   UNL A   1      34.579  35.405  27.926  1.00  0.00    -0.246 OA
BRANCH   9  11
ATOM     11  C   UNL A   1      34.066  33.056  28.161  1.00  0.00     0.065 A 
ATOM     12  C   UNL A   1      33.657  28.954  26.891  1.00  0.00     0.046 C 
ATOM     13  C   UNL A   1      33.823  30.371  27.377  1.00  0.00    -0.028 A 
ATOM     14  C   UNL A   1      32.785  31.275  27.128  1.00  0.00     0.006 A 
ATOM     15  C   UNL A   1      35.001  30.809  28.025  1.00  0.00     0.042 A 
ATOM     16  C   UNL A   1      32.910  32.606  27.506  1.00  0.00     0.016 A 
ATOM     17  C   UNL A   1      35.119  32.154  28.461  1.00  0.00    -0.003 A 
ATOM     18  N   UNL A   1      36.033  29.909  28.252  1.00  0.00    -0.377 N 
ATOM     19  C   UNL A   1      36.271  32.511  29.387  1.00  0.00     0.050 C 
ATOM     20  C   UNL A   1      37.356  30.396  28.608  1.00  0.00     0.117 C 
ATOM     21  H   UNL A   1      35.870  28.940  28.173  1.00  0.00     0.161 HD
ATOM     22  C   UNL A   1      37.190  31.332  29.813  1.00  0.00     0.031 C 
ATOM     23  C   UNL A   1      37.285  33.513  28.915  1.00  0.00    -0.023 C 
ATOM     24  C   UNL A   1      38.500  32.015  30.242  1.00  0.00     0.034 C 
ATOM     25  C   UNL A   1      38.499  33.260  29.419  1.00  0.00    -0.030 C 
BRANCH  20  26
ATOM     26  C   UNL A   1      38.278  29.198  28.717  1.00  0.00     0.010 A 
ATOM     27  C   UNL A   1      38.210  28.426  29.896  1.00  0.00     0.009 A 
ATOM     28  C   UNL A   1      39.215  28.827  27.751  1.00  0.00     0.128 A 
ATOM     29  C   UNL A   1      39.041  27.321  30.087  1.00  0.00     0.001 A 
ATOM     30  C   UNL A   1      40.045  27.720  27.934  1.00  0.00     0.039 A 
ATOM     31  F   UNL A   1      39.342  29.523  26.613  1.00  0.00    -0.207 F 
ATOM     32  C   UNL A   1      39.959  26.966  29.103  1.00  0.00     0.003 A 
ENDBRANCH  20  26
ENDBRANCH   9  11
ENDBRANCH   8   9
ENDBRANCH   7   8
ENDBRANCH   6   7
ENDBRANCH   5   6
ENDBRANCH   4   5
ENDBRANCH   3   4
ENDBRANCH   2   3
ENDBRANCH   1   2
BRANCH   1  33
ATOM     33  C   UNL A   1      36.011  32.899  33.045  1.00  0.00     0.188 C 
BRANCH  33  34
ATOM     34  O   UNL A   1      36.458  31.576  33.316  1.00  0.00    -0.376 OA
BRANCH  34  35
ATOM     35  C   UNL A   1      37.804  31.446  33.748  1.00  0.00     0.202 C 
BRANCH  35  36
ATOM     36  C   UNL A   1      37.950  31.202  35.253  1.00  0.00     0.261 C 
BRANCH  36  37
ATOM     37  O   UNL A   1      37.660  32.335  36.087  1.00  0.00    -0.460 OA
BRANCH  37  38
ATOM     38  C   UNL A   1      37.761  32.174  37.423  1.00  0.00     0.338 C 
ATOM     39  O   UNL A   1      37.451  31.204  38.087  1.00  0.00    -0.246 OA
BRANCH  38  40
ATOM     40  C   UNL A   1      38.491  33.345  37.941  1.00  0.00     0.060 A 
ATOM     41  C   UNL A   1      38.912  34.339  37.047  1.00  0.00     0.016 A 
ATOM     42  C   UNL A   1      38.727  33.467  39.312  1.00  0.00     0.016 A 
ATOM     43  C   UNL A   1      39.584  35.461  37.528  1.00  0.00     0.010 A 
ATOM     44  C   UNL A   1      39.437  34.567  39.786  1.00  0.00     0.010 A 
ATOM     45  C   UNL A   1      39.892  35.552  38.893  1.00  0.00    -0.014 A 
BRANCH  45  46
ATOM     46  C   UNL A   1      40.894  36.535  39.351  1.00  0.00     0.031 A 
ATOM     47  C   UNL A   1      42.337  36.114  39.339  1.00  0.00     0.074 A 
ATOM     48  C   UNL A   1      40.544  37.763  39.772  1.00  0.00     0.049 A 
ATOM     49  N   UNL A   1      43.394  36.774  39.733  1.00  0.00    -0.248 NA
ATOM     50  C   UNL A   1      42.628  34.771  38.805  1.00  0.00     0.031 C 
ATOM     51  C   UNL A   1      39.187  38.305  39.779  1.00  0.00     0.029 A 
ATOM     52  N   UNL A   1      41.319  38.776  40.280  1.00  0.00    -0.354 N 
ATOM     53  C   UNL A   1      44.470  35.934  39.484  1.00  0.00     0.074 A 
ATOM     54  C   UNL A   1      43.945  34.711  38.923  1.00  0.00     0.031 C 
ATOM     55  C   UNL A   1      39.225  39.555  40.275  1.00  0.00     0.029 A 
ATOM     56  C   UNL A   1      40.600  39.886  40.645  1.00  0.00     0.049 A 
ATOM     57  H   UNL A   1      42.297  38.711  40.373  1.00  0.00     0.167 HD
ATOM     58  C   UNL A   1      45.783  36.162  39.701  1.00  0.00     0.031 A 
ATOM     59  C   UNL A   1      41.008  41.031  41.229  1.00  0.00     0.031 A 
ATOM     60  C   UNL A   1      46.306  37.359  40.294  1.00  0.00     0.049 A 
ATOM     61  C   UNL A   1      42.463  41.218  41.562  1.00  0.00     0.074 A 
ATOM     62  C   UNL A   1      47.625  37.671  40.569  1.00  0.00     0.029 A 
ATOM     63  N   UNL A   1      45.537  38.431  40.708  1.00  0.00    -0.354 N 
ATOM     64  N   UNL A   1      43.474  40.417  41.322  1.00  0.00    -0.248 NA
ATOM     65  C   UNL A   1      42.837  42.464  42.251  1.00  0.00     0.031 C 
ATOM     66  C   UNL A   1      47.649  38.920  41.194  1.00  0.00     0.029 A 
ATOM     67  C   UNL A   1      46.351  39.401  41.260  1.00  0.00     0.049 A 
ATOM     68  H   UNL A   1      44.557  38.493  40.624  1.00  0.00     0.167 HD
ATOM     69  C   UNL A   1      44.600  41.067  41.810  1.00  0.00     0.074 A 
ATOM     70  C   UNL A   1      44.154  42.331  42.358  1.00  0.00     0.031 C 
ATOM     71  C   UNL A   1      45.890  40.654  41.799  1.00  0.00     0.031 A 
BRANCH  58  72
ATOM     72  C   UNL A   1      46.747  35.084  39.316  1.00  0.00    -0.014 A 
ATOM     73  C   UNL A   1      47.092  34.074  40.227  1.00  0.00     0.009 A 
ATOM     74  C   UNL A   1      47.259  35.036  38.010  1.00  0.00     0.009 A 
ATOM     75  C   UNL A   1      47.938  33.036  39.837  1.00  0.00     0.001 A 
ATOM     76  C   UNL A   1      48.090  33.986  37.619  1.00  0.00     0.001 A 
ATOM     77  C   UNL A   1      48.429  32.989  38.532  1.00  0.00     0.000 A 
ENDBRANCH  58  72
BRANCH  59  78
ATOM     78  C   UNL A   1      40.016  42.091  41.542  1.00  0.00    -0.014 A 
ATOM     79  C   UNL A   1      39.836  43.175  40.672  1.00  0.00     0.009 A 
ATOM     80  C   UNL A   1      39.233  42.013  42.705  1.00  0.00     0.009 A 
ATOM     81  C   UNL A   1      38.893  44.165  40.962  1.00  0.00     0.001 A 
ATOM     82  C   UNL A   1      38.278  42.994  42.983  1.00  0.00     0.001 A 
ATOM     83  C   UNL A   1      38.112  44.071  42.113  1.00  0.00     0.000 A 
ENDBRANCH  59  78
BRANCH  71  84
ATOM     84  C   UNL A   1      46.934  41.565  42.375  1.00  0.00    -0.014 A 
ATOM     85  C   UNL A   1      47.342  41.437  43.710  1.00  0.00     0.009 A 
ATOM     86  C   UNL A   1      47.611  42.460  41.533  1.00  0.00     0.009 A 
ATOM     87  C   UNL A   1      48.412  42.193  44.191  1.00  0.00     0.001 A 
ATOM     88  C   UNL A   1      48.693  43.199  42.012  1.00  0.00     0.001 A 
ATOM     89  C   UNL A   1      49.092  43.064  43.341  1.00  0.00     0.000 A 
ENDBRANCH  71  84
ENDBRANCH  45  46
ENDBRANCH  38  40
ENDBRANCH  37  38
ENDBRANCH  36  37
ENDBRANCH  35  36
ENDBRANCH  34  35
ENDBRANCH  33  34
ENDBRANCH   1  33
TORSDOF 21
ENDMDL
