MODEL 1
REMARK VINA RESULT:     -10.7      0.000      0.000
REMARK SMILES O=C(OCCOCCOCCOCCOC(=O)c1ccc(-c2c3nc(c(-c4ccccc4)c4ccc([nH]4)c(-c4ccccc4)c4nc(c(-c5ccccc5)c5ccc2[nH]5)C=C4)C=C3)cc1)C1=Cc2cc(Cl)cc(Cl)c2O[C@@H]1C(F)(F)F
REMARK SMILES IDX 10 1 9 2 8 3 7 4 6 5 5 6 4 7 3 8 2 9 1 10 66 11 67 12 77 13
REMARK SMILES IDX 68 14 76 15 69 16 75 17 70 18 73 19 71 20 72 21 74 22 78 23
REMARK SMILES IDX 79 24 80 25 81 26 11 27 12 28 13 29 14 30 15 31 16 32 17 33
REMARK SMILES IDX 18 34 19 35 65 36 20 37 64 38 21 39 22 40 23 41 58 42 24 43
REMARK SMILES IDX 63 44 57 45 59 46 25 47 62 48 56 49 55 50 26 52 48 53 33 54
REMARK SMILES IDX 47 55 34 56 37 57 46 58 60 59 35 60 36 61 45 63 61 64 38 65
REMARK SMILES IDX 27 66 28 67 32 68 29 69 31 70 30 71 49 72 50 73 54 74 51 75
REMARK SMILES IDX 53 76 52 77 39 78 40 79 44 80 41 81 43 82 42 83
REMARK H PARENT 59 51 37 62
REMARK Flexibility Score: inf
ROOT
ATOM      1  C   UNL A   1      29.231  31.119  23.891  1.00  0.00     0.188 C 
ENDROOT
BRANCH   1   2
ATOM      2  O   UNL A   1      29.108  31.338  22.505  1.00  0.00    -0.377 OA
BRANCH   2   3
ATOM      3  C   UNL A   1      28.050  30.599  21.935  1.00  0.00     0.188 C 
BRANCH   3   4
ATOM      4  C   UNL A   1      27.420  29.550  22.861  1.00  0.00     0.188 C 
BRANCH   4   5
ATOM      5  O   UNL A   1      27.892  28.175  22.942  1.00  0.00    -0.376 OA
BRANCH   5   6
ATOM      6  C   UNL A   1      29.237  27.470  23.500  1.00  0.00     0.202 C 
BRANCH   6   7
ATOM      7  C   UNL A   1      30.983  26.750  22.415  1.00  0.00     0.261 C 
BRANCH   7   8
ATOM      8  O   UNL A   1      31.495  25.295  22.381  1.00  0.00    -0.460 OA
BRANCH   8   9
ATOM      9  C   UNL A   1      32.805  25.191  22.636  1.00  0.00     0.338 C 
ATOM     10  O   UNL A   1      33.749  25.244  21.894  1.00  0.00    -0.246 OA
BRANCH   9  11
ATOM     11  C   UNL A   1      32.640  24.652  23.963  1.00  0.00     0.087 C 
ATOM     12  C   UNL A   1      32.466  23.177  23.926  1.00  0.00     0.027 C 
ATOM     13  C   UNL A   1      34.148  25.572  24.757  1.00  0.00     0.316 C 
ATOM     14  C   UNL A   1      33.739  22.006  24.471  1.00  0.00     0.020 A 
ATOM     15  O   UNL A   1      35.551  24.329  25.249  1.00  0.00    -0.474 OA
ATOM     16  C   UNL A   1      33.524  20.661  24.322  1.00  0.00     0.032 A 
ATOM     17  C   UNL A   1      35.291  22.534  25.036  1.00  0.00     0.146 A 
ATOM     18  C   UNL A   1      34.613  19.837  24.668  1.00  0.00     0.043 A 
ATOM     19  C   UNL A   1      36.302  21.645  25.305  1.00  0.00     0.085 A 
ATOM     20  Cl  UNL A   1      34.382  18.126  24.491  1.00  0.00    -0.084 Cl
ATOM     21  C   UNL A   1      35.916  20.294  25.128  1.00  0.00     0.045 A 
ATOM     22  Cl  UNL A   1      37.896  22.046  25.737  1.00  0.00    -0.080 Cl
BRANCH  13  23
ATOM     23  C   UNL A   1      33.327  26.642  25.643  1.00  0.00     0.430 C 
ATOM     24  F   UNL A   1      32.551  26.150  26.625  1.00  0.00    -0.167 F 
ATOM     25  F   UNL A   1      34.258  27.404  26.293  1.00  0.00    -0.167 F 
ATOM     26  F   UNL A   1      32.601  27.532  24.928  1.00  0.00    -0.167 F 
ENDBRANCH  13  23
ENDBRANCH   9  11
ENDBRANCH   8   9
ENDBRANCH   7   8
ENDBRANCH   6   7
ENDBRANCH   5   6
ENDBRANCH   4   5
ENDBRANCH   3   4
ENDBRANCH   2   3
ENDBRANCH   1   2
BRANCH   1  27
ATOM     27  C   UNL A   1      30.594  30.606  24.363  1.00  0.00     0.188 C 
BRANCH  27  28
ATOM     28  O   UNL A   1      31.074  30.837  25.678  1.00  0.00    -0.376 OA
BRANCH  28  29
ATOM     29  C   UNL A   1      31.119  32.146  26.226  1.00  0.00     0.202 C 
BRANCH  29  30
ATOM     30  C   UNL A   1      32.114  32.501  27.342  1.00  0.00     0.261 C 
BRANCH  30  31
ATOM     31  O   UNL A   1      32.449  33.891  27.445  1.00  0.00    -0.460 OA
BRANCH  31  32
ATOM     32  C   UNL A   1      33.014  34.274  28.611  1.00  0.00     0.338 C 
ATOM     33  O   UNL A   1      32.528  34.990  29.470  1.00  0.00    -0.246 OA
BRANCH  32  34
ATOM     34  C   UNL A   1      34.285  33.544  28.804  1.00  0.00     0.060 A 
ATOM     35  C   UNL A   1      34.362  32.601  29.842  1.00  0.00     0.016 A 
ATOM     36  C   UNL A   1      35.397  33.805  28.002  1.00  0.00     0.016 A 
ATOM     37  C   UNL A   1      35.558  31.939  30.107  1.00  0.00     0.010 A 
ATOM     38  C   UNL A   1      36.607  33.177  28.296  1.00  0.00     0.010 A 
ATOM     39  C   UNL A   1      36.699  32.277  29.375  1.00  0.00    -0.014 A 
BRANCH  39  40
ATOM     40  C   UNL A   1      38.039  31.931  29.896  1.00  0.00     0.031 A 
ATOM     41  C   UNL A   1      38.679  30.675  29.377  1.00  0.00     0.074 A 
ATOM     42  C   UNL A   1      38.650  32.672  30.833  1.00  0.00     0.049 A 
ATOM     43  N   UNL A   1      39.750  30.053  29.793  1.00  0.00    -0.248 NA
ATOM     44  C   UNL A   1      37.999  30.026  28.244  1.00  0.00     0.031 C 
ATOM     45  C   UNL A   1      38.155  33.936  31.369  1.00  0.00     0.029 A 
ATOM     46  N   UNL A   1      39.812  32.436  31.524  1.00  0.00    -0.354 N 
ATOM     47  C   UNL A   1      39.850  28.920  28.996  1.00  0.00     0.074 A 
ATOM     48  C   UNL A   1      38.728  28.934  28.085  1.00  0.00     0.031 C 
ATOM     49  C   UNL A   1      38.990  34.349  32.339  1.00  0.00     0.029 A 
ATOM     50  C   UNL A   1      40.043  33.350  32.521  1.00  0.00     0.049 A 
ATOM     51  H   UNL A   1      40.418  31.686  31.324  1.00  0.00     0.167 HD
ATOM     52  C   UNL A   1      40.789  27.945  29.030  1.00  0.00     0.031 A 
ATOM     53  C   UNL A   1      40.969  33.349  33.500  1.00  0.00     0.031 A 
ATOM     54  C   UNL A   1      41.881  27.924  29.964  1.00  0.00     0.049 A 
ATOM     55  C   UNL A   1      41.961  32.218  33.578  1.00  0.00     0.074 A 
ATOM     56  C   UNL A   1      42.902  26.998  30.076  1.00  0.00     0.029 A 
ATOM     57  N   UNL A   1      42.081  28.867  30.962  1.00  0.00    -0.354 N 
ATOM     58  N   UNL A   1      42.070  31.159  32.811  1.00  0.00    -0.248 NA
ATOM     59  C   UNL A   1      42.961  32.283  34.653  1.00  0.00     0.031 C 
ATOM     60  C   UNL A   1      43.676  27.341  31.189  1.00  0.00     0.029 A 
ATOM     61  C   UNL A   1      43.188  28.527  31.717  1.00  0.00     0.049 A 
ATOM     62  H   UNL A   1      41.519  29.662  31.109  1.00  0.00     0.167 HD
ATOM     63  C   UNL A   1      43.167  30.451  33.289  1.00  0.00     0.074 A 
ATOM     64  C   UNL A   1      43.690  31.202  34.411  1.00  0.00     0.031 C 
ATOM     65  C   UNL A   1      43.697  29.289  32.832  1.00  0.00     0.031 A 
BRANCH  52  66
ATOM     66  C   UNL A   1      40.612  26.791  28.081  1.00  0.00    -0.014 A 
ATOM     67  C   UNL A   1      39.941  25.616  28.460  1.00  0.00     0.009 A 
ATOM     68  C   UNL A   1      41.152  26.875  26.788  1.00  0.00     0.009 A 
ATOM     69  C   UNL A   1      39.868  24.530  27.585  1.00  0.00     0.001 A 
ATOM     70  C   UNL A   1      41.043  25.802  25.902  1.00  0.00     0.001 A 
ATOM     71  C   UNL A   1      40.417  24.625  26.307  1.00  0.00     0.000 A 
ENDBRANCH  52  66
BRANCH  53  72
ATOM     72  C   UNL A   1      40.966  34.442  34.508  1.00  0.00    -0.014 A 
ATOM     73  C   UNL A   1      41.750  35.590  34.325  1.00  0.00     0.009 A 
ATOM     74  C   UNL A   1      40.146  34.355  35.646  1.00  0.00     0.009 A 
ATOM     75  C   UNL A   1      41.719  36.624  35.264  1.00  0.00     0.001 A 
ATOM     76  C   UNL A   1      40.095  35.403  36.567  1.00  0.00     0.001 A 
ATOM     77  C   UNL A   1      40.885  36.535  36.377  1.00  0.00     0.000 A 
ENDBRANCH  53  72
BRANCH  65  78
ATOM     78  C   UNL A   1      44.942  28.775  33.503  1.00  0.00    -0.014 A 
ATOM     79  C   UNL A   1      46.222  29.182  33.096  1.00  0.00     0.009 A 
ATOM     80  C   UNL A   1      44.821  27.930  34.618  1.00  0.00     0.009 A 
ATOM     81  C   UNL A   1      47.354  28.733  33.782  1.00  0.00     0.001 A 
ATOM     82  C   UNL A   1      45.951  27.512  35.321  1.00  0.00     0.001 A 
ATOM     83  C   UNL A   1      47.218  27.908  34.898  1.00  0.00     0.000 A 
ENDBRANCH  65  78
ENDBRANCH  39  40
ENDBRANCH  32  34
ENDBRANCH  31  32
ENDBRANCH  30  31
ENDBRANCH  29  30
ENDBRANCH  28  29
ENDBRANCH  27  28
ENDBRANCH   1  27
TORSDOF 21
ENDMDL
MODEL 2
REMARK VINA RESULT:     -10.0      2.864      8.119
REMARK SMILES O=C(OCCOCCOCCOCCOC(=O)c1ccc(-c2c3nc(c(-c4ccccc4)c4ccc([nH]4)c(-c4ccccc4)c4nc(c(-c5ccccc5)c5ccc2[nH]5)C=C4)C=C3)cc1)C1=Cc2cc(Cl)cc(Cl)c2O[C@@H]1C(F)(F)F
REMARK SMILES IDX 10 1 9 2 8 3 7 4 6 5 5 6 4 7 3 8 2 9 1 10 66 11 67 12 77 13
REMARK SMILES IDX 68 14 76 15 69 16 75 17 70 18 73 19 71 20 72 21 74 22 78 23
REMARK SMILES IDX 79 24 80 25 81 26 11 27 12 28 13 29 14 30 15 31 16 32 17 33
REMARK SMILES IDX 18 34 19 35 65 36 20 37 64 38 21 39 22 40 23 41 58 42 24 43
REMARK SMILES IDX 63 44 57 45 59 46 25 47 62 48 56 49 55 50 26 52 48 53 33 54
REMARK SMILES IDX 47 55 34 56 37 57 46 58 60 59 35 60 36 61 45 63 61 64 38 65
REMARK SMILES IDX 27 66 28 67 32 68 29 69 31 70 30 71 49 72 50 73 54 74 51 75
REMARK SMILES IDX 53 76 52 77 39 78 40 79 44 80 41 81 43 82 42 83
REMARK H PARENT 59 51 37 62
REMARK Flexibility Score: inf
ROOT
ATOM      1  C   UNL A   1      35.227  23.332  26.808  1.00  0.00     0.188 C 
ENDROOT
BRANCH   1   2
ATOM      2  O   UNL A   1      33.958  22.844  27.178  1.00  0.00    -0.377 OA
BRANCH   2   3
ATOM      3  C   UNL A   1      33.936  21.438  27.301  1.00  0.00     0.188 C 
BRANCH   3   4
ATOM      4  C   UNL A   1      32.911  20.727  26.407  1.00  0.00     0.188 C 
BRANCH   4   5
ATOM      5  O   UNL A   1      33.232  20.210  25.085  1.00  0.00    -0.376 OA
BRANCH   5   6
ATOM      6  C   UNL A   1      32.512  20.276  23.638  1.00  0.00     0.202 C 
BRANCH   6   7
ATOM      7  C   UNL A   1      31.632  21.975  22.596  1.00  0.00     0.261 C 
BRANCH   7   8
ATOM      8  O   UNL A   1      30.698  23.036  23.215  1.00  0.00    -0.460 OA
BRANCH   8   9
ATOM      9  C   UNL A   1      31.264  23.714  24.220  1.00  0.00     0.338 C 
ATOM     10  O   UNL A   1      31.037  23.689  25.401  1.00  0.00    -0.246 OA
BRANCH   9  11
ATOM     11  C   UNL A   1      31.922  24.680  23.376  1.00  0.00     0.087 C 
ATOM     12  C   UNL A   1      31.024  25.825  23.070  1.00  0.00     0.027 C 
ATOM     13  C   UNL A   1      33.553  24.796  24.412  1.00  0.00     0.316 C 
ATOM     14  C   UNL A   1      31.240  27.481  23.777  1.00  0.00     0.020 A 
ATOM     15  O   UNL A   1      33.733  26.534  25.250  1.00  0.00    -0.474 OA
ATOM     16  C   UNL A   1      30.315  28.454  23.505  1.00  0.00     0.032 A 
ATOM     17  C   UNL A   1      32.497  27.836  24.917  1.00  0.00     0.146 A 
ATOM     18  C   UNL A   1      30.504  29.671  24.189  1.00  0.00     0.043 A 
ATOM     19  C   UNL A   1      32.566  29.046  25.561  1.00  0.00     0.085 A 
ATOM     20  Cl  UNL A   1      29.352  30.929  23.874  1.00  0.00    -0.084 Cl
ATOM     21  C   UNL A   1      31.558  29.952  25.154  1.00  0.00     0.045 A 
ATOM     22  Cl  UNL A   1      33.668  29.464  26.786  1.00  0.00    -0.080 Cl
BRANCH  13  23
ATOM     23  C   UNL A   1      34.529  24.006  23.398  1.00  0.00     0.430 C 
ATOM     24  F   UNL A   1      34.387  24.272  22.088  1.00  0.00    -0.167 F 
ATOM     25  F   UNL A   1      35.803  24.408  23.692  1.00  0.00    -0.167 F 
ATOM     26  F   UNL A   1      34.551  22.663  23.562  1.00  0.00    -0.167 F 
ENDBRANCH  13  23
ENDBRANCH   9  11
ENDBRANCH   8   9
ENDBRANCH   7   8
ENDBRANCH   6   7
ENDBRANCH   5   6
ENDBRANCH   4   5
ENDBRANCH   3   4
ENDBRANCH   2   3
ENDBRANCH   1   2
BRANCH   1  27
ATOM     27  C   UNL A   1      36.279  22.268  26.486  1.00  0.00     0.188 C 
BRANCH  27  28
ATOM     28  O   UNL A   1      37.372  22.525  25.619  1.00  0.00    -0.376 OA
BRANCH  28  29
ATOM     29  C   UNL A   1      38.285  21.499  25.259  1.00  0.00     0.202 C 
BRANCH  29  30
ATOM     30  C   UNL A   1      39.536  21.221  26.107  1.00  0.00     0.261 C 
BRANCH  30  31
ATOM     31  O   UNL A   1      39.891  22.258  27.032  1.00  0.00    -0.460 OA
BRANCH  31  32
ATOM     32  C   UNL A   1      40.848  23.114  26.613  1.00  0.00     0.338 C 
ATOM     33  O   UNL A   1      41.755  22.885  25.831  1.00  0.00    -0.246 OA
BRANCH  32  34
ATOM     34  C   UNL A   1      40.545  24.472  27.111  1.00  0.00     0.060 A 
ATOM     35  C   UNL A   1      41.357  25.536  26.682  1.00  0.00     0.016 A 
ATOM     36  C   UNL A   1      39.504  24.696  28.012  1.00  0.00     0.016 A 
ATOM     37  C   UNL A   1      41.154  26.822  27.178  1.00  0.00     0.010 A 
ATOM     38  C   UNL A   1      39.330  25.975  28.543  1.00  0.00     0.010 A 
ATOM     39  C   UNL A   1      40.182  27.028  28.160  1.00  0.00    -0.014 A 
BRANCH  39  40
ATOM     40  C   UNL A   1      40.228  28.243  29.000  1.00  0.00     0.031 A 
ATOM     41  C   UNL A   1      41.280  28.304  30.070  1.00  0.00     0.074 A 
ATOM     42  C   UNL A   1      39.341  29.240  28.857  1.00  0.00     0.049 A 
ATOM     43  N   UNL A   1      41.424  29.158  31.048  1.00  0.00    -0.248 NA
ATOM     44  C   UNL A   1      42.294  27.237  30.039  1.00  0.00     0.031 C 
ATOM     45  C   UNL A   1      38.315  29.319  27.821  1.00  0.00     0.029 A 
ATOM     46  N   UNL A   1      39.146  30.363  29.621  1.00  0.00    -0.354 N 
ATOM     47  C   UNL A   1      42.524  28.710  31.769  1.00  0.00     0.074 A 
ATOM     48  C   UNL A   1      42.997  27.505  31.126  1.00  0.00     0.031 C 
ATOM     49  C   UNL A   1      37.569  30.416  28.037  1.00  0.00     0.029 A 
ATOM     50  C   UNL A   1      38.035  31.081  29.254  1.00  0.00     0.049 A 
ATOM     51  H   UNL A   1      39.743  30.626  30.358  1.00  0.00     0.167 HD
ATOM     52  C   UNL A   1      43.081  29.248  32.879  1.00  0.00     0.031 A 
ATOM     53  C   UNL A   1      37.437  32.122  29.863  1.00  0.00     0.031 A 
ATOM     54  C   UNL A   1      42.580  30.428  33.530  1.00  0.00     0.049 A 
ATOM     55  C   UNL A   1      38.019  32.665  31.142  1.00  0.00     0.074 A 
ATOM     56  C   UNL A   1      43.077  31.074  34.647  1.00  0.00     0.029 A 
ATOM     57  N   UNL A   1      41.450  31.127  33.129  1.00  0.00    -0.354 N 
ATOM     58  N   UNL A   1      39.071  32.255  31.811  1.00  0.00    -0.248 NA
ATOM     59  C   UNL A   1      37.336  33.817  31.748  1.00  0.00     0.031 C 
ATOM     60  C   UNL A   1      42.205  32.118  34.965  1.00  0.00     0.029 A 
ATOM     61  C   UNL A   1      41.213  32.176  33.998  1.00  0.00     0.049 A 
ATOM     62  H   UNL A   1      40.900  30.908  32.343  1.00  0.00     0.167 HD
ATOM     63  C   UNL A   1      39.195  33.117  32.896  1.00  0.00     0.074 A 
ATOM     64  C   UNL A   1      38.111  34.072  32.793  1.00  0.00     0.031 C 
ATOM     65  C   UNL A   1      40.128  33.120  33.880  1.00  0.00     0.031 A 
BRANCH  52  66
ATOM     66  C   UNL A   1      44.239  28.508  33.491  1.00  0.00    -0.014 A 
ATOM     67  C   UNL A   1      45.569  28.787  33.133  1.00  0.00     0.009 A 
ATOM     68  C   UNL A   1      43.989  27.494  34.428  1.00  0.00     0.009 A 
ATOM     69  C   UNL A   1      46.616  28.025  33.655  1.00  0.00     0.001 A 
ATOM     70  C   UNL A   1      45.041  26.760  34.978  1.00  0.00     0.001 A 
ATOM     71  C   UNL A   1      46.352  27.014  34.578  1.00  0.00     0.000 A 
ENDBRANCH  52  66
BRANCH  53  72
ATOM     72  C   UNL A   1      36.189  32.687  29.284  1.00  0.00    -0.014 A 
ATOM     73  C   UNL A   1      36.217  33.876  28.540  1.00  0.00     0.009 A 
ATOM     74  C   UNL A   1      34.965  32.016  29.446  1.00  0.00     0.009 A 
ATOM     75  C   UNL A   1      35.044  34.383  27.975  1.00  0.00     0.001 A 
ATOM     76  C   UNL A   1      33.801  32.511  28.856  1.00  0.00     0.001 A 
ATOM     77  C   UNL A   1      33.840  33.697  28.124  1.00  0.00     0.000 A 
ENDBRANCH  53  72
BRANCH  65  78
ATOM     78  C   UNL A   1      40.063  34.222  34.904  1.00  0.00    -0.014 A 
ATOM     79  C   UNL A   1      39.355  34.073  36.106  1.00  0.00     0.009 A 
ATOM     80  C   UNL A   1      40.797  35.400  34.690  1.00  0.00     0.009 A 
ATOM     81  C   UNL A   1      39.367  35.092  37.061  1.00  0.00     0.001 A 
ATOM     82  C   UNL A   1      40.834  36.402  35.660  1.00  0.00     0.001 A 
ATOM     83  C   UNL A   1      40.113  36.250  36.842  1.00  0.00     0.000 A 
ENDBRANCH  65  78
ENDBRANCH  39  40
ENDBRANCH  32  34
ENDBRANCH  31  32
ENDBRANCH  30  31
ENDBRANCH  29  30
ENDBRANCH  28  29
ENDBRANCH  27  28
ENDBRANCH   1  27
TORSDOF 21
ENDMDL
MODEL 3
REMARK VINA RESULT:      -9.9      4.277      9.545
REMARK SMILES O=C(OCCOCCOCCOCCOC(=O)c1ccc(-c2c3nc(c(-c4ccccc4)c4ccc([nH]4)c(-c4ccccc4)c4nc(c(-c5ccccc5)c5ccc2[nH]5)C=C4)C=C3)cc1)C1=Cc2cc(Cl)cc(Cl)c2O[C@@H]1C(F)(F)F
REMARK SMILES IDX 10 1 9 2 8 3 7 4 6 5 5 6 4 7 3 8 2 9 1 10 66 11 67 12 77 13
REMARK SMILES IDX 68 14 76 15 69 16 75 17 70 18 73 19 71 20 72 21 74 22 78 23
REMARK SMILES IDX 79 24 80 25 81 26 11 27 12 28 13 29 14 30 15 31 16 32 17 33
REMARK SMILES IDX 18 34 19 35 65 36 20 37 64 38 21 39 22 40 23 41 58 42 24 43
REMARK SMILES IDX 63 44 57 45 59 46 25 47 62 48 56 49 55 50 26 52 48 53 33 54
REMARK SMILES IDX 47 55 34 56 37 57 46 58 60 59 35 60 36 61 45 63 61 64 38 65
REMARK SMILES IDX 27 66 28 67 32 68 29 69 31 70 30 71 49 72 50 73 54 74 51 75
REMARK SMILES IDX 53 76 52 77 39 78 40 79 44 80 41 81 43 82 42 83
REMARK H PARENT 59 51 37 62
REMARK Flexibility Score: inf
ROOT
ATOM      1  C   UNL A   1      34.894  23.197  26.456  1.00  0.00     0.188 C 
ENDROOT
BRANCH   1   2
ATOM      2  O   UNL A   1      34.767  22.290  27.527  1.00  0.00    -0.377 OA
BRANCH   2   3
ATOM      3  C   UNL A   1      33.630  21.464  27.402  1.00  0.00     0.188 C 
BRANCH   3   4
ATOM      4  C   UNL A   1      32.513  22.031  26.515  1.00  0.00     0.188 C 
BRANCH   4   5
ATOM      5  O   UNL A   1      32.169  21.472  25.216  1.00  0.00    -0.376 OA
BRANCH   5   6
ATOM      6  C   UNL A   1      32.034  22.078  23.722  1.00  0.00     0.202 C 
BRANCH   6   7
ATOM      7  C   UNL A   1      31.487  24.086  23.078  1.00  0.00     0.261 C 
BRANCH   7   8
ATOM      8  O   UNL A   1      30.188  24.835  23.443  1.00  0.00    -0.460 OA
BRANCH   8   9
ATOM      9  C   UNL A   1      30.344  25.702  24.450  1.00  0.00     0.338 C 
ATOM     10  O   UNL A   1      29.748  25.802  25.490  1.00  0.00    -0.246 OA
BRANCH   9  11
ATOM     11  C   UNL A   1      31.167  26.623  23.709  1.00  0.00     0.087 C 
ATOM     12  C   UNL A   1      30.343  27.483  22.819  1.00  0.00     0.027 C 
ATOM     13  C   UNL A   1      32.197  27.257  25.221  1.00  0.00     0.316 C 
ATOM     14  C   UNL A   1      30.042  29.244  23.130  1.00  0.00     0.020 A 
ATOM     15  O   UNL A   1      31.799  29.112  25.616  1.00  0.00    -0.474 OA
ATOM     16  C   UNL A   1      29.200  29.938  22.302  1.00  0.00     0.032 A 
ATOM     17  C   UNL A   1      30.662  30.047  24.536  1.00  0.00     0.146 A 
ATOM     18  C   UNL A   1      28.939  31.267  22.689  1.00  0.00     0.043 A 
ATOM     19  C   UNL A   1      30.309  31.338  24.844  1.00  0.00     0.085 A 
ATOM     20  Cl  UNL A   1      27.875  32.181  21.667  1.00  0.00    -0.084 Cl
ATOM     21  C   UNL A   1      29.456  31.926  23.880  1.00  0.00     0.045 A 
ATOM     22  Cl  UNL A   1      30.745  32.184  26.252  1.00  0.00    -0.080 Cl
BRANCH  13  23
ATOM     23  C   UNL A   1      33.593  26.527  24.874  1.00  0.00     0.430 C 
ATOM     24  F   UNL A   1      34.265  26.980  23.801  1.00  0.00    -0.167 F 
ATOM     25  F   UNL A   1      34.431  26.769  25.928  1.00  0.00    -0.167 F 
ATOM     26  F   UNL A   1      33.525  25.178  24.799  1.00  0.00    -0.167 F 
ENDBRANCH  13  23
ENDBRANCH   9  11
ENDBRANCH   8   9
ENDBRANCH   7   8
ENDBRANCH   6   7
ENDBRANCH   5   6
ENDBRANCH   4   5
ENDBRANCH   3   4
ENDBRANCH   2   3
ENDBRANCH   1   2
BRANCH   1  27
ATOM     27  C   UNL A   1      36.130  23.012  25.572  1.00  0.00     0.188 C 
BRANCH  27  28
ATOM     28  O   UNL A   1      36.205  21.998  24.583  1.00  0.00    -0.376 OA
BRANCH  28  29
ATOM     29  C   UNL A   1      36.428  20.640  24.934  1.00  0.00     0.202 C 
BRANCH  29  30
ATOM     30  C   UNL A   1      37.851  20.065  24.998  1.00  0.00     0.261 C 
BRANCH  30  31
ATOM     31  O   UNL A   1      38.800  20.857  25.725  1.00  0.00    -0.460 OA
BRANCH  31  32
ATOM     32  C   UNL A   1      39.972  20.251  26.012  1.00  0.00     0.338 C 
ATOM     33  O   UNL A   1      40.278  19.091  25.795  1.00  0.00    -0.246 OA
BRANCH  32  34
ATOM     34  C   UNL A   1      40.943  21.259  26.488  1.00  0.00     0.060 A 
ATOM     35  C   UNL A   1      41.130  21.402  27.873  1.00  0.00     0.016 A 
ATOM     36  C   UNL A   1      41.633  22.076  25.593  1.00  0.00     0.016 A 
ATOM     37  C   UNL A   1      41.982  22.384  28.372  1.00  0.00     0.010 A 
ATOM     38  C   UNL A   1      42.452  23.090  26.093  1.00  0.00     0.010 A 
ATOM     39  C   UNL A   1      42.592  23.273  27.482  1.00  0.00    -0.014 A 
BRANCH  39  40
ATOM     40  C   UNL A   1      43.134  24.556  27.977  1.00  0.00     0.031 A 
ATOM     41  C   UNL A   1      42.148  25.619  28.367  1.00  0.00     0.074 A 
ATOM     42  C   UNL A   1      44.453  24.794  28.035  1.00  0.00     0.049 A 
ATOM     43  N   UNL A   1      42.350  26.877  28.656  1.00  0.00    -0.248 NA
ATOM     44  C   UNL A   1      40.737  25.202  28.416  1.00  0.00     0.031 C 
ATOM     45  C   UNL A   1      45.504  23.824  27.738  1.00  0.00     0.029 A 
ATOM     46  N   UNL A   1      45.128  25.952  28.330  1.00  0.00    -0.354 N 
ATOM     47  C   UNL A   1      41.088  27.410  28.884  1.00  0.00     0.074 A 
ATOM     48  C   UNL A   1      40.130  26.345  28.687  1.00  0.00     0.031 C 
ATOM     49  C   UNL A   1      46.696  24.439  27.829  1.00  0.00     0.029 A 
ATOM     50  C   UNL A   1      46.483  25.853  28.137  1.00  0.00     0.049 A 
ATOM     51  H   UNL A   1      44.684  26.771  28.649  1.00  0.00     0.167 HD
ATOM     52  C   UNL A   1      40.755  28.680  29.215  1.00  0.00     0.031 A 
ATOM     53  C   UNL A   1      47.433  26.808  28.157  1.00  0.00     0.031 A 
ATOM     54  C   UNL A   1      41.714  29.738  29.373  1.00  0.00     0.049 A 
ATOM     55  C   UNL A   1      47.042  28.233  28.448  1.00  0.00     0.074 A 
ATOM     56  C   UNL A   1      41.494  31.057  29.727  1.00  0.00     0.029 A 
ATOM     57  N   UNL A   1      43.080  29.600  29.167  1.00  0.00    -0.354 N 
ATOM     58  N   UNL A   1      45.852  28.733  28.686  1.00  0.00    -0.248 NA
ATOM     59  C   UNL A   1      48.125  29.227  28.478  1.00  0.00     0.031 C 
ATOM     60  C   UNL A   1      42.715  31.732  29.662  1.00  0.00     0.029 A 
ATOM     61  C   UNL A   1      43.710  30.817  29.351  1.00  0.00     0.049 A 
ATOM     62  H   UNL A   1      43.532  28.759  28.927  1.00  0.00     0.167 HD
ATOM     63  C   UNL A   1      46.047  30.088  28.927  1.00  0.00     0.074 A 
ATOM     64  C   UNL A   1      47.469  30.332  28.807  1.00  0.00     0.031 C 
ATOM     65  C   UNL A   1      45.130  31.042  29.229  1.00  0.00     0.031 A 
BRANCH  52  66
ATOM     66  C   UNL A   1      39.289  28.993  29.340  1.00  0.00    -0.014 A 
ATOM     67  C   UNL A   1      38.551  29.526  28.271  1.00  0.00     0.009 A 
ATOM     68  C   UNL A   1      38.641  28.771  30.566  1.00  0.00     0.009 A 
ATOM     69  C   UNL A   1      37.213  29.886  28.445  1.00  0.00     0.001 A 
ATOM     70  C   UNL A   1      37.293  29.096  30.725  1.00  0.00     0.001 A 
ATOM     71  C   UNL A   1      36.585  29.669  29.670  1.00  0.00     0.000 A 
ENDBRANCH  52  66
BRANCH  53  72
ATOM     72  C   UNL A   1      48.841  26.442  27.848  1.00  0.00    -0.014 A 
ATOM     73  C   UNL A   1      49.320  26.479  26.530  1.00  0.00     0.009 A 
ATOM     74  C   UNL A   1      49.723  26.086  28.882  1.00  0.00     0.009 A 
ATOM     75  C   UNL A   1      50.653  26.161  26.254  1.00  0.00     0.001 A 
ATOM     76  C   UNL A   1      51.061  25.798  28.606  1.00  0.00     0.001 A 
ATOM     77  C   UNL A   1      51.524  25.831  27.291  1.00  0.00     0.000 A 
ENDBRANCH  53  72
BRANCH  65  78
ATOM     78  C   UNL A   1      45.631  32.432  29.510  1.00  0.00    -0.014 A 
ATOM     79  C   UNL A   1      46.040  32.826  30.793  1.00  0.00     0.009 A 
ATOM     80  C   UNL A   1      45.772  33.338  28.445  1.00  0.00     0.009 A 
ATOM     81  C   UNL A   1      46.559  34.106  31.005  1.00  0.00     0.001 A 
ATOM     82  C   UNL A   1      46.322  34.603  28.654  1.00  0.00     0.001 A 
ATOM     83  C   UNL A   1      46.708  34.989  29.936  1.00  0.00     0.000 A 
ENDBRANCH  65  78
ENDBRANCH  39  40
ENDBRANCH  32  34
ENDBRANCH  31  32
ENDBRANCH  30  31
ENDBRANCH  29  30
ENDBRANCH  28  29
ENDBRANCH  27  28
ENDBRANCH   1  27
TORSDOF 21
ENDMDL
