MODEL 1
REMARK VINA RESULT:     -10.0      0.000      0.000
REMARK SMILES O=C(OCCOCCOCCOCCOC(=O)c1ccc(-c2c3nc(c(-c4ccccc4)c4ccc([nH]4)c(-c4ccccc4)c4nc(c(-c5ccccc5)c5ccc2[nH]5)C=C4)C=C3)cc1)C1=Cc2cc(C(F)(F)F)ccc2O[C@@H]1C(F)(F)F
REMARK SMILES IDX 10 1 9 2 8 3 7 4 6 5 5 6 4 7 3 8 2 9 1 10 66 11 67 12 79 13
REMARK SMILES IDX 68 14 78 15 69 16 77 17 70 18 76 19 75 20 80 21 81 22 82 23
REMARK SMILES IDX 83 24 71 25 72 26 73 27 74 28 11 29 12 30 13 31 14 32 15 33
REMARK SMILES IDX 16 34 17 35 18 36 19 37 65 38 20 39 64 40 21 41 22 42 23 43
REMARK SMILES IDX 58 44 24 45 63 46 57 47 59 48 25 49 62 50 56 51 55 52 26 54
REMARK SMILES IDX 48 55 33 56 47 57 34 58 37 59 46 60 60 61 35 62 36 63 45 65
REMARK SMILES IDX 61 66 38 67 27 68 28 69 32 70 29 71 31 72 30 73 49 74 50 75
REMARK SMILES IDX 54 76 51 77 53 78 52 79 39 80 40 81 44 82 41 83 43 84 42 85
REMARK H PARENT 59 53 37 64
REMARK Flexibility Score: inf
ROOT
ATOM      1  C   UNL A   1      32.701  29.374  26.871  1.00  0.00     0.188 C 
ENDROOT
BRANCH   1   2
ATOM      2  O   UNL A   1      33.132  28.227  26.152  1.00  0.00    -0.377 OA
BRANCH   2   3
ATOM      3  C   UNL A   1      32.100  27.441  25.572  1.00  0.00     0.188 C 
BRANCH   3   4
ATOM      4  C   UNL A   1      31.988  26.062  26.208  1.00  0.00     0.188 C 
BRANCH   4   5
ATOM      5  O   UNL A   1      30.651  25.642  26.421  1.00  0.00    -0.376 OA
BRANCH   5   6
ATOM      6  C   UNL A   1      30.235  24.383  25.916  1.00  0.00     0.202 C 
BRANCH   6   7
ATOM      7  C   UNL A   1      30.361  23.196  26.867  1.00  0.00     0.261 C 
BRANCH   7   8
ATOM      8  O   UNL A   1      31.377  22.268  26.453  1.00  0.00    -0.460 OA
BRANCH   8   9
ATOM      9  C   UNL A   1      32.658  22.633  26.695  1.00  0.00     0.338 C 
ATOM     10  O   UNL A   1      33.014  23.141  27.747  1.00  0.00    -0.246 OA
BRANCH   9  11
ATOM     11  C   UNL A   1      33.556  22.460  25.516  1.00  0.00     0.087 C 
ATOM     12  C   UNL A   1      34.222  21.291  25.570  1.00  0.00     0.027 C 
ATOM     13  C   UNL A   1      33.053  23.012  24.204  1.00  0.00     0.316 C 
ATOM     14  C   UNL A   1      33.773  20.296  24.589  1.00  0.00     0.018 A 
ATOM     15  O   UNL A   1      32.716  22.006  23.220  1.00  0.00    -0.475 OA
ATOM     16  C   UNL A   1      34.081  18.939  24.754  1.00  0.00     0.025 A 
ATOM     17  C   UNL A   1      32.942  20.695  23.542  1.00  0.00     0.128 A 
ATOM     18  C   UNL A   1      33.481  17.973  23.927  1.00  0.00     0.056 A 
ATOM     19  C   UNL A   1      32.279  19.739  22.777  1.00  0.00     0.048 A 
ATOM     20  C   UNL A   1      32.516  18.383  22.994  1.00  0.00     0.017 A 
BRANCH  13  21
ATOM     21  C   UNL A   1      33.973  24.099  23.643  1.00  0.00     0.430 C 
ATOM     22  F   UNL A   1      33.328  24.861  22.728  1.00  0.00    -0.167 F 
ATOM     23  F   UNL A   1      34.378  24.943  24.628  1.00  0.00    -0.167 F 
ATOM     24  F   UNL A   1      35.082  23.599  23.061  1.00  0.00    -0.167 F 
ENDBRANCH  13  21
BRANCH  18  25
ATOM     25  C   UNL A   1      33.922  16.529  23.944  1.00  0.00     0.416 C 
ATOM     26  F   UNL A   1      32.889  15.700  24.265  1.00  0.00    -0.166 F 
ATOM     27  F   UNL A   1      34.401  16.085  22.750  1.00  0.00    -0.166 F 
ATOM     28  F   UNL A   1      34.897  16.280  24.860  1.00  0.00    -0.166 F 
ENDBRANCH  18  25
ENDBRANCH   9  11
ENDBRANCH   8   9
ENDBRANCH   7   8
ENDBRANCH   6   7
ENDBRANCH   5   6
ENDBRANCH   4   5
ENDBRANCH   3   4
ENDBRANCH   2   3
ENDBRANCH   1   2
BRANCH   1  29
ATOM     29  C   UNL A   1      31.729  30.336  26.144  1.00  0.00     0.188 C 
BRANCH  29  30
ATOM     30  O   UNL A   1      31.477  31.670  26.569  1.00  0.00    -0.376 OA
BRANCH  30  31
ATOM     31  C   UNL A   1      32.387  32.313  27.439  1.00  0.00     0.202 C 
BRANCH  31  32
ATOM     32  C   UNL A   1      32.544  33.828  27.232  1.00  0.00     0.261 C 
BRANCH  32  33
ATOM     33  O   UNL A   1      32.159  34.635  28.361  1.00  0.00    -0.460 OA
BRANCH  33  34
ATOM     34  C   UNL A   1      33.104  35.496  28.832  1.00  0.00     0.338 C 
ATOM     35  O   UNL A   1      33.004  36.695  28.953  1.00  0.00    -0.246 OA
BRANCH  34  36
ATOM     36  C   UNL A   1      34.253  34.713  29.384  1.00  0.00     0.060 A 
ATOM     37  C   UNL A   1      34.030  33.972  30.555  1.00  0.00     0.016 A 
ATOM     38  C   UNL A   1      35.498  34.643  28.752  1.00  0.00     0.016 A 
ATOM     39  C   UNL A   1      35.045  33.181  31.105  1.00  0.00     0.010 A 
ATOM     40  C   UNL A   1      36.524  33.869  29.317  1.00  0.00     0.010 A 
ATOM     41  C   UNL A   1      36.313  33.158  30.513  1.00  0.00    -0.014 A 
BRANCH  41  42
ATOM     42  C   UNL A   1      37.470  32.612  31.274  1.00  0.00     0.031 A 
ATOM     43  C   UNL A   1      38.180  31.414  30.696  1.00  0.00     0.074 A 
ATOM     44  C   UNL A   1      37.914  33.154  32.423  1.00  0.00     0.049 A 
ATOM     45  N   UNL A   1      39.166  30.708  31.190  1.00  0.00    -0.248 NA
ATOM     46  C   UNL A   1      37.708  30.950  29.379  1.00  0.00     0.031 C 
ATOM     47  C   UNL A   1      37.376  34.351  33.068  1.00  0.00     0.029 A 
ATOM     48  N   UNL A   1      38.929  32.753  33.262  1.00  0.00    -0.354 N 
ATOM     49  C   UNL A   1      39.419  29.714  30.252  1.00  0.00     0.074 A 
ATOM     50  C   UNL A   1      38.476  29.891  29.173  1.00  0.00     0.031 C 
ATOM     51  C   UNL A   1      38.054  34.575  34.209  1.00  0.00     0.029 A 
ATOM     52  C   UNL A   1      39.050  33.520  34.397  1.00  0.00     0.049 A 
ATOM     53  H   UNL A   1      39.515  31.986  33.066  1.00  0.00     0.167 HD
ATOM     54  C   UNL A   1      40.355  28.736  30.283  1.00  0.00     0.031 A 
ATOM     55  C   UNL A   1      39.849  33.368  35.474  1.00  0.00     0.031 A 
ATOM     56  C   UNL A   1      41.293  28.543  31.354  1.00  0.00     0.049 A 
ATOM     57  C   UNL A   1      40.817  32.210  35.529  1.00  0.00     0.074 A 
ATOM     58  C   UNL A   1      42.286  27.586  31.464  1.00  0.00     0.029 A 
ATOM     59  N   UNL A   1      41.346  29.313  32.504  1.00  0.00    -0.354 N 
ATOM     60  N   UNL A   1      41.063  31.291  34.626  1.00  0.00    -0.248 NA
ATOM     61  C   UNL A   1      41.619  32.069  36.755  1.00  0.00     0.031 C 
ATOM     62  C   UNL A   1      42.897  27.735  32.712  1.00  0.00     0.029 A 
ATOM     63  C   UNL A   1      42.332  28.830  33.346  1.00  0.00     0.049 A 
ATOM     64  H   UNL A   1      40.769  30.089  32.693  1.00  0.00     0.167 HD
ATOM     65  C   UNL A   1      42.064  30.487  35.163  1.00  0.00     0.074 A 
ATOM     66  C   UNL A   1      42.396  31.037  36.459  1.00  0.00     0.031 C 
ATOM     67  C   UNL A   1      42.656  29.388  34.632  1.00  0.00     0.031 A 
BRANCH  54  68
ATOM     68  C   UNL A   1      40.383  27.765  29.136  1.00  0.00    -0.014 A 
ATOM     69  C   UNL A   1      39.616  26.590  29.152  1.00  0.00     0.009 A 
ATOM     70  C   UNL A   1      41.153  28.062  28.000  1.00  0.00     0.009 A 
ATOM     71  C   UNL A   1      39.638  25.720  28.060  1.00  0.00     0.001 A 
ATOM     72  C   UNL A   1      41.150  27.205  26.899  1.00  0.00     0.001 A 
ATOM     73  C   UNL A   1      40.398  26.032  26.932  1.00  0.00     0.000 A 
ENDBRANCH  54  68
BRANCH  55  74
ATOM     74  C   UNL A   1      39.748  34.300  36.634  1.00  0.00    -0.014 A 
ATOM     75  C   UNL A   1      40.500  35.486  36.677  1.00  0.00     0.009 A 
ATOM     76  C   UNL A   1      38.953  33.968  37.743  1.00  0.00     0.009 A 
ATOM     77  C   UNL A   1      40.485  36.296  37.816  1.00  0.00     0.001 A 
ATOM     78  C   UNL A   1      38.913  34.797  38.867  1.00  0.00     0.001 A 
ATOM     79  C   UNL A   1      39.689  35.953  38.909  1.00  0.00     0.000 A 
ENDBRANCH  55  74
BRANCH  67  80
ATOM     80  C   UNL A   1      43.747  28.728  35.430  1.00  0.00    -0.014 A 
ATOM     81  C   UNL A   1      43.456  27.838  36.475  1.00  0.00     0.009 A 
ATOM     82  C   UNL A   1      45.091  28.962  35.094  1.00  0.00     0.009 A 
ATOM     83  C   UNL A   1      44.488  27.225  37.190  1.00  0.00     0.001 A 
ATOM     84  C   UNL A   1      46.119  28.322  35.788  1.00  0.00     0.001 A 
ATOM     85  C   UNL A   1      45.817  27.463  36.842  1.00  0.00     0.000 A 
ENDBRANCH  67  80
ENDBRANCH  41  42
ENDBRANCH  34  36
ENDBRANCH  33  34
ENDBRANCH  32  33
ENDBRANCH  31  32
ENDBRANCH  30  31
ENDBRANCH  29  30
ENDBRANCH   1  29
TORSDOF 22
ENDMDL
MODEL 2
REMARK VINA RESULT:      -9.5      2.893      7.882
REMARK SMILES O=C(OCCOCCOCCOCCOC(=O)c1ccc(-c2c3nc(c(-c4ccccc4)c4ccc([nH]4)c(-c4ccccc4)c4nc(c(-c5ccccc5)c5ccc2[nH]5)C=C4)C=C3)cc1)C1=Cc2cc(C(F)(F)F)ccc2O[C@@H]1C(F)(F)F
REMARK SMILES IDX 10 1 9 2 8 3 7 4 6 5 5 6 4 7 3 8 2 9 1 10 66 11 67 12 79 13
REMARK SMILES IDX 68 14 78 15 69 16 77 17 70 18 76 19 75 20 80 21 81 22 82 23
REMARK SMILES IDX 83 24 71 25 72 26 73 27 74 28 11 29 12 30 13 31 14 32 15 33
REMARK SMILES IDX 16 34 17 35 18 36 19 37 65 38 20 39 64 40 21 41 22 42 23 43
REMARK SMILES IDX 58 44 24 45 63 46 57 47 59 48 25 49 62 50 56 51 55 52 26 54
REMARK SMILES IDX 48 55 33 56 47 57 34 58 37 59 46 60 60 61 35 62 36 63 45 65
REMARK SMILES IDX 61 66 38 67 27 68 28 69 32 70 29 71 31 72 30 73 49 74 50 75
REMARK SMILES IDX 54 76 51 77 53 78 52 79 39 80 40 81 44 82 41 83 43 84 42 85
REMARK H PARENT 59 53 37 64
REMARK Flexibility Score: inf
ROOT
ATOM      1  C   UNL A   1      33.290  28.310  26.711  1.00  0.00     0.188 C 
ENDROOT
BRANCH   1   2
ATOM      2  O   UNL A   1      34.104  27.479  25.896  1.00  0.00    -0.377 OA
BRANCH   2   3
ATOM      3  C   UNL A   1      33.667  26.134  25.759  1.00  0.00     0.188 C 
BRANCH   3   4
ATOM      4  C   UNL A   1      34.812  25.174  25.471  1.00  0.00     0.188 C 
BRANCH   4   5
ATOM      5  O   UNL A   1      34.585  24.340  24.347  1.00  0.00    -0.376 OA
BRANCH   5   6
ATOM      6  C   UNL A   1      33.285  23.817  24.129  1.00  0.00     0.202 C 
BRANCH   6   7
ATOM      7  C   UNL A   1      32.740  23.928  22.706  1.00  0.00     0.261 C 
BRANCH   7   8
ATOM      8  O   UNL A   1      31.502  24.655  22.649  1.00  0.00    -0.460 OA
BRANCH   8   9
ATOM      9  C   UNL A   1      31.598  26.006  22.676  1.00  0.00     0.338 C 
ATOM     10  O   UNL A   1      32.245  26.640  21.858  1.00  0.00    -0.246 OA
BRANCH   9  11
ATOM     11  C   UNL A   1      30.934  26.622  23.862  1.00  0.00     0.087 C 
ATOM     12  C   UNL A   1      30.991  27.967  23.816  1.00  0.00     0.027 C 
ATOM     13  C   UNL A   1      29.713  25.910  24.393  1.00  0.00     0.316 C 
ATOM     14  C   UNL A   1      29.703  28.614  23.540  1.00  0.00     0.018 A 
ATOM     15  O   UNL A   1      28.470  26.623  24.197  1.00  0.00    -0.475 OA
ATOM     16  C   UNL A   1      29.652  29.941  23.090  1.00  0.00     0.025 A 
ATOM     17  C   UNL A   1      28.529  27.866  23.626  1.00  0.00     0.128 A 
ATOM     18  C   UNL A   1      28.437  30.485  22.637  1.00  0.00     0.056 A 
ATOM     19  C   UNL A   1      27.343  28.370  23.099  1.00  0.00     0.048 A 
ATOM     20  C   UNL A   1      27.305  29.658  22.570  1.00  0.00     0.017 A 
BRANCH  13  21
ATOM     21  C   UNL A   1      29.901  25.439  25.837  1.00  0.00     0.430 C 
ATOM     22  F   UNL A   1      28.708  25.246  26.448  1.00  0.00    -0.167 F 
ATOM     23  F   UNL A   1      30.548  24.245  25.876  1.00  0.00    -0.167 F 
ATOM     24  F   UNL A   1      30.614  26.308  26.583  1.00  0.00    -0.167 F 
ENDBRANCH  13  21
BRANCH  18  25
ATOM     25  C   UNL A   1      28.295  31.955  22.321  1.00  0.00     0.416 C 
ATOM     26  F   UNL A   1      29.496  32.508  21.990  1.00  0.00    -0.166 F 
ATOM     27  F   UNL A   1      27.463  32.216  21.277  1.00  0.00    -0.166 F 
ATOM     28  F   UNL A   1      27.828  32.683  23.371  1.00  0.00    -0.166 F 
ENDBRANCH  18  25
ENDBRANCH   9  11
ENDBRANCH   8   9
ENDBRANCH   7   8
ENDBRANCH   6   7
ENDBRANCH   5   6
ENDBRANCH   4   5
ENDBRANCH   3   4
ENDBRANCH   2   3
ENDBRANCH   1   2
BRANCH   1  29
ATOM     29  C   UNL A   1      33.044  29.758  26.217  1.00  0.00     0.188 C 
BRANCH  29  30
ATOM     30  O   UNL A   1      32.401  30.758  26.998  1.00  0.00    -0.376 OA
BRANCH  30  31
ATOM     31  C   UNL A   1      33.166  31.795  27.578  1.00  0.00     0.202 C 
BRANCH  31  32
ATOM     32  C   UNL A   1      32.567  33.206  27.462  1.00  0.00     0.261 C 
BRANCH  32  33
ATOM     33  O   UNL A   1      32.525  33.947  28.696  1.00  0.00    -0.460 OA
BRANCH  33  34
ATOM     34  C   UNL A   1      33.621  34.705  28.979  1.00  0.00     0.338 C 
ATOM     35  O   UNL A   1      33.660  35.903  29.134  1.00  0.00    -0.246 OA
BRANCH  34  36
ATOM     36  C   UNL A   1      34.779  33.805  29.274  1.00  0.00     0.060 A 
ATOM     37  C   UNL A   1      34.595  32.811  30.249  1.00  0.00     0.016 A 
ATOM     38  C   UNL A   1      35.992  33.875  28.583  1.00  0.00     0.016 A 
ATOM     39  C   UNL A   1      35.619  31.905  30.547  1.00  0.00     0.010 A 
ATOM     40  C   UNL A   1      37.027  32.981  28.899  1.00  0.00     0.010 A 
ATOM     41  C   UNL A   1      36.858  32.011  29.905  1.00  0.00    -0.014 A 
BRANCH  41  42
ATOM     42  C   UNL A   1      38.038  31.293  30.458  1.00  0.00     0.031 A 
ATOM     43  C   UNL A   1      38.603  31.788  31.766  1.00  0.00     0.074 A 
ATOM     44  C   UNL A   1      38.593  30.222  29.860  1.00  0.00     0.049 A 
ATOM     45  N   UNL A   1      39.661  31.386  32.424  1.00  0.00    -0.248 NA
ATOM     46  C   UNL A   1      37.872  32.890  32.416  1.00  0.00     0.031 C 
ATOM     47  C   UNL A   1      38.118  29.588  28.632  1.00  0.00     0.029 A 
ATOM     48  N   UNL A   1      39.698  29.480  30.212  1.00  0.00    -0.354 N 
ATOM     49  C   UNL A   1      39.726  32.194  33.554  1.00  0.00     0.074 A 
ATOM     50  C   UNL A   1      38.619  33.119  33.484  1.00  0.00     0.031 C 
ATOM     51  C   UNL A   1      38.937  28.564  28.324  1.00  0.00     0.029 A 
ATOM     52  C   UNL A   1      40.015  28.490  29.311  1.00  0.00     0.049 A 
ATOM     53  H   UNL A   1      40.214  29.643  31.035  1.00  0.00     0.167 HD
ATOM     54  C   UNL A   1      40.627  32.171  34.564  1.00  0.00     0.031 A 
ATOM     55  C   UNL A   1      41.067  27.647  29.272  1.00  0.00     0.031 A 
ATOM     56  C   UNL A   1      41.737  31.262  34.641  1.00  0.00     0.049 A 
ATOM     57  C   UNL A   1      42.114  27.708  30.360  1.00  0.00     0.074 A 
ATOM     58  C   UNL A   1      42.695  31.158  35.634  1.00  0.00     0.029 A 
ATOM     59  N   UNL A   1      42.046  30.311  33.682  1.00  0.00    -0.354 N 
ATOM     60  N   UNL A   1      42.151  28.460  31.433  1.00  0.00    -0.248 NA
ATOM     61  C   UNL A   1      43.265  26.801  30.228  1.00  0.00     0.031 C 
ATOM     62  C   UNL A   1      43.622  30.187  35.245  1.00  0.00     0.029 A 
ATOM     63  C   UNL A   1      43.201  29.639  34.044  1.00  0.00     0.049 A 
ATOM     64  H   UNL A   1      41.521  30.139  32.867  1.00  0.00     0.167 HD
ATOM     65  C   UNL A   1      43.309  28.095  32.115  1.00  0.00     0.074 A 
ATOM     66  C   UNL A   1      43.935  27.041  31.346  1.00  0.00     0.031 C 
ATOM     67  C   UNL A   1      43.812  28.589  33.273  1.00  0.00     0.031 A 
BRANCH  54  68
ATOM     68  C   UNL A   1      40.475  33.193  35.654  1.00  0.00    -0.014 A 
ATOM     69  C   UNL A   1      41.080  34.456  35.565  1.00  0.00     0.009 A 
ATOM     70  C   UNL A   1      39.667  32.901  36.765  1.00  0.00     0.009 A 
ATOM     71  C   UNL A   1      40.898  35.398  36.580  1.00  0.00     0.001 A 
ATOM     72  C   UNL A   1      39.462  33.855  37.763  1.00  0.00     0.001 A 
ATOM     73  C   UNL A   1      40.083  35.100  37.673  1.00  0.00     0.000 A 
ENDBRANCH  54  68
BRANCH  55  74
ATOM     74  C   UNL A   1      41.237  26.694  28.138  1.00  0.00    -0.014 A 
ATOM     75  C   UNL A   1      40.848  25.350  28.258  1.00  0.00     0.009 A 
ATOM     76  C   UNL A   1      41.863  27.109  26.951  1.00  0.00     0.009 A 
ATOM     77  C   UNL A   1      41.114  24.438  27.231  1.00  0.00     0.001 A 
ATOM     78  C   UNL A   1      42.098  26.204  25.913  1.00  0.00     0.001 A 
ATOM     79  C   UNL A   1      41.735  24.866  26.059  1.00  0.00     0.000 A 
ENDBRANCH  55  74
BRANCH  67  80
ATOM     80  C   UNL A   1      45.079  27.975  33.803  1.00  0.00    -0.014 A 
ATOM     81  C   UNL A   1      45.052  26.858  34.652  1.00  0.00     0.009 A 
ATOM     82  C   UNL A   1      46.322  28.493  33.403  1.00  0.00     0.009 A 
ATOM     83  C   UNL A   1      46.243  26.295  35.117  1.00  0.00     0.001 A 
ATOM     84  C   UNL A   1      47.510  27.907  33.842  1.00  0.00     0.001 A 
ATOM     85  C   UNL A   1      47.470  26.816  34.707  1.00  0.00     0.000 A 
ENDBRANCH  67  80
ENDBRANCH  41  42
ENDBRANCH  34  36
ENDBRANCH  33  34
ENDBRANCH  32  33
ENDBRANCH  31  32
ENDBRANCH  30  31
ENDBRANCH  29  30
ENDBRANCH   1  29
TORSDOF 22
ENDMDL
MODEL 3
REMARK VINA RESULT:      -9.4      4.179      6.021
REMARK SMILES O=C(OCCOCCOCCOCCOC(=O)c1ccc(-c2c3nc(c(-c4ccccc4)c4ccc([nH]4)c(-c4ccccc4)c4nc(c(-c5ccccc5)c5ccc2[nH]5)C=C4)C=C3)cc1)C1=Cc2cc(C(F)(F)F)ccc2O[C@@H]1C(F)(F)F
REMARK SMILES IDX 10 1 9 2 8 3 7 4 6 5 5 6 4 7 3 8 2 9 1 10 66 11 67 12 79 13
REMARK SMILES IDX 68 14 78 15 69 16 77 17 70 18 76 19 75 20 80 21 81 22 82 23
REMARK SMILES IDX 83 24 71 25 72 26 73 27 74 28 11 29 12 30 13 31 14 32 15 33
REMARK SMILES IDX 16 34 17 35 18 36 19 37 65 38 20 39 64 40 21 41 22 42 23 43
REMARK SMILES IDX 58 44 24 45 63 46 57 47 59 48 25 49 62 50 56 51 55 52 26 54
REMARK SMILES IDX 48 55 33 56 47 57 34 58 37 59 46 60 60 61 35 62 36 63 45 65
REMARK SMILES IDX 61 66 38 67 27 68 28 69 32 70 29 71 31 72 30 73 49 74 50 75
REMARK SMILES IDX 54 76 51 77 53 78 52 79 39 80 40 81 44 82 41 83 43 84 42 85
REMARK H PARENT 59 53 37 64
REMARK Flexibility Score: inf
ROOT
ATOM      1  C   UNL A   1      33.061  29.144  27.266  1.00  0.00     0.188 C 
ENDROOT
BRANCH   1   2
ATOM      2  O   UNL A   1      31.873  29.480  26.563  1.00  0.00    -0.377 OA
BRANCH   2   3
ATOM      3  C   UNL A   1      32.044  29.810  25.191  1.00  0.00     0.188 C 
BRANCH   3   4
ATOM      4  C   UNL A   1      30.990  29.168  24.300  1.00  0.00     0.188 C 
BRANCH   4   5
ATOM      5  O   UNL A   1      31.439  28.921  22.977  1.00  0.00    -0.376 OA
BRANCH   5   6
ATOM      6  C   UNL A   1      32.802  28.595  22.761  1.00  0.00     0.202 C 
BRANCH   6   7
ATOM      7  C   UNL A   1      33.079  27.246  22.103  1.00  0.00     0.261 C 
BRANCH   7   8
ATOM      8  O   UNL A   1      33.463  26.241  23.056  1.00  0.00    -0.460 OA
BRANCH   8   9
ATOM      9  C   UNL A   1      33.194  24.958  22.717  1.00  0.00     0.338 C 
ATOM     10  O   UNL A   1      33.721  24.400  21.766  1.00  0.00    -0.246 OA
BRANCH   9  11
ATOM     11  C   UNL A   1      32.115  24.341  23.542  1.00  0.00     0.087 C 
ATOM     12  C   UNL A   1      31.786  23.116  23.089  1.00  0.00     0.027 C 
ATOM     13  C   UNL A   1      32.146  24.644  25.021  1.00  0.00     0.316 C 
ATOM     14  C   UNL A   1      32.222  22.016  23.957  1.00  0.00     0.018 A 
ATOM     15  O   UNL A   1      32.478  23.512  25.858  1.00  0.00    -0.475 OA
ATOM     16  C   UNL A   1      32.301  20.706  23.466  1.00  0.00     0.025 A 
ATOM     17  C   UNL A   1      32.661  22.299  25.251  1.00  0.00     0.128 A 
ATOM     18  C   UNL A   1      32.908  19.699  24.237  1.00  0.00     0.056 A 
ATOM     19  C   UNL A   1      33.338  21.327  25.983  1.00  0.00     0.048 A 
ATOM     20  C   UNL A   1      33.497  20.045  25.463  1.00  0.00     0.017 A 
BRANCH  13  21
ATOM     21  C   UNL A   1      30.884  25.372  25.488  1.00  0.00     0.430 C 
ATOM     22  F   UNL A   1      30.053  24.534  26.152  1.00  0.00    -0.167 F 
ATOM     23  F   UNL A   1      31.195  26.369  26.356  1.00  0.00    -0.167 F 
ATOM     24  F   UNL A   1      30.191  25.925  24.471  1.00  0.00    -0.167 F 
ENDBRANCH  13  21
BRANCH  18  25
ATOM     25  C   UNL A   1      32.849  18.245  23.832  1.00  0.00     0.416 C 
ATOM     26  F   UNL A   1      31.924  17.564  24.565  1.00  0.00    -0.166 F 
ATOM     27  F   UNL A   1      32.513  18.050  22.529  1.00  0.00    -0.166 F 
ATOM     28  F   UNL A   1      34.028  17.592  24.023  1.00  0.00    -0.166 F 
ENDBRANCH  18  25
ENDBRANCH   9  11
ENDBRANCH   8   9
ENDBRANCH   7   8
ENDBRANCH   6   7
ENDBRANCH   5   6
ENDBRANCH   4   5
ENDBRANCH   3   4
ENDBRANCH   2   3
ENDBRANCH   1   2
BRANCH   1  29
ATOM     29  C   UNL A   1      34.045  30.297  27.578  1.00  0.00     0.188 C 
BRANCH  29  30
ATOM     30  O   UNL A   1      33.644  31.652  27.747  1.00  0.00    -0.376 OA
BRANCH  30  31
ATOM     31  C   UNL A   1      34.604  32.629  28.097  1.00  0.00     0.202 C 
BRANCH  31  32
ATOM     32  C   UNL A   1      34.347  33.365  29.422  1.00  0.00     0.261 C 
BRANCH  32  33
ATOM     33  O   UNL A   1      35.512  33.541  30.251  1.00  0.00    -0.460 OA
BRANCH  33  34
ATOM     34  C   UNL A   1      35.813  32.510  31.089  1.00  0.00     0.338 C 
ATOM     35  O   UNL A   1      35.049  31.898  31.798  1.00  0.00    -0.246 OA
BRANCH  34  36
ATOM     36  C   UNL A   1      37.231  32.090  30.862  1.00  0.00     0.060 A 
ATOM     37  C   UNL A   1      37.858  32.528  29.685  1.00  0.00     0.016 A 
ATOM     38  C   UNL A   1      37.960  31.344  31.794  1.00  0.00     0.016 A 
ATOM     39  C   UNL A   1      39.196  32.212  29.427  1.00  0.00     0.010 A 
ATOM     40  C   UNL A   1      39.296  31.005  31.524  1.00  0.00     0.010 A 
ATOM     41  C   UNL A   1      39.912  31.410  30.325  1.00  0.00    -0.014 A 
BRANCH  41  42
ATOM     42  C   UNL A   1      41.195  30.789  29.895  1.00  0.00     0.031 A 
ATOM     43  C   UNL A   1      41.131  29.409  29.292  1.00  0.00     0.074 A 
ATOM     44  C   UNL A   1      42.383  31.413  30.000  1.00  0.00     0.049 A 
ATOM     45  N   UNL A   1      42.102  28.622  28.902  1.00  0.00    -0.248 NA
ATOM     46  C   UNL A   1      39.784  28.841  29.106  1.00  0.00     0.031 C 
ATOM     47  C   UNL A   1      42.596  32.771  30.498  1.00  0.00     0.029 A 
ATOM     48  N   UNL A   1      43.650  30.968  29.694  1.00  0.00    -0.354 N 
ATOM     49  C   UNL A   1      41.483  27.466  28.440  1.00  0.00     0.074 A 
ATOM     50  C   UNL A   1      40.060  27.643  28.615  1.00  0.00     0.031 C 
ATOM     51  C   UNL A   1      43.915  33.041  30.480  1.00  0.00     0.029 A 
ATOM     52  C   UNL A   1      44.645  31.866  30.004  1.00  0.00     0.049 A 
ATOM     53  H   UNL A   1      43.827  30.088  29.290  1.00  0.00     0.167 HD
ATOM     54  C   UNL A   1      42.046  26.353  27.914  1.00  0.00     0.031 A 
ATOM     55  C   UNL A   1      45.987  31.740  29.941  1.00  0.00     0.031 A 
ATOM     56  C   UNL A   1      43.459  26.162  27.744  1.00  0.00     0.049 A 
ATOM     57  C   UNL A   1      46.594  30.449  29.443  1.00  0.00     0.074 A 
ATOM     58  C   UNL A   1      44.119  25.070  27.208  1.00  0.00     0.029 A 
ATOM     59  N   UNL A   1      44.430  27.076  28.116  1.00  0.00    -0.354 N 
ATOM     60  N   UNL A   1      45.997  29.374  28.988  1.00  0.00    -0.248 NA
ATOM     61  C   UNL A   1      48.063  30.356  29.453  1.00  0.00     0.031 C 
ATOM     62  C   UNL A   1      45.494  25.296  27.317  1.00  0.00     0.029 A 
ATOM     63  C   UNL A   1      45.686  26.559  27.856  1.00  0.00     0.049 A 
ATOM     64  H   UNL A   1      44.252  27.962  28.507  1.00  0.00     0.167 HD
ATOM     65  C   UNL A   1      47.016  28.495  28.631  1.00  0.00     0.074 A 
ATOM     66  C   UNL A   1      48.267  29.168  28.902  1.00  0.00     0.031 C 
ATOM     67  C   UNL A   1      46.925  27.240  28.126  1.00  0.00     0.031 A 
BRANCH  54  68
ATOM     68  C   UNL A   1      41.128  25.229  27.523  1.00  0.00    -0.014 A 
ATOM     69  C   UNL A   1      41.287  23.938  28.048  1.00  0.00     0.009 A 
ATOM     70  C   UNL A   1      40.056  25.485  26.654  1.00  0.00     0.009 A 
ATOM     71  C   UNL A   1      40.401  22.918  27.690  1.00  0.00     0.001 A 
ATOM     72  C   UNL A   1      39.156  24.472  26.321  1.00  0.00     0.001 A 
ATOM     73  C   UNL A   1      39.333  23.188  26.834  1.00  0.00     0.000 A 
ENDBRANCH  54  68
BRANCH  55  74
ATOM     74  C   UNL A   1      46.877  32.841  30.407  1.00  0.00    -0.014 A 
ATOM     75  C   UNL A   1      47.212  32.976  31.765  1.00  0.00     0.009 A 
ATOM     76  C   UNL A   1      47.337  33.813  29.503  1.00  0.00     0.009 A 
ATOM     77  C   UNL A   1      47.954  34.075  32.209  1.00  0.00     0.001 A 
ATOM     78  C   UNL A   1      48.107  34.892  29.944  1.00  0.00     0.001 A 
ATOM     79  C   UNL A   1      48.404  35.030  31.299  1.00  0.00     0.000 A 
ENDBRANCH  55  74
BRANCH  67  80
ATOM     80  C   UNL A   1      48.206  26.525  27.796  1.00  0.00    -0.014 A 
ATOM     81  C   UNL A   1      48.847  25.699  28.732  1.00  0.00     0.009 A 
ATOM     82  C   UNL A   1      48.754  26.640  26.507  1.00  0.00     0.009 A 
ATOM     83  C   UNL A   1      50.028  25.032  28.396  1.00  0.00     0.001 A 
ATOM     84  C   UNL A   1      49.915  25.946  26.163  1.00  0.00     0.001 A 
ATOM     85  C   UNL A   1      50.557  25.152  27.111  1.00  0.00     0.000 A 
ENDBRANCH  67  80
ENDBRANCH  41  42
ENDBRANCH  34  36
ENDBRANCH  33  34
ENDBRANCH  32  33
ENDBRANCH  31  32
ENDBRANCH  30  31
ENDBRANCH  29  30
ENDBRANCH   1  29
TORSDOF 22
ENDMDL
