MODEL 1
REMARK VINA RESULT:      -9.1      0.000      0.000
REMARK SMILES CC[C@@]1(C(=O)OCCOCCOCCOCCOC(=O)c2ccc(-c3c4nc(c(-c5ccccc5)c5ccc([nH]5)c(-c5ccccc5)c5nc(c(-c6ccccc6)c6ccc3[nH]6)C=C5)C=C4)cc2)CCC[N@@H+](Cc2ccc(C3CC3)cc2)C1
REMARK SMILES IDX 11 1 10 2 9 3 8 4 7 5 6 6 4 7 5 8 3 9 69 10 83 11 70 12
REMARK SMILES IDX 72 13 71 14 2 16 1 17 73 18 74 19 75 20 82 21 76 22 81 23
REMARK SMILES IDX 77 24 78 25 79 26 80 27 12 28 13 29 14 30 15 31 16 32 17 33
REMARK SMILES IDX 18 34 19 35 20 36 21 37 22 38 68 39 23 40 67 41 24 42 25 43
REMARK SMILES IDX 26 44 61 45 27 46 66 47 60 48 62 49 28 50 65 51 59 52 58 53
REMARK SMILES IDX 29 55 51 56 36 57 50 58 37 59 40 60 49 61 63 62 38 63 39 64
REMARK SMILES IDX 48 66 64 67 41 68 30 69 31 70 35 71 32 72 34 73 33 74 52 75
REMARK SMILES IDX 53 76 57 77 54 78 56 79 55 80 42 81 43 82 47 83 44 84 46 85
REMARK SMILES IDX 45 86
REMARK H PARENT 72 15 62 54 40 65
REMARK Flexibility Score: inf
ROOT
ATOM      1  C   UNL A   1      35.691  23.771  25.460  1.00  0.00     0.188 C 
ENDROOT
BRANCH   1   2
ATOM      2  C   UNL A   1      34.744  24.930  25.137  1.00  0.00     0.188 C 
BRANCH   2   3
ATOM      3  O   UNL A   1      34.343  25.799  26.181  1.00  0.00    -0.376 OA
BRANCH   3   4
ATOM      4  C   UNL A   1      32.969  26.160  26.257  1.00  0.00     0.202 C 
BRANCH   4   5
ATOM      5  C   UNL A   1      32.553  27.591  26.678  1.00  0.00     0.261 C 
BRANCH   5   6
ATOM      6  O   UNL A   1      31.403  28.193  26.022  1.00  0.00    -0.463 OA
BRANCH   6   7
ATOM      7  C   UNL A   1      31.618  28.711  24.782  1.00  0.00     0.317 C 
ATOM      8  O   UNL A   1      32.311  29.709  24.598  1.00  0.00    -0.251 OA
BRANCH   7   9
ATOM      9  C   UNL A   1      30.957  27.934  23.606  1.00  0.00     0.117 C 
ATOM     10  C   UNL A   1      29.473  27.580  23.833  1.00  0.00     0.030 C 
ATOM     11  C   UNL A   1      31.822  26.697  23.188  1.00  0.00     0.281 C 
ATOM     12  C   UNL A   1      29.235  26.173  24.366  1.00  0.00     0.063 C 
ATOM     13  N   UNL A   1      31.363  25.322  23.446  1.00  0.00    -0.330 N 
ATOM     14  C   UNL A   1      29.918  25.131  23.488  1.00  0.00     0.262 C 
ATOM     15  H   UNL A   1      31.646  25.162  24.413  1.00  0.00     0.348 HD
BRANCH   9  16
ATOM     16  C   UNL A   1      31.076  28.924  22.381  1.00  0.00     0.021 C 
ATOM     17  C   UNL A   1      29.840  29.742  22.047  1.00  0.00     0.005 C 
ENDBRANCH   9  16
BRANCH  13  18
ATOM     18  C   UNL A   1      32.070  24.301  22.629  1.00  0.00     0.299 C 
BRANCH  18  19
ATOM     19  C   UNL A   1      32.089  22.897  23.214  1.00  0.00     0.006 A 
ATOM     20  C   UNL A   1      32.068  21.777  22.377  1.00  0.00     0.010 A 
ATOM     21  C   UNL A   1      32.237  22.680  24.587  1.00  0.00     0.010 A 
ATOM     22  C   UNL A   1      32.346  20.502  22.889  1.00  0.00     0.004 A 
ATOM     23  C   UNL A   1      32.559  21.415  25.082  1.00  0.00     0.004 A 
ATOM     24  C   UNL A   1      32.675  20.301  24.239  1.00  0.00    -0.045 A 
BRANCH  24  25
ATOM     25  C   UNL A   1      33.167  18.947  24.714  1.00  0.00     0.019 C 
ATOM     26  C   UNL A   1      32.248  17.744  24.717  1.00  0.00     0.009 C 
ATOM     27  C   UNL A   1      33.397  17.811  23.751  1.00  0.00     0.009 C 
ENDBRANCH  24  25
ENDBRANCH  18  19
ENDBRANCH  13  18
ENDBRANCH   7   9
ENDBRANCH   6   7
ENDBRANCH   5   6
ENDBRANCH   4   5
ENDBRANCH   3   4
ENDBRANCH   2   3
ENDBRANCH   1   2
BRANCH   1  28
ATOM     28  O   UNL A   1      36.542  23.362  24.406  1.00  0.00    -0.377 OA
BRANCH  28  29
ATOM     29  C   UNL A   1      37.211  22.116  24.492  1.00  0.00     0.188 C 
BRANCH  29  30
ATOM     30  C   UNL A   1      38.080  21.896  25.730  1.00  0.00     0.188 C 
BRANCH  30  31
ATOM     31  O   UNL A   1      39.337  21.230  25.558  1.00  0.00    -0.376 OA
BRANCH  31  32
ATOM     32  C   UNL A   1      39.392  19.806  25.614  1.00  0.00     0.202 C 
BRANCH  32  33
ATOM     33  C   UNL A   1      40.699  19.257  26.183  1.00  0.00     0.261 C 
BRANCH  33  34
ATOM     34  O   UNL A   1      41.787  19.459  25.271  1.00  0.00    -0.460 OA
BRANCH  34  35
ATOM     35  C   UNL A   1      42.962  19.801  25.842  1.00  0.00     0.338 C 
ATOM     36  O   UNL A   1      44.014  19.179  25.829  1.00  0.00    -0.246 OA
BRANCH  35  37
ATOM     37  C   UNL A   1      42.841  21.163  26.381  1.00  0.00     0.060 A 
ATOM     38  C   UNL A   1      43.103  22.251  25.536  1.00  0.00     0.016 A 
ATOM     39  C   UNL A   1      42.535  21.358  27.728  1.00  0.00     0.016 A 
ATOM     40  C   UNL A   1      43.104  23.541  26.046  1.00  0.00     0.010 A 
ATOM     41  C   UNL A   1      42.565  22.650  28.248  1.00  0.00     0.010 A 
ATOM     42  C   UNL A   1      42.895  23.734  27.415  1.00  0.00    -0.014 A 
BRANCH  42  43
ATOM     43  C   UNL A   1      43.266  25.023  28.026  1.00  0.00     0.031 A 
ATOM     44  C   UNL A   1      42.169  26.021  28.272  1.00  0.00     0.074 A 
ATOM     45  C   UNL A   1      44.538  25.287  28.359  1.00  0.00     0.049 A 
ATOM     46  N   UNL A   1      42.250  27.250  28.705  1.00  0.00    -0.248 NA
ATOM     47  C   UNL A   1      40.795  25.569  27.984  1.00  0.00     0.031 C 
ATOM     48  C   UNL A   1      45.660  24.360  28.224  1.00  0.00     0.029 A 
ATOM     49  N   UNL A   1      45.095  26.427  28.873  1.00  0.00    -0.354 N 
ATOM     50  C   UNL A   1      40.943  27.723  28.725  1.00  0.00     0.074 A 
ATOM     51  C   UNL A   1      40.094  26.661  28.236  1.00  0.00     0.031 C 
ATOM     52  C   UNL A   1      46.782  24.978  28.633  1.00  0.00     0.029 A 
ATOM     53  C   UNL A   1      46.458  26.351  29.014  1.00  0.00     0.049 A 
ATOM     54  H   UNL A   1      44.570  27.223  29.118  1.00  0.00     0.167 HD
ATOM     55  C   UNL A   1      40.495  28.935  29.122  1.00  0.00     0.031 A 
ATOM     56  C   UNL A   1      47.339  27.300  29.379  1.00  0.00     0.031 A 
ATOM     57  C   UNL A   1      41.356  29.987  29.587  1.00  0.00     0.049 A 
ATOM     58  C   UNL A   1      46.824  28.674  29.721  1.00  0.00     0.074 A 
ATOM     59  C   UNL A   1      41.015  31.258  30.014  1.00  0.00     0.029 A 
ATOM     60  N   UNL A   1      42.737  29.888  29.680  1.00  0.00    -0.354 N 
ATOM     61  N   UNL A   1      45.588  29.114  29.747  1.00  0.00    -0.248 NA
ATOM     62  C   UNL A   1      47.829  29.681  30.091  1.00  0.00     0.031 C 
ATOM     63  C   UNL A   1      42.195  31.948  30.305  1.00  0.00     0.029 A 
ATOM     64  C   UNL A   1      43.266  31.083  30.131  1.00  0.00     0.049 A 
ATOM     65  H   UNL A   1      43.261  29.085  29.458  1.00  0.00     0.167 HD
ATOM     66  C   UNL A   1      45.663  30.435  30.172  1.00  0.00     0.074 A 
ATOM     67  C   UNL A   1      47.065  30.719  30.403  1.00  0.00     0.031 C 
ATOM     68  C   UNL A   1      44.666  31.335  30.358  1.00  0.00     0.031 A 
BRANCH  55  69
ATOM     69  C   UNL A   1      39.017  29.196  29.023  1.00  0.00    -0.014 A 
ATOM     70  C   UNL A   1      38.434  29.665  27.836  1.00  0.00     0.009 A 
ATOM     71  C   UNL A   1      38.193  28.947  30.131  1.00  0.00     0.009 A 
ATOM     72  C   UNL A   1      37.059  29.911  27.772  1.00  0.00     0.001 A 
ATOM     73  C   UNL A   1      36.816  29.163  30.055  1.00  0.00     0.001 A 
ATOM     74  C   UNL A   1      36.252  29.653  28.879  1.00  0.00     0.000 A 
ENDBRANCH  55  69
BRANCH  56  75
ATOM     75  C   UNL A   1      48.793  26.999  29.417  1.00  0.00    -0.014 A 
ATOM     76  C   UNL A   1      49.439  26.742  30.636  1.00  0.00     0.009 A 
ATOM     77  C   UNL A   1      49.551  26.990  28.235  1.00  0.00     0.009 A 
ATOM     78  C   UNL A   1      50.818  26.517  30.675  1.00  0.00     0.001 A 
ATOM     79  C   UNL A   1      50.923  26.730  28.272  1.00  0.00     0.001 A 
ATOM     80  C   UNL A   1      51.557  26.507  29.493  1.00  0.00     0.000 A 
ENDBRANCH  56  75
BRANCH  68  81
ATOM     81  C   UNL A   1      45.050  32.688  30.889  1.00  0.00    -0.014 A 
ATOM     82  C   UNL A   1      45.050  32.966  32.265  1.00  0.00     0.009 A 
ATOM     83  C   UNL A   1      45.467  33.686  29.994  1.00  0.00     0.009 A 
ATOM     84  C   UNL A   1      45.421  34.229  32.728  1.00  0.00     0.001 A 
ATOM     85  C   UNL A   1      45.872  34.936  30.463  1.00  0.00     0.001 A 
ATOM     86  C   UNL A   1      45.839  35.210  31.829  1.00  0.00     0.000 A 
ENDBRANCH  68  81
ENDBRANCH  42  43
ENDBRANCH  35  37
ENDBRANCH  34  35
ENDBRANCH  33  34
ENDBRANCH  32  33
ENDBRANCH  31  32
ENDBRANCH  30  31
ENDBRANCH  29  30
ENDBRANCH  28  29
ENDBRANCH   1  28
TORSDOF 24
ENDMDL
MODEL 2
REMARK VINA RESULT:      -8.8      2.993      7.742
REMARK SMILES CC[C@@]1(C(=O)OCCOCCOCCOCCOC(=O)c2ccc(-c3c4nc(c(-c5ccccc5)c5ccc([nH]5)c(-c5ccccc5)c5nc(c(-c6ccccc6)c6ccc3[nH]6)C=C5)C=C4)cc2)CCC[N@@H+](Cc2ccc(C3CC3)cc2)C1
REMARK SMILES IDX 11 1 10 2 9 3 8 4 7 5 6 6 4 7 5 8 3 9 69 10 83 11 70 12
REMARK SMILES IDX 72 13 71 14 2 16 1 17 73 18 74 19 75 20 82 21 76 22 81 23
REMARK SMILES IDX 77 24 78 25 79 26 80 27 12 28 13 29 14 30 15 31 16 32 17 33
REMARK SMILES IDX 18 34 19 35 20 36 21 37 22 38 68 39 23 40 67 41 24 42 25 43
REMARK SMILES IDX 26 44 61 45 27 46 66 47 60 48 62 49 28 50 65 51 59 52 58 53
REMARK SMILES IDX 29 55 51 56 36 57 50 58 37 59 40 60 49 61 63 62 38 63 39 64
REMARK SMILES IDX 48 66 64 67 41 68 30 69 31 70 35 71 32 72 34 73 33 74 52 75
REMARK SMILES IDX 53 76 57 77 54 78 56 79 55 80 42 81 43 82 47 83 44 84 46 85
REMARK SMILES IDX 45 86
REMARK H PARENT 72 15 62 54 40 65
REMARK Flexibility Score: inf
ROOT
ATOM      1  C   UNL A   1      32.780  29.912  25.661  1.00  0.00     0.188 C 
ENDROOT
BRANCH   1   2
ATOM      2  C   UNL A   1      31.857  29.547  24.496  1.00  0.00     0.188 C 
BRANCH   2   3
ATOM      3  O   UNL A   1      31.177  28.305  24.521  1.00  0.00    -0.376 OA
BRANCH   3   4
ATOM      4  C   UNL A   1      30.877  27.734  25.790  1.00  0.00     0.202 C 
BRANCH   4   5
ATOM      5  C   UNL A   1      30.723  26.202  25.946  1.00  0.00     0.261 C 
BRANCH   5   6
ATOM      6  O   UNL A   1      31.472  25.541  27.003  1.00  0.00    -0.463 OA
BRANCH   6   7
ATOM      7  C   UNL A   1      31.562  24.185  26.922  1.00  0.00     0.317 C 
ATOM      8  O   UNL A   1      30.677  23.442  27.341  1.00  0.00    -0.251 OA
BRANCH   7   9
ATOM      9  C   UNL A   1      32.844  23.637  26.231  1.00  0.00     0.117 C 
ATOM     10  C   UNL A   1      33.915  24.707  25.938  1.00  0.00     0.030 C 
ATOM     11  C   UNL A   1      32.484  22.773  24.974  1.00  0.00     0.281 C 
ATOM     12  C   UNL A   1      33.877  25.266  24.520  1.00  0.00     0.063 C 
ATOM     13  N   UNL A   1      32.785  23.246  23.612  1.00  0.00    -0.330 N 
ATOM     14  C   UNL A   1      33.925  24.146  23.488  1.00  0.00     0.262 C 
ATOM     15  H   UNL A   1      31.990  23.847  23.396  1.00  0.00     0.348 HD
BRANCH   9  16
ATOM     16  C   UNL A   1      33.420  22.593  27.268  1.00  0.00     0.021 C 
ATOM     17  C   UNL A   1      34.751  21.953  26.916  1.00  0.00     0.005 C 
ENDBRANCH   9  16
BRANCH  13  18
ATOM     18  C   UNL A   1      32.777  22.160  22.596  1.00  0.00     0.299 C 
BRANCH  18  19
ATOM     19  C   UNL A   1      32.665  20.749  23.152  1.00  0.00     0.006 A 
ATOM     20  C   UNL A   1      32.065  19.734  22.399  1.00  0.00     0.010 A 
ATOM     21  C   UNL A   1      33.249  20.396  24.371  1.00  0.00     0.010 A 
ATOM     22  C   UNL A   1      32.191  18.393  22.788  1.00  0.00     0.004 A 
ATOM     23  C   UNL A   1      33.410  19.055  24.728  1.00  0.00     0.004 A 
ATOM     24  C   UNL A   1      32.933  18.015  23.919  1.00  0.00    -0.045 A 
BRANCH  24  25
ATOM     25  C   UNL A   1      33.218  16.551  24.194  1.00  0.00     0.019 C 
ATOM     26  C   UNL A   1      34.637  16.024  24.208  1.00  0.00     0.009 C 
ATOM     27  C   UNL A   1      33.851  16.102  25.486  1.00  0.00     0.009 C 
ENDBRANCH  24  25
ENDBRANCH  18  19
ENDBRANCH  13  18
ENDBRANCH   7   9
ENDBRANCH   6   7
ENDBRANCH   5   6
ENDBRANCH   4   5
ENDBRANCH   3   4
ENDBRANCH   2   3
ENDBRANCH   1   2
BRANCH   1  28
ATOM     28  O   UNL A   1      32.365  31.008  26.453  1.00  0.00    -0.377 OA
BRANCH  28  29
ATOM     29  C   UNL A   1      33.171  31.428  27.540  1.00  0.00     0.188 C 
BRANCH  29  30
ATOM     30  C   UNL A   1      33.201  32.930  27.821  1.00  0.00     0.188 C 
BRANCH  30  31
ATOM     31  O   UNL A   1      34.200  33.423  28.723  1.00  0.00    -0.376 OA
BRANCH  31  32
ATOM     32  C   UNL A   1      34.633  32.605  29.809  1.00  0.00     0.202 C 
BRANCH  32  33
ATOM     33  C   UNL A   1      36.051  32.061  29.649  1.00  0.00     0.261 C 
BRANCH  33  34
ATOM     34  O   UNL A   1      36.037  30.663  29.332  1.00  0.00    -0.460 OA
BRANCH  34  35
ATOM     35  C   UNL A   1      36.447  29.842  30.323  1.00  0.00     0.338 C 
ATOM     36  O   UNL A   1      35.906  29.632  31.398  1.00  0.00    -0.246 OA
BRANCH  35  37
ATOM     37  C   UNL A   1      37.612  29.082  29.848  1.00  0.00     0.060 A 
ATOM     38  C   UNL A   1      38.385  28.376  30.780  1.00  0.00     0.016 A 
ATOM     39  C   UNL A   1      37.972  29.122  28.500  1.00  0.00     0.016 A 
ATOM     40  C   UNL A   1      39.552  27.742  30.376  1.00  0.00     0.010 A 
ATOM     41  C   UNL A   1      39.157  28.512  28.099  1.00  0.00     0.010 A 
ATOM     42  C   UNL A   1      39.969  27.863  29.047  1.00  0.00    -0.014 A 
BRANCH  42  43
ATOM     43  C   UNL A   1      41.362  27.533  28.696  1.00  0.00     0.031 A 
ATOM     44  C   UNL A   1      42.386  28.629  28.793  1.00  0.00     0.074 A 
ATOM     45  C   UNL A   1      41.701  26.292  28.316  1.00  0.00     0.049 A 
ATOM     46  N   UNL A   1      43.646  28.618  28.451  1.00  0.00    -0.248 NA
ATOM     47  C   UNL A   1      41.919  29.915  29.345  1.00  0.00     0.031 C 
ATOM     48  C   UNL A   1      40.796  25.145  28.258  1.00  0.00     0.029 A 
ATOM     49  N   UNL A   1      42.907  25.798  27.897  1.00  0.00    -0.354 N 
ATOM     50  C   UNL A   1      44.118  29.894  28.731  1.00  0.00     0.074 A 
ATOM     51  C   UNL A   1      43.006  30.662  29.242  1.00  0.00     0.031 C 
ATOM     52  C   UNL A   1      41.479  24.078  27.810  1.00  0.00     0.029 A 
ATOM     53  C   UNL A   1      42.852  24.482  27.513  1.00  0.00     0.049 A 
ATOM     54  H   UNL A   1      43.732  26.334  27.874  1.00  0.00     0.167 HD
ATOM     55  C   UNL A   1      45.370  30.379  28.577  1.00  0.00     0.031 A 
ATOM     56  C   UNL A   1      43.801  23.709  26.953  1.00  0.00     0.031 A 
ATOM     57  C   UNL A   1      46.462  29.607  28.048  1.00  0.00     0.049 A 
ATOM     58  C   UNL A   1      45.162  24.303  26.700  1.00  0.00     0.074 A 
ATOM     59  C   UNL A   1      47.774  29.993  27.845  1.00  0.00     0.029 A 
ATOM     60  N   UNL A   1      46.360  28.288  27.632  1.00  0.00    -0.354 N 
ATOM     61  N   UNL A   1      45.607  25.507  26.973  1.00  0.00    -0.248 NA
ATOM     62  C   UNL A   1      46.156  23.425  26.066  1.00  0.00     0.031 C 
ATOM     63  C   UNL A   1      48.451  28.926  27.247  1.00  0.00     0.029 A 
ATOM     64  C   UNL A   1      47.579  27.851  27.148  1.00  0.00     0.049 A 
ATOM     65  H   UNL A   1      45.541  27.743  27.676  1.00  0.00     0.167 HD
ATOM     66  C   UNL A   1      46.940  25.519  26.580  1.00  0.00     0.074 A 
ATOM     67  C   UNL A   1      47.233  24.198  26.062  1.00  0.00     0.031 C 
ATOM     68  C   UNL A   1      47.844  26.528  26.643  1.00  0.00     0.031 A 
BRANCH  55  69
ATOM     69  C   UNL A   1      45.609  31.818  28.942  1.00  0.00    -0.014 A 
ATOM     70  C   UNL A   1      46.109  32.182  30.202  1.00  0.00     0.009 A 
ATOM     71  C   UNL A   1      45.347  32.825  28.000  1.00  0.00     0.009 A 
ATOM     72  C   UNL A   1      46.311  33.527  30.521  1.00  0.00     0.001 A 
ATOM     73  C   UNL A   1      45.580  34.165  28.310  1.00  0.00     0.001 A 
ATOM     74  C   UNL A   1      46.053  34.516  29.573  1.00  0.00     0.000 A 
ENDBRANCH  55  69
BRANCH  56  75
ATOM     75  C   UNL A   1      43.497  22.306  26.572  1.00  0.00    -0.014 A 
ATOM     76  C   UNL A   1      44.257  21.650  25.591  1.00  0.00     0.009 A 
ATOM     77  C   UNL A   1      42.427  21.620  27.170  1.00  0.00     0.009 A 
ATOM     78  C   UNL A   1      43.931  20.350  25.194  1.00  0.00     0.001 A 
ATOM     79  C   UNL A   1      42.125  20.309  26.795  1.00  0.00     0.001 A 
ATOM     80  C   UNL A   1      42.869  19.680  25.799  1.00  0.00     0.000 A 
ENDBRANCH  56  75
BRANCH  68  81
ATOM     81  C   UNL A   1      49.246  26.225  26.193  1.00  0.00    -0.014 A 
ATOM     82  C   UNL A   1      49.658  26.445  24.869  1.00  0.00     0.009 A 
ATOM     83  C   UNL A   1      50.183  25.757  27.128  1.00  0.00     0.009 A 
ATOM     84  C   UNL A   1      50.970  26.162  24.484  1.00  0.00     0.001 A 
ATOM     85  C   UNL A   1      51.503  25.510  26.748  1.00  0.00     0.001 A 
ATOM     86  C   UNL A   1      51.892  25.703  25.424  1.00  0.00     0.000 A 
ENDBRANCH  68  81
ENDBRANCH  42  43
ENDBRANCH  35  37
ENDBRANCH  34  35
ENDBRANCH  33  34
ENDBRANCH  32  33
ENDBRANCH  31  32
ENDBRANCH  30  31
ENDBRANCH  29  30
ENDBRANCH  28  29
ENDBRANCH   1  28
TORSDOF 24
ENDMDL
MODEL 3
REMARK VINA RESULT:      -8.8      3.858      7.071
REMARK SMILES CC[C@@]1(C(=O)OCCOCCOCCOCCOC(=O)c2ccc(-c3c4nc(c(-c5ccccc5)c5ccc([nH]5)c(-c5ccccc5)c5nc(c(-c6ccccc6)c6ccc3[nH]6)C=C5)C=C4)cc2)CCC[N@@H+](Cc2ccc(C3CC3)cc2)C1
REMARK SMILES IDX 11 1 10 2 9 3 8 4 7 5 6 6 4 7 5 8 3 9 69 10 83 11 70 12
REMARK SMILES IDX 72 13 71 14 2 16 1 17 73 18 74 19 75 20 82 21 76 22 81 23
REMARK SMILES IDX 77 24 78 25 79 26 80 27 12 28 13 29 14 30 15 31 16 32 17 33
REMARK SMILES IDX 18 34 19 35 20 36 21 37 22 38 68 39 23 40 67 41 24 42 25 43
REMARK SMILES IDX 26 44 61 45 27 46 66 47 60 48 62 49 28 50 65 51 59 52 58 53
REMARK SMILES IDX 29 55 51 56 36 57 50 58 37 59 40 60 49 61 63 62 38 63 39 64
REMARK SMILES IDX 48 66 64 67 41 68 30 69 31 70 35 71 32 72 34 73 33 74 52 75
REMARK SMILES IDX 53 76 57 77 54 78 56 79 55 80 42 81 43 82 47 83 44 84 46 85
REMARK SMILES IDX 45 86
REMARK H PARENT 72 15 62 54 40 65
REMARK Flexibility Score: inf
ROOT
ATOM      1  C   UNL A   1      38.763  21.988  25.745  1.00  0.00     0.188 C 
ENDROOT
BRANCH   1   2
ATOM      2  C   UNL A   1      37.561  21.559  24.900  1.00  0.00     0.188 C 
BRANCH   2   3
ATOM      3  O   UNL A   1      36.414  21.041  25.550  1.00  0.00    -0.376 OA
BRANCH   3   4
ATOM      4  C   UNL A   1      35.204  21.785  25.462  1.00  0.00     0.202 C 
BRANCH   4   5
ATOM      5  C   UNL A   1      34.970  22.773  24.294  1.00  0.00     0.261 C 
BRANCH   5   6
ATOM      6  O   UNL A   1      33.979  23.823  24.470  1.00  0.00    -0.463 OA
BRANCH   6   7
ATOM      7  C   UNL A   1      33.795  24.663  23.416  1.00  0.00     0.317 C 
ATOM      8  O   UNL A   1      34.310  24.461  22.318  1.00  0.00    -0.251 OA
BRANCH   7   9
ATOM      9  C   UNL A   1      32.861  25.879  23.681  1.00  0.00     0.117 C 
ATOM     10  C   UNL A   1      32.946  26.991  22.616  1.00  0.00     0.030 C 
ATOM     11  C   UNL A   1      33.037  26.418  25.142  1.00  0.00     0.281 C 
ATOM     12  C   UNL A   1      33.878  28.141  22.978  1.00  0.00     0.063 C 
ATOM     13  N   UNL A   1      33.667  27.723  25.402  1.00  0.00    -0.330 N 
ATOM     14  C   UNL A   1      33.532  28.718  24.346  1.00  0.00     0.262 C 
ATOM     15  H   UNL A   1      34.664  27.505  25.390  1.00  0.00     0.348 HD
BRANCH   9  16
ATOM     16  C   UNL A   1      31.410  25.255  23.670  1.00  0.00     0.021 C 
ATOM     17  C   UNL A   1      30.255  26.223  23.857  1.00  0.00     0.005 C 
ENDBRANCH   9  16
BRANCH  13  18
ATOM     18  C   UNL A   1      33.375  28.259  26.758  1.00  0.00     0.299 C 
BRANCH  18  19
ATOM     19  C   UNL A   1      34.227  29.443  27.189  1.00  0.00     0.006 A 
ATOM     20  C   UNL A   1      33.638  30.681  27.464  1.00  0.00     0.010 A 
ATOM     21  C   UNL A   1      35.597  29.308  27.428  1.00  0.00     0.010 A 
ATOM     22  C   UNL A   1      34.370  31.690  28.105  1.00  0.00     0.004 A 
ATOM     23  C   UNL A   1      36.307  30.299  28.108  1.00  0.00     0.004 A 
ATOM     24  C   UNL A   1      35.700  31.495  28.513  1.00  0.00    -0.045 A 
BRANCH  24  25
ATOM     25  C   UNL A   1      36.394  32.528  29.379  1.00  0.00     0.019 C 
ATOM     26  C   UNL A   1      37.577  33.313  28.856  1.00  0.00     0.009 C 
ATOM     27  C   UNL A   1      36.266  34.004  29.101  1.00  0.00     0.009 C 
ENDBRANCH  24  25
ENDBRANCH  18  19
ENDBRANCH  13  18
ENDBRANCH   7   9
ENDBRANCH   6   7
ENDBRANCH   5   6
ENDBRANCH   4   5
ENDBRANCH   3   4
ENDBRANCH   2   3
ENDBRANCH   1   2
BRANCH   1  28
ATOM     28  O   UNL A   1      39.266  21.011  26.636  1.00  0.00    -0.377 OA
BRANCH  28  29
ATOM     29  C   UNL A   1      40.097  19.976  26.139  1.00  0.00     0.188 C 
BRANCH  29  30
ATOM     30  C   UNL A   1      41.601  20.243  26.161  1.00  0.00     0.188 C 
BRANCH  30  31
ATOM     31  O   UNL A   1      42.228  20.446  27.434  1.00  0.00    -0.376 OA
BRANCH  31  32
ATOM     32  C   UNL A   1      42.343  21.767  27.959  1.00  0.00     0.202 C 
BRANCH  32  33
ATOM     33  C   UNL A   1      42.152  22.867  26.918  1.00  0.00     0.261 C 
BRANCH  33  34
ATOM     34  O   UNL A   1      41.309  23.914  27.419  1.00  0.00    -0.460 OA
BRANCH  34  35
ATOM     35  C   UNL A   1      41.255  25.027  26.655  1.00  0.00     0.338 C 
ATOM     36  O   UNL A   1      40.269  25.554  26.163  1.00  0.00    -0.246 OA
BRANCH  35  37
ATOM     37  C   UNL A   1      42.593  25.634  26.618  1.00  0.00     0.060 A 
ATOM     38  C   UNL A   1      43.226  25.950  27.829  1.00  0.00     0.016 A 
ATOM     39  C   UNL A   1      43.187  25.947  25.395  1.00  0.00     0.016 A 
ATOM     40  C   UNL A   1      44.439  26.624  27.823  1.00  0.00     0.010 A 
ATOM     41  C   UNL A   1      44.389  26.648  25.387  1.00  0.00     0.010 A 
ATOM     42  C   UNL A   1      44.989  27.027  26.602  1.00  0.00    -0.014 A 
BRANCH  42  43
ATOM     43  C   UNL A   1      46.049  28.051  26.592  1.00  0.00     0.031 A 
ATOM     44  C   UNL A   1      45.630  29.492  26.683  1.00  0.00     0.074 A 
ATOM     45  C   UNL A   1      47.343  27.703  26.517  1.00  0.00     0.049 A 
ATOM     46  N   UNL A   1      46.357  30.573  26.599  1.00  0.00    -0.248 NA
ATOM     47  C   UNL A   1      44.192  29.744  26.891  1.00  0.00     0.031 C 
ATOM     48  C   UNL A   1      47.853  26.334  26.495  1.00  0.00     0.029 A 
ATOM     49  N   UNL A   1      48.462  28.488  26.436  1.00  0.00    -0.354 N 
ATOM     50  C   UNL A   1      45.466  31.631  26.727  1.00  0.00     0.074 A 
ATOM     51  C   UNL A   1      44.143  31.065  26.865  1.00  0.00     0.031 C 
ATOM     52  C   UNL A   1      49.192  26.374  26.389  1.00  0.00     0.029 A 
ATOM     53  C   UNL A   1      49.621  27.767  26.294  1.00  0.00     0.049 A 
ATOM     54  H   UNL A   1      48.437  29.471  26.475  1.00  0.00     0.167 HD
ATOM     55  C   UNL A   1      45.731  32.956  26.732  1.00  0.00     0.031 A 
ATOM     56  C   UNL A   1      50.878  28.196  26.078  1.00  0.00     0.031 A 
ATOM     57  C   UNL A   1      47.051  33.503  26.573  1.00  0.00     0.049 A 
ATOM     58  C   UNL A   1      51.134  29.678  25.988  1.00  0.00     0.074 A 
ATOM     59  C   UNL A   1      47.440  34.830  26.560  1.00  0.00     0.029 A 
ATOM     60  N   UNL A   1      48.198  32.744  26.392  1.00  0.00    -0.354 N 
ATOM     61  N   UNL A   1      50.290  30.675  26.118  1.00  0.00    -0.248 NA
ATOM     62  C   UNL A   1      52.519  30.093  25.729  1.00  0.00     0.031 C 
ATOM     63  C   UNL A   1      48.815  34.875  26.309  1.00  0.00     0.029 A 
ATOM     64  C   UNL A   1      49.293  33.574  26.240  1.00  0.00     0.049 A 
ATOM     65  H   UNL A   1      48.227  31.760  26.376  1.00  0.00     0.167 HD
ATOM     66  C   UNL A   1      51.047  31.833  25.994  1.00  0.00     0.074 A 
ATOM     67  C   UNL A   1      52.419  31.414  25.792  1.00  0.00     0.031 C 
ATOM     68  C   UNL A   1      50.649  33.129  26.046  1.00  0.00     0.031 A 
BRANCH  55  69
ATOM     69  C   UNL A   1      44.566  33.898  26.868  1.00  0.00    -0.014 A 
ATOM     70  C   UNL A   1      44.124  34.340  28.124  1.00  0.00     0.009 A 
ATOM     71  C   UNL A   1      43.915  34.366  25.716  1.00  0.00     0.009 A 
ATOM     72  C   UNL A   1      43.032  35.207  28.225  1.00  0.00     0.001 A 
ATOM     73  C   UNL A   1      42.845  35.256  25.818  1.00  0.00     0.001 A 
ATOM     74  C   UNL A   1      42.398  35.668  27.072  1.00  0.00     0.000 A 
ENDBRANCH  55  69
BRANCH  56  75
ATOM     75  C   UNL A   1      51.985  27.219  25.908  1.00  0.00    -0.014 A 
ATOM     76  C   UNL A   1      52.158  26.539  24.692  1.00  0.00     0.009 A 
ATOM     77  C   UNL A   1      52.861  26.941  26.969  1.00  0.00     0.009 A 
ATOM     78  C   UNL A   1      53.164  25.579  24.555  1.00  0.00     0.001 A 
ATOM     79  C   UNL A   1      53.887  26.006  26.818  1.00  0.00     0.001 A 
ATOM     80  C   UNL A   1      54.029  25.316  25.615  1.00  0.00     0.000 A 
ENDBRANCH  56  75
BRANCH  68  81
ATOM     81  C   UNL A   1      51.717  34.182  25.938  1.00  0.00    -0.014 A 
ATOM     82  C   UNL A   1      52.416  34.638  27.066  1.00  0.00     0.009 A 
ATOM     83  C   UNL A   1      52.060  34.688  24.674  1.00  0.00     0.009 A 
ATOM     84  C   UNL A   1      53.409  35.610  26.933  1.00  0.00     0.001 A 
ATOM     85  C   UNL A   1      53.078  35.632  24.540  1.00  0.00     0.001 A 
ATOM     86  C   UNL A   1      53.744  36.100  25.671  1.00  0.00     0.000 A 
ENDBRANCH  68  81
ENDBRANCH  42  43
ENDBRANCH  35  37
ENDBRANCH  34  35
ENDBRANCH  33  34
ENDBRANCH  32  33
ENDBRANCH  31  32
ENDBRANCH  30  31
ENDBRANCH  29  30
ENDBRANCH  28  29
ENDBRANCH   1  28
TORSDOF 24
ENDMDL
