MODEL 1
REMARK VINA RESULT:     -10.2      0.000      0.000
REMARK SMILES O=C(OCCOCCOCCOCCOC(=O)[C@@H]1[C@H](C(=O)Nc2ccccc2OC(F)F)[C@@H]2C=C[C@H]1C2)c1ccc(-c2c3nc(c(-c4ccccc4)c4ccc([nH]4)c(-c4ccccc4)c4nc(c(-c5ccccc5)c5ccc2[nH]5)C=C4)C=C3)cc1
REMARK SMILES IDX 10 1 9 2 8 3 7 4 6 5 5 6 4 7 3 8 2 9 1 10 38 11 39 12 85 13
REMARK SMILES IDX 40 14 84 15 41 16 42 17 43 18 78 19 44 20 83 21 77 22 79 23
REMARK SMILES IDX 45 24 82 25 76 26 75 27 46 29 68 30 53 31 67 32 54 33 57 34
REMARK SMILES IDX 66 35 80 36 55 37 56 38 65 40 81 41 58 42 47 43 48 44 52 45
REMARK SMILES IDX 49 46 51 47 50 48 69 49 70 50 74 51 71 52 73 53 72 54 59 55
REMARK SMILES IDX 60 56 64 57 61 58 63 59 62 60 11 61 12 62 13 63 14 64 15 65
REMARK SMILES IDX 16 66 17 67 18 68 19 69 36 70 33 71 35 72 37 73 34 74 20 75
REMARK SMILES IDX 21 76 22 77 23 79 24 80 28 81 25 82 27 83 26 84 29 85 30 86
REMARK SMILES IDX 31 87 32 88
REMARK H PARENT 79 28 57 39 22 78
REMARK Flexibility Score: inf
ROOT
ATOM      1  C   UNL A   1      35.173  31.879  28.150  1.00  0.00     0.188 C 
ENDROOT
BRANCH   1   2
ATOM      2  O   UNL A   1      34.973  32.295  29.504  1.00  0.00    -0.377 OA
BRANCH   2   3
ATOM      3  C   UNL A   1      35.192  33.681  29.725  1.00  0.00     0.188 C 
BRANCH   3   4
ATOM      4  C   UNL A   1      34.200  34.288  30.716  1.00  0.00     0.188 C 
BRANCH   4   5
ATOM      5  O   UNL A   1      34.051  33.496  31.905  1.00  0.00    -0.376 OA
BRANCH   5   6
ATOM      6  C   UNL A   1      34.079  34.245  33.123  1.00  0.00     0.202 C 
BRANCH   6   7
ATOM      7  C   UNL A   1      35.233  33.875  34.064  1.00  0.00     0.261 C 
BRANCH   7   8
ATOM      8  O   UNL A   1      36.411  33.403  33.388  1.00  0.00    -0.460 OA
BRANCH   8   9
ATOM      9  C   UNL A   1      37.239  32.377  33.700  1.00  0.00     0.338 C 
ATOM     10  O   UNL A   1      37.161  31.897  34.831  1.00  0.00    -0.246 OA
BRANCH   9  11
ATOM     11  C   UNL A   1      38.238  31.769  32.767  1.00  0.00     0.060 A 
ATOM     12  C   UNL A   1      39.334  30.985  33.132  1.00  0.00     0.016 A 
ATOM     13  C   UNL A   1      38.005  31.966  31.393  1.00  0.00     0.016 A 
ATOM     14  C   UNL A   1      40.201  30.456  32.189  1.00  0.00     0.010 A 
ATOM     15  C   UNL A   1      38.866  31.436  30.432  1.00  0.00     0.010 A 
ATOM     16  C   UNL A   1      39.983  30.701  30.839  1.00  0.00    -0.014 A 
BRANCH  16  17
ATOM     17  C   UNL A   1      41.049  30.346  29.893  1.00  0.00     0.031 A 
ATOM     18  C   UNL A   1      40.912  29.043  29.171  1.00  0.00     0.074 A 
ATOM     19  C   UNL A   1      42.031  31.222  29.621  1.00  0.00     0.049 A 
ATOM     20  N   UNL A   1      41.779  28.415  28.428  1.00  0.00    -0.248 NA
ATOM     21  C   UNL A   1      39.614  28.353  29.299  1.00  0.00     0.031 C 
ATOM     22  C   UNL A   1      42.128  32.581  30.160  1.00  0.00     0.029 A 
ATOM     23  N   UNL A   1      43.127  31.103  28.812  1.00  0.00    -0.354 N 
ATOM     24  C   UNL A   1      41.157  27.229  28.060  1.00  0.00     0.074 A 
ATOM     25  C   UNL A   1      39.830  27.234  28.626  1.00  0.00     0.031 C 
ATOM     26  C   UNL A   1      43.231  33.169  29.667  1.00  0.00     0.029 A 
ATOM     27  C   UNL A   1      43.960  32.195  28.866  1.00  0.00     0.049 A 
ATOM     28  H   UNL A   1      43.302  30.315  28.247  1.00  0.00     0.167 HD
ATOM     29  C   UNL A   1      41.682  26.214  27.339  1.00  0.00     0.031 A 
ATOM     30  C   UNL A   1      45.208  32.339  28.384  1.00  0.00     0.031 A 
ATOM     31  C   UNL A   1      43.011  26.262  26.800  1.00  0.00     0.049 A 
ATOM     32  C   UNL A   1      45.814  31.149  27.684  1.00  0.00     0.074 A 
ATOM     33  C   UNL A   1      43.697  25.297  26.092  1.00  0.00     0.029 A 
ATOM     34  N   UNL A   1      43.858  27.357  26.926  1.00  0.00    -0.354 N 
ATOM     35  N   UNL A   1      45.259  29.997  27.385  1.00  0.00    -0.248 NA
ATOM     36  C   UNL A   1      47.222  31.262  27.287  1.00  0.00     0.031 C 
ATOM     37  C   UNL A   1      44.983  25.787  25.843  1.00  0.00     0.029 A 
ATOM     38  C   UNL A   1      45.076  27.079  26.342  1.00  0.00     0.049 A 
ATOM     39  H   UNL A   1      43.623  28.205  27.367  1.00  0.00     0.167 HD
ATOM     40  C   UNL A   1      46.247  29.248  26.763  1.00  0.00     0.074 A 
ATOM     41  C   UNL A   1      47.424  30.094  26.695  1.00  0.00     0.031 C 
ATOM     42  C   UNL A   1      46.204  27.974  26.301  1.00  0.00     0.031 A 
BRANCH  29  43
ATOM     43  C   UNL A   1      40.869  24.961  27.209  1.00  0.00    -0.014 A 
ATOM     44  C   UNL A   1      41.261  23.751  27.800  1.00  0.00     0.009 A 
ATOM     45  C   UNL A   1      39.686  24.995  26.453  1.00  0.00     0.009 A 
ATOM     46  C   UNL A   1      40.495  22.596  27.615  1.00  0.00     0.001 A 
ATOM     47  C   UNL A   1      38.913  23.847  26.288  1.00  0.00     0.001 A 
ATOM     48  C   UNL A   1      39.321  22.645  26.862  1.00  0.00     0.000 A 
ENDBRANCH  29  43
BRANCH  30  49
ATOM     49  C   UNL A   1      46.003  33.567  28.660  1.00  0.00    -0.014 A 
ATOM     50  C   UNL A   1      46.632  33.765  29.899  1.00  0.00     0.009 A 
ATOM     51  C   UNL A   1      46.099  34.583  27.693  1.00  0.00     0.009 A 
ATOM     52  C   UNL A   1      47.302  34.961  30.174  1.00  0.00     0.001 A 
ATOM     53  C   UNL A   1      46.802  35.762  27.954  1.00  0.00     0.001 A 
ATOM     54  C   UNL A   1      47.389  35.956  29.202  1.00  0.00     0.000 A 
ENDBRANCH  30  49
BRANCH  42  55
ATOM     55  C   UNL A   1      47.455  27.447  25.666  1.00  0.00    -0.014 A 
ATOM     56  C   UNL A   1      48.465  26.862  26.444  1.00  0.00     0.009 A 
ATOM     57  C   UNL A   1      47.583  27.471  24.270  1.00  0.00     0.009 A 
ATOM     58  C   UNL A   1      49.596  26.327  25.830  1.00  0.00     0.001 A 
ATOM     59  C   UNL A   1      48.699  26.904  23.659  1.00  0.00     0.001 A 
ATOM     60  C   UNL A   1      49.707  26.338  24.440  1.00  0.00     0.000 A 
ENDBRANCH  42  55
ENDBRANCH  16  17
ENDBRANCH   9  11
ENDBRANCH   8   9
ENDBRANCH   7   8
ENDBRANCH   6   7
ENDBRANCH   5   6
ENDBRANCH   4   5
ENDBRANCH   3   4
ENDBRANCH   2   3
ENDBRANCH   1   2
BRANCH   1  61
ATOM     61  C   UNL A   1      35.564  30.388  27.982  1.00  0.00     0.188 C 
BRANCH  61  62
ATOM     62  O   UNL A   1      34.429  29.624  27.589  1.00  0.00    -0.376 OA
BRANCH  62  63
ATOM     63  C   UNL A   1      33.408  30.380  26.933  1.00  0.00     0.202 C 
BRANCH  63  64
ATOM     64  C   UNL A   1      32.007  29.716  26.873  1.00  0.00     0.261 C 
BRANCH  64  65
ATOM     65  O   UNL A   1      31.861  28.419  27.540  1.00  0.00    -0.463 OA
BRANCH  65  66
ATOM     66  C   UNL A   1      31.730  27.263  26.814  1.00  0.00     0.310 C 
ATOM     67  O   UNL A   1      30.726  26.554  26.892  1.00  0.00    -0.252 OA
BRANCH  66  68
ATOM     68  C   UNL A   1      33.022  26.899  25.961  1.00  0.00     0.119 C 
ATOM     69  C   UNL A   1      33.536  27.232  24.389  1.00  0.00     0.100 C 
ATOM     70  C   UNL A   1      33.109  25.347  25.934  1.00  0.00     0.027 C 
ATOM     71  C   UNL A   1      34.002  25.820  23.932  1.00  0.00     0.025 C 
ATOM     72  C   UNL A   1      32.178  24.810  24.864  1.00  0.00    -0.027 C 
ATOM     73  C   UNL A   1      34.445  25.138  25.223  1.00  0.00     0.017 C 
ATOM     74  C   UNL A   1      32.736  25.052  23.669  1.00  0.00    -0.027 C 
BRANCH  69  75
ATOM     75  C   UNL A   1      32.994  27.918  22.990  1.00  0.00     0.229 C 
ATOM     76  O   UNL A   1      33.899  28.383  22.261  1.00  0.00    -0.274 OA
ATOM     77  N   UNL A   1      31.745  28.009  22.370  1.00  0.00    -0.323 N 
ATOM     78  H   UNL A   1      31.874  28.012  21.394  1.00  0.00     0.170 HD
BRANCH  77  79
ATOM     79  C   UNL A   1      30.305  28.102  22.658  1.00  0.00     0.084 A 
ATOM     80  C   UNL A   1      29.747  26.963  23.246  1.00  0.00     0.030 A 
ATOM     81  C   UNL A   1      29.336  29.109  22.298  1.00  0.00     0.149 A 
ATOM     82  C   UNL A   1      28.419  26.954  23.705  1.00  0.00     0.002 A 
ATOM     83  C   UNL A   1      28.065  29.166  22.874  1.00  0.00     0.049 A 
ATOM     84  C   UNL A   1      27.616  28.088  23.609  1.00  0.00     0.004 A 
BRANCH  81  85
ATOM     85  O   UNL A   1      29.430  30.011  21.226  1.00  0.00    -0.433 OA
BRANCH  85  86
ATOM     86  C   UNL A   1      28.374  30.858  21.458  1.00  0.00     0.542 C 
ATOM     87  F   UNL A   1      27.783  30.810  20.265  1.00  0.00    -0.167 F 
ATOM     88  F   UNL A   1      28.655  32.147  21.577  1.00  0.00    -0.167 F 
ENDBRANCH  85  86
ENDBRANCH  81  85
ENDBRANCH  77  79
ENDBRANCH  69  75
ENDBRANCH  66  68
ENDBRANCH  65  66
ENDBRANCH  64  65
ENDBRANCH  63  64
ENDBRANCH  62  63
ENDBRANCH  61  62
ENDBRANCH   1  61
TORSDOF 24
ENDMDL
MODEL 2
REMARK VINA RESULT:      -9.6      4.652      9.896
REMARK SMILES O=C(OCCOCCOCCOCCOC(=O)[C@@H]1[C@H](C(=O)Nc2ccccc2OC(F)F)[C@@H]2C=C[C@H]1C2)c1ccc(-c2c3nc(c(-c4ccccc4)c4ccc([nH]4)c(-c4ccccc4)c4nc(c(-c5ccccc5)c5ccc2[nH]5)C=C4)C=C3)cc1
REMARK SMILES IDX 10 1 9 2 8 3 7 4 6 5 5 6 4 7 3 8 2 9 1 10 38 11 39 12 85 13
REMARK SMILES IDX 40 14 84 15 41 16 42 17 43 18 78 19 44 20 83 21 77 22 79 23
REMARK SMILES IDX 45 24 82 25 76 26 75 27 46 29 68 30 53 31 67 32 54 33 57 34
REMARK SMILES IDX 66 35 80 36 55 37 56 38 65 40 81 41 58 42 47 43 48 44 52 45
REMARK SMILES IDX 49 46 51 47 50 48 69 49 70 50 74 51 71 52 73 53 72 54 59 55
REMARK SMILES IDX 60 56 64 57 61 58 63 59 62 60 11 61 12 62 13 63 14 64 15 65
REMARK SMILES IDX 16 66 17 67 18 68 19 69 36 70 33 71 35 72 37 73 34 74 20 75
REMARK SMILES IDX 21 76 22 77 23 79 24 80 28 81 25 82 27 83 26 84 29 85 30 86
REMARK SMILES IDX 31 87 32 88
REMARK H PARENT 79 28 57 39 22 78
REMARK Flexibility Score: inf
ROOT
ATOM      1  C   UNL A   1      40.940  20.893  27.538  1.00  0.00     0.188 C 
ENDROOT
BRANCH   1   2
ATOM      2  O   UNL A   1      41.369  19.592  27.125  1.00  0.00    -0.377 OA
BRANCH   2   3
ATOM      3  C   UNL A   1      41.968  19.560  25.837  1.00  0.00     0.188 C 
BRANCH   3   4
ATOM      4  C   UNL A   1      43.487  19.724  25.887  1.00  0.00     0.188 C 
BRANCH   4   5
ATOM      5  O   UNL A   1      44.091  19.692  24.585  1.00  0.00    -0.376 OA
BRANCH   5   6
ATOM      6  C   UNL A   1      45.226  20.549  24.436  1.00  0.00     0.202 C 
BRANCH   6   7
ATOM      7  C   UNL A   1      45.425  21.539  25.591  1.00  0.00     0.261 C 
BRANCH   7   8
ATOM      8  O   UNL A   1      45.003  22.880  25.292  1.00  0.00    -0.460 OA
BRANCH   8   9
ATOM      9  C   UNL A   1      43.755  23.397  25.198  1.00  0.00     0.338 C 
ATOM     10  O   UNL A   1      43.020  22.971  24.307  1.00  0.00    -0.246 OA
BRANCH   9  11
ATOM     11  C   UNL A   1      43.191  24.445  26.106  1.00  0.00     0.060 A 
ATOM     12  C   UNL A   1      43.200  25.822  25.879  1.00  0.00     0.016 A 
ATOM     13  C   UNL A   1      42.543  23.978  27.264  1.00  0.00     0.016 A 
ATOM     14  C   UNL A   1      42.641  26.715  26.779  1.00  0.00     0.010 A 
ATOM     15  C   UNL A   1      41.971  24.864  28.177  1.00  0.00     0.010 A 
ATOM     16  C   UNL A   1      42.048  26.240  27.942  1.00  0.00    -0.014 A 
BRANCH  16  17
ATOM     17  C   UNL A   1      41.696  27.213  28.984  1.00  0.00     0.031 A 
ATOM     18  C   UNL A   1      42.561  27.248  30.204  1.00  0.00     0.074 A 
ATOM     19  C   UNL A   1      40.708  28.099  28.776  1.00  0.00     0.049 A 
ATOM     20  N   UNL A   1      42.376  27.875  31.331  1.00  0.00    -0.248 NA
ATOM     21  C   UNL A   1      43.816  26.473  30.143  1.00  0.00     0.031 C 
ATOM     22  C   UNL A   1      39.937  28.234  27.536  1.00  0.00     0.029 A 
ATOM     23  N   UNL A   1      40.191  29.062  29.597  1.00  0.00    -0.354 N 
ATOM     24  C   UNL A   1      43.451  27.514  32.133  1.00  0.00     0.074 A 
ATOM     25  C   UNL A   1      44.304  26.645  31.360  1.00  0.00     0.031 C 
ATOM     26  C   UNL A   1      39.041  29.224  27.684  1.00  0.00     0.029 A 
ATOM     27  C   UNL A   1      39.111  29.716  29.053  1.00  0.00     0.049 A 
ATOM     28  H   UNL A   1      40.556  29.268  30.488  1.00  0.00     0.167 HD
ATOM     29  C   UNL A   1      43.669  27.861  33.421  1.00  0.00     0.031 A 
ATOM     30  C   UNL A   1      38.236  30.552  29.641  1.00  0.00     0.031 A 
ATOM     31  C   UNL A   1      42.783  28.729  34.143  1.00  0.00     0.049 A 
ATOM     32  C   UNL A   1      38.435  30.830  31.109  1.00  0.00     0.074 A 
ATOM     33  C   UNL A   1      42.845  29.133  35.461  1.00  0.00     0.029 A 
ATOM     34  N   UNL A   1      41.659  29.325  33.584  1.00  0.00    -0.354 N 
ATOM     35  N   UNL A   1      39.413  30.443  31.897  1.00  0.00    -0.248 NA
ATOM     36  C   UNL A   1      37.401  31.627  31.777  1.00  0.00     0.031 C 
ATOM     37  C   UNL A   1      41.721  29.925  35.715  1.00  0.00     0.029 A 
ATOM     38  C   UNL A   1      40.994  30.064  34.541  1.00  0.00     0.049 A 
ATOM     39  H   UNL A   1      41.378  29.234  32.645  1.00  0.00     0.167 HD
ATOM     40  C   UNL A   1      39.113  30.951  33.153  1.00  0.00     0.074 A 
ATOM     41  C   UNL A   1      37.881  31.704  33.010  1.00  0.00     0.031 C 
ATOM     42  C   UNL A   1      39.776  30.802  34.326  1.00  0.00     0.031 A 
BRANCH  29  43
ATOM     43  C   UNL A   1      44.819  27.211  34.129  1.00  0.00    -0.014 A 
ATOM     44  C   UNL A   1      44.693  25.979  34.789  1.00  0.00     0.009 A 
ATOM     45  C   UNL A   1      46.060  27.869  34.152  1.00  0.00     0.009 A 
ATOM     46  C   UNL A   1      45.780  25.432  35.476  1.00  0.00     0.001 A 
ATOM     47  C   UNL A   1      47.150  27.310  34.820  1.00  0.00     0.001 A 
ATOM     48  C   UNL A   1      47.008  26.096  35.488  1.00  0.00     0.000 A 
ENDBRANCH  29  43
BRANCH  30  49
ATOM     49  C   UNL A   1      37.044  31.059  28.908  1.00  0.00    -0.014 A 
ATOM     50  C   UNL A   1      36.918  32.415  28.573  1.00  0.00     0.009 A 
ATOM     51  C   UNL A   1      35.991  30.188  28.576  1.00  0.00     0.009 A 
ATOM     52  C   UNL A   1      35.754  32.892  27.960  1.00  0.00     0.001 A 
ATOM     53  C   UNL A   1      34.845  30.658  27.930  1.00  0.00     0.001 A 
ATOM     54  C   UNL A   1      34.721  32.013  27.637  1.00  0.00     0.000 A 
ENDBRANCH  30  49
BRANCH  42  55
ATOM     55  C   UNL A   1      39.188  31.488  35.522  1.00  0.00    -0.014 A 
ATOM     56  C   UNL A   1      38.213  30.857  36.308  1.00  0.00     0.009 A 
ATOM     57  C   UNL A   1      39.676  32.747  35.902  1.00  0.00     0.009 A 
ATOM     58  C   UNL A   1      37.720  31.489  37.448  1.00  0.00     0.001 A 
ATOM     59  C   UNL A   1      39.204  33.360  37.061  1.00  0.00     0.001 A 
ATOM     60  C   UNL A   1      38.223  32.733  37.829  1.00  0.00     0.000 A 
ENDBRANCH  42  55
ENDBRANCH  16  17
ENDBRANCH   9  11
ENDBRANCH   8   9
ENDBRANCH   7   8
ENDBRANCH   6   7
ENDBRANCH   5   6
ENDBRANCH   4   5
ENDBRANCH   3   4
ENDBRANCH   2   3
ENDBRANCH   1   2
BRANCH   1  61
ATOM     61  C   UNL A   1      40.294  21.747  26.417  1.00  0.00     0.188 C 
BRANCH  61  62
ATOM     62  O   UNL A   1      39.128  22.400  26.908  1.00  0.00    -0.376 OA
BRANCH  62  63
ATOM     63  C   UNL A   1      38.746  23.560  26.165  1.00  0.00     0.202 C 
BRANCH  63  64
ATOM     64  C   UNL A   1      37.227  23.876  26.135  1.00  0.00     0.261 C 
BRANCH  64  65
ATOM     65  O   UNL A   1      36.557  23.776  24.835  1.00  0.00    -0.463 OA
BRANCH  65  66
ATOM     66  C   UNL A   1      35.238  24.123  24.694  1.00  0.00     0.310 C 
ATOM     67  O   UNL A   1      34.693  24.935  25.441  1.00  0.00    -0.252 OA
BRANCH  66  68
ATOM     68  C   UNL A   1      34.486  23.308  23.553  1.00  0.00     0.119 C 
ATOM     69  C   UNL A   1      33.496  23.729  22.253  1.00  0.00     0.100 C 
ATOM     70  C   UNL A   1      33.544  22.305  24.275  1.00  0.00     0.027 C 
ATOM     71  C   UNL A   1      32.339  22.704  22.427  1.00  0.00     0.025 C 
ATOM     72  C   UNL A   1      32.271  23.019  24.688  1.00  0.00    -0.027 C 
ATOM     73  C   UNL A   1      33.003  21.503  23.094  1.00  0.00     0.017 C 
ATOM     74  C   UNL A   1      31.531  23.215  23.588  1.00  0.00    -0.027 C 
BRANCH  69  75
ATOM     75  C   UNL A   1      32.738  25.042  21.602  1.00  0.00     0.229 C 
ATOM     76  O   UNL A   1      32.530  24.956  20.371  1.00  0.00    -0.274 OA
ATOM     77  N   UNL A   1      32.173  26.203  22.135  1.00  0.00    -0.323 N 
ATOM     78  H   UNL A   1      31.411  26.473  21.571  1.00  0.00     0.170 HD
BRANCH  77  79
ATOM     79  C   UNL A   1      32.310  27.167  23.238  1.00  0.00     0.084 A 
ATOM     80  C   UNL A   1      33.628  27.498  23.569  1.00  0.00     0.030 A 
ATOM     81  C   UNL A   1      31.325  27.713  24.140  1.00  0.00     0.149 A 
ATOM     82  C   UNL A   1      33.913  28.507  24.505  1.00  0.00     0.002 A 
ATOM     83  C   UNL A   1      31.588  28.810  24.961  1.00  0.00     0.049 A 
ATOM     84  C   UNL A   1      32.893  29.228  25.121  1.00  0.00     0.004 A 
BRANCH  81  85
ATOM     85  O   UNL A   1      30.088  27.137  24.471  1.00  0.00    -0.433 OA
BRANCH  85  86
ATOM     86  C   UNL A   1      30.387  26.423  25.605  1.00  0.00     0.542 C 
ATOM     87  F   UNL A   1      31.340  25.626  25.123  1.00  0.00    -0.167 F 
ATOM     88  F   UNL A   1      29.481  25.552  26.022  1.00  0.00    -0.167 F 
ENDBRANCH  85  86
ENDBRANCH  81  85
ENDBRANCH  77  79
ENDBRANCH  69  75
ENDBRANCH  66  68
ENDBRANCH  65  66
ENDBRANCH  64  65
ENDBRANCH  63  64
ENDBRANCH  62  63
ENDBRANCH  61  62
ENDBRANCH   1  61
TORSDOF 24
ENDMDL
MODEL 3
REMARK VINA RESULT:      -9.2      4.317      9.712
REMARK SMILES O=C(OCCOCCOCCOCCOC(=O)[C@@H]1[C@H](C(=O)Nc2ccccc2OC(F)F)[C@@H]2C=C[C@H]1C2)c1ccc(-c2c3nc(c(-c4ccccc4)c4ccc([nH]4)c(-c4ccccc4)c4nc(c(-c5ccccc5)c5ccc2[nH]5)C=C4)C=C3)cc1
REMARK SMILES IDX 10 1 9 2 8 3 7 4 6 5 5 6 4 7 3 8 2 9 1 10 38 11 39 12 85 13
REMARK SMILES IDX 40 14 84 15 41 16 42 17 43 18 78 19 44 20 83 21 77 22 79 23
REMARK SMILES IDX 45 24 82 25 76 26 75 27 46 29 68 30 53 31 67 32 54 33 57 34
REMARK SMILES IDX 66 35 80 36 55 37 56 38 65 40 81 41 58 42 47 43 48 44 52 45
REMARK SMILES IDX 49 46 51 47 50 48 69 49 70 50 74 51 71 52 73 53 72 54 59 55
REMARK SMILES IDX 60 56 64 57 61 58 63 59 62 60 11 61 12 62 13 63 14 64 15 65
REMARK SMILES IDX 16 66 17 67 18 68 19 69 36 70 33 71 35 72 37 73 34 74 20 75
REMARK SMILES IDX 21 76 22 77 23 79 24 80 28 81 25 82 27 83 26 84 29 85 30 86
REMARK SMILES IDX 31 87 32 88
REMARK H PARENT 79 28 57 39 22 78
REMARK Flexibility Score: inf
ROOT
ATOM      1  C   UNL A   1      40.726  21.018  27.474  1.00  0.00     0.188 C 
ENDROOT
BRANCH   1   2
ATOM      2  O   UNL A   1      42.156  20.994  27.450  1.00  0.00    -0.377 OA
BRANCH   2   3
ATOM      3  C   UNL A   1      42.766  22.119  28.068  1.00  0.00     0.188 C 
BRANCH   3   4
ATOM      4  C   UNL A   1      41.938  23.396  27.921  1.00  0.00     0.188 C 
BRANCH   4   5
ATOM      5  O   UNL A   1      42.016  23.958  26.602  1.00  0.00    -0.376 OA
BRANCH   5   6
ATOM      6  C   UNL A   1      43.340  24.032  26.065  1.00  0.00     0.202 C 
BRANCH   6   7
ATOM      7  C   UNL A   1      43.529  25.118  24.999  1.00  0.00     0.261 C 
BRANCH   7   8
ATOM      8  O   UNL A   1      42.453  26.070  24.935  1.00  0.00    -0.460 OA
BRANCH   8   9
ATOM      9  C   UNL A   1      42.420  27.369  25.314  1.00  0.00     0.338 C 
ATOM     10  O   UNL A   1      42.591  28.228  24.448  1.00  0.00    -0.246 OA
BRANCH   9  11
ATOM     11  C   UNL A   1      42.178  27.848  26.711  1.00  0.00     0.060 A 
ATOM     12  C   UNL A   1      41.655  27.092  27.761  1.00  0.00     0.016 A 
ATOM     13  C   UNL A   1      42.574  29.169  26.991  1.00  0.00     0.016 A 
ATOM     14  C   UNL A   1      41.477  27.626  29.028  1.00  0.00     0.010 A 
ATOM     15  C   UNL A   1      42.406  29.718  28.263  1.00  0.00     0.010 A 
ATOM     16  C   UNL A   1      41.828  28.946  29.275  1.00  0.00    -0.014 A 
BRANCH  16  17
ATOM     17  C   UNL A   1      41.396  29.550  30.542  1.00  0.00     0.031 A 
ATOM     18  C   UNL A   1      40.103  30.303  30.533  1.00  0.00     0.074 A 
ATOM     19  C   UNL A   1      42.089  29.322  31.671  1.00  0.00     0.049 A 
ATOM     20  N   UNL A   1      39.586  31.068  31.451  1.00  0.00    -0.248 NA
ATOM     21  C   UNL A   1      39.274  30.170  29.319  1.00  0.00     0.031 C 
ATOM     22  C   UNL A   1      43.263  28.452  31.783  1.00  0.00     0.029 A 
ATOM     23  N   UNL A   1      41.899  29.793  32.940  1.00  0.00    -0.354 N 
ATOM     24  C   UNL A   1      38.410  31.561  30.900  1.00  0.00     0.074 A 
ATOM     25  C   UNL A   1      38.266  30.985  29.585  1.00  0.00     0.031 C 
ATOM     26  C   UNL A   1      43.690  28.457  33.057  1.00  0.00     0.029 A 
ATOM     27  C   UNL A   1      42.884  29.404  33.816  1.00  0.00     0.049 A 
ATOM     28  H   UNL A   1      41.132  30.355  33.201  1.00  0.00     0.167 HD
ATOM     29  C   UNL A   1      37.554  32.450  31.449  1.00  0.00     0.031 A 
ATOM     30  C   UNL A   1      43.137  29.841  35.062  1.00  0.00     0.031 A 
ATOM     31  C   UNL A   1      37.748  32.992  32.763  1.00  0.00     0.049 A 
ATOM     32  C   UNL A   1      42.234  30.919  35.607  1.00  0.00     0.074 A 
ATOM     33  C   UNL A   1      36.995  33.934  33.435  1.00  0.00     0.029 A 
ATOM     34  N   UNL A   1      38.793  32.628  33.604  1.00  0.00    -0.354 N 
ATOM     35  N   UNL A   1      41.155  31.441  35.070  1.00  0.00    -0.248 NA
ATOM     36  C   UNL A   1      42.599  31.492  36.908  1.00  0.00     0.031 C 
ATOM     37  C   UNL A   1      37.622  34.183  34.659  1.00  0.00     0.029 A 
ATOM     38  C   UNL A   1      38.729  33.354  34.775  1.00  0.00     0.049 A 
ATOM     39  H   UNL A   1      39.477  31.951  33.395  1.00  0.00     0.167 HD
ATOM     40  C   UNL A   1      40.710  32.401  35.966  1.00  0.00     0.074 A 
ATOM     41  C   UNL A   1      41.617  32.361  37.098  1.00  0.00     0.031 C 
ATOM     42  C   UNL A   1      39.661  33.255  35.868  1.00  0.00     0.031 A 
BRANCH  29  43
ATOM     43  C   UNL A   1      36.434  32.956  30.590  1.00  0.00    -0.014 A 
ATOM     44  C   UNL A   1      35.138  32.424  30.660  1.00  0.00     0.009 A 
ATOM     45  C   UNL A   1      36.697  33.984  29.670  1.00  0.00     0.009 A 
ATOM     46  C   UNL A   1      34.135  32.896  29.807  1.00  0.00     0.001 A 
ATOM     47  C   UNL A   1      35.690  34.468  28.835  1.00  0.00     0.001 A 
ATOM     48  C   UNL A   1      34.411  33.919  28.899  1.00  0.00     0.000 A 
ENDBRANCH  29  43
BRANCH  30  49
ATOM     49  C   UNL A   1      44.342  29.385  35.808  1.00  0.00    -0.014 A 
ATOM     50  C   UNL A   1      45.587  30.008  35.633  1.00  0.00     0.009 A 
ATOM     51  C   UNL A   1      44.264  28.280  36.675  1.00  0.00     0.009 A 
ATOM     52  C   UNL A   1      46.727  29.513  36.275  1.00  0.00     0.001 A 
ATOM     53  C   UNL A   1      45.396  27.810  37.346  1.00  0.00     0.001 A 
ATOM     54  C   UNL A   1      46.630  28.418  37.132  1.00  0.00     0.000 A 
ENDBRANCH  30  49
BRANCH  42  55
ATOM     55  C   UNL A   1      39.439  34.182  37.025  1.00  0.00    -0.014 A 
ATOM     56  C   UNL A   1      38.758  33.750  38.172  1.00  0.00     0.009 A 
ATOM     57  C   UNL A   1      39.986  35.473  36.989  1.00  0.00     0.009 A 
ATOM     58  C   UNL A   1      38.611  34.609  39.261  1.00  0.00     0.001 A 
ATOM     59  C   UNL A   1      39.865  36.316  38.091  1.00  0.00     0.001 A 
ATOM     60  C   UNL A   1      39.173  35.885  39.223  1.00  0.00     0.000 A 
ENDBRANCH  42  55
ENDBRANCH  16  17
ENDBRANCH   9  11
ENDBRANCH   8   9
ENDBRANCH   7   8
ENDBRANCH   6   7
ENDBRANCH   5   6
ENDBRANCH   4   5
ENDBRANCH   3   4
ENDBRANCH   2   3
ENDBRANCH   1   2
BRANCH   1  61
ATOM     61  C   UNL A   1      40.052  20.735  26.106  1.00  0.00     0.188 C 
BRANCH  61  62
ATOM     62  O   UNL A   1      39.511  21.937  25.568  1.00  0.00    -0.376 OA
BRANCH  62  63
ATOM     63  C   UNL A   1      38.355  22.423  26.255  1.00  0.00     0.202 C 
BRANCH  63  64
ATOM     64  C   UNL A   1      37.739  23.735  25.702  1.00  0.00     0.261 C 
BRANCH  64  65
ATOM     65  O   UNL A   1      36.747  23.599  24.632  1.00  0.00    -0.463 OA
BRANCH  65  66
ATOM     66  C   UNL A   1      35.435  23.940  24.839  1.00  0.00     0.310 C 
ATOM     67  O   UNL A   1      35.110  25.038  25.289  1.00  0.00    -0.252 OA
BRANCH  66  68
ATOM     68  C   UNL A   1      34.416  22.756  24.537  1.00  0.00     0.119 C 
ATOM     69  C   UNL A   1      32.774  22.505  24.828  1.00  0.00     0.100 C 
ATOM     70  C   UNL A   1      34.994  21.489  25.226  1.00  0.00     0.027 C 
ATOM     71  C   UNL A   1      32.801  21.060  25.405  1.00  0.00     0.025 C 
ATOM     72  C   UNL A   1      34.629  21.507  26.698  1.00  0.00    -0.027 C 
ATOM     73  C   UNL A   1      34.017  20.418  24.744  1.00  0.00     0.017 C 
ATOM     74  C   UNL A   1      33.328  21.205  26.806  1.00  0.00    -0.027 C 
BRANCH  69  75
ATOM     75  C   UNL A   1      31.498  23.198  25.613  1.00  0.00     0.229 C 
ATOM     76  O   UNL A   1      30.600  22.391  25.945  1.00  0.00    -0.274 OA
ATOM     77  N   UNL A   1      31.232  24.482  26.094  1.00  0.00    -0.323 N 
ATOM     78  H   UNL A   1      30.671  24.409  26.900  1.00  0.00     0.170 HD
BRANCH  77  79
ATOM     79  C   UNL A   1      31.492  25.905  25.824  1.00  0.00     0.084 A 
ATOM     80  C   UNL A   1      32.182  26.579  26.836  1.00  0.00     0.030 A 
ATOM     81  C   UNL A   1      31.023  26.763  24.763  1.00  0.00     0.149 A 
ATOM     82  C   UNL A   1      32.624  27.902  26.661  1.00  0.00     0.002 A 
ATOM     83  C   UNL A   1      31.575  28.021  24.517  1.00  0.00     0.049 A 
ATOM     84  C   UNL A   1      32.407  28.583  25.465  1.00  0.00     0.004 A 
BRANCH  81  85
ATOM     85  O   UNL A   1      29.869  26.573  23.986  1.00  0.00    -0.433 OA
BRANCH  85  86
ATOM     86  C   UNL A   1      29.738  27.783  23.350  1.00  0.00     0.542 C 
ATOM     87  F   UNL A   1      28.410  27.902  23.367  1.00  0.00    -0.167 F 
ATOM     88  F   UNL A   1      30.002  27.809  22.052  1.00  0.00    -0.167 F 
ENDBRANCH  85  86
ENDBRANCH  81  85
ENDBRANCH  77  79
ENDBRANCH  69  75
ENDBRANCH  66  68
ENDBRANCH  65  66
ENDBRANCH  64  65
ENDBRANCH  63  64
ENDBRANCH  62  63
ENDBRANCH  61  62
ENDBRANCH   1  61
TORSDOF 24
ENDMDL
