MODEL 1
REMARK VINA RESULT:     -10.0      0.000      0.000
REMARK SMILES C[C@@H]1CN(S(=O)(=O)c2ccc(Cl)c(C(=O)OCCOCCOCCOCCOC(=O)c3ccc(-c4c5nc(c(-c6ccccc6)c6ccc([nH]6)c(-c6ccccc6)c6nc(c(-c7ccccc7)c7ccc4[nH]7)C=C6)C=C5)cc3)c2Cl)C[C@H]1C
REMARK SMILES IDX 22 1 21 2 20 3 19 4 18 5 17 6 16 7 14 8 15 9 13 10 8 11 9 12
REMARK SMILES IDX 79 13 10 14 80 15 11 16 12 17 5 18 6 19 7 20 4 21 1 22 2 23
REMARK SMILES IDX 3 24 82 25 81 26 83 27 23 28 24 29 25 30 26 31 27 32 28 33
REMARK SMILES IDX 29 34 30 35 31 36 32 37 78 38 33 39 77 40 34 41 35 42 36 43
REMARK SMILES IDX 71 44 37 45 76 46 70 47 72 48 38 49 75 50 69 51 68 52 39 54
REMARK SMILES IDX 61 55 46 56 60 57 47 58 50 59 59 60 73 61 48 62 49 63 58 65
REMARK SMILES IDX 74 66 51 67 40 68 41 69 45 70 42 71 44 72 43 73 62 74 63 75
REMARK SMILES IDX 67 76 64 77 66 78 65 79 52 80 53 81 57 82 54 83 56 84 55 85
REMARK H PARENT 72 53 50 64
REMARK Flexibility Score: inf
ROOT
ATOM      1  O   UNL A   1      38.381  21.070  25.273  1.00  0.00    -0.377 OA
ENDROOT
BRANCH   1   2
ATOM      2  C   UNL A   1      37.129  21.441  24.719  1.00  0.00     0.188 C 
BRANCH   2   3
ATOM      3  C   UNL A   1      35.895  20.560  24.998  1.00  0.00     0.188 C 
BRANCH   3   4
ATOM      4  O   UNL A   1      34.650  21.175  24.678  1.00  0.00    -0.376 OA
BRANCH   4   5
ATOM      5  C   UNL A   1      33.658  20.321  24.123  1.00  0.00     0.202 C 
BRANCH   5   6
ATOM      6  C   UNL A   1      32.235  20.628  24.588  1.00  0.00     0.261 C 
BRANCH   6   7
ATOM      7  O   UNL A   1      32.220  21.395  25.800  1.00  0.00    -0.460 OA
BRANCH   7   8
ATOM      8  C   UNL A   1      31.442  22.496  25.875  1.00  0.00     0.341 C 
ATOM      9  O   UNL A   1      30.311  22.569  26.315  1.00  0.00    -0.246 OA
BRANCH   8  10
ATOM     10  C   UNL A   1      32.278  23.621  25.392  1.00  0.00     0.098 A 
ATOM     11  C   UNL A   1      32.618  25.547  23.949  1.00  0.00     0.102 A 
ATOM     12  C   UNL A   1      33.702  25.932  24.757  1.00  0.00     0.025 A 
ATOM     13  C   UNL A   1      31.887  24.387  24.266  1.00  0.00     0.077 A 
ATOM     14  C   UNL A   1      34.112  25.144  25.827  1.00  0.00     0.023 A 
ATOM     15  Cl  UNL A   1      30.522  23.873  23.334  1.00  0.00    -0.082 Cl
ATOM     16  C   UNL A   1      33.411  23.984  26.142  1.00  0.00     0.057 A 
ATOM     17  Cl  UNL A   1      34.019  23.041  27.459  1.00  0.00    -0.083 Cl
BRANCH  11  18
ATOM     18  S   UNL A   1      32.219  26.658  22.605  1.00  0.00     0.244 S 
ATOM     19  O   UNL A   1      31.483  25.893  21.616  1.00  0.00    -0.207 OA
ATOM     20  O   UNL A   1      33.393  27.395  22.204  1.00  0.00    -0.207 OA
BRANCH  18  21
ATOM     21  N   UNL A   1      31.110  27.738  23.317  1.00  0.00    -0.197 NA
ATOM     22  C   UNL A   1      27.432  28.390  23.317  1.00  0.00     0.009 C 
ATOM     23  C   UNL A   1      28.841  28.317  22.747  1.00  0.00     0.005 C 
ATOM     24  C   UNL A   1      29.701  27.277  23.462  1.00  0.00     0.106 C 
ATOM     25  C   UNL A   1      29.654  29.598  22.920  1.00  0.00     0.005 C 
ATOM     26  C   UNL A   1      31.083  29.095  22.694  1.00  0.00     0.106 C 
ATOM     27  C   UNL A   1      29.258  30.701  21.950  1.00  0.00     0.009 C 
ENDBRANCH  18  21
ENDBRANCH  11  18
ENDBRANCH   8  10
ENDBRANCH   7   8
ENDBRANCH   6   7
ENDBRANCH   5   6
ENDBRANCH   4   5
ENDBRANCH   3   4
ENDBRANCH   2   3
ENDBRANCH   1   2
BRANCH   1  28
ATOM     28  C   UNL A   1      39.071  21.978  26.128  1.00  0.00     0.188 C 
BRANCH  28  29
ATOM     29  C   UNL A   1      40.398  21.585  26.813  1.00  0.00     0.188 C 
BRANCH  29  30
ATOM     30  O   UNL A   1      41.278  20.813  26.010  1.00  0.00    -0.376 OA
BRANCH  30  31
ATOM     31  C   UNL A   1      41.700  19.568  26.547  1.00  0.00     0.202 C 
BRANCH  31  32
ATOM     32  C   UNL A   1      42.861  18.919  25.787  1.00  0.00     0.261 C 
BRANCH  32  33
ATOM     33  O   UNL A   1      43.284  19.622  24.607  1.00  0.00    -0.460 OA
BRANCH  33  34
ATOM     34  C   UNL A   1      44.614  19.779  24.427  1.00  0.00     0.338 C 
ATOM     35  O   UNL A   1      45.392  19.000  23.911  1.00  0.00    -0.246 OA
BRANCH  34  36
ATOM     36  C   UNL A   1      44.951  21.162  24.812  1.00  0.00     0.060 A 
ATOM     37  C   UNL A   1      45.399  21.419  26.113  1.00  0.00     0.016 A 
ATOM     38  C   UNL A   1      44.828  22.198  23.882  1.00  0.00     0.016 A 
ATOM     39  C   UNL A   1      45.698  22.726  26.498  1.00  0.00     0.010 A 
ATOM     40  C   UNL A   1      45.109  23.506  24.274  1.00  0.00     0.010 A 
ATOM     41  C   UNL A   1      45.516  23.778  25.592  1.00  0.00    -0.014 A 
BRANCH  41  42
ATOM     42  C   UNL A   1      45.551  25.180  26.069  1.00  0.00     0.031 A 
ATOM     43  C   UNL A   1      46.867  25.907  26.042  1.00  0.00     0.074 A 
ATOM     44  C   UNL A   1      44.444  25.800  26.514  1.00  0.00     0.049 A 
ATOM     45  N   UNL A   1      47.156  27.118  26.443  1.00  0.00    -0.248 NA
ATOM     46  C   UNL A   1      48.012  25.162  25.490  1.00  0.00     0.031 C 
ATOM     47  C   UNL A   1      43.103  25.221  26.551  1.00  0.00     0.029 A 
ATOM     48  N   UNL A   1      44.283  27.062  27.026  1.00  0.00    -0.354 N 
ATOM     49  C   UNL A   1      48.513  27.279  26.195  1.00  0.00     0.074 A 
ATOM     50  C   UNL A   1      48.997  26.034  25.640  1.00  0.00     0.031 C 
ATOM     51  C   UNL A   1      42.254  26.128  27.068  1.00  0.00     0.029 A 
ATOM     52  C   UNL A   1      42.998  27.335  27.425  1.00  0.00     0.049 A 
ATOM     53  H   UNL A   1      45.019  27.712  27.100  1.00  0.00     0.167 HD
ATOM     54  C   UNL A   1      49.290  28.367  26.406  1.00  0.00     0.031 A 
ATOM     55  C   UNL A   1      42.489  28.426  28.029  1.00  0.00     0.031 A 
ATOM     56  C   UNL A   1      48.817  29.596  26.982  1.00  0.00     0.049 A 
ATOM     57  C   UNL A   1      43.392  29.591  28.339  1.00  0.00     0.074 A 
ATOM     58  C   UNL A   1      49.524  30.760  27.227  1.00  0.00     0.029 A 
ATOM     59  N   UNL A   1      47.520  29.814  27.416  1.00  0.00    -0.354 N 
ATOM     60  N   UNL A   1      44.667  29.745  28.072  1.00  0.00    -0.248 NA
ATOM     61  C   UNL A   1      42.782  30.735  29.032  1.00  0.00     0.031 C 
ATOM     62  C   UNL A   1      48.667  31.664  27.863  1.00  0.00     0.029 A 
ATOM     63  C   UNL A   1      47.412  31.084  27.957  1.00  0.00     0.049 A 
ATOM     64  H   UNL A   1      46.784  29.164  27.349  1.00  0.00     0.167 HD
ATOM     65  C   UNL A   1      45.003  31.012  28.537  1.00  0.00     0.074 A 
ATOM     66  C   UNL A   1      43.796  31.589  29.091  1.00  0.00     0.031 C 
ATOM     67  C   UNL A   1      46.204  31.643  28.507  1.00  0.00     0.031 A 
BRANCH  54  68
ATOM     68  C   UNL A   1      50.743  28.253  26.043  1.00  0.00    -0.014 A 
ATOM     69  C   UNL A   1      51.695  27.813  26.976  1.00  0.00     0.009 A 
ATOM     70  C   UNL A   1      51.163  28.580  24.746  1.00  0.00     0.009 A 
ATOM     71  C   UNL A   1      53.045  27.737  26.626  1.00  0.00     0.001 A 
ATOM     72  C   UNL A   1      52.508  28.477  24.390  1.00  0.00     0.001 A 
ATOM     73  C   UNL A   1      53.449  28.065  25.332  1.00  0.00     0.000 A 
ENDBRANCH  54  68
BRANCH  55  74
ATOM     74  C   UNL A   1      41.051  28.470  28.404  1.00  0.00    -0.014 A 
ATOM     75  C   UNL A   1      40.611  27.922  29.619  1.00  0.00     0.009 A 
ATOM     76  C   UNL A   1      40.105  29.033  27.533  1.00  0.00     0.009 A 
ATOM     77  C   UNL A   1      39.251  27.917  29.942  1.00  0.00     0.001 A 
ATOM     78  C   UNL A   1      38.750  29.052  27.871  1.00  0.00     0.001 A 
ATOM     79  C   UNL A   1      38.324  28.485  29.071  1.00  0.00     0.000 A 
ENDBRANCH  55  74
BRANCH  67  80
ATOM     80  C   UNL A   1      46.264  33.040  29.058  1.00  0.00    -0.014 A 
ATOM     81  C   UNL A   1      46.047  34.159  28.240  1.00  0.00     0.009 A 
ATOM     82  C   UNL A   1      46.495  33.235  30.429  1.00  0.00     0.009 A 
ATOM     83  C   UNL A   1      46.090  35.446  28.779  1.00  0.00     0.001 A 
ATOM     84  C   UNL A   1      46.508  34.521  30.970  1.00  0.00     0.001 A 
ATOM     85  C   UNL A   1      46.315  35.627  30.144  1.00  0.00     0.000 A 
ENDBRANCH  67  80
ENDBRANCH  41  42
ENDBRANCH  34  36
ENDBRANCH  33  34
ENDBRANCH  32  33
ENDBRANCH  31  32
ENDBRANCH  30  31
ENDBRANCH  29  30
ENDBRANCH  28  29
ENDBRANCH   1  28
TORSDOF 22
ENDMDL
MODEL 2
REMARK VINA RESULT:      -9.9      4.534      6.744
REMARK SMILES C[C@@H]1CN(S(=O)(=O)c2ccc(Cl)c(C(=O)OCCOCCOCCOCCOC(=O)c3ccc(-c4c5nc(c(-c6ccccc6)c6ccc([nH]6)c(-c6ccccc6)c6nc(c(-c7ccccc7)c7ccc4[nH]7)C=C6)C=C5)cc3)c2Cl)C[C@H]1C
REMARK SMILES IDX 22 1 21 2 20 3 19 4 18 5 17 6 16 7 14 8 15 9 13 10 8 11 9 12
REMARK SMILES IDX 79 13 10 14 80 15 11 16 12 17 5 18 6 19 7 20 4 21 1 22 2 23
REMARK SMILES IDX 3 24 82 25 81 26 83 27 23 28 24 29 25 30 26 31 27 32 28 33
REMARK SMILES IDX 29 34 30 35 31 36 32 37 78 38 33 39 77 40 34 41 35 42 36 43
REMARK SMILES IDX 71 44 37 45 76 46 70 47 72 48 38 49 75 50 69 51 68 52 39 54
REMARK SMILES IDX 61 55 46 56 60 57 47 58 50 59 59 60 73 61 48 62 49 63 58 65
REMARK SMILES IDX 74 66 51 67 40 68 41 69 45 70 42 71 44 72 43 73 62 74 63 75
REMARK SMILES IDX 67 76 64 77 66 78 65 79 52 80 53 81 57 82 54 83 56 84 55 85
REMARK H PARENT 72 53 50 64
REMARK Flexibility Score: inf
ROOT
ATOM      1  O   UNL A   1      39.544  21.140  25.870  1.00  0.00    -0.377 OA
ENDROOT
BRANCH   1   2
ATOM      2  C   UNL A   1      38.189  21.362  25.516  1.00  0.00     0.188 C 
BRANCH   2   3
ATOM      3  C   UNL A   1      37.672  22.811  25.404  1.00  0.00     0.188 C 
BRANCH   3   4
ATOM      4  O   UNL A   1      36.273  22.954  25.633  1.00  0.00    -0.376 OA
BRANCH   4   5
ATOM      5  C   UNL A   1      35.612  21.822  26.182  1.00  0.00     0.202 C 
BRANCH   5   6
ATOM      6  C   UNL A   1      34.216  21.574  25.611  1.00  0.00     0.261 C 
BRANCH   6   7
ATOM      7  O   UNL A   1      33.634  22.770  25.074  1.00  0.00    -0.460 OA
BRANCH   7   8
ATOM      8  C   UNL A   1      32.492  22.686  24.360  1.00  0.00     0.341 C 
ATOM      9  O   UNL A   1      32.129  21.763  23.657  1.00  0.00    -0.246 OA
BRANCH   8  10
ATOM     10  C   UNL A   1      31.722  23.913  24.675  1.00  0.00     0.098 A 
ATOM     11  C   UNL A   1      30.824  26.079  24.036  1.00  0.00     0.102 A 
ATOM     12  C   UNL A   1      29.977  26.034  25.159  1.00  0.00     0.025 A 
ATOM     13  C   UNL A   1      31.701  25.010  23.779  1.00  0.00     0.077 A 
ATOM     14  C   UNL A   1      30.045  24.979  26.063  1.00  0.00     0.023 A 
ATOM     15  Cl  UNL A   1      32.745  24.985  22.398  1.00  0.00    -0.082 Cl
ATOM     16  C   UNL A   1      30.922  23.923  25.832  1.00  0.00     0.057 A 
ATOM     17  Cl  UNL A   1      30.972  22.678  27.032  1.00  0.00    -0.083 Cl
BRANCH  11  18
ATOM     18  S   UNL A   1      30.626  27.504  22.973  1.00  0.00     0.244 S 
ATOM     19  O   UNL A   1      29.296  28.034  23.204  1.00  0.00    -0.207 OA
ATOM     20  O   UNL A   1      31.040  27.181  21.628  1.00  0.00    -0.207 OA
BRANCH  18  21
ATOM     21  N   UNL A   1      31.726  28.627  23.629  1.00  0.00    -0.197 NA
ATOM     22  C   UNL A   1      34.401  28.742  26.234  1.00  0.00     0.009 C 
ATOM     23  C   UNL A   1      32.988  28.627  25.684  1.00  0.00     0.005 C 
ATOM     24  C   UNL A   1      32.966  28.087  24.254  1.00  0.00     0.106 C 
ATOM     25  C   UNL A   1      32.257  29.960  25.547  1.00  0.00     0.005 C 
ATOM     26  C   UNL A   1      31.119  29.598  24.588  1.00  0.00     0.106 C 
ATOM     27  C   UNL A   1      31.756  30.514  26.873  1.00  0.00     0.009 C 
ENDBRANCH  18  21
ENDBRANCH  11  18
ENDBRANCH   8  10
ENDBRANCH   7   8
ENDBRANCH   6   7
ENDBRANCH   5   6
ENDBRANCH   4   5
ENDBRANCH   3   4
ENDBRANCH   2   3
ENDBRANCH   1   2
BRANCH   1  28
ATOM     28  C   UNL A   1      40.031  21.615  27.123  1.00  0.00     0.188 C 
BRANCH  28  29
ATOM     29  C   UNL A   1      41.447  21.252  27.623  1.00  0.00     0.188 C 
BRANCH  29  30
ATOM     30  O   UNL A   1      42.195  20.422  26.746  1.00  0.00    -0.376 OA
BRANCH  30  31
ATOM     31  C   UNL A   1      42.816  21.064  25.643  1.00  0.00     0.202 C 
BRANCH  31  32
ATOM     32  C   UNL A   1      44.184  21.677  25.964  1.00  0.00     0.261 C 
BRANCH  32  33
ATOM     33  O   UNL A   1      44.139  22.968  26.593  1.00  0.00    -0.460 OA
BRANCH  33  34
ATOM     34  C   UNL A   1      43.789  24.019  25.820  1.00  0.00     0.338 C 
ATOM     35  O   UNL A   1      43.854  24.105  24.609  1.00  0.00    -0.246 OA
BRANCH  34  36
ATOM     36  C   UNL A   1      43.135  25.011  26.693  1.00  0.00     0.060 A 
ATOM     37  C   UNL A   1      43.571  26.341  26.663  1.00  0.00     0.016 A 
ATOM     38  C   UNL A   1      42.088  24.623  27.532  1.00  0.00     0.016 A 
ATOM     39  C   UNL A   1      42.978  27.285  27.501  1.00  0.00     0.010 A 
ATOM     40  C   UNL A   1      41.508  25.563  28.383  1.00  0.00     0.010 A 
ATOM     41  C   UNL A   1      41.973  26.890  28.392  1.00  0.00    -0.014 A 
BRANCH  41  42
ATOM     42  C   UNL A   1      41.542  27.805  29.475  1.00  0.00     0.031 A 
ATOM     43  C   UNL A   1      42.275  27.749  30.786  1.00  0.00     0.074 A 
ATOM     44  C   UNL A   1      40.527  28.670  29.302  1.00  0.00     0.049 A 
ATOM     45  N   UNL A   1      42.057  28.418  31.889  1.00  0.00    -0.248 NA
ATOM     46  C   UNL A   1      43.405  26.808  30.862  1.00  0.00     0.031 C 
ATOM     47  C   UNL A   1      39.765  28.850  28.069  1.00  0.00     0.029 A 
ATOM     48  N   UNL A   1      39.962  29.556  30.184  1.00  0.00    -0.354 N 
ATOM     49  C   UNL A   1      43.019  27.976  32.789  1.00  0.00     0.074 A 
ATOM     50  C   UNL A   1      43.800  26.962  32.116  1.00  0.00     0.031 C 
ATOM     51  C   UNL A   1      38.823  29.789  28.275  1.00  0.00     0.029 A 
ATOM     52  C   UNL A   1      38.898  30.250  29.661  1.00  0.00     0.049 A 
ATOM     53  H   UNL A   1      40.288  29.685  31.103  1.00  0.00     0.167 HD
ATOM     54  C   UNL A   1      43.238  28.381  34.061  1.00  0.00     0.031 A 
ATOM     55  C   UNL A   1      38.069  31.137  30.244  1.00  0.00     0.031 A 
ATOM     56  C   UNL A   1      42.447  29.370  34.741  1.00  0.00     0.049 A 
ATOM     57  C   UNL A   1      38.274  31.504  31.690  1.00  0.00     0.074 A 
ATOM     58  C   UNL A   1      42.595  29.856  36.028  1.00  0.00     0.029 A 
ATOM     59  N   UNL A   1      41.350  30.013  34.192  1.00  0.00    -0.354 N 
ATOM     60  N   UNL A   1      39.206  31.104  32.523  1.00  0.00    -0.248 NA
ATOM     61  C   UNL A   1      37.312  32.449  32.276  1.00  0.00     0.031 C 
ATOM     62  C   UNL A   1      41.551  30.752  36.278  1.00  0.00     0.029 A 
ATOM     63  C   UNL A   1      40.791  30.870  35.125  1.00  0.00     0.049 A 
ATOM     64  H   UNL A   1      41.018  29.882  33.275  1.00  0.00     0.167 HD
ATOM     65  C   UNL A   1      38.960  31.770  33.718  1.00  0.00     0.074 A 
ATOM     66  C   UNL A   1      37.800  32.609  33.499  1.00  0.00     0.031 C 
ATOM     67  C   UNL A   1      39.634  31.696  34.893  1.00  0.00     0.031 A 
BRANCH  54  68
ATOM     68  C   UNL A   1      44.360  27.718  34.808  1.00  0.00    -0.014 A 
ATOM     69  C   UNL A   1      45.652  28.265  34.820  1.00  0.00     0.009 A 
ATOM     70  C   UNL A   1      44.116  26.534  35.520  1.00  0.00     0.009 A 
ATOM     71  C   UNL A   1      46.687  27.619  35.501  1.00  0.00     0.001 A 
ATOM     72  C   UNL A   1      45.145  25.906  36.223  1.00  0.00     0.001 A 
ATOM     73  C   UNL A   1      46.431  26.443  36.205  1.00  0.00     0.000 A 
ENDBRANCH  54  68
BRANCH  55  74
ATOM     74  C   UNL A   1      36.948  31.732  29.469  1.00  0.00    -0.014 A 
ATOM     75  C   UNL A   1      35.729  31.051  29.334  1.00  0.00     0.009 A 
ATOM     76  C   UNL A   1      37.104  32.974  28.834  1.00  0.00     0.009 A 
ATOM     77  C   UNL A   1      34.698  31.590  28.560  1.00  0.00     0.001 A 
ATOM     78  C   UNL A   1      36.061  33.524  28.083  1.00  0.00     0.001 A 
ATOM     79  C   UNL A   1      34.863  32.826  27.940  1.00  0.00     0.000 A 
ENDBRANCH  55  74
BRANCH  67  80
ATOM     80  C   UNL A   1      39.157  32.568  36.020  1.00  0.00    -0.014 A 
ATOM     81  C   UNL A   1      38.219  32.106  36.956  1.00  0.00     0.009 A 
ATOM     82  C   UNL A   1      39.694  33.856  36.176  1.00  0.00     0.009 A 
ATOM     83  C   UNL A   1      37.805  32.928  38.005  1.00  0.00     0.001 A 
ATOM     84  C   UNL A   1      39.301  34.664  37.243  1.00  0.00     0.001 A 
ATOM     85  C   UNL A   1      38.349  34.204  38.152  1.00  0.00     0.000 A 
ENDBRANCH  67  80
ENDBRANCH  41  42
ENDBRANCH  34  36
ENDBRANCH  33  34
ENDBRANCH  32  33
ENDBRANCH  31  32
ENDBRANCH  30  31
ENDBRANCH  29  30
ENDBRANCH  28  29
ENDBRANCH   1  28
TORSDOF 22
ENDMDL
MODEL 3
REMARK VINA RESULT:      -9.8      1.295      5.968
REMARK SMILES C[C@@H]1CN(S(=O)(=O)c2ccc(Cl)c(C(=O)OCCOCCOCCOCCOC(=O)c3ccc(-c4c5nc(c(-c6ccccc6)c6ccc([nH]6)c(-c6ccccc6)c6nc(c(-c7ccccc7)c7ccc4[nH]7)C=C6)C=C5)cc3)c2Cl)C[C@H]1C
REMARK SMILES IDX 22 1 21 2 20 3 19 4 18 5 17 6 16 7 14 8 15 9 13 10 8 11 9 12
REMARK SMILES IDX 79 13 10 14 80 15 11 16 12 17 5 18 6 19 7 20 4 21 1 22 2 23
REMARK SMILES IDX 3 24 82 25 81 26 83 27 23 28 24 29 25 30 26 31 27 32 28 33
REMARK SMILES IDX 29 34 30 35 31 36 32 37 78 38 33 39 77 40 34 41 35 42 36 43
REMARK SMILES IDX 71 44 37 45 76 46 70 47 72 48 38 49 75 50 69 51 68 52 39 54
REMARK SMILES IDX 61 55 46 56 60 57 47 58 50 59 59 60 73 61 48 62 49 63 58 65
REMARK SMILES IDX 74 66 51 67 40 68 41 69 45 70 42 71 44 72 43 73 62 74 63 75
REMARK SMILES IDX 67 76 64 77 66 78 65 79 52 80 53 81 57 82 54 83 56 84 55 85
REMARK H PARENT 72 53 50 64
REMARK Flexibility Score: inf
ROOT
ATOM      1  O   UNL A   1      39.709  22.145  26.705  1.00  0.00    -0.377 OA
ENDROOT
BRANCH   1   2
ATOM      2  C   UNL A   1      38.978  23.353  26.571  1.00  0.00     0.188 C 
BRANCH   2   3
ATOM      3  C   UNL A   1      37.790  23.406  25.590  1.00  0.00     0.188 C 
BRANCH   3   4
ATOM      4  O   UNL A   1      36.570  23.858  26.169  1.00  0.00    -0.376 OA
BRANCH   4   5
ATOM      5  C   UNL A   1      35.615  22.851  26.478  1.00  0.00     0.202 C 
BRANCH   5   6
ATOM      6  C   UNL A   1      35.540  21.723  25.449  1.00  0.00     0.261 C 
BRANCH   6   7
ATOM      7  O   UNL A   1      34.417  21.873  24.569  1.00  0.00    -0.460 OA
BRANCH   7   8
ATOM      8  C   UNL A   1      34.469  22.795  23.584  1.00  0.00     0.341 C 
ATOM      9  O   UNL A   1      35.377  22.981  22.797  1.00  0.00    -0.246 OA
BRANCH   8  10
ATOM     10  C   UNL A   1      33.156  23.482  23.599  1.00  0.00     0.098 A 
ATOM     11  C   UNL A   1      31.816  25.499  23.807  1.00  0.00     0.102 A 
ATOM     12  C   UNL A   1      30.723  24.802  23.260  1.00  0.00     0.025 A 
ATOM     13  C   UNL A   1      33.050  24.844  23.974  1.00  0.00     0.077 A 
ATOM     14  C   UNL A   1      30.821  23.450  22.947  1.00  0.00     0.023 A 
ATOM     15  Cl  UNL A   1      34.444  25.650  24.608  1.00  0.00    -0.082 Cl
ATOM     16  C   UNL A   1      32.030  22.784  23.124  1.00  0.00     0.057 A 
ATOM     17  Cl  UNL A   1      32.048  21.094  22.753  1.00  0.00    -0.083 Cl
BRANCH  11  18
ATOM     18  S   UNL A   1      31.532  27.228  24.167  1.00  0.00     0.244 S 
ATOM     19  O   UNL A   1      32.730  27.951  23.785  1.00  0.00    -0.207 OA
ATOM     20  O   UNL A   1      31.007  27.378  25.504  1.00  0.00    -0.207 OA
BRANCH  18  21
ATOM     21  N   UNL A   1      30.319  27.658  23.051  1.00  0.00    -0.197 NA
ATOM     22  C   UNL A   1      28.550  30.730  21.873  1.00  0.00     0.009 C 
ATOM     23  C   UNL A   1      28.951  29.632  22.847  1.00  0.00     0.005 C 
ATOM     24  C   UNL A   1      30.330  29.054  22.532  1.00  0.00     0.106 C 
ATOM     25  C   UNL A   1      28.055  28.397  22.804  1.00  0.00     0.005 C 
ATOM     26  C   UNL A   1      28.928  27.350  23.500  1.00  0.00     0.106 C 
ATOM     27  C   UNL A   1      26.714  28.599  23.496  1.00  0.00     0.009 C 
ENDBRANCH  18  21
ENDBRANCH  11  18
ENDBRANCH   8  10
ENDBRANCH   7   8
ENDBRANCH   6   7
ENDBRANCH   5   6
ENDBRANCH   4   5
ENDBRANCH   3   4
ENDBRANCH   2   3
ENDBRANCH   1   2
BRANCH   1  28
ATOM     28  C   UNL A   1      40.925  22.135  27.448  1.00  0.00     0.188 C 
BRANCH  28  29
ATOM     29  C   UNL A   1      41.941  20.979  27.310  1.00  0.00     0.188 C 
BRANCH  29  30
ATOM     30  O   UNL A   1      41.949  20.341  26.042  1.00  0.00    -0.376 OA
BRANCH  30  31
ATOM     31  C   UNL A   1      42.175  18.939  26.040  1.00  0.00     0.202 C 
BRANCH  31  32
ATOM     32  C   UNL A   1      43.489  18.517  25.375  1.00  0.00     0.261 C 
BRANCH  32  33
ATOM     33  O   UNL A   1      43.889  19.322  24.254  1.00  0.00    -0.460 OA
BRANCH  33  34
ATOM     34  C   UNL A   1      45.159  19.782  24.247  1.00  0.00     0.338 C 
ATOM     35  O   UNL A   1      46.141  19.250  23.765  1.00  0.00    -0.246 OA
BRANCH  34  36
ATOM     36  C   UNL A   1      45.134  21.156  24.782  1.00  0.00     0.060 A 
ATOM     37  C   UNL A   1      44.811  22.216  23.927  1.00  0.00     0.016 A 
ATOM     38  C   UNL A   1      45.423  21.389  26.129  1.00  0.00     0.016 A 
ATOM     39  C   UNL A   1      44.807  23.524  24.413  1.00  0.00     0.010 A 
ATOM     40  C   UNL A   1      45.437  22.697  26.610  1.00  0.00     0.010 A 
ATOM     41  C   UNL A   1      45.160  23.772  25.746  1.00  0.00    -0.014 A 
BRANCH  41  42
ATOM     42  C   UNL A   1      45.437  25.157  26.193  1.00  0.00     0.031 A 
ATOM     43  C   UNL A   1      44.290  25.981  26.706  1.00  0.00     0.074 A 
ATOM     44  C   UNL A   1      46.678  25.674  26.148  1.00  0.00     0.049 A 
ATOM     45  N   UNL A   1      44.277  27.224  27.112  1.00  0.00    -0.248 NA
ATOM     46  C   UNL A   1      42.980  25.310  26.764  1.00  0.00     0.031 C 
ATOM     47  C   UNL A   1      47.879  24.966  25.712  1.00  0.00     0.029 A 
ATOM     48  N   UNL A   1      47.122  26.930  26.474  1.00  0.00    -0.354 N 
ATOM     49  C   UNL A   1      42.960  27.485  27.471  1.00  0.00     0.074 A 
ATOM     50  C   UNL A   1      42.199  26.285  27.206  1.00  0.00     0.031 C 
ATOM     51  C   UNL A   1      48.929  25.804  25.791  1.00  0.00     0.029 A 
ATOM     52  C   UNL A   1      48.465  27.112  26.253  1.00  0.00     0.049 A 
ATOM     53  H   UNL A   1      46.536  27.634  26.833  1.00  0.00     0.167 HD
ATOM     54  C   UNL A   1      42.430  28.621  27.982  1.00  0.00     0.031 A 
ATOM     55  C   UNL A   1      49.226  28.216  26.387  1.00  0.00     0.031 A 
ATOM     56  C   UNL A   1      43.179  29.824  28.222  1.00  0.00     0.049 A 
ATOM     57  C   UNL A   1      48.595  29.496  26.869  1.00  0.00     0.074 A 
ATOM     58  C   UNL A   1      42.735  31.025  28.746  1.00  0.00     0.029 A 
ATOM     59  N   UNL A   1      44.526  29.981  27.940  1.00  0.00    -0.354 N 
ATOM     60  N   UNL A   1      47.356  29.724  27.236  1.00  0.00    -0.248 NA
ATOM     61  C   UNL A   1      49.472  30.674  26.959  1.00  0.00     0.031 C 
ATOM     62  C   UNL A   1      43.802  31.929  28.728  1.00  0.00     0.029 A 
ATOM     63  C   UNL A   1      44.924  31.270  28.250  1.00  0.00     0.049 A 
ATOM     64  H   UNL A   1      45.114  29.281  27.575  1.00  0.00     0.167 HD
ATOM     65  C   UNL A   1      47.313  31.057  27.626  1.00  0.00     0.074 A 
ATOM     66  C   UNL A   1      48.652  31.585  27.464  1.00  0.00     0.031 C 
ATOM     67  C   UNL A   1      46.260  31.782  28.080  1.00  0.00     0.031 A 
BRANCH  54  68
ATOM     68  C   UNL A   1      40.957  28.619  28.275  1.00  0.00    -0.014 A 
ATOM     69  C   UNL A   1      40.024  29.060  27.325  1.00  0.00     0.009 A 
ATOM     70  C   UNL A   1      40.497  28.157  29.517  1.00  0.00     0.009 A 
ATOM     71  C   UNL A   1      38.660  29.073  27.627  1.00  0.00     0.001 A 
ATOM     72  C   UNL A   1      39.131  28.144  29.806  1.00  0.00     0.001 A 
ATOM     73  C   UNL A   1      38.216  28.611  28.865  1.00  0.00     0.000 A 
ENDBRANCH  54  68
BRANCH  55  74
ATOM     74  C   UNL A   1      50.672  28.174  26.043  1.00  0.00    -0.014 A 
ATOM     75  C   UNL A   1      51.633  27.888  27.024  1.00  0.00     0.009 A 
ATOM     76  C   UNL A   1      51.100  28.449  24.735  1.00  0.00     0.009 A 
ATOM     77  C   UNL A   1      52.994  27.902  26.708  1.00  0.00     0.001 A 
ATOM     78  C   UNL A   1      52.460  28.435  24.415  1.00  0.00     0.001 A 
ATOM     79  C   UNL A   1      53.405  28.171  25.403  1.00  0.00     0.000 A 
ENDBRANCH  55  74
BRANCH  67  80
ATOM     80  C   UNL A   1      46.518  33.211  28.465  1.00  0.00    -0.014 A 
ATOM     81  C   UNL A   1      46.354  34.259  27.546  1.00  0.00     0.009 A 
ATOM     82  C   UNL A   1      46.885  33.518  29.786  1.00  0.00     0.009 A 
ATOM     83  C   UNL A   1      46.583  35.580  27.933  1.00  0.00     0.001 A 
ATOM     84  C   UNL A   1      47.083  34.843  30.177  1.00  0.00     0.001 A 
ATOM     85  C   UNL A   1      46.941  35.872  29.249  1.00  0.00     0.000 A 
ENDBRANCH  67  80
ENDBRANCH  41  42
ENDBRANCH  34  36
ENDBRANCH  33  34
ENDBRANCH  32  33
ENDBRANCH  31  32
ENDBRANCH  30  31
ENDBRANCH  29  30
ENDBRANCH  28  29
ENDBRANCH   1  28
TORSDOF 22
ENDMDL
