MODEL 1
REMARK VINA RESULT:     -10.0      0.000      0.000
REMARK SMILES CC(C)c1cc2c(cc1Cl)C=C(C(=O)OCCOCCOCCOCCOC(=O)c1ccc(-c3c4nc(c(-c5ccccc5)c5ccc([nH]5)c(-c5ccccc5)c5nc(c(-c6ccccc6)c6ccc3[nH]6)C=C5)C=C4)cc1)[C@@H](C(F)(F)F)O2
REMARK SMILES IDX 22 1 21 2 20 3 19 4 18 5 17 6 16 7 15 8 13 9 14 10 12 11
REMARK SMILES IDX 4 12 5 13 9 14 6 15 8 16 10 17 7 18 83 19 11 20 78 21 2 22
REMARK SMILES IDX 1 23 3 24 79 25 80 26 81 27 82 28 23 29 24 30 25 31 26 32
REMARK SMILES IDX 27 33 28 34 29 35 30 36 31 37 77 38 32 39 76 40 33 41 34 42
REMARK SMILES IDX 35 43 70 44 36 45 75 46 69 47 71 48 37 49 74 50 68 51 67 52
REMARK SMILES IDX 38 54 60 55 45 56 59 57 46 58 49 59 58 60 72 61 47 62 48 63
REMARK SMILES IDX 57 65 73 66 50 67 39 68 40 69 44 70 41 71 43 72 42 73 61 74
REMARK SMILES IDX 62 75 66 76 63 77 65 78 64 79 51 80 52 81 56 82 53 83 55 84
REMARK SMILES IDX 54 85
REMARK H PARENT 71 53 49 64
REMARK Flexibility Score: inf
ROOT
ATOM      1  C   UNL A   1      33.124  29.082  25.927  1.00  0.00     0.188 C 
ENDROOT
BRANCH   1   2
ATOM      2  O   UNL A   1      33.327  28.984  24.518  1.00  0.00    -0.377 OA
BRANCH   2   3
ATOM      3  C   UNL A   1      32.201  29.180  23.677  1.00  0.00     0.188 C 
BRANCH   3   4
ATOM      4  C   UNL A   1      30.899  28.619  24.280  1.00  0.00     0.188 C 
BRANCH   4   5
ATOM      5  O   UNL A   1      30.102  27.917  23.329  1.00  0.00    -0.376 OA
BRANCH   5   6
ATOM      6  C   UNL A   1      29.332  26.821  23.805  1.00  0.00     0.202 C 
BRANCH   6   7
ATOM      7  C   UNL A   1      29.906  25.412  23.586  1.00  0.00     0.261 C 
BRANCH   7   8
ATOM      8  O   UNL A   1      31.064  25.096  24.373  1.00  0.00    -0.460 OA
BRANCH   8   9
ATOM      9  C   UNL A   1      32.249  25.019  23.737  1.00  0.00     0.338 C 
ATOM     10  O   UNL A   1      32.843  25.925  23.183  1.00  0.00    -0.246 OA
BRANCH   9  11
ATOM     11  C   UNL A   1      32.795  23.664  23.968  1.00  0.00     0.087 C 
ATOM     12  C   UNL A   1      33.526  18.690  24.221  1.00  0.00    -0.023 A 
ATOM     13  C   UNL A   1      34.126  19.818  24.811  1.00  0.00     0.052 A 
ATOM     14  C   UNL A   1      32.620  18.921  23.166  1.00  0.00     0.045 A 
ATOM     15  C   UNL A   1      33.754  21.115  24.450  1.00  0.00     0.128 A 
ATOM     16  C   UNL A   1      32.229  20.222  22.821  1.00  0.00     0.032 A 
ATOM     17  Cl  UNL A   1      31.917  17.632  22.250  1.00  0.00    -0.084 Cl
ATOM     18  C   UNL A   1      32.757  21.320  23.502  1.00  0.00     0.019 A 
ATOM     19  O   UNL A   1      34.394  22.121  25.110  1.00  0.00    -0.475 OA
ATOM     20  C   UNL A   1      32.229  22.657  23.291  1.00  0.00     0.027 C 
ATOM     21  C   UNL A   1      33.996  23.499  24.867  1.00  0.00     0.316 C 
BRANCH  12  22
ATOM     22  C   UNL A   1      33.774  17.287  24.770  1.00  0.00     0.014 C 
ATOM     23  C   UNL A   1      32.560  16.607  25.419  1.00  0.00     0.012 C 
ATOM     24  C   UNL A   1      34.289  16.374  23.645  1.00  0.00     0.012 C 
ENDBRANCH  12  22
BRANCH  21  25
ATOM     25  C   UNL A   1      33.813  24.167  26.237  1.00  0.00     0.430 C 
ATOM     26  F   UNL A   1      34.719  23.701  27.132  1.00  0.00    -0.167 F 
ATOM     27  F   UNL A   1      33.979  25.508  26.185  1.00  0.00    -0.167 F 
ATOM     28  F   UNL A   1      32.583  23.932  26.749  1.00  0.00    -0.167 F 
ENDBRANCH  21  25
ENDBRANCH   9  11
ENDBRANCH   8   9
ENDBRANCH   7   8
ENDBRANCH   6   7
ENDBRANCH   5   6
ENDBRANCH   4   5
ENDBRANCH   3   4
ENDBRANCH   2   3
ENDBRANCH   1   2
BRANCH   1  29
ATOM     29  C   UNL A   1      33.006  30.448  26.643  1.00  0.00     0.188 C 
BRANCH  29  30
ATOM     30  O   UNL A   1      31.663  30.902  26.803  1.00  0.00    -0.376 OA
BRANCH  30  31
ATOM     31  C   UNL A   1      31.432  32.295  26.643  1.00  0.00     0.202 C 
BRANCH  31  32
ATOM     32  C   UNL A   1      32.592  33.172  27.129  1.00  0.00     0.261 C 
BRANCH  32  33
ATOM     33  O   UNL A   1      32.295  33.998  28.265  1.00  0.00    -0.460 OA
BRANCH  33  34
ATOM     34  C   UNL A   1      33.227  34.899  28.648  1.00  0.00     0.338 C 
ATOM     35  O   UNL A   1      33.094  36.106  28.744  1.00  0.00    -0.246 OA
BRANCH  34  36
ATOM     36  C   UNL A   1      34.398  34.138  29.133  1.00  0.00     0.060 A 
ATOM     37  C   UNL A   1      35.685  34.486  28.719  1.00  0.00     0.016 A 
ATOM     38  C   UNL A   1      34.195  33.036  29.972  1.00  0.00     0.016 A 
ATOM     39  C   UNL A   1      36.778  33.745  29.169  1.00  0.00     0.010 A 
ATOM     40  C   UNL A   1      35.290  32.290  30.416  1.00  0.00     0.010 A 
ATOM     41  C   UNL A   1      36.590  32.654  30.034  1.00  0.00    -0.014 A 
BRANCH  41  42
ATOM     42  C   UNL A   1      37.763  32.013  30.671  1.00  0.00     0.031 A 
ATOM     43  C   UNL A   1      38.256  32.416  32.027  1.00  0.00     0.074 A 
ATOM     44  C   UNL A   1      38.390  31.037  29.987  1.00  0.00     0.049 A 
ATOM     45  N   UNL A   1      39.219  31.883  32.735  1.00  0.00    -0.248 NA
ATOM     46  C   UNL A   1      37.591  33.557  32.672  1.00  0.00     0.031 C 
ATOM     47  C   UNL A   1      38.003  30.571  28.653  1.00  0.00     0.029 A 
ATOM     48  N   UNL A   1      39.469  30.257  30.314  1.00  0.00    -0.354 N 
ATOM     49  C   UNL A   1      39.265  32.606  33.920  1.00  0.00     0.074 A 
ATOM     50  C   UNL A   1      38.260  33.644  33.816  1.00  0.00     0.031 C 
ATOM     51  C   UNL A   1      38.819  29.573  28.286  1.00  0.00     0.029 A 
ATOM     52  C   UNL A   1      39.801  29.346  29.342  1.00  0.00     0.049 A 
ATOM     53  H   UNL A   1      39.959  30.342  31.164  1.00  0.00     0.167 HD
ATOM     54  C   UNL A   1      40.066  32.406  34.993  1.00  0.00     0.031 A 
ATOM     55  C   UNL A   1      40.784  28.425  29.299  1.00  0.00     0.031 A 
ATOM     56  C   UNL A   1      41.079  31.383  35.075  1.00  0.00     0.049 A 
ATOM     57  C   UNL A   1      41.692  28.265  30.484  1.00  0.00     0.074 A 
ATOM     58  C   UNL A   1      41.906  31.082  36.145  1.00  0.00     0.029 A 
ATOM     59  N   UNL A   1      41.416  30.510  34.053  1.00  0.00    -0.354 N 
ATOM     60  N   UNL A   1      41.669  28.900  31.629  1.00  0.00    -0.248 NA
ATOM     61  C   UNL A   1      42.752  27.251  30.378  1.00  0.00     0.031 C 
ATOM     62  C   UNL A   1      42.789  30.078  35.747  1.00  0.00     0.029 A 
ATOM     63  C   UNL A   1      42.464  29.698  34.454  1.00  0.00     0.049 A 
ATOM     64  H   UNL A   1      40.975  30.472  33.173  1.00  0.00     0.167 HD
ATOM     65  C   UNL A   1      42.690  28.349  32.390  1.00  0.00     0.074 A 
ATOM     66  C   UNL A   1      43.307  27.317  31.582  1.00  0.00     0.031 C 
ATOM     67  C   UNL A   1      43.077  28.672  33.648  1.00  0.00     0.031 A 
BRANCH  54  68
ATOM     68  C   UNL A   1      39.890  33.297  36.193  1.00  0.00    -0.014 A 
ATOM     69  C   UNL A   1      38.986  32.937  37.208  1.00  0.00     0.009 A 
ATOM     70  C   UNL A   1      40.506  34.556  36.250  1.00  0.00     0.009 A 
ATOM     71  C   UNL A   1      38.687  33.827  38.240  1.00  0.00     0.001 A 
ATOM     72  C   UNL A   1      40.226  35.434  37.300  1.00  0.00     0.001 A 
ATOM     73  C   UNL A   1      39.308  35.074  38.287  1.00  0.00     0.000 A 
ENDBRANCH  54  68
BRANCH  55  74
ATOM     74  C   UNL A   1      40.918  27.565  28.095  1.00  0.00    -0.014 A 
ATOM     75  C   UNL A   1      41.695  27.985  27.002  1.00  0.00     0.009 A 
ATOM     76  C   UNL A   1      40.226  26.349  28.007  1.00  0.00     0.009 A 
ATOM     77  C   UNL A   1      41.754  27.218  25.837  1.00  0.00     0.001 A 
ATOM     78  C   UNL A   1      40.313  25.568  26.853  1.00  0.00     0.001 A 
ATOM     79  C   UNL A   1      41.068  26.007  25.766  1.00  0.00     0.000 A 
ENDBRANCH  55  74
BRANCH  67  80
ATOM     80  C   UNL A   1      44.216  27.904  34.259  1.00  0.00    -0.014 A 
ATOM     81  C   UNL A   1      45.540  28.298  34.000  1.00  0.00     0.009 A 
ATOM     82  C   UNL A   1      43.988  26.728  34.989  1.00  0.00     0.009 A 
ATOM     83  C   UNL A   1      46.610  27.515  34.436  1.00  0.00     0.001 A 
ATOM     84  C   UNL A   1      45.062  25.964  35.450  1.00  0.00     0.001 A 
ATOM     85  C   UNL A   1      46.371  26.350  35.163  1.00  0.00     0.000 A 
ENDBRANCH  67  80
ENDBRANCH  41  42
ENDBRANCH  34  36
ENDBRANCH  33  34
ENDBRANCH  32  33
ENDBRANCH  31  32
ENDBRANCH  30  31
ENDBRANCH  29  30
ENDBRANCH   1  29
TORSDOF 22
ENDMDL
MODEL 2
REMARK VINA RESULT:      -9.9      4.005      7.561
REMARK SMILES CC(C)c1cc2c(cc1Cl)C=C(C(=O)OCCOCCOCCOCCOC(=O)c1ccc(-c3c4nc(c(-c5ccccc5)c5ccc([nH]5)c(-c5ccccc5)c5nc(c(-c6ccccc6)c6ccc3[nH]6)C=C5)C=C4)cc1)[C@@H](C(F)(F)F)O2
REMARK SMILES IDX 22 1 21 2 20 3 19 4 18 5 17 6 16 7 15 8 13 9 14 10 12 11
REMARK SMILES IDX 4 12 5 13 9 14 6 15 8 16 10 17 7 18 83 19 11 20 78 21 2 22
REMARK SMILES IDX 1 23 3 24 79 25 80 26 81 27 82 28 23 29 24 30 25 31 26 32
REMARK SMILES IDX 27 33 28 34 29 35 30 36 31 37 77 38 32 39 76 40 33 41 34 42
REMARK SMILES IDX 35 43 70 44 36 45 75 46 69 47 71 48 37 49 74 50 68 51 67 52
REMARK SMILES IDX 38 54 60 55 45 56 59 57 46 58 49 59 58 60 72 61 47 62 48 63
REMARK SMILES IDX 57 65 73 66 50 67 39 68 40 69 44 70 41 71 43 72 42 73 61 74
REMARK SMILES IDX 62 75 66 76 63 77 65 78 64 79 51 80 52 81 56 82 53 83 55 84
REMARK SMILES IDX 54 85
REMARK H PARENT 71 53 49 64
REMARK Flexibility Score: inf
ROOT
ATOM      1  C   UNL A   1      34.999  32.656  29.632  1.00  0.00     0.188 C 
ENDROOT
BRANCH   1   2
ATOM      2  O   UNL A   1      34.251  32.162  28.521  1.00  0.00    -0.377 OA
BRANCH   2   3
ATOM      3  C   UNL A   1      34.934  31.348  27.580  1.00  0.00     0.188 C 
BRANCH   3   4
ATOM      4  C   UNL A   1      35.082  29.888  28.047  1.00  0.00     0.188 C 
BRANCH   4   5
ATOM      5  O   UNL A   1      34.923  28.947  26.987  1.00  0.00    -0.376 OA
BRANCH   5   6
ATOM      6  C   UNL A   1      33.674  28.932  26.310  1.00  0.00     0.202 C 
BRANCH   6   7
ATOM      7  C   UNL A   1      33.679  28.489  24.838  1.00  0.00     0.261 C 
BRANCH   7   8
ATOM      8  O   UNL A   1      32.979  27.265  24.566  1.00  0.00    -0.460 OA
BRANCH   8   9
ATOM      9  C   UNL A   1      33.432  26.499  23.556  1.00  0.00     0.338 C 
ATOM     10  O   UNL A   1      33.988  26.878  22.542  1.00  0.00    -0.246 OA
BRANCH   9  11
ATOM     11  C   UNL A   1      33.285  25.084  23.963  1.00  0.00     0.087 C 
ATOM     12  C   UNL A   1      33.986  20.182  24.861  1.00  0.00    -0.023 A 
ATOM     13  C   UNL A   1      32.873  21.042  24.834  1.00  0.00     0.052 A 
ATOM     14  C   UNL A   1      35.262  20.780  24.813  1.00  0.00     0.045 A 
ATOM     15  C   UNL A   1      33.018  22.419  24.648  1.00  0.00     0.128 A 
ATOM     16  C   UNL A   1      35.407  22.157  24.602  1.00  0.00     0.032 A 
ATOM     17  Cl  UNL A   1      36.720  19.863  24.985  1.00  0.00    -0.084 Cl
ATOM     18  C   UNL A   1      34.282  22.971  24.464  1.00  0.00     0.019 A 
ATOM     19  O   UNL A   1      31.862  23.139  24.619  1.00  0.00    -0.475 OA
ATOM     20  C   UNL A   1      34.408  24.361  24.060  1.00  0.00     0.027 C 
ATOM     21  C   UNL A   1      31.917  24.563  24.330  1.00  0.00     0.316 C 
BRANCH  12  22
ATOM     22  C   UNL A   1      33.811  18.665  24.844  1.00  0.00     0.014 C 
ATOM     23  C   UNL A   1      32.660  18.123  25.703  1.00  0.00     0.012 C 
ATOM     24  C   UNL A   1      33.597  18.185  23.398  1.00  0.00     0.012 C 
ENDBRANCH  12  22
BRANCH  21  25
ATOM     25  C   UNL A   1      30.861  24.850  23.253  1.00  0.00     0.430 C 
ATOM     26  F   UNL A   1      30.144  25.960  23.556  1.00  0.00    -0.167 F 
ATOM     27  F   UNL A   1      31.409  25.066  22.036  1.00  0.00    -0.167 F 
ATOM     28  F   UNL A   1      29.986  23.826  23.125  1.00  0.00    -0.167 F 
ENDBRANCH  21  25
ENDBRANCH   9  11
ENDBRANCH   8   9
ENDBRANCH   7   8
ENDBRANCH   6   7
ENDBRANCH   5   6
ENDBRANCH   4   5
ENDBRANCH   3   4
ENDBRANCH   2   3
ENDBRANCH   1   2
BRANCH   1  29
ATOM     29  C   UNL A   1      34.781  32.122  31.067  1.00  0.00     0.188 C 
BRANCH  29  30
ATOM     30  O   UNL A   1      34.144  33.054  31.939  1.00  0.00    -0.376 OA
BRANCH  30  31
ATOM     31  C   UNL A   1      34.571  34.407  31.855  1.00  0.00     0.202 C 
BRANCH  31  32
ATOM     32  C   UNL A   1      35.537  34.819  32.970  1.00  0.00     0.261 C 
BRANCH  32  33
ATOM     33  O   UNL A   1      36.887  34.357  32.808  1.00  0.00    -0.460 OA
BRANCH  33  34
ATOM     34  C   UNL A   1      37.253  33.236  33.470  1.00  0.00     0.338 C 
ATOM     35  O   UNL A   1      36.793  32.810  34.514  1.00  0.00    -0.246 OA
BRANCH  34  36
ATOM     36  C   UNL A   1      38.183  32.496  32.593  1.00  0.00     0.060 A 
ATOM     37  C   UNL A   1      38.274  32.810  31.235  1.00  0.00     0.016 A 
ATOM     38  C   UNL A   1      38.937  31.445  33.131  1.00  0.00     0.016 A 
ATOM     39  C   UNL A   1      39.143  32.087  30.417  1.00  0.00     0.010 A 
ATOM     40  C   UNL A   1      39.801  30.718  32.308  1.00  0.00     0.010 A 
ATOM     41  C   UNL A   1      39.925  31.049  30.951  1.00  0.00    -0.014 A 
BRANCH  41  42
ATOM     42  C   UNL A   1      40.992  30.437  30.126  1.00  0.00     0.031 A 
ATOM     43  C   UNL A   1      40.844  29.082  29.505  1.00  0.00     0.074 A 
ATOM     44  C   UNL A   1      42.124  31.145  29.943  1.00  0.00     0.049 A 
ATOM     45  N   UNL A   1      41.665  28.464  28.694  1.00  0.00    -0.248 NA
ATOM     46  C   UNL A   1      39.629  28.323  29.830  1.00  0.00     0.031 C 
ATOM     47  C   UNL A   1      42.380  32.471  30.512  1.00  0.00     0.029 A 
ATOM     48  N   UNL A   1      43.258  30.861  29.228  1.00  0.00    -0.354 N 
ATOM     49  C   UNL A   1      41.060  27.252  28.392  1.00  0.00     0.074 A 
ATOM     50  C   UNL A   1      39.821  27.204  29.142  1.00  0.00     0.031 C 
ATOM     51  C   UNL A   1      43.586  32.893  30.105  1.00  0.00     0.029 A 
ATOM     52  C   UNL A   1      44.198  31.861  29.273  1.00  0.00     0.049 A 
ATOM     53  H   UNL A   1      43.387  30.021  28.731  1.00  0.00     0.167 HD
ATOM     54  C   UNL A   1      41.498  26.282  27.555  1.00  0.00     0.031 A 
ATOM     55  C   UNL A   1      45.418  31.947  28.708  1.00  0.00     0.031 A 
ATOM     56  C   UNL A   1      42.745  26.331  26.832  1.00  0.00     0.049 A 
ATOM     57  C   UNL A   1      45.901  30.829  27.830  1.00  0.00     0.074 A 
ATOM     58  C   UNL A   1      43.246  25.410  25.927  1.00  0.00     0.029 A 
ATOM     59  N   UNL A   1      43.690  27.339  26.939  1.00  0.00    -0.354 N 
ATOM     60  N   UNL A   1      45.281  29.727  27.488  1.00  0.00    -0.248 NA
ATOM     61  C   UNL A   1      47.243  30.972  27.247  1.00  0.00     0.031 C 
ATOM     62  C   UNL A   1      44.522  25.823  25.543  1.00  0.00     0.029 A 
ATOM     63  C   UNL A   1      44.787  27.042  26.147  1.00  0.00     0.049 A 
ATOM     64  H   UNL A   1      43.595  28.147  27.494  1.00  0.00     0.167 HD
ATOM     65  C   UNL A   1      46.143  29.057  26.631  1.00  0.00     0.074 A 
ATOM     66  C   UNL A   1      47.325  29.882  26.494  1.00  0.00     0.031 C 
ATOM     67  C   UNL A   1      45.964  27.864  26.013  1.00  0.00     0.031 A 
BRANCH  54  68
ATOM     68  C   UNL A   1      40.631  25.070  27.347  1.00  0.00    -0.014 A 
ATOM     69  C   UNL A   1      41.036  23.822  27.853  1.00  0.00     0.009 A 
ATOM     70  C   UNL A   1      39.492  25.132  26.531  1.00  0.00     0.009 A 
ATOM     71  C   UNL A   1      40.332  22.662  27.527  1.00  0.00     0.001 A 
ATOM     72  C   UNL A   1      38.772  23.974  26.229  1.00  0.00     0.001 A 
ATOM     73  C   UNL A   1      39.200  22.738  26.717  1.00  0.00     0.000 A 
ENDBRANCH  54  68
BRANCH  55  74
ATOM     74  C   UNL A   1      46.239  33.164  28.938  1.00  0.00    -0.014 A 
ATOM     75  C   UNL A   1      46.006  34.332  28.192  1.00  0.00     0.009 A 
ATOM     76  C   UNL A   1      47.295  33.148  29.860  1.00  0.00     0.009 A 
ATOM     77  C   UNL A   1      46.830  35.448  28.347  1.00  0.00     0.001 A 
ATOM     78  C   UNL A   1      48.098  34.276  30.035  1.00  0.00     0.001 A 
ATOM     79  C   UNL A   1      47.872  35.421  29.272  1.00  0.00     0.000 A 
ENDBRANCH  55  74
BRANCH  67  80
ATOM     80  C   UNL A   1      47.058  27.360  25.113  1.00  0.00    -0.014 A 
ATOM     81  C   UNL A   1      48.071  26.540  25.639  1.00  0.00     0.009 A 
ATOM     82  C   UNL A   1      47.155  27.789  23.781  1.00  0.00     0.009 A 
ATOM     83  C   UNL A   1      49.171  26.183  24.858  1.00  0.00     0.001 A 
ATOM     84  C   UNL A   1      48.242  27.403  22.993  1.00  0.00     0.001 A 
ATOM     85  C   UNL A   1      49.255  26.613  23.535  1.00  0.00     0.000 A 
ENDBRANCH  67  80
ENDBRANCH  41  42
ENDBRANCH  34  36
ENDBRANCH  33  34
ENDBRANCH  32  33
ENDBRANCH  31  32
ENDBRANCH  30  31
ENDBRANCH  29  30
ENDBRANCH   1  29
TORSDOF 22
ENDMDL
MODEL 3
REMARK VINA RESULT:      -9.2      4.094      7.436
REMARK SMILES CC(C)c1cc2c(cc1Cl)C=C(C(=O)OCCOCCOCCOCCOC(=O)c1ccc(-c3c4nc(c(-c5ccccc5)c5ccc([nH]5)c(-c5ccccc5)c5nc(c(-c6ccccc6)c6ccc3[nH]6)C=C5)C=C4)cc1)[C@@H](C(F)(F)F)O2
REMARK SMILES IDX 22 1 21 2 20 3 19 4 18 5 17 6 16 7 15 8 13 9 14 10 12 11
REMARK SMILES IDX 4 12 5 13 9 14 6 15 8 16 10 17 7 18 83 19 11 20 78 21 2 22
REMARK SMILES IDX 1 23 3 24 79 25 80 26 81 27 82 28 23 29 24 30 25 31 26 32
REMARK SMILES IDX 27 33 28 34 29 35 30 36 31 37 77 38 32 39 76 40 33 41 34 42
REMARK SMILES IDX 35 43 70 44 36 45 75 46 69 47 71 48 37 49 74 50 68 51 67 52
REMARK SMILES IDX 38 54 60 55 45 56 59 57 46 58 49 59 58 60 72 61 47 62 48 63
REMARK SMILES IDX 57 65 73 66 50 67 39 68 40 69 44 70 41 71 43 72 42 73 61 74
REMARK SMILES IDX 62 75 66 76 63 77 65 78 64 79 51 80 52 81 56 82 53 83 55 84
REMARK SMILES IDX 54 85
REMARK H PARENT 71 53 49 64
REMARK Flexibility Score: inf
ROOT
ATOM      1  C   UNL A   1      33.259  28.406  25.743  1.00  0.00     0.188 C 
ENDROOT
BRANCH   1   2
ATOM      2  O   UNL A   1      32.914  29.379  24.756  1.00  0.00    -0.377 OA
BRANCH   2   3
ATOM      3  C   UNL A   1      31.601  29.335  24.222  1.00  0.00     0.188 C 
BRANCH   3   4
ATOM      4  C   UNL A   1      30.814  28.089  24.668  1.00  0.00     0.188 C 
BRANCH   4   5
ATOM      5  O   UNL A   1      30.240  27.373  23.577  1.00  0.00    -0.376 OA
BRANCH   5   6
ATOM      6  C   UNL A   1      29.561  26.160  23.877  1.00  0.00     0.202 C 
BRANCH   6   7
ATOM      7  C   UNL A   1      30.381  25.043  24.541  1.00  0.00     0.261 C 
BRANCH   7   8
ATOM      8  O   UNL A   1      31.765  25.352  24.765  1.00  0.00    -0.460 OA
BRANCH   8   9
ATOM      9  C   UNL A   1      32.641  25.038  23.791  1.00  0.00     0.338 C 
ATOM     10  O   UNL A   1      33.120  25.794  22.966  1.00  0.00    -0.246 OA
BRANCH   9  11
ATOM     11  C   UNL A   1      33.056  23.633  23.996  1.00  0.00     0.087 C 
ATOM     12  C   UNL A   1      33.347  18.609  24.086  1.00  0.00    -0.023 A 
ATOM     13  C   UNL A   1      34.006  19.659  24.752  1.00  0.00     0.052 A 
ATOM     14  C   UNL A   1      32.525  18.956  22.994  1.00  0.00     0.045 A 
ATOM     15  C   UNL A   1      33.766  20.995  24.424  1.00  0.00     0.128 A 
ATOM     16  C   UNL A   1      32.266  20.297  22.682  1.00  0.00     0.032 A 
ATOM     17  Cl  UNL A   1      31.768  17.765  21.991  1.00  0.00    -0.084 Cl
ATOM     18  C   UNL A   1      32.845  21.319  23.434  1.00  0.00     0.019 A 
ATOM     19  O   UNL A   1      34.451  21.917  25.158  1.00  0.00    -0.475 OA
ATOM     20  C   UNL A   1      32.446  22.704  23.249  1.00  0.00     0.027 C 
ATOM     21  C   UNL A   1      34.186  23.332  24.950  1.00  0.00     0.316 C 
BRANCH  12  22
ATOM     22  C   UNL A   1      33.443  17.171  24.590  1.00  0.00     0.014 C 
ATOM     23  C   UNL A   1      34.869  16.627  24.767  1.00  0.00     0.012 C 
ATOM     24  C   UNL A   1      32.713  17.044  25.937  1.00  0.00     0.012 C 
ENDBRANCH  12  22
BRANCH  21  25
ATOM     25  C   UNL A   1      33.983  23.965  26.334  1.00  0.00     0.430 C 
ATOM     26  F   UNL A   1      34.218  25.300  26.300  1.00  0.00    -0.167 F 
ATOM     27  F   UNL A   1      32.721  23.808  26.794  1.00  0.00    -0.167 F 
ATOM     28  F   UNL A   1      34.817  23.431  27.256  1.00  0.00    -0.167 F 
ENDBRANCH  21  25
ENDBRANCH   9  11
ENDBRANCH   8   9
ENDBRANCH   7   8
ENDBRANCH   6   7
ENDBRANCH   5   6
ENDBRANCH   4   5
ENDBRANCH   3   4
ENDBRANCH   2   3
ENDBRANCH   1   2
BRANCH   1  29
ATOM     29  C   UNL A   1      33.739  28.810  27.156  1.00  0.00     0.188 C 
BRANCH  29  30
ATOM     30  O   UNL A   1      33.049  29.933  27.701  1.00  0.00    -0.376 OA
BRANCH  30  31
ATOM     31  C   UNL A   1      33.573  31.218  27.396  1.00  0.00     0.202 C 
BRANCH  31  32
ATOM     32  C   UNL A   1      34.304  31.880  28.569  1.00  0.00     0.261 C 
BRANCH  32  33
ATOM     33  O   UNL A   1      35.704  31.572  28.666  1.00  0.00    -0.460 OA
BRANCH  33  34
ATOM     34  C   UNL A   1      36.157  31.062  29.833  1.00  0.00     0.338 C 
ATOM     35  O   UNL A   1      35.567  31.012  30.898  1.00  0.00    -0.246 OA
BRANCH  34  36
ATOM     36  C   UNL A   1      37.437  30.384  29.546  1.00  0.00     0.060 A 
ATOM     37  C   UNL A   1      37.798  30.088  28.229  1.00  0.00     0.016 A 
ATOM     38  C   UNL A   1      38.260  29.999  30.611  1.00  0.00     0.016 A 
ATOM     39  C   UNL A   1      39.002  29.429  27.975  1.00  0.00     0.010 A 
ATOM     40  C   UNL A   1      39.461  29.332  30.356  1.00  0.00     0.010 A 
ATOM     41  C   UNL A   1      39.849  29.062  29.035  1.00  0.00    -0.014 A 
BRANCH  41  42
ATOM     42  C   UNL A   1      41.211  28.560  28.743  1.00  0.00     0.031 A 
ATOM     43  C   UNL A   1      41.479  27.124  28.410  1.00  0.00     0.074 A 
ATOM     44  C   UNL A   1      42.226  29.445  28.785  1.00  0.00     0.049 A 
ATOM     45  N   UNL A   1      42.610  26.568  28.054  1.00  0.00    -0.248 NA
ATOM     46  C   UNL A   1      40.344  26.194  28.483  1.00  0.00     0.031 C 
ATOM     47  C   UNL A   1      42.080  30.866  29.111  1.00  0.00     0.029 A 
ATOM     48  N   UNL A   1      43.567  29.291  28.547  1.00  0.00    -0.354 N 
ATOM     49  C   UNL A   1      42.323  25.227  27.839  1.00  0.00     0.074 A 
ATOM     50  C   UNL A   1      40.919  25.045  28.146  1.00  0.00     0.031 C 
ATOM     51  C   UNL A   1      43.282  31.456  29.031  1.00  0.00     0.029 A 
ATOM     52  C   UNL A   1      44.283  30.455  28.676  1.00  0.00     0.049 A 
ATOM     53  H   UNL A   1      43.977  28.428  28.307  1.00  0.00     0.167 HD
ATOM     54  C   UNL A   1      43.157  24.250  27.411  1.00  0.00     0.031 A 
ATOM     55  C   UNL A   1      45.600  30.698  28.525  1.00  0.00     0.031 A 
ATOM     56  C   UNL A   1      44.559  24.440  27.130  1.00  0.00     0.049 A 
ATOM     57  C   UNL A   1      46.510  29.580  28.105  1.00  0.00     0.074 A 
ATOM     58  C   UNL A   1      45.468  23.511  26.650  1.00  0.00     0.029 A 
ATOM     59  N   UNL A   1      45.257  25.622  27.317  1.00  0.00    -0.354 N 
ATOM     60  N   UNL A   1      46.208  28.336  27.825  1.00  0.00    -0.248 NA
ATOM     61  C   UNL A   1      47.938  29.900  27.964  1.00  0.00     0.031 C 
ATOM     62  C   UNL A   1      46.727  24.110  26.614  1.00  0.00     0.029 A 
ATOM     63  C   UNL A   1      46.592  25.435  26.998  1.00  0.00     0.049 A 
ATOM     64  H   UNL A   1      44.863  26.468  27.629  1.00  0.00     0.167 HD
ATOM     65  C   UNL A   1      47.400  27.732  27.450  1.00  0.00     0.074 A 
ATOM     66  C   UNL A   1      48.429  28.748  27.526  1.00  0.00     0.031 C 
ATOM     67  C   UNL A   1      47.615  26.448  27.076  1.00  0.00     0.031 A 
BRANCH  54  68
ATOM     68  C   UNL A   1      42.594  22.871  27.200  1.00  0.00    -0.014 A 
ATOM     69  C   UNL A   1      42.184  22.469  25.917  1.00  0.00     0.009 A 
ATOM     70  C   UNL A   1      42.336  22.025  28.289  1.00  0.00     0.009 A 
ATOM     71  C   UNL A   1      41.508  21.262  25.733  1.00  0.00     0.001 A 
ATOM     72  C   UNL A   1      41.684  20.804  28.099  1.00  0.00     0.001 A 
ATOM     73  C   UNL A   1      41.259  20.430  26.823  1.00  0.00     0.000 A 
ENDBRANCH  54  68
BRANCH  55  74
ATOM     74  C   UNL A   1      46.111  32.076  28.741  1.00  0.00    -0.014 A 
ATOM     75  C   UNL A   1      46.517  32.494  30.021  1.00  0.00     0.009 A 
ATOM     76  C   UNL A   1      46.142  32.998  27.686  1.00  0.00     0.009 A 
ATOM     77  C   UNL A   1      46.918  33.813  30.242  1.00  0.00     0.001 A 
ATOM     78  C   UNL A   1      46.573  34.308  27.903  1.00  0.00     0.001 A 
ATOM     79  C   UNL A   1      46.951  34.717  29.182  1.00  0.00     0.000 A 
ENDBRANCH  55  74
BRANCH  67  80
ATOM     80  C   UNL A   1      49.014  26.043  26.700  1.00  0.00    -0.014 A 
ATOM     81  C   UNL A   1      49.879  25.530  27.682  1.00  0.00     0.009 A 
ATOM     82  C   UNL A   1      49.515  26.280  25.411  1.00  0.00     0.009 A 
ATOM     83  C   UNL A   1      51.221  25.287  27.388  1.00  0.00     0.001 A 
ATOM     84  C   UNL A   1      50.851  26.006  25.113  1.00  0.00     0.001 A 
ATOM     85  C   UNL A   1      51.706  25.523  26.103  1.00  0.00     0.000 A 
ENDBRANCH  67  80
ENDBRANCH  41  42
ENDBRANCH  34  36
ENDBRANCH  33  34
ENDBRANCH  32  33
ENDBRANCH  31  32
ENDBRANCH  30  31
ENDBRANCH  29  30
ENDBRANCH   1  29
TORSDOF 22
ENDMDL
