MODEL 1
REMARK VINA RESULT:      -9.3      0.000      0.000
REMARK SMILES CC[C@@H](NS(=O)(=O)c1cc(C)ccc1C)C(=O)OCCOCCOCCOCCOC(=O)c1ccc(-c2c3nc(c(-c4ccccc4)c4ccc([nH]4)c(-c4ccccc4)c4nc(c(-c5ccccc5)c5ccc2[nH]5)C=C4)C=C3)cc1
REMARK SMILES IDX 23 1 22 2 21 3 20 4 19 5 18 6 16 7 17 8 3 9 2 10 1 11 4 12
REMARK SMILES IDX 5 14 6 15 7 16 8 17 9 18 14 19 10 20 13 21 15 22 11 23 12 24
REMARK SMILES IDX 24 25 25 26 26 27 27 28 28 29 29 30 30 31 31 32 32 33 33 34
REMARK SMILES IDX 34 35 80 36 35 37 79 38 36 39 37 40 38 41 73 42 39 43 78 44
REMARK SMILES IDX 72 45 74 46 40 47 77 48 71 49 70 50 41 52 63 53 48 54 62 55
REMARK SMILES IDX 49 56 52 57 61 58 75 59 50 60 51 61 60 63 76 64 53 65 42 66
REMARK SMILES IDX 43 67 47 68 44 69 46 70 45 71 64 72 65 73 69 74 66 75 68 76
REMARK SMILES IDX 67 77 54 78 55 79 59 80 56 81 58 82 57 83
REMARK H PARENT 4 13 74 51 52 62
REMARK Flexibility Score: inf
ROOT
ATOM      1  C   UNL A   1      37.787  22.231  25.381  1.00  0.00     0.188 C 
ENDROOT
BRANCH   1   2
ATOM      2  C   UNL A   1      36.600  21.299  25.596  1.00  0.00     0.188 C 
BRANCH   2   3
ATOM      3  O   UNL A   1      35.438  21.812  26.220  1.00  0.00    -0.376 OA
BRANCH   3   4
ATOM      4  C   UNL A   1      35.231  23.209  26.310  1.00  0.00     0.202 C 
BRANCH   4   5
ATOM      5  C   UNL A   1      33.820  23.709  26.101  1.00  0.00     0.261 C 
BRANCH   5   6
ATOM      6  O   UNL A   1      33.845  25.143  26.027  1.00  0.00    -0.462 OA
BRANCH   6   7
ATOM      7  C   UNL A   1      32.686  25.789  26.308  1.00  0.00     0.324 C 
ATOM      8  O   UNL A   1      31.733  25.296  26.882  1.00  0.00    -0.250 OA
BRANCH   7   9
ATOM      9  C   UNL A   1      32.653  27.197  25.770  1.00  0.00     0.179 C 
BRANCH   9  10
ATOM     10  C   UNL A   1      33.021  28.258  26.825  1.00  0.00     0.028 C 
ATOM     11  C   UNL A   1      31.876  29.238  27.110  1.00  0.00     0.006 C 
ENDBRANCH   9  10
BRANCH   9  12
ATOM     12  N   UNL A   1      33.554  27.237  24.579  1.00  0.00    -0.197 NA
ATOM     13  H   UNL A   1      34.124  26.391  24.587  1.00  0.00     0.142 HD
BRANCH  12  14
ATOM     14  S   UNL A   1      32.762  27.326  23.058  1.00  0.00     0.241 S 
ATOM     15  O   UNL A   1      33.155  28.578  22.487  1.00  0.00    -0.207 OA
ATOM     16  O   UNL A   1      33.106  26.037  22.470  1.00  0.00    -0.207 OA
BRANCH  14  17
ATOM     17  C   UNL A   1      30.970  27.330  23.197  1.00  0.00     0.085 A 
ATOM     18  C   UNL A   1      30.315  28.576  22.986  1.00  0.00     0.025 A 
ATOM     19  C   UNL A   1      30.192  26.198  23.476  1.00  0.00    -0.031 A 
ATOM     20  C   UNL A   1      28.912  28.687  23.087  1.00  0.00    -0.050 A 
ATOM     21  C   UNL A   1      28.812  26.370  23.724  1.00  0.00     0.005 A 
ATOM     22  C   UNL A   1      30.710  24.802  23.604  1.00  0.00     0.046 C 
ATOM     23  C   UNL A   1      28.096  29.873  22.664  1.00  0.00     0.044 C 
ATOM     24  C   UNL A   1      28.189  27.599  23.562  1.00  0.00     0.004 A 
ENDBRANCH  14  17
ENDBRANCH  12  14
ENDBRANCH   9  12
ENDBRANCH   7   9
ENDBRANCH   6   7
ENDBRANCH   5   6
ENDBRANCH   4   5
ENDBRANCH   3   4
ENDBRANCH   2   3
ENDBRANCH   1   2
BRANCH   1  25
ATOM     25  O   UNL A   1      38.815  22.283  26.356  1.00  0.00    -0.377 OA
BRANCH  25  26
ATOM     26  C   UNL A   1      39.922  21.395  26.189  1.00  0.00     0.188 C 
BRANCH  26  27
ATOM     27  C   UNL A   1      41.034  21.366  27.265  1.00  0.00     0.188 C 
BRANCH  27  28
ATOM     28  O   UNL A   1      41.942  20.290  27.119  1.00  0.00    -0.376 OA
BRANCH  28  29
ATOM     29  C   UNL A   1      41.893  19.533  25.926  1.00  0.00     0.202 C 
BRANCH  29  30
ATOM     30  C   UNL A   1      43.192  18.756  25.782  1.00  0.00     0.261 C 
BRANCH  30  31
ATOM     31  O   UNL A   1      44.362  19.614  25.705  1.00  0.00    -0.460 OA
BRANCH  31  32
ATOM     32  C   UNL A   1      44.467  20.454  24.637  1.00  0.00     0.338 C 
ATOM     33  O   UNL A   1      44.594  20.097  23.477  1.00  0.00    -0.246 OA
BRANCH  32  34
ATOM     34  C   UNL A   1      44.455  21.878  25.117  1.00  0.00     0.060 A 
ATOM     35  C   UNL A   1      45.145  22.215  26.273  1.00  0.00     0.016 A 
ATOM     36  C   UNL A   1      43.581  22.832  24.559  1.00  0.00     0.016 A 
ATOM     37  C   UNL A   1      44.792  23.396  26.946  1.00  0.00     0.010 A 
ATOM     38  C   UNL A   1      43.190  23.988  25.264  1.00  0.00     0.010 A 
ATOM     39  C   UNL A   1      43.715  24.242  26.524  1.00  0.00    -0.014 A 
BRANCH  39  40
ATOM     40  C   UNL A   1      43.442  25.502  27.310  1.00  0.00     0.031 A 
ATOM     41  C   UNL A   1      44.732  26.198  27.385  1.00  0.00     0.074 A 
ATOM     42  C   UNL A   1      42.341  26.105  27.870  1.00  0.00     0.049 A 
ATOM     43  N   UNL A   1      45.463  26.369  28.436  1.00  0.00    -0.248 NA
ATOM     44  C   UNL A   1      45.421  26.455  26.093  1.00  0.00     0.031 C 
ATOM     45  C   UNL A   1      40.968  25.597  27.801  1.00  0.00     0.029 A 
ATOM     46  N   UNL A   1      42.183  27.278  28.666  1.00  0.00    -0.354 N 
ATOM     47  C   UNL A   1      46.493  27.136  27.934  1.00  0.00     0.074 A 
ATOM     48  C   UNL A   1      46.613  26.849  26.531  1.00  0.00     0.031 C 
ATOM     49  C   UNL A   1      40.113  26.460  28.394  1.00  0.00     0.029 A 
ATOM     50  C   UNL A   1      40.821  27.628  28.891  1.00  0.00     0.049 A 
ATOM     51  H   UNL A   1      42.941  27.794  29.025  1.00  0.00     0.167 HD
ATOM     52  C   UNL A   1      46.674  28.345  28.503  1.00  0.00     0.031 A 
ATOM     53  C   UNL A   1      40.233  28.755  29.412  1.00  0.00     0.031 A 
ATOM     54  C   UNL A   1      46.311  28.412  29.877  1.00  0.00     0.049 A 
ATOM     55  C   UNL A   1      41.193  29.597  30.149  1.00  0.00     0.074 A 
ATOM     56  C   UNL A   1      46.930  27.979  31.010  1.00  0.00     0.029 A 
ATOM     57  N   UNL A   1      45.056  28.839  30.225  1.00  0.00    -0.354 N 
ATOM     58  N   UNL A   1      41.465  29.466  31.412  1.00  0.00    -0.248 NA
ATOM     59  C   UNL A   1      42.001  30.573  29.429  1.00  0.00     0.031 C 
ATOM     60  C   UNL A   1      46.099  28.347  32.081  1.00  0.00     0.029 A 
ATOM     61  C   UNL A   1      44.927  28.905  31.602  1.00  0.00     0.049 A 
ATOM     62  H   UNL A   1      44.344  29.067  29.584  1.00  0.00     0.167 HD
ATOM     63  C   UNL A   1      42.747  29.954  31.518  1.00  0.00     0.074 A 
ATOM     64  C   UNL A   1      42.970  30.760  30.325  1.00  0.00     0.031 C 
ATOM     65  C   UNL A   1      43.669  29.265  32.244  1.00  0.00     0.031 A 
BRANCH  52  66
ATOM     66  C   UNL A   1      46.835  29.588  27.713  1.00  0.00    -0.014 A 
ATOM     67  C   UNL A   1      47.988  30.342  27.933  1.00  0.00     0.009 A 
ATOM     68  C   UNL A   1      45.766  30.175  27.007  1.00  0.00     0.009 A 
ATOM     69  C   UNL A   1      48.051  31.664  27.507  1.00  0.00     0.001 A 
ATOM     70  C   UNL A   1      45.845  31.483  26.546  1.00  0.00     0.001 A 
ATOM     71  C   UNL A   1      46.980  32.234  26.822  1.00  0.00     0.000 A 
ENDBRANCH  52  66
BRANCH  53  72
ATOM     72  C   UNL A   1      38.840  29.318  29.245  1.00  0.00    -0.014 A 
ATOM     73  C   UNL A   1      38.356  29.741  27.980  1.00  0.00     0.009 A 
ATOM     74  C   UNL A   1      37.879  29.175  30.255  1.00  0.00     0.009 A 
ATOM     75  C   UNL A   1      36.980  29.886  27.722  1.00  0.00     0.001 A 
ATOM     76  C   UNL A   1      36.509  29.338  30.006  1.00  0.00     0.001 A 
ATOM     77  C   UNL A   1      36.055  29.653  28.732  1.00  0.00     0.000 A 
ENDBRANCH  53  72
BRANCH  65  78
ATOM     78  C   UNL A   1      43.294  28.687  33.603  1.00  0.00    -0.014 A 
ATOM     79  C   UNL A   1      43.406  29.357  34.831  1.00  0.00     0.009 A 
ATOM     80  C   UNL A   1      42.736  27.394  33.658  1.00  0.00     0.009 A 
ATOM     81  C   UNL A   1      42.923  28.798  36.023  1.00  0.00     0.001 A 
ATOM     82  C   UNL A   1      42.170  26.869  34.823  1.00  0.00     0.001 A 
ATOM     83  C   UNL A   1      42.263  27.574  36.010  1.00  0.00     0.000 A 
ENDBRANCH  65  78
ENDBRANCH  39  40
ENDBRANCH  32  34
ENDBRANCH  31  32
ENDBRANCH  30  31
ENDBRANCH  29  30
ENDBRANCH  28  29
ENDBRANCH  27  28
ENDBRANCH  26  27
ENDBRANCH  25  26
ENDBRANCH   1  25
TORSDOF 24
ENDMDL
MODEL 2
REMARK VINA RESULT:      -9.1      3.276      8.701
REMARK SMILES CC[C@@H](NS(=O)(=O)c1cc(C)ccc1C)C(=O)OCCOCCOCCOCCOC(=O)c1ccc(-c2c3nc(c(-c4ccccc4)c4ccc([nH]4)c(-c4ccccc4)c4nc(c(-c5ccccc5)c5ccc2[nH]5)C=C4)C=C3)cc1
REMARK SMILES IDX 23 1 22 2 21 3 20 4 19 5 18 6 16 7 17 8 3 9 2 10 1 11 4 12
REMARK SMILES IDX 5 14 6 15 7 16 8 17 9 18 14 19 10 20 13 21 15 22 11 23 12 24
REMARK SMILES IDX 24 25 25 26 26 27 27 28 28 29 29 30 30 31 31 32 32 33 33 34
REMARK SMILES IDX 34 35 80 36 35 37 79 38 36 39 37 40 38 41 73 42 39 43 78 44
REMARK SMILES IDX 72 45 74 46 40 47 77 48 71 49 70 50 41 52 63 53 48 54 62 55
REMARK SMILES IDX 49 56 52 57 61 58 75 59 50 60 51 61 60 63 76 64 53 65 42 66
REMARK SMILES IDX 43 67 47 68 44 69 46 70 45 71 64 72 65 73 69 74 66 75 68 76
REMARK SMILES IDX 67 77 54 78 55 79 59 80 56 81 58 82 57 83
REMARK H PARENT 4 13 74 51 52 62
REMARK Flexibility Score: inf
ROOT
ATOM      1  C   UNL A   1      31.983  30.622  26.094  1.00  0.00     0.188 C 
ENDROOT
BRANCH   1   2
ATOM      2  C   UNL A   1      31.331  29.459  25.356  1.00  0.00     0.188 C 
BRANCH   2   3
ATOM      3  O   UNL A   1      30.478  29.741  24.262  1.00  0.00    -0.376 OA
BRANCH   3   4
ATOM      4  C   UNL A   1      29.898  28.687  23.517  1.00  0.00     0.202 C 
BRANCH   4   5
ATOM      5  C   UNL A   1      30.698  28.147  22.353  1.00  0.00     0.261 C 
BRANCH   5   6
ATOM      6  O   UNL A   1      30.746  26.715  22.453  1.00  0.00    -0.462 OA
BRANCH   6   7
ATOM      7  C   UNL A   1      31.908  26.173  22.895  1.00  0.00     0.324 C 
ATOM      8  O   UNL A   1      33.019  26.599  22.640  1.00  0.00    -0.250 OA
BRANCH   7   9
ATOM      9  C   UNL A   1      31.701  24.916  23.701  1.00  0.00     0.179 C 
BRANCH   9  10
ATOM     10  C   UNL A   1      30.580  25.045  24.750  1.00  0.00     0.028 C 
ATOM     11  C   UNL A   1      31.053  25.707  26.050  1.00  0.00     0.006 C 
ENDBRANCH   9  10
BRANCH   9  12
ATOM     12  N   UNL A   1      31.453  23.806  22.731  1.00  0.00    -0.197 NA
ATOM     13  H   UNL A   1      31.194  24.221  21.836  1.00  0.00     0.142 HD
BRANCH  12  14
ATOM     14  S   UNL A   1      32.782  22.752  22.461  1.00  0.00     0.241 S 
ATOM     15  O   UNL A   1      32.212  21.481  22.134  1.00  0.00    -0.207 OA
ATOM     16  O   UNL A   1      33.590  23.529  21.529  1.00  0.00    -0.207 OA
BRANCH  14  17
ATOM     17  C   UNL A   1      33.810  22.528  23.919  1.00  0.00     0.085 A 
ATOM     18  C   UNL A   1      35.133  23.048  23.854  1.00  0.00     0.025 A 
ATOM     19  C   UNL A   1      33.389  21.902  25.100  1.00  0.00    -0.031 A 
ATOM     20  C   UNL A   1      36.024  22.911  24.939  1.00  0.00    -0.050 A 
ATOM     21  C   UNL A   1      34.347  21.642  26.106  1.00  0.00     0.005 A 
ATOM     22  C   UNL A   1      32.004  21.411  25.373  1.00  0.00     0.046 C 
ATOM     23  C   UNL A   1      37.345  23.610  25.082  1.00  0.00     0.044 C 
ATOM     24  C   UNL A   1      35.649  22.113  26.013  1.00  0.00     0.004 A 
ENDBRANCH  14  17
ENDBRANCH  12  14
ENDBRANCH   9  12
ENDBRANCH   7   9
ENDBRANCH   6   7
ENDBRANCH   5   6
ENDBRANCH   4   5
ENDBRANCH   3   4
ENDBRANCH   2   3
ENDBRANCH   1   2
BRANCH   1  25
ATOM     25  O   UNL A   1      32.795  30.358  27.226  1.00  0.00    -0.377 OA
BRANCH  25  26
ATOM     26  C   UNL A   1      33.913  31.221  27.445  1.00  0.00     0.188 C 
BRANCH  26  27
ATOM     27  C   UNL A   1      33.666  32.658  27.963  1.00  0.00     0.188 C 
BRANCH  27  28
ATOM     28  O   UNL A   1      34.718  33.559  27.671  1.00  0.00    -0.376 OA
BRANCH  28  29
ATOM     29  C   UNL A   1      36.046  33.133  27.904  1.00  0.00     0.202 C 
BRANCH  29  30
ATOM     30  C   UNL A   1      36.311  33.140  29.401  1.00  0.00     0.261 C 
BRANCH  30  31
ATOM     31  O   UNL A   1      36.110  31.840  30.019  1.00  0.00    -0.460 OA
BRANCH  31  32
ATOM     32  C   UNL A   1      36.540  31.670  31.300  1.00  0.00     0.338 C 
ATOM     33  O   UNL A   1      36.076  32.241  32.274  1.00  0.00    -0.246 OA
BRANCH  32  34
ATOM     34  C   UNL A   1      37.701  30.717  31.316  1.00  0.00     0.060 A 
ATOM     35  C   UNL A   1      38.905  31.097  30.741  1.00  0.00     0.016 A 
ATOM     36  C   UNL A   1      37.537  29.369  31.693  1.00  0.00     0.016 A 
ATOM     37  C   UNL A   1      39.818  30.096  30.370  1.00  0.00     0.010 A 
ATOM     38  C   UNL A   1      38.429  28.362  31.272  1.00  0.00     0.010 A 
ATOM     39  C   UNL A   1      39.541  28.697  30.510  1.00  0.00    -0.014 A 
BRANCH  39  40
ATOM     40  C   UNL A   1      40.608  27.710  30.104  1.00  0.00     0.031 A 
ATOM     41  C   UNL A   1      41.692  27.888  31.077  1.00  0.00     0.074 A 
ATOM     42  C   UNL A   1      40.748  26.737  29.143  1.00  0.00     0.049 A 
ATOM     43  N   UNL A   1      42.861  28.391  30.857  1.00  0.00    -0.248 NA
ATOM     44  C   UNL A   1      41.316  27.782  32.512  1.00  0.00     0.031 C 
ATOM     45  C   UNL A   1      39.729  26.362  28.158  1.00  0.00     0.029 A 
ATOM     46  N   UNL A   1      41.834  25.886  28.781  1.00  0.00    -0.354 N 
ATOM     47  C   UNL A   1      43.463  28.241  32.088  1.00  0.00     0.074 A 
ATOM     48  C   UNL A   1      42.429  28.228  33.086  1.00  0.00     0.031 C 
ATOM     49  C   UNL A   1      40.156  25.326  27.403  1.00  0.00     0.029 A 
ATOM     50  C   UNL A   1      41.481  24.896  27.821  1.00  0.00     0.049 A 
ATOM     51  H   UNL A   1      42.740  25.974  29.158  1.00  0.00     0.167 HD
ATOM     52  C   UNL A   1      44.589  27.500  32.119  1.00  0.00     0.031 A 
ATOM     53  C   UNL A   1      42.138  23.781  27.360  1.00  0.00     0.031 A 
ATOM     54  C   UNL A   1      45.361  27.547  30.925  1.00  0.00     0.049 A 
ATOM     55  C   UNL A   1      43.576  23.806  27.687  1.00  0.00     0.074 A 
ATOM     56  C   UNL A   1      46.202  28.489  30.414  1.00  0.00     0.029 A 
ATOM     57  N   UNL A   1      45.186  26.583  29.968  1.00  0.00    -0.354 N 
ATOM     58  N   UNL A   1      44.490  24.340  26.936  1.00  0.00    -0.248 NA
ATOM     59  C   UNL A   1      44.032  23.316  28.982  1.00  0.00     0.031 C 
ATOM     60  C   UNL A   1      46.695  27.967  29.208  1.00  0.00     0.029 A 
ATOM     61  C   UNL A   1      46.078  26.761  28.924  1.00  0.00     0.049 A 
ATOM     62  H   UNL A   1      44.517  25.861  30.015  1.00  0.00     0.167 HD
ATOM     63  C   UNL A   1      45.478  24.688  27.829  1.00  0.00     0.074 A 
ATOM     64  C   UNL A   1      45.227  23.905  29.031  1.00  0.00     0.031 C 
ATOM     65  C   UNL A   1      46.063  25.914  27.739  1.00  0.00     0.031 A 
BRANCH  52  66
ATOM     66  C   UNL A   1      44.813  26.420  33.109  1.00  0.00    -0.014 A 
ATOM     67  C   UNL A   1      44.430  25.128  32.746  1.00  0.00     0.009 A 
ATOM     68  C   UNL A   1      45.094  26.688  34.463  1.00  0.00     0.009 A 
ATOM     69  C   UNL A   1      44.281  24.144  33.716  1.00  0.00     0.001 A 
ATOM     70  C   UNL A   1      44.985  25.694  35.427  1.00  0.00     0.001 A 
ATOM     71  C   UNL A   1      44.551  24.428  35.053  1.00  0.00     0.000 A 
ENDBRANCH  52  66
BRANCH  53  72
ATOM     72  C   UNL A   1      41.621  22.517  26.713  1.00  0.00    -0.014 A 
ATOM     73  C   UNL A   1      42.468  21.406  26.470  1.00  0.00     0.009 A 
ATOM     74  C   UNL A   1      40.244  22.278  26.598  1.00  0.00     0.009 A 
ATOM     75  C   UNL A   1      41.954  20.114  26.249  1.00  0.00     0.001 A 
ATOM     76  C   UNL A   1      39.729  20.997  26.359  1.00  0.00     0.001 A 
ATOM     77  C   UNL A   1      40.580  19.907  26.225  1.00  0.00     0.000 A 
ENDBRANCH  53  72
BRANCH  65  78
ATOM     78  C   UNL A   1      46.470  26.467  26.378  1.00  0.00    -0.014 A 
ATOM     79  C   UNL A   1      45.648  27.226  25.531  1.00  0.00     0.009 A 
ATOM     80  C   UNL A   1      47.790  26.261  25.931  1.00  0.00     0.009 A 
ATOM     81  C   UNL A   1      46.138  27.802  24.350  1.00  0.00     0.001 A 
ATOM     82  C   UNL A   1      48.311  26.906  24.805  1.00  0.00     0.001 A 
ATOM     83  C   UNL A   1      47.481  27.680  24.012  1.00  0.00     0.000 A 
ENDBRANCH  65  78
ENDBRANCH  39  40
ENDBRANCH  32  34
ENDBRANCH  31  32
ENDBRANCH  30  31
ENDBRANCH  29  30
ENDBRANCH  28  29
ENDBRANCH  27  28
ENDBRANCH  26  27
ENDBRANCH  25  26
ENDBRANCH   1  25
TORSDOF 24
ENDMDL
MODEL 3
REMARK VINA RESULT:      -9.0      2.097      5.326
REMARK SMILES CC[C@@H](NS(=O)(=O)c1cc(C)ccc1C)C(=O)OCCOCCOCCOCCOC(=O)c1ccc(-c2c3nc(c(-c4ccccc4)c4ccc([nH]4)c(-c4ccccc4)c4nc(c(-c5ccccc5)c5ccc2[nH]5)C=C4)C=C3)cc1
REMARK SMILES IDX 23 1 22 2 21 3 20 4 19 5 18 6 16 7 17 8 3 9 2 10 1 11 4 12
REMARK SMILES IDX 5 14 6 15 7 16 8 17 9 18 14 19 10 20 13 21 15 22 11 23 12 24
REMARK SMILES IDX 24 25 25 26 26 27 27 28 28 29 29 30 30 31 31 32 32 33 33 34
REMARK SMILES IDX 34 35 80 36 35 37 79 38 36 39 37 40 38 41 73 42 39 43 78 44
REMARK SMILES IDX 72 45 74 46 40 47 77 48 71 49 70 50 41 52 63 53 48 54 62 55
REMARK SMILES IDX 49 56 52 57 61 58 75 59 50 60 51 61 60 63 76 64 53 65 42 66
REMARK SMILES IDX 43 67 47 68 44 69 46 70 45 71 64 72 65 73 69 74 66 75 68 76
REMARK SMILES IDX 67 77 54 78 55 79 59 80 56 81 58 82 57 83
REMARK H PARENT 4 13 74 51 52 62
REMARK Flexibility Score: inf
ROOT
ATOM      1  C   UNL A   1      39.751  22.376  26.492  1.00  0.00     0.188 C 
ENDROOT
BRANCH   1   2
ATOM      2  C   UNL A   1      38.451  21.819  25.924  1.00  0.00     0.188 C 
BRANCH   2   3
ATOM      3  O   UNL A   1      37.609  22.681  25.180  1.00  0.00    -0.376 OA
BRANCH   3   4
ATOM      4  C   UNL A   1      36.913  22.197  24.048  1.00  0.00     0.202 C 
BRANCH   4   5
ATOM      5  C   UNL A   1      35.403  22.170  24.130  1.00  0.00     0.261 C 
BRANCH   5   6
ATOM      6  O   UNL A   1      34.907  23.505  23.938  1.00  0.00    -0.462 OA
BRANCH   6   7
ATOM      7  C   UNL A   1      33.970  23.939  24.816  1.00  0.00     0.324 C 
ATOM      8  O   UNL A   1      34.191  24.273  25.965  1.00  0.00    -0.250 OA
BRANCH   7   9
ATOM      9  C   UNL A   1      32.573  23.909  24.248  1.00  0.00     0.179 C 
BRANCH   9  10
ATOM     10  C   UNL A   1      32.018  22.481  24.081  1.00  0.00     0.028 C 
ATOM     11  C   UNL A   1      31.603  21.843  25.413  1.00  0.00     0.006 C 
ENDBRANCH   9  10
BRANCH   9  12
ATOM     12  N   UNL A   1      31.719  24.756  25.133  1.00  0.00    -0.197 NA
ATOM     13  H   UNL A   1      32.306  25.125  25.881  1.00  0.00     0.142 HD
BRANCH  12  14
ATOM     14  S   UNL A   1      30.949  26.084  24.363  1.00  0.00     0.241 S 
ATOM     15  O   UNL A   1      31.313  25.999  22.982  1.00  0.00    -0.207 OA
ATOM     16  O   UNL A   1      29.576  25.946  24.836  1.00  0.00    -0.207 OA
BRANCH  14  17
ATOM     17  C   UNL A   1      31.512  27.677  24.977  1.00  0.00     0.085 A 
ATOM     18  C   UNL A   1      32.543  27.656  25.958  1.00  0.00     0.025 A 
ATOM     19  C   UNL A   1      31.019  28.915  24.543  1.00  0.00    -0.031 A 
ATOM     20  C   UNL A   1      33.044  28.852  26.514  1.00  0.00    -0.050 A 
ATOM     21  C   UNL A   1      31.427  30.083  25.227  1.00  0.00     0.005 A 
ATOM     22  C   UNL A   1      30.029  29.115  23.441  1.00  0.00     0.046 C 
ATOM     23  C   UNL A   1      34.271  28.973  27.369  1.00  0.00     0.044 C 
ATOM     24  C   UNL A   1      32.400  30.047  26.215  1.00  0.00     0.004 A 
ENDBRANCH  14  17
ENDBRANCH  12  14
ENDBRANCH   9  12
ENDBRANCH   7   9
ENDBRANCH   6   7
ENDBRANCH   5   6
ENDBRANCH   4   5
ENDBRANCH   3   4
ENDBRANCH   2   3
ENDBRANCH   1   2
BRANCH   1  25
ATOM     25  O   UNL A   1      40.885  21.530  26.589  1.00  0.00    -0.377 OA
BRANCH  25  26
ATOM     26  C   UNL A   1      40.685  20.136  26.346  1.00  0.00     0.188 C 
BRANCH  26  27
ATOM     27  C   UNL A   1      41.913  19.196  26.291  1.00  0.00     0.188 C 
BRANCH  27  28
ATOM     28  O   UNL A   1      42.686  19.334  25.114  1.00  0.00    -0.376 OA
BRANCH  28  29
ATOM     29  C   UNL A   1      43.968  18.739  25.083  1.00  0.00     0.202 C 
BRANCH  29  30
ATOM     30  C   UNL A   1      44.770  19.355  23.947  1.00  0.00     0.261 C 
BRANCH  30  31
ATOM     31  O   UNL A   1      45.465  20.570  24.337  1.00  0.00    -0.460 OA
BRANCH  31  32
ATOM     32  C   UNL A   1      44.851  21.761  24.095  1.00  0.00     0.338 C 
ATOM     33  O   UNL A   1      44.365  22.093  23.026  1.00  0.00    -0.246 OA
BRANCH  32  34
ATOM     34  C   UNL A   1      44.912  22.616  25.329  1.00  0.00     0.060 A 
ATOM     35  C   UNL A   1      44.294  22.182  26.492  1.00  0.00     0.016 A 
ATOM     36  C   UNL A   1      45.382  23.944  25.278  1.00  0.00     0.016 A 
ATOM     37  C   UNL A   1      43.976  23.130  27.480  1.00  0.00     0.010 A 
ATOM     38  C   UNL A   1      45.014  24.903  26.244  1.00  0.00     0.010 A 
ATOM     39  C   UNL A   1      44.214  24.534  27.317  1.00  0.00    -0.014 A 
BRANCH  39  40
ATOM     40  C   UNL A   1      43.858  25.458  28.456  1.00  0.00     0.031 A 
ATOM     41  C   UNL A   1      42.892  26.410  27.894  1.00  0.00     0.074 A 
ATOM     42  C   UNL A   1      44.172  25.558  29.790  1.00  0.00     0.049 A 
ATOM     43  N   UNL A   1      43.079  27.669  27.670  1.00  0.00    -0.248 NA
ATOM     44  C   UNL A   1      41.701  25.825  27.223  1.00  0.00     0.031 C 
ATOM     45  C   UNL A   1      45.038  24.636  30.531  1.00  0.00     0.029 A 
ATOM     46  N   UNL A   1      43.839  26.519  30.791  1.00  0.00    -0.354 N 
ATOM     47  C   UNL A   1      41.836  28.057  27.220  1.00  0.00     0.074 A 
ATOM     48  C   UNL A   1      41.198  26.908  26.639  1.00  0.00     0.031 C 
ATOM     49  C   UNL A   1      45.087  24.977  31.837  1.00  0.00     0.029 A 
ATOM     50  C   UNL A   1      44.247  26.134  32.100  1.00  0.00     0.049 A 
ATOM     51  H   UNL A   1      43.373  27.364  30.597  1.00  0.00     0.167 HD
ATOM     52  C   UNL A   1      41.215  29.021  27.930  1.00  0.00     0.031 A 
ATOM     53  C   UNL A   1      43.959  26.644  33.343  1.00  0.00     0.031 A 
ATOM     54  C   UNL A   1      42.091  29.948  28.560  1.00  0.00     0.049 A 
ATOM     55  C   UNL A   1      43.394  28.005  33.272  1.00  0.00     0.074 A 
ATOM     56  C   UNL A   1      42.807  31.003  28.083  1.00  0.00     0.029 A 
ATOM     57  N   UNL A   1      42.472  29.742  29.861  1.00  0.00    -0.354 N 
ATOM     58  N   UNL A   1      44.101  29.093  33.271  1.00  0.00    -0.248 NA
ATOM     59  C   UNL A   1      41.962  28.183  33.068  1.00  0.00     0.031 C 
ATOM     60  C   UNL A   1      43.475  31.561  29.185  1.00  0.00     0.029 A 
ATOM     61  C   UNL A   1      43.258  30.788  30.312  1.00  0.00     0.049 A 
ATOM     62  H   UNL A   1      42.221  28.957  30.400  1.00  0.00     0.167 HD
ATOM     63  C   UNL A   1      43.306  29.993  32.597  1.00  0.00     0.074 A 
ATOM     64  C   UNL A   1      41.958  29.444  32.635  1.00  0.00     0.031 C 
ATOM     65  C   UNL A   1      43.856  30.790  31.641  1.00  0.00     0.031 A 
BRANCH  52  66
ATOM     66  C   UNL A   1      39.804  28.912  28.368  1.00  0.00    -0.014 A 
ATOM     67  C   UNL A   1      38.870  29.729  27.729  1.00  0.00     0.009 A 
ATOM     68  C   UNL A   1      39.435  28.271  29.567  1.00  0.00     0.009 A 
ATOM     69  C   UNL A   1      37.621  29.943  28.300  1.00  0.00     0.001 A 
ATOM     70  C   UNL A   1      38.173  28.452  30.117  1.00  0.00     0.001 A 
ATOM     71  C   UNL A   1      37.276  29.312  29.494  1.00  0.00     0.000 A 
ENDBRANCH  52  66
BRANCH  53  72
ATOM     72  C   UNL A   1      44.003  26.009  34.714  1.00  0.00    -0.014 A 
ATOM     73  C   UNL A   1      44.556  26.687  35.830  1.00  0.00     0.009 A 
ATOM     74  C   UNL A   1      43.246  24.865  35.002  1.00  0.00     0.009 A 
ATOM     75  C   UNL A   1      44.259  26.306  37.152  1.00  0.00     0.001 A 
ATOM     76  C   UNL A   1      42.964  24.471  36.317  1.00  0.00     0.001 A 
ATOM     77  C   UNL A   1      43.435  25.214  37.393  1.00  0.00     0.000 A 
ENDBRANCH  53  72
BRANCH  65  78
ATOM     78  C   UNL A   1      45.195  31.473  31.893  1.00  0.00    -0.014 A 
ATOM     79  C   UNL A   1      46.442  31.002  31.457  1.00  0.00     0.009 A 
ATOM     80  C   UNL A   1      45.208  32.707  32.573  1.00  0.00     0.009 A 
ATOM     81  C   UNL A   1      47.615  31.753  31.625  1.00  0.00     0.001 A 
ATOM     82  C   UNL A   1      46.354  33.503  32.663  1.00  0.00     0.001 A 
ATOM     83  C   UNL A   1      47.562  33.024  32.186  1.00  0.00     0.000 A 
ENDBRANCH  65  78
ENDBRANCH  39  40
ENDBRANCH  32  34
ENDBRANCH  31  32
ENDBRANCH  30  31
ENDBRANCH  29  30
ENDBRANCH  28  29
ENDBRANCH  27  28
ENDBRANCH  26  27
ENDBRANCH  25  26
ENDBRANCH   1  25
TORSDOF 24
ENDMDL
