MODEL 1
REMARK VINA RESULT:      -8.5      0.000      0.000
REMARK SMILES COc1ccccc1C(=O)N/C(=C/c1ccc2c(c1)OCO2)C(=O)Nc1ccc(C(=O)OCCOCCOCCOCCOC(=O)c2ccc(-c3c4nc(c(-c5ccccc5)c5ccc([nH]5)c(-c5ccccc5)c5nc(c(-c6ccccc6)c6ccc3[nH]6)C=C5)C=C4)cc2)cc1
REMARK SMILES IDX 36 1 35 2 34 3 33 4 32 5 30 6 31 7 29 8 26 9 27 10 96 11
REMARK SMILES IDX 28 12 95 13 25 14 23 15 24 16 12 18 13 19 11 20 9 21 10 22
REMARK SMILES IDX 8 24 3 25 4 26 5 27 7 28 6 29 2 30 1 31 14 32 15 33 19 34
REMARK SMILES IDX 16 35 18 36 17 37 20 38 22 39 21 40 37 41 38 42 39 43 40 44
REMARK SMILES IDX 41 45 42 46 43 47 44 48 45 49 46 50 47 51 48 52 94 53 49 54
REMARK SMILES IDX 93 55 50 56 51 57 52 58 87 59 53 60 92 61 86 62 88 63 54 64
REMARK SMILES IDX 91 65 85 66 84 67 55 69 77 70 62 71 76 72 63 73 66 74 75 75
REMARK SMILES IDX 89 76 64 77 65 78 74 80 90 81 67 82 56 83 57 84 61 85 58 86
REMARK SMILES IDX 60 87 59 88 78 89 79 90 83 91 80 92 82 93 81 94 68 95 69 96
REMARK SMILES IDX 73 97 70 98 72 99 71 100
REMARK H PARENT 25 17 11 23 88 68 66 79
REMARK Flexibility Score: inf
ROOT
ATOM      1  C   UNL A   1      36.727  23.348  24.448  1.00  0.00     0.188 C 
ENDROOT
BRANCH   1   2
ATOM      2  O   UNL A   1      35.437  23.801  24.077  1.00  0.00    -0.376 OA
BRANCH   2   3
ATOM      3  C   UNL A   1      34.213  23.264  24.592  1.00  0.00     0.202 C 
BRANCH   3   4
ATOM      4  C   UNL A   1      32.772  23.827  24.419  1.00  0.00     0.261 C 
BRANCH   4   5
ATOM      5  O   UNL A   1      32.543  25.007  23.667  1.00  0.00    -0.460 OA
BRANCH   5   6
ATOM      6  C   UNL A   1      31.286  25.484  23.738  1.00  0.00     0.338 C 
ATOM      7  O   UNL A   1      30.238  24.888  23.575  1.00  0.00    -0.246 OA
BRANCH   6   8
ATOM      8  C   UNL A   1      31.417  26.695  24.578  1.00  0.00     0.060 A 
ATOM      9  C   UNL A   1      32.418  29.579  26.876  1.00  0.00     0.041 A 
ATOM     10  C   UNL A   1      32.460  29.980  25.003  1.00  0.00     0.027 A 
ATOM     11  C   UNL A   1      31.765  27.944  27.661  1.00  0.00     0.027 A 
ATOM     12  C   UNL A   1      31.890  28.381  23.697  1.00  0.00     0.018 A 
ATOM     13  C   UNL A   1      31.229  26.467  26.505  1.00  0.00     0.018 A 
BRANCH   9  14
ATOM     14  N   UNL A   1      33.813  29.970  26.865  1.00  0.00    -0.321 N 
ATOM     15  C   UNL A   1      34.471  30.849  27.579  1.00  0.00     0.272 C 
ATOM     16  O   UNL A   1      33.981  31.742  26.877  1.00  0.00    -0.267 OA
ATOM     17  H   UNL A   1      34.364  29.490  26.205  1.00  0.00     0.170 HD
BRANCH  15  18
ATOM     18  C   UNL A   1      35.269  30.929  29.103  1.00  0.00     0.108 C 
ATOM     19  C   UNL A   1      36.210  29.998  29.395  1.00  0.00     0.040 C 
BRANCH  18  20
ATOM     20  N   UNL A   1      34.825  31.577  30.321  1.00  0.00    -0.317 N 
ATOM     21  C   UNL A   1      35.234  32.628  31.213  1.00  0.00     0.259 C 
ATOM     22  O   UNL A   1      34.421  33.043  32.042  1.00  0.00    -0.269 OA
ATOM     23  H   UNL A   1      33.984  31.172  30.636  1.00  0.00     0.170 HD
BRANCH  21  24
ATOM     24  C   UNL A   1      36.561  33.345  31.042  1.00  0.00     0.082 A 
ATOM     25  C   UNL A   1      36.655  33.838  29.792  1.00  0.00     0.131 A 
ATOM     26  C   UNL A   1      37.920  34.114  29.212  1.00  0.00     0.047 A 
ATOM     27  C   UNL A   1      38.943  34.501  30.037  1.00  0.00     0.004 A 
ATOM     28  C   UNL A   1      37.413  34.030  31.889  1.00  0.00     0.018 A 
ATOM     29  C   UNL A   1      38.605  34.627  31.376  1.00  0.00     0.001 A 
BRANCH  25  30
ATOM     30  O   UNL A   1      35.367  34.202  29.520  1.00  0.00    -0.496 OA
ATOM     31  C   UNL A   1      34.405  34.920  28.771  1.00  0.00     0.278 C 
ENDBRANCH  25  30
ENDBRANCH  21  24
ENDBRANCH  18  20
BRANCH  19  32
ATOM     32  C   UNL A   1      36.908  29.342  28.373  1.00  0.00    -0.019 A 
ATOM     33  C   UNL A   1      37.737  30.119  27.723  1.00  0.00     0.012 A 
ATOM     34  C   UNL A   1      37.421  28.137  28.469  1.00  0.00     0.058 A 
ATOM     35  C   UNL A   1      39.337  29.488  27.489  1.00  0.00     0.051 A 
ATOM     36  C   UNL A   1      38.814  28.217  28.003  1.00  0.00     0.166 A 
ATOM     37  C   UNL A   1      40.569  28.959  27.325  1.00  0.00     0.165 A 
ATOM     38  O   UNL A   1      38.969  26.425  28.228  1.00  0.00    -0.454 OA
ATOM     39  O   UNL A   1      41.557  27.326  27.467  1.00  0.00    -0.454 OA
ATOM     40  C   UNL A   1      40.470  25.985  28.148  1.00  0.00     0.468 C 
ENDBRANCH  19  32
ENDBRANCH  15  18
ENDBRANCH   9  14
ENDBRANCH   6   8
ENDBRANCH   5   6
ENDBRANCH   4   5
ENDBRANCH   3   4
ENDBRANCH   2   3
ENDBRANCH   1   2
BRANCH   1  41
ATOM     41  C   UNL A   1      37.226  21.893  24.408  1.00  0.00     0.188 C 
BRANCH  41  42
ATOM     42  O   UNL A   1      37.440  21.494  25.722  1.00  0.00    -0.377 OA
BRANCH  42  43
ATOM     43  C   UNL A   1      38.830  21.277  25.827  1.00  0.00     0.188 C 
BRANCH  43  44
ATOM     44  C   UNL A   1      39.830  22.402  26.524  1.00  0.00     0.188 C 
BRANCH  44  45
ATOM     45  O   UNL A   1      41.265  22.653  26.684  1.00  0.00    -0.376 OA
BRANCH  45  46
ATOM     46  C   UNL A   1      42.196  22.324  25.659  1.00  0.00     0.202 C 
BRANCH  46  47
ATOM     47  C   UNL A   1      43.732  22.508  25.958  1.00  0.00     0.261 C 
BRANCH  47  48
ATOM     48  O   UNL A   1      44.258  23.669  26.717  1.00  0.00    -0.460 OA
BRANCH  48  49
ATOM     49  C   UNL A   1      45.620  23.847  26.880  1.00  0.00     0.338 C 
ATOM     50  O   UNL A   1      46.485  23.067  26.517  1.00  0.00    -0.246 OA
BRANCH  49  51
ATOM     51  C   UNL A   1      45.969  25.280  27.218  1.00  0.00     0.060 A 
ATOM     52  C   UNL A   1      46.629  25.730  28.406  1.00  0.00     0.016 A 
ATOM     53  C   UNL A   1      45.433  26.202  26.351  1.00  0.00     0.016 A 
ATOM     54  C   UNL A   1      46.553  27.067  28.798  1.00  0.00     0.010 A 
ATOM     55  C   UNL A   1      45.352  27.528  26.745  1.00  0.00     0.010 A 
ATOM     56  C   UNL A   1      45.866  27.962  27.980  1.00  0.00    -0.014 A 
BRANCH  56  57
ATOM     57  C   UNL A   1      45.615  29.348  28.414  1.00  0.00     0.031 A 
ATOM     58  C   UNL A   1      46.593  30.417  28.052  1.00  0.00     0.074 A 
ATOM     59  C   UNL A   1      44.529  29.643  29.152  1.00  0.00     0.049 A 
ATOM     60  N   UNL A   1      46.545  31.682  28.366  1.00  0.00    -0.248 NA
ATOM     61  C   UNL A   1      47.767  30.031  27.249  1.00  0.00     0.031 C 
ATOM     62  C   UNL A   1      43.512  28.674  29.554  1.00  0.00     0.029 A 
ATOM     63  N   UNL A   1      44.098  30.828  29.692  1.00  0.00    -0.354 N 
ATOM     64  C   UNL A   1      47.673  32.244  27.800  1.00  0.00     0.074 A 
ATOM     65  C   UNL A   1      48.420  31.180  27.168  1.00  0.00     0.031 C 
ATOM     66  C   UNL A   1      42.557  29.308  30.249  1.00  0.00     0.029 A 
ATOM     67  C   UNL A   1      42.917  30.714  30.387  1.00  0.00     0.049 A 
ATOM     68  H   UNL A   1      44.585  31.678  29.593  1.00  0.00     0.167 HD
ATOM     69  C   UNL A   1      48.036  33.543  27.803  1.00  0.00     0.031 A 
ATOM     70  C   UNL A   1      42.200  31.622  31.076  1.00  0.00     0.031 A 
ATOM     71  C   UNL A   1      47.308  34.580  28.467  1.00  0.00     0.049 A 
ATOM     72  C   UNL A   1      42.690  33.035  31.155  1.00  0.00     0.074 A 
ATOM     73  C   UNL A   1      47.623  35.924  28.506  1.00  0.00     0.029 A 
ATOM     74  N   UNL A   1      46.159  34.405  29.217  1.00  0.00    -0.354 N 
ATOM     75  N   UNL A   1      43.750  33.553  30.590  1.00  0.00    -0.248 NA
ATOM     76  C   UNL A   1      41.905  33.986  31.957  1.00  0.00     0.031 C 
ATOM     77  C   UNL A   1      46.716  36.554  29.343  1.00  0.00     0.029 A 
ATOM     78  C   UNL A   1      45.783  35.621  29.757  1.00  0.00     0.049 A 
ATOM     79  H   UNL A   1      45.685  33.552  29.345  1.00  0.00     0.167 HD
ATOM     80  C   UNL A   1      43.739  34.894  30.931  1.00  0.00     0.074 A 
ATOM     81  C   UNL A   1      42.562  35.116  31.745  1.00  0.00     0.031 C 
ATOM     82  C   UNL A   1      44.629  35.849  30.576  1.00  0.00     0.031 A 
BRANCH  69  83
ATOM     83  C   UNL A   1      49.308  33.907  27.110  1.00  0.00    -0.014 A 
ATOM     84  C   UNL A   1      49.322  34.246  25.750  1.00  0.00     0.009 A 
ATOM     85  C   UNL A   1      50.505  33.939  27.840  1.00  0.00     0.009 A 
ATOM     86  C   UNL A   1      50.534  34.490  25.109  1.00  0.00     0.001 A 
ATOM     87  C   UNL A   1      51.700  34.277  27.217  1.00  0.00     0.001 A 
ATOM     88  C   UNL A   1      51.717  34.526  25.848  1.00  0.00     0.000 A 
ENDBRANCH  69  83
BRANCH  70  89
ATOM     89  C   UNL A   1      40.961  31.222  31.788  1.00  0.00    -0.014 A 
ATOM     90  C   UNL A   1      39.793  30.908  31.079  1.00  0.00     0.009 A 
ATOM     91  C   UNL A   1      40.926  31.226  33.191  1.00  0.00     0.009 A 
ATOM     92  C   UNL A   1      38.596  30.694  31.762  1.00  0.00     0.001 A 
ATOM     93  C   UNL A   1      39.750  30.922  33.871  1.00  0.00     0.001 A 
ATOM     94  C   UNL A   1      38.580  30.675  33.155  1.00  0.00     0.000 A 
ENDBRANCH  70  89
BRANCH  82  95
ATOM     95  C   UNL A   1      44.331  37.260  30.984  1.00  0.00    -0.014 A 
ATOM     96  C   UNL A   1      44.580  37.731  32.278  1.00  0.00     0.009 A 
ATOM     97  C   UNL A   1      43.780  38.133  30.031  1.00  0.00     0.009 A 
ATOM     98  C   UNL A   1      44.139  38.999  32.648  1.00  0.00     0.001 A 
ATOM     99  C   UNL A   1      43.439  39.435  30.375  1.00  0.00     0.001 A 
ATOM    100  C   UNL A   1      43.586  39.855  31.694  1.00  0.00     0.000 A 
ENDBRANCH  82  95
ENDBRANCH  56  57
ENDBRANCH  49  51
ENDBRANCH  48  49
ENDBRANCH  47  48
ENDBRANCH  46  47
ENDBRANCH  45  46
ENDBRANCH  44  45
ENDBRANCH  43  44
ENDBRANCH  42  43
ENDBRANCH  41  42
ENDBRANCH   1  41
TORSDOF 26
ENDMDL
MODEL 2
REMARK VINA RESULT:      -8.3      2.463      3.869
REMARK SMILES COc1ccccc1C(=O)N/C(=C/c1ccc2c(c1)OCO2)C(=O)Nc1ccc(C(=O)OCCOCCOCCOCCOC(=O)c2ccc(-c3c4nc(c(-c5ccccc5)c5ccc([nH]5)c(-c5ccccc5)c5nc(c(-c6ccccc6)c6ccc3[nH]6)C=C5)C=C4)cc2)cc1
REMARK SMILES IDX 36 1 35 2 34 3 33 4 32 5 30 6 31 7 29 8 26 9 27 10 96 11
REMARK SMILES IDX 28 12 95 13 25 14 23 15 24 16 12 18 13 19 11 20 9 21 10 22
REMARK SMILES IDX 8 24 3 25 4 26 5 27 7 28 6 29 2 30 1 31 14 32 15 33 19 34
REMARK SMILES IDX 16 35 18 36 17 37 20 38 22 39 21 40 37 41 38 42 39 43 40 44
REMARK SMILES IDX 41 45 42 46 43 47 44 48 45 49 46 50 47 51 48 52 94 53 49 54
REMARK SMILES IDX 93 55 50 56 51 57 52 58 87 59 53 60 92 61 86 62 88 63 54 64
REMARK SMILES IDX 91 65 85 66 84 67 55 69 77 70 62 71 76 72 63 73 66 74 75 75
REMARK SMILES IDX 89 76 64 77 65 78 74 80 90 81 67 82 56 83 57 84 61 85 58 86
REMARK SMILES IDX 60 87 59 88 78 89 79 90 83 91 80 92 82 93 81 94 68 95 69 96
REMARK SMILES IDX 73 97 70 98 72 99 71 100
REMARK H PARENT 25 17 11 23 88 68 66 79
REMARK Flexibility Score: inf
ROOT
ATOM      1  C   UNL A   1      37.120  22.565  24.838  1.00  0.00     0.188 C 
ENDROOT
BRANCH   1   2
ATOM      2  O   UNL A   1      36.188  22.482  23.775  1.00  0.00    -0.376 OA
BRANCH   2   3
ATOM      3  C   UNL A   1      34.767  22.447  23.946  1.00  0.00     0.202 C 
BRANCH   3   4
ATOM      4  C   UNL A   1      33.710  23.452  23.402  1.00  0.00     0.261 C 
BRANCH   4   5
ATOM      5  O   UNL A   1      33.461  24.673  24.077  1.00  0.00    -0.460 OA
BRANCH   5   6
ATOM      6  C   UNL A   1      32.175  25.071  24.064  1.00  0.00     0.338 C 
ATOM      7  O   UNL A   1      31.173  24.394  23.941  1.00  0.00    -0.246 OA
BRANCH   6   8
ATOM      8  C   UNL A   1      32.203  26.372  24.770  1.00  0.00     0.060 A 
ATOM      9  C   UNL A   1      32.917  29.510  26.830  1.00  0.00     0.041 A 
ATOM     10  C   UNL A   1      33.193  29.696  24.943  1.00  0.00     0.027 A 
ATOM     11  C   UNL A   1      32.167  27.967  27.710  1.00  0.00     0.027 A 
ATOM     12  C   UNL A   1      32.786  27.952  23.768  1.00  0.00     0.018 A 
ATOM     13  C   UNL A   1      31.777  26.362  26.672  1.00  0.00     0.018 A 
BRANCH   9  14
ATOM     14  N   UNL A   1      34.303  29.914  26.947  1.00  0.00    -0.321 N 
ATOM     15  C   UNL A   1      34.884  30.798  27.720  1.00  0.00     0.272 C 
ATOM     16  O   UNL A   1      34.452  31.687  26.976  1.00  0.00    -0.267 OA
ATOM     17  H   UNL A   1      34.917  29.440  26.341  1.00  0.00     0.170 HD
BRANCH  15  18
ATOM     18  C   UNL A   1      35.538  30.883  29.311  1.00  0.00     0.108 C 
ATOM     19  C   UNL A   1      36.550  30.045  29.644  1.00  0.00     0.040 C 
BRANCH  18  20
ATOM     20  N   UNL A   1      34.923  31.414  30.512  1.00  0.00    -0.317 N 
ATOM     21  C   UNL A   1      35.155  32.431  31.500  1.00  0.00     0.259 C 
ATOM     22  O   UNL A   1      34.232  32.728  32.264  1.00  0.00    -0.269 OA
ATOM     23  H   UNL A   1      34.091  30.927  30.713  1.00  0.00     0.170 HD
BRANCH  21  24
ATOM     24  C   UNL A   1      36.429  33.256  31.511  1.00  0.00     0.082 A 
ATOM     25  C   UNL A   1      36.615  33.824  30.305  1.00  0.00     0.131 A 
ATOM     26  C   UNL A   1      37.907  34.228  29.882  1.00  0.00     0.047 A 
ATOM     27  C   UNL A   1      38.802  34.644  30.831  1.00  0.00     0.004 A 
ATOM     28  C   UNL A   1      37.128  33.954  32.479  1.00  0.00     0.018 A 
ATOM     29  C   UNL A   1      38.315  34.668  32.129  1.00  0.00     0.001 A 
BRANCH  25  30
ATOM     30  O   UNL A   1      35.338  34.103  29.911  1.00  0.00    -0.496 OA
ATOM     31  C   UNL A   1      34.291  35.012  29.623  1.00  0.00     0.278 C 
ENDBRANCH  25  30
ENDBRANCH  21  24
ENDBRANCH  18  20
BRANCH  19  32
ATOM     32  C   UNL A   1      37.401  29.524  28.662  1.00  0.00    -0.019 A 
ATOM     33  C   UNL A   1      38.514  30.196  28.523  1.00  0.00     0.012 A 
ATOM     34  C   UNL A   1      37.634  28.246  28.472  1.00  0.00     0.058 A 
ATOM     35  C   UNL A   1      39.968  29.250  28.483  1.00  0.00     0.051 A 
ATOM     36  C   UNL A   1      39.093  28.074  28.406  1.00  0.00     0.166 A 
ATOM     37  C   UNL A   1      41.075  28.475  28.452  1.00  0.00     0.165 A 
ATOM     38  O   UNL A   1      38.848  26.312  28.056  1.00  0.00    -0.454 OA
ATOM     39  O   UNL A   1      41.662  26.662  28.277  1.00  0.00    -0.454 OA
ATOM     40  C   UNL A   1      40.196  25.527  28.195  1.00  0.00     0.468 C 
ENDBRANCH  19  32
ENDBRANCH  15  18
ENDBRANCH   9  14
ENDBRANCH   6   8
ENDBRANCH   5   6
ENDBRANCH   4   5
ENDBRANCH   3   4
ENDBRANCH   2   3
ENDBRANCH   1   2
BRANCH   1  41
ATOM     41  C   UNL A   1      37.895  21.391  25.461  1.00  0.00     0.188 C 
BRANCH  41  42
ATOM     42  O   UNL A   1      38.708  21.915  26.460  1.00  0.00    -0.377 OA
BRANCH  42  43
ATOM     43  C   UNL A   1      39.941  22.190  25.834  1.00  0.00     0.188 C 
BRANCH  43  44
ATOM     44  C   UNL A   1      41.358  22.224  26.696  1.00  0.00     0.188 C 
BRANCH  44  45
ATOM     45  O   UNL A   1      42.510  23.109  26.891  1.00  0.00    -0.376 OA
BRANCH  45  46
ATOM     46  C   UNL A   1      43.681  22.992  26.090  1.00  0.00     0.202 C 
BRANCH  46  47
ATOM     47  C   UNL A   1      43.936  24.076  24.976  1.00  0.00     0.261 C 
BRANCH  47  48
ATOM     48  O   UNL A   1      45.273  24.675  24.743  1.00  0.00    -0.460 OA
BRANCH  48  49
ATOM     49  C   UNL A   1      46.192  24.771  25.772  1.00  0.00     0.338 C 
ATOM     50  O   UNL A   1      47.218  24.117  25.869  1.00  0.00    -0.246 OA
BRANCH  49  51
ATOM     51  C   UNL A   1      46.005  26.034  26.585  1.00  0.00     0.060 A 
ATOM     52  C   UNL A   1      46.863  26.497  27.632  1.00  0.00     0.016 A 
ATOM     53  C   UNL A   1      44.802  26.662  26.367  1.00  0.00     0.016 A 
ATOM     54  C   UNL A   1      46.407  27.432  28.562  1.00  0.00     0.010 A 
ATOM     55  C   UNL A   1      44.349  27.585  27.294  1.00  0.00     0.010 A 
ATOM     56  C   UNL A   1      45.119  27.943  28.415  1.00  0.00    -0.014 A 
BRANCH  56  57
ATOM     57  C   UNL A   1      44.524  28.810  29.448  1.00  0.00     0.031 A 
ATOM     58  C   UNL A   1      44.343  30.266  29.166  1.00  0.00     0.074 A 
ATOM     59  C   UNL A   1      44.171  28.300  30.642  1.00  0.00     0.049 A 
ATOM     60  N   UNL A   1      43.858  31.179  29.963  1.00  0.00    -0.248 NA
ATOM     61  C   UNL A   1      44.756  30.767  27.844  1.00  0.00     0.031 C 
ATOM     62  C   UNL A   1      44.302  26.894  31.014  1.00  0.00     0.029 A 
ATOM     63  N   UNL A   1      43.636  28.895  31.757  1.00  0.00    -0.354 N 
ATOM     64  C   UNL A   1      43.903  32.356  29.243  1.00  0.00     0.074 A 
ATOM     65  C   UNL A   1      44.510  32.062  27.964  1.00  0.00     0.031 C 
ATOM     66  C   UNL A   1      43.828  26.726  32.256  1.00  0.00     0.029 A 
ATOM     67  C   UNL A   1      43.410  28.016  32.789  1.00  0.00     0.049 A 
ATOM     68  H   UNL A   1      43.433  29.857  31.813  1.00  0.00     0.167 HD
ATOM     69  C   UNL A   1      43.457  33.571  29.623  1.00  0.00     0.031 A 
ATOM     70  C   UNL A   1      42.934  28.211  34.034  1.00  0.00     0.031 A 
ATOM     71  C   UNL A   1      42.895  33.857  30.906  1.00  0.00     0.049 A 
ATOM     72  C   UNL A   1      42.554  29.595  34.465  1.00  0.00     0.074 A 
ATOM     73  C   UNL A   1      42.420  35.073  31.355  1.00  0.00     0.029 A 
ATOM     74  N   UNL A   1      42.753  32.951  31.943  1.00  0.00    -0.354 N 
ATOM     75  N   UNL A   1      42.580  30.695  33.757  1.00  0.00    -0.248 NA
ATOM     76  C   UNL A   1      42.086  29.775  35.847  1.00  0.00     0.031 C 
ATOM     77  C   UNL A   1      42.065  34.931  32.687  1.00  0.00     0.029 A 
ATOM     78  C   UNL A   1      42.234  33.606  33.044  1.00  0.00     0.049 A 
ATOM     79  H   UNL A   1      42.983  31.995  31.902  1.00  0.00     0.167 HD
ATOM     80  C   UNL A   1      42.095  31.688  34.590  1.00  0.00     0.074 A 
ATOM     81  C   UNL A   1      41.773  31.062  35.855  1.00  0.00     0.031 C 
ATOM     82  C   UNL A   1      41.925  32.999  34.307  1.00  0.00     0.031 A 
BRANCH  69  83
ATOM     83  C   UNL A   1      43.612  34.698  28.654  1.00  0.00    -0.014 A 
ATOM     84  C   UNL A   1      44.879  35.158  28.272  1.00  0.00     0.009 A 
ATOM     85  C   UNL A   1      42.467  35.286  28.095  1.00  0.00     0.009 A 
ATOM     86  C   UNL A   1      44.990  36.269  27.441  1.00  0.00     0.001 A 
ATOM     87  C   UNL A   1      42.585  36.334  27.190  1.00  0.00     0.001 A 
ATOM     88  C   UNL A   1      43.846  36.841  26.885  1.00  0.00     0.000 A 
ENDBRANCH  69  83
BRANCH  70  89
ATOM     89  C   UNL A   1      42.830  27.079  34.988  1.00  0.00    -0.014 A 
ATOM     90  C   UNL A   1      41.665  26.303  35.059  1.00  0.00     0.009 A 
ATOM     91  C   UNL A   1      43.877  26.820  35.886  1.00  0.00     0.009 A 
ATOM     92  C   UNL A   1      41.518  25.351  36.066  1.00  0.00     0.001 A 
ATOM     93  C   UNL A   1      43.762  25.806  36.833  1.00  0.00     0.001 A 
ATOM     94  C   UNL A   1      42.575  25.085  36.936  1.00  0.00     0.000 A 
ENDBRANCH  70  89
BRANCH  82  95
ATOM     95  C   UNL A   1      41.273  33.854  35.350  1.00  0.00    -0.014 A 
ATOM     96  C   UNL A   1      41.997  34.441  36.394  1.00  0.00     0.009 A 
ATOM     97  C   UNL A   1      39.885  34.067  35.274  1.00  0.00     0.009 A 
ATOM     98  C   UNL A   1      41.322  35.093  37.423  1.00  0.00     0.001 A 
ATOM     99  C   UNL A   1      39.227  34.810  36.247  1.00  0.00     0.001 A 
ATOM    100  C   UNL A   1      39.942  35.292  37.340  1.00  0.00     0.000 A 
ENDBRANCH  82  95
ENDBRANCH  56  57
ENDBRANCH  49  51
ENDBRANCH  48  49
ENDBRANCH  47  48
ENDBRANCH  46  47
ENDBRANCH  45  46
ENDBRANCH  44  45
ENDBRANCH  43  44
ENDBRANCH  42  43
ENDBRANCH  41  42
ENDBRANCH   1  41
TORSDOF 26
ENDMDL
MODEL 3
REMARK VINA RESULT:      -8.3      5.004      9.671
REMARK SMILES COc1ccccc1C(=O)N/C(=C/c1ccc2c(c1)OCO2)C(=O)Nc1ccc(C(=O)OCCOCCOCCOCCOC(=O)c2ccc(-c3c4nc(c(-c5ccccc5)c5ccc([nH]5)c(-c5ccccc5)c5nc(c(-c6ccccc6)c6ccc3[nH]6)C=C5)C=C4)cc2)cc1
REMARK SMILES IDX 36 1 35 2 34 3 33 4 32 5 30 6 31 7 29 8 26 9 27 10 96 11
REMARK SMILES IDX 28 12 95 13 25 14 23 15 24 16 12 18 13 19 11 20 9 21 10 22
REMARK SMILES IDX 8 24 3 25 4 26 5 27 7 28 6 29 2 30 1 31 14 32 15 33 19 34
REMARK SMILES IDX 16 35 18 36 17 37 20 38 22 39 21 40 37 41 38 42 39 43 40 44
REMARK SMILES IDX 41 45 42 46 43 47 44 48 45 49 46 50 47 51 48 52 94 53 49 54
REMARK SMILES IDX 93 55 50 56 51 57 52 58 87 59 53 60 92 61 86 62 88 63 54 64
REMARK SMILES IDX 91 65 85 66 84 67 55 69 77 70 62 71 76 72 63 73 66 74 75 75
REMARK SMILES IDX 89 76 64 77 65 78 74 80 90 81 67 82 56 83 57 84 61 85 58 86
REMARK SMILES IDX 60 87 59 88 78 89 79 90 83 91 80 92 82 93 81 94 68 95 69 96
REMARK SMILES IDX 73 97 70 98 72 99 71 100
REMARK H PARENT 25 17 11 23 88 68 66 79
REMARK Flexibility Score: inf
ROOT
ATOM      1  C   UNL A   1      35.718  21.981  24.990  1.00  0.00     0.188 C 
ENDROOT
BRANCH   1   2
ATOM      2  O   UNL A   1      34.779  22.890  24.445  1.00  0.00    -0.376 OA
BRANCH   2   3
ATOM      3  C   UNL A   1      34.603  23.128  23.044  1.00  0.00     0.202 C 
BRANCH   3   4
ATOM      4  C   UNL A   1      33.307  23.569  22.301  1.00  0.00     0.261 C 
BRANCH   4   5
ATOM      5  O   UNL A   1      32.616  24.744  22.690  1.00  0.00    -0.460 OA
BRANCH   5   6
ATOM      6  C   UNL A   1      33.281  25.890  22.457  1.00  0.00     0.338 C 
ATOM      7  O   UNL A   1      33.635  26.360  21.392  1.00  0.00    -0.246 OA
BRANCH   6   8
ATOM      8  C   UNL A   1      33.005  26.707  23.660  1.00  0.00     0.060 A 
ATOM      9  C   UNL A   1      32.947  29.086  26.650  1.00  0.00     0.041 A 
ATOM     10  C   UNL A   1      31.961  29.681  25.118  1.00  0.00     0.027 A 
ATOM     11  C   UNL A   1      33.789  27.362  26.845  1.00  0.00     0.027 A 
ATOM     12  C   UNL A   1      31.969  28.357  23.435  1.00  0.00     0.018 A 
ATOM     13  C   UNL A   1      33.811  26.125  25.337  1.00  0.00     0.018 A 
BRANCH   9  14
ATOM     14  N   UNL A   1      33.676  30.330  26.509  1.00  0.00    -0.321 N 
ATOM     15  C   UNL A   1      34.260  31.096  27.398  1.00  0.00     0.272 C 
ATOM     16  O   UNL A   1      33.143  31.523  27.718  1.00  0.00    -0.267 OA
ATOM     17  H   UNL A   1      33.746  30.658  25.583  1.00  0.00     0.170 HD
BRANCH  15  18
ATOM     18  C   UNL A   1      35.778  31.204  28.204  1.00  0.00     0.108 C 
ATOM     19  C   UNL A   1      35.940  32.147  29.163  1.00  0.00     0.040 C 
BRANCH  18  20
ATOM     20  N   UNL A   1      37.073  30.731  27.755  1.00  0.00    -0.317 N 
ATOM     21  C   UNL A   1      38.182  29.956  28.240  1.00  0.00     0.259 C 
ATOM     22  O   UNL A   1      39.028  29.571  27.429  1.00  0.00    -0.269 OA
ATOM     23  H   UNL A   1      37.247  31.036  26.835  1.00  0.00     0.170 HD
BRANCH  21  24
ATOM     24  C   UNL A   1      38.241  29.462  29.673  1.00  0.00     0.082 A 
ATOM     25  C   UNL A   1      39.247  30.075  30.326  1.00  0.00     0.131 A 
ATOM     26  C   UNL A   1      39.833  29.487  31.477  1.00  0.00     0.047 A 
ATOM     27  C   UNL A   1      39.045  28.710  32.283  1.00  0.00     0.004 A 
ATOM     28  C   UNL A   1      37.310  28.982  30.576  1.00  0.00     0.018 A 
ATOM     29  C   UNL A   1      37.716  28.620  31.898  1.00  0.00     0.001 A 
BRANCH  25  30
ATOM     30  O   UNL A   1      39.232  31.327  29.782  1.00  0.00    -0.496 OA
ATOM     31  C   UNL A   1      39.508  32.714  29.835  1.00  0.00     0.278 C 
ENDBRANCH  25  30
ENDBRANCH  21  24
ENDBRANCH  18  20
BRANCH  19  32
ATOM     32  C   UNL A   1      34.838  32.649  29.867  1.00  0.00    -0.019 A 
ATOM     33  C   UNL A   1      34.852  32.352  31.141  1.00  0.00     0.012 A 
ATOM     34  C   UNL A   1      34.323  33.845  29.702  1.00  0.00     0.058 A 
ATOM     35  C   UNL A   1      34.539  33.669  32.227  1.00  0.00     0.051 A 
ATOM     36  C   UNL A   1      34.183  34.448  31.036  1.00  0.00     0.166 A 
ATOM     37  C   UNL A   1      34.286  34.720  33.037  1.00  0.00     0.165 A 
ATOM     38  O   UNL A   1      33.399  35.895  30.275  1.00  0.00    -0.454 OA
ATOM     39  O   UNL A   1      33.641  36.522  33.039  1.00  0.00    -0.454 OA
ATOM     40  C   UNL A   1      33.303  37.076  31.300  1.00  0.00     0.468 C 
ENDBRANCH  19  32
ENDBRANCH  15  18
ENDBRANCH   9  14
ENDBRANCH   6   8
ENDBRANCH   5   6
ENDBRANCH   4   5
ENDBRANCH   3   4
ENDBRANCH   2   3
ENDBRANCH   1   2
BRANCH   1  41
ATOM     41  C   UNL A   1      37.177  22.297  25.363  1.00  0.00     0.188 C 
BRANCH  41  42
ATOM     42  O   UNL A   1      37.177  23.513  26.037  1.00  0.00    -0.377 OA
BRANCH  42  43
ATOM     43  C   UNL A   1      38.536  23.819  26.258  1.00  0.00     0.188 C 
BRANCH  43  44
ATOM     44  C   UNL A   1      39.687  22.628  26.345  1.00  0.00     0.188 C 
BRANCH  44  45
ATOM     45  O   UNL A   1      41.090  22.477  26.743  1.00  0.00    -0.376 OA
BRANCH  45  46
ATOM     46  C   UNL A   1      41.752  23.467  27.523  1.00  0.00     0.202 C 
BRANCH  46  47
ATOM     47  C   UNL A   1      41.312  24.970  27.353  1.00  0.00     0.261 C 
BRANCH  47  48
ATOM     48  O   UNL A   1      42.295  26.074  27.222  1.00  0.00    -0.460 OA
BRANCH  48  49
ATOM     49  C   UNL A   1      42.505  26.690  26.002  1.00  0.00     0.338 C 
ATOM     50  O   UNL A   1      41.757  27.501  25.479  1.00  0.00    -0.246 OA
BRANCH  49  51
ATOM     51  C   UNL A   1      43.939  26.556  25.537  1.00  0.00     0.060 A 
ATOM     52  C   UNL A   1      44.672  25.334  25.406  1.00  0.00     0.016 A 
ATOM     53  C   UNL A   1      44.594  27.757  25.402  1.00  0.00     0.016 A 
ATOM     54  C   UNL A   1      46.067  25.344  25.355  1.00  0.00     0.010 A 
ATOM     55  C   UNL A   1      45.979  27.765  25.357  1.00  0.00     0.010 A 
ATOM     56  C   UNL A   1      46.724  26.573  25.378  1.00  0.00    -0.014 A 
BRANCH  56  57
ATOM     57  C   UNL A   1      48.192  26.645  25.485  1.00  0.00     0.031 A 
ATOM     58  C   UNL A   1      48.834  26.542  26.830  1.00  0.00     0.074 A 
ATOM     59  C   UNL A   1      48.945  26.828  24.385  1.00  0.00     0.049 A 
ATOM     60  N   UNL A   1      50.106  26.606  27.114  1.00  0.00    -0.248 NA
ATOM     61  C   UNL A   1      47.957  26.350  27.998  1.00  0.00     0.031 C 
ATOM     62  C   UNL A   1      48.417  26.936  23.028  1.00  0.00     0.029 A 
ATOM     63  N   UNL A   1      50.302  26.955  24.229  1.00  0.00    -0.354 N 
ATOM     64  C   UNL A   1      50.184  26.460  28.485  1.00  0.00     0.074 A 
ATOM     65  C   UNL A   1      48.833  26.358  28.990  1.00  0.00     0.031 C 
ATOM     66  C   UNL A   1      49.439  27.079  22.172  1.00  0.00     0.029 A 
ATOM     67  C   UNL A   1      50.688  27.126  22.921  1.00  0.00     0.049 A 
ATOM     68  H   UNL A   1      50.939  26.927  24.980  1.00  0.00     0.167 HD
ATOM     69  C   UNL A   1      51.297  26.403  29.245  1.00  0.00     0.031 A 
ATOM     70  C   UNL A   1      51.902  27.316  22.370  1.00  0.00     0.031 A 
ATOM     71  C   UNL A   1      52.626  26.546  28.737  1.00  0.00     0.049 A 
ATOM     72  C   UNL A   1      53.109  27.361  23.256  1.00  0.00     0.074 A 
ATOM     73  C   UNL A   1      53.803  26.495  29.458  1.00  0.00     0.029 A 
ATOM     74  N   UNL A   1      52.963  26.789  27.417  1.00  0.00    -0.354 N 
ATOM     75  N   UNL A   1      53.164  27.194  24.552  1.00  0.00    -0.248 NA
ATOM     76  C   UNL A   1      54.412  27.619  22.623  1.00  0.00     0.031 C 
ATOM     77  C   UNL A   1      54.848  26.787  28.597  1.00  0.00     0.029 A 
ATOM     78  C   UNL A   1      54.334  26.933  27.321  1.00  0.00     0.049 A 
ATOM     79  H   UNL A   1      52.327  26.849  26.668  1.00  0.00     0.167 HD
ATOM     80  C   UNL A   1      54.505  27.286  24.885  1.00  0.00     0.074 A 
ATOM     81  C   UNL A   1      55.234  27.513  23.656  1.00  0.00     0.031 C 
ATOM     82  C   UNL A   1      55.066  27.172  26.111  1.00  0.00     0.031 A 
BRANCH  69  83
ATOM     83  C   UNL A   1      51.120  26.231  30.718  1.00  0.00    -0.014 A 
ATOM     84  C   UNL A   1      51.029  24.956  31.294  1.00  0.00     0.009 A 
ATOM     85  C   UNL A   1      51.072  27.365  31.543  1.00  0.00     0.009 A 
ATOM     86  C   UNL A   1      50.772  24.828  32.656  1.00  0.00     0.001 A 
ATOM     87  C   UNL A   1      50.910  27.229  32.916  1.00  0.00     0.001 A 
ATOM     88  C   UNL A   1      50.734  25.963  33.467  1.00  0.00     0.000 A 
ENDBRANCH  69  83
BRANCH  70  89
ATOM     89  C   UNL A   1      52.043  27.524  20.908  1.00  0.00    -0.014 A 
ATOM     90  C   UNL A   1      51.969  28.809  20.353  1.00  0.00     0.009 A 
ATOM     91  C   UNL A   1      52.179  26.419  20.052  1.00  0.00     0.009 A 
ATOM     92  C   UNL A   1      51.939  28.974  18.969  1.00  0.00     0.001 A 
ATOM     93  C   UNL A   1      52.240  26.596  18.672  1.00  0.00     0.001 A 
ATOM     94  C   UNL A   1      52.100  27.872  18.131  1.00  0.00     0.000 A 
ENDBRANCH  70  89
BRANCH  82  95
ATOM     95  C   UNL A   1      56.561  27.198  26.194  1.00  0.00    -0.014 A 
ATOM     96  C   UNL A   1      57.272  28.365  26.495  1.00  0.00     0.009 A 
ATOM     97  C   UNL A   1      57.268  26.007  25.955  1.00  0.00     0.009 A 
ATOM     98  C   UNL A   1      58.662  28.371  26.403  1.00  0.00     0.001 A 
ATOM     99  C   UNL A   1      58.657  25.991  25.970  1.00  0.00     0.001 A 
ATOM    100  C   UNL A   1      59.353  27.182  26.158  1.00  0.00     0.000 A 
ENDBRANCH  82  95
ENDBRANCH  56  57
ENDBRANCH  49  51
ENDBRANCH  48  49
ENDBRANCH  47  48
ENDBRANCH  46  47
ENDBRANCH  45  46
ENDBRANCH  44  45
ENDBRANCH  43  44
ENDBRANCH  42  43
ENDBRANCH  41  42
ENDBRANCH   1  41
TORSDOF 26
ENDMDL
