MODEL 1
REMARK VINA RESULT:     -10.1      0.000      0.000
REMARK SMILES CC1CCN(S(=O)(=O)c2ccc3c(ccn3CC(=O)OCCOCCOCCOCCOC(=O)c3ccc(-c4c5nc(c(-c6ccccc6)c6ccc([nH]6)c(-c6ccccc6)c6nc(c(-c7ccccc7)c7ccc4[nH]7)C=C6)C=C5)cc3)c2)CC1
REMARK SMILES IDX 25 1 24 2 23 3 22 4 21 5 20 6 18 7 19 8 17 9 16 10 9 11
REMARK SMILES IDX 10 12 83 13 11 14 13 15 12 16 14 17 15 18 6 19 7 20 8 21
REMARK SMILES IDX 5 22 1 23 2 24 3 25 85 26 4 27 84 28 26 29 27 30 28 31 29 32
REMARK SMILES IDX 30 33 31 34 32 35 33 36 34 37 35 38 36 39 82 40 37 41 81 42
REMARK SMILES IDX 38 43 39 44 40 45 75 46 41 47 80 48 74 49 76 50 42 51 79 52
REMARK SMILES IDX 73 53 72 54 43 56 65 57 50 58 64 59 51 60 54 61 63 62 77 63
REMARK SMILES IDX 52 64 53 65 62 67 78 68 55 69 44 70 45 71 49 72 46 73 48 74
REMARK SMILES IDX 47 75 66 76 67 77 71 78 68 79 70 80 69 81 56 82 57 83 61 84
REMARK SMILES IDX 58 85 60 86 59 87
REMARK H PARENT 76 55 54 66
REMARK Flexibility Score: inf
ROOT
ATOM      1  C   UNL A   1      41.161  20.437  27.487  1.00  0.00     0.188 C 
ENDROOT
BRANCH   1   2
ATOM      2  C   UNL A   1      41.680  21.800  27.055  1.00  0.00     0.188 C 
BRANCH   2   3
ATOM      3  O   UNL A   1      40.816  22.660  26.353  1.00  0.00    -0.376 OA
BRANCH   3   4
ATOM      4  C   UNL A   1      39.430  22.738  26.648  1.00  0.00     0.202 C 
BRANCH   4   5
ATOM      5  C   UNL A   1      38.244  22.335  25.734  1.00  0.00     0.261 C 
BRANCH   5   6
ATOM      6  O   UNL A   1      38.048  20.953  25.370  1.00  0.00    -0.462 OA
BRANCH   6   7
ATOM      7  C   UNL A   1      36.772  20.518  25.285  1.00  0.00     0.326 C 
ATOM      8  O   UNL A   1      36.466  19.445  24.761  1.00  0.00    -0.250 OA
BRANCH   7   9
ATOM      9  C   UNL A   1      35.692  21.390  25.886  1.00  0.00     0.244 C 
BRANCH   9  10
ATOM     10  N   UNL A   1      34.480  21.746  25.137  1.00  0.00    -0.336 N 
ATOM     11  C   UNL A   1      33.290  25.187  23.183  1.00  0.00     0.083 A 
ATOM     12  C   UNL A   1      34.323  25.339  24.113  1.00  0.00     0.024 A 
ATOM     13  C   UNL A   1      32.619  23.972  23.046  1.00  0.00     0.032 A 
ATOM     14  C   UNL A   1      34.793  24.249  24.851  1.00  0.00     0.028 A 
ATOM     15  C   UNL A   1      33.096  22.861  23.764  1.00  0.00     0.001 A 
ATOM     16  C   UNL A   1      34.183  23.006  24.639  1.00  0.00     0.049 A 
ATOM     17  C   UNL A   1      32.734  21.494  23.754  1.00  0.00     0.028 A 
ATOM     18  C   UNL A   1      33.698  20.824  24.466  1.00  0.00     0.087 A 
BRANCH  11  19
ATOM     19  S   UNL A   1      32.780  26.574  22.199  1.00  0.00     0.243 S 
ATOM     20  O   UNL A   1      31.608  26.152  21.455  1.00  0.00    -0.207 OA
ATOM     21  O   UNL A   1      33.940  27.080  21.498  1.00  0.00    -0.207 OA
BRANCH  19  22
ATOM     22  N   UNL A   1      32.324  27.776  23.340  1.00  0.00    -0.198 NA
ATOM     23  C   UNL A   1      28.285  26.564  23.795  1.00  0.00     0.008 C 
ATOM     24  C   UNL A   1      29.494  27.465  24.052  1.00  0.00    -0.012 C 
ATOM     25  C   UNL A   1      29.940  28.141  22.742  1.00  0.00     0.020 C 
ATOM     26  C   UNL A   1      30.607  26.653  24.733  1.00  0.00     0.020 C 
ATOM     27  C   UNL A   1      31.333  28.762  22.822  1.00  0.00     0.103 C 
ATOM     28  C   UNL A   1      31.944  27.375  24.716  1.00  0.00     0.103 C 
ENDBRANCH  19  22
ENDBRANCH  11  19
ENDBRANCH   9  10
ENDBRANCH   7   9
ENDBRANCH   6   7
ENDBRANCH   5   6
ENDBRANCH   4   5
ENDBRANCH   3   4
ENDBRANCH   2   3
ENDBRANCH   1   2
BRANCH   1  29
ATOM     29  O   UNL A   1      42.075  19.372  27.493  1.00  0.00    -0.377 OA
BRANCH  29  30
ATOM     30  C   UNL A   1      42.501  18.826  26.263  1.00  0.00     0.188 C 
BRANCH  30  31
ATOM     31  C   UNL A   1      43.830  18.068  26.194  1.00  0.00     0.188 C 
BRANCH  31  32
ATOM     32  O   UNL A   1      44.709  18.634  25.241  1.00  0.00    -0.376 OA
BRANCH  32  33
ATOM     33  C   UNL A   1      44.418  19.905  24.684  1.00  0.00     0.202 C 
BRANCH  33  34
ATOM     34  C   UNL A   1      45.038  21.210  25.228  1.00  0.00     0.261 C 
BRANCH  34  35
ATOM     35  O   UNL A   1      44.345  22.428  24.914  1.00  0.00    -0.460 OA
BRANCH  35  36
ATOM     36  C   UNL A   1      44.982  23.618  24.890  1.00  0.00     0.338 C 
ATOM     37  O   UNL A   1      45.844  23.969  24.112  1.00  0.00    -0.246 OA
BRANCH  36  38
ATOM     38  C   UNL A   1      44.167  24.524  25.758  1.00  0.00     0.060 A 
ATOM     39  C   UNL A   1      43.042  25.206  25.279  1.00  0.00     0.016 A 
ATOM     40  C   UNL A   1      44.738  24.900  26.984  1.00  0.00     0.016 A 
ATOM     41  C   UNL A   1      42.568  26.320  25.983  1.00  0.00     0.010 A 
ATOM     42  C   UNL A   1      44.275  26.028  27.672  1.00  0.00     0.010 A 
ATOM     43  C   UNL A   1      43.204  26.764  27.164  1.00  0.00    -0.014 A 
BRANCH  43  44
ATOM     44  C   UNL A   1      42.517  27.797  27.967  1.00  0.00     0.031 A 
ATOM     45  C   UNL A   1      43.287  29.073  27.983  1.00  0.00     0.074 A 
ATOM     46  C   UNL A   1      41.282  27.816  28.520  1.00  0.00     0.049 A 
ATOM     47  N   UNL A   1      43.778  29.691  29.005  1.00  0.00    -0.248 NA
ATOM     48  C   UNL A   1      43.654  29.652  26.681  1.00  0.00     0.031 C 
ATOM     49  C   UNL A   1      40.205  26.835  28.400  1.00  0.00     0.029 A 
ATOM     50  N   UNL A   1      40.693  28.822  29.255  1.00  0.00    -0.354 N 
ATOM     51  C   UNL A   1      44.412  30.817  28.493  1.00  0.00     0.074 A 
ATOM     52  C   UNL A   1      44.422  30.671  27.060  1.00  0.00     0.031 C 
ATOM     53  C   UNL A   1      39.044  27.388  28.834  1.00  0.00     0.029 A 
ATOM     54  C   UNL A   1      39.309  28.717  29.366  1.00  0.00     0.049 A 
ATOM     55  H   UNL A   1      41.208  29.553  29.668  1.00  0.00     0.167 HD
ATOM     56  C   UNL A   1      44.723  31.892  29.266  1.00  0.00     0.031 A 
ATOM     57  C   UNL A   1      38.440  29.675  29.793  1.00  0.00     0.031 A 
ATOM     58  C   UNL A   1      44.730  31.572  30.667  1.00  0.00     0.049 A 
ATOM     59  C   UNL A   1      39.192  30.667  30.589  1.00  0.00     0.074 A 
ATOM     60  C   UNL A   1      45.398  30.641  31.441  1.00  0.00     0.029 A 
ATOM     61  N   UNL A   1      43.694  32.029  31.445  1.00  0.00    -0.354 N 
ATOM     62  N   UNL A   1      39.664  30.445  31.780  1.00  0.00    -0.248 NA
ATOM     63  C   UNL A   1      39.735  31.828  29.904  1.00  0.00     0.031 C 
ATOM     64  C   UNL A   1      44.449  30.226  32.415  1.00  0.00     0.029 A 
ATOM     65  C   UNL A   1      43.287  30.972  32.219  1.00  0.00     0.049 A 
ATOM     66  H   UNL A   1      43.316  32.937  31.447  1.00  0.00     0.167 HD
ATOM     67  C   UNL A   1      40.863  31.137  31.810  1.00  0.00     0.074 A 
ATOM     68  C   UNL A   1      40.801  32.054  30.673  1.00  0.00     0.031 C 
ATOM     69  C   UNL A   1      41.910  30.708  32.571  1.00  0.00     0.031 A 
BRANCH  56  70
ATOM     70  C   UNL A   1      44.675  33.304  28.748  1.00  0.00    -0.014 A 
ATOM     71  C   UNL A   1      45.751  33.907  28.065  1.00  0.00     0.009 A 
ATOM     72  C   UNL A   1      43.442  33.975  28.702  1.00  0.00     0.009 A 
ATOM     73  C   UNL A   1      45.610  35.109  27.371  1.00  0.00     0.001 A 
ATOM     74  C   UNL A   1      43.285  35.155  27.965  1.00  0.00     0.001 A 
ATOM     75  C   UNL A   1      44.368  35.720  27.300  1.00  0.00     0.000 A 
ENDBRANCH  56  70
BRANCH  57  76
ATOM     76  C   UNL A   1      37.055  29.972  29.341  1.00  0.00    -0.014 A 
ATOM     77  C   UNL A   1      36.539  29.364  28.184  1.00  0.00     0.009 A 
ATOM     78  C   UNL A   1      36.352  31.079  29.856  1.00  0.00     0.009 A 
ATOM     79  C   UNL A   1      35.404  29.869  27.538  1.00  0.00     0.001 A 
ATOM     80  C   UNL A   1      35.220  31.591  29.204  1.00  0.00     0.001 A 
ATOM     81  C   UNL A   1      34.758  30.996  28.034  1.00  0.00     0.000 A 
ENDBRANCH  57  76
BRANCH  69  82
ATOM     82  C   UNL A   1      41.685  29.652  33.630  1.00  0.00    -0.014 A 
ATOM     83  C   UNL A   1      41.673  30.066  34.974  1.00  0.00     0.009 A 
ATOM     84  C   UNL A   1      41.680  28.272  33.366  1.00  0.00     0.009 A 
ATOM     85  C   UNL A   1      41.682  29.139  36.016  1.00  0.00     0.001 A 
ATOM     86  C   UNL A   1      41.654  27.341  34.411  1.00  0.00     0.001 A 
ATOM     87  C   UNL A   1      41.672  27.775  35.735  1.00  0.00     0.000 A 
ENDBRANCH  69  82
ENDBRANCH  43  44
ENDBRANCH  36  38
ENDBRANCH  35  36
ENDBRANCH  34  35
ENDBRANCH  33  34
ENDBRANCH  32  33
ENDBRANCH  31  32
ENDBRANCH  30  31
ENDBRANCH  29  30
ENDBRANCH   1  29
TORSDOF 23
ENDMDL
MODEL 2
REMARK VINA RESULT:      -9.9      2.329      3.353
REMARK SMILES CC1CCN(S(=O)(=O)c2ccc3c(ccn3CC(=O)OCCOCCOCCOCCOC(=O)c3ccc(-c4c5nc(c(-c6ccccc6)c6ccc([nH]6)c(-c6ccccc6)c6nc(c(-c7ccccc7)c7ccc4[nH]7)C=C6)C=C5)cc3)c2)CC1
REMARK SMILES IDX 25 1 24 2 23 3 22 4 21 5 20 6 18 7 19 8 17 9 16 10 9 11
REMARK SMILES IDX 10 12 83 13 11 14 13 15 12 16 14 17 15 18 6 19 7 20 8 21
REMARK SMILES IDX 5 22 1 23 2 24 3 25 85 26 4 27 84 28 26 29 27 30 28 31 29 32
REMARK SMILES IDX 30 33 31 34 32 35 33 36 34 37 35 38 36 39 82 40 37 41 81 42
REMARK SMILES IDX 38 43 39 44 40 45 75 46 41 47 80 48 74 49 76 50 42 51 79 52
REMARK SMILES IDX 73 53 72 54 43 56 65 57 50 58 64 59 51 60 54 61 63 62 77 63
REMARK SMILES IDX 52 64 53 65 62 67 78 68 55 69 44 70 45 71 49 72 46 73 48 74
REMARK SMILES IDX 47 75 66 76 67 77 71 78 68 79 70 80 69 81 56 82 57 83 61 84
REMARK SMILES IDX 58 85 60 86 59 87
REMARK H PARENT 76 55 54 66
REMARK Flexibility Score: inf
ROOT
ATOM      1  C   UNL A   1      39.312  22.304  26.194  1.00  0.00     0.188 C 
ENDROOT
BRANCH   1   2
ATOM      2  C   UNL A   1      37.933  22.089  25.591  1.00  0.00     0.188 C 
BRANCH   2   3
ATOM      3  O   UNL A   1      37.172  23.215  25.228  1.00  0.00    -0.376 OA
BRANCH   3   4
ATOM      4  C   UNL A   1      36.042  23.633  25.978  1.00  0.00     0.202 C 
BRANCH   4   5
ATOM      5  C   UNL A   1      34.791  22.795  26.349  1.00  0.00     0.261 C 
BRANCH   5   6
ATOM      6  O   UNL A   1      34.917  21.382  26.608  1.00  0.00    -0.462 OA
BRANCH   6   7
ATOM      7  C   UNL A   1      34.422  20.542  25.674  1.00  0.00     0.326 C 
ATOM      8  O   UNL A   1      35.137  19.806  24.992  1.00  0.00    -0.250 OA
BRANCH   7   9
ATOM      9  C   UNL A   1      32.921  20.503  25.490  1.00  0.00     0.244 C 
BRANCH   9  10
ATOM     10  N   UNL A   1      32.256  21.232  24.403  1.00  0.00    -0.336 N 
ATOM     11  C   UNL A   1      30.548  24.987  24.165  1.00  0.00     0.083 A 
ATOM     12  C   UNL A   1      30.731  24.480  25.455  1.00  0.00     0.024 A 
ATOM     13  C   UNL A   1      30.798  24.200  23.041  1.00  0.00     0.032 A 
ATOM     14  C   UNL A   1      31.279  23.210  25.658  1.00  0.00     0.028 A 
ATOM     15  C   UNL A   1      31.371  22.929  23.229  1.00  0.00     0.001 A 
ATOM     16  C   UNL A   1      31.620  22.459  24.526  1.00  0.00     0.049 A 
ATOM     17  C   UNL A   1      31.853  21.958  22.321  1.00  0.00     0.028 A 
ATOM     18  C   UNL A   1      32.531  21.024  23.064  1.00  0.00     0.087 A 
BRANCH  11  19
ATOM     19  S   UNL A   1      29.935  26.639  23.947  1.00  0.00     0.243 S 
ATOM     20  O   UNL A   1      28.571  26.649  24.443  1.00  0.00    -0.207 OA
ATOM     21  O   UNL A   1      30.215  27.048  22.588  1.00  0.00    -0.207 OA
BRANCH  19  22
ATOM     22  N   UNL A   1      30.917  27.609  24.972  1.00  0.00    -0.198 NA
ATOM     23  C   UNL A   1      34.085  28.240  22.225  1.00  0.00     0.008 C 
ATOM     24  C   UNL A   1      33.385  28.368  23.578  1.00  0.00    -0.012 C 
ATOM     25  C   UNL A   1      33.196  26.977  24.212  1.00  0.00     0.020 C 
ATOM     26  C   UNL A   1      32.071  29.148  23.407  1.00  0.00     0.020 C 
ATOM     27  C   UNL A   1      32.202  26.968  25.370  1.00  0.00     0.103 C 
ATOM     28  C   UNL A   1      31.164  29.028  24.621  1.00  0.00     0.103 C 
ENDBRANCH  19  22
ENDBRANCH  11  19
ENDBRANCH   9  10
ENDBRANCH   7   9
ENDBRANCH   6   7
ENDBRANCH   5   6
ENDBRANCH   4   5
ENDBRANCH   3   4
ENDBRANCH   2   3
ENDBRANCH   1   2
BRANCH   1  29
ATOM     29  O   UNL A   1      39.957  21.184  26.743  1.00  0.00    -0.377 OA
BRANCH  29  30
ATOM     30  C   UNL A   1      41.075  21.378  27.582  1.00  0.00     0.188 C 
BRANCH  30  31
ATOM     31  C   UNL A   1      42.485  21.313  26.988  1.00  0.00     0.188 C 
BRANCH  31  32
ATOM     32  O   UNL A   1      42.990  22.600  26.689  1.00  0.00    -0.376 OA
BRANCH  32  33
ATOM     33  C   UNL A   1      44.388  22.794  26.558  1.00  0.00     0.202 C 
BRANCH  33  34
ATOM     34  C   UNL A   1      45.248  23.415  27.680  1.00  0.00     0.261 C 
BRANCH  34  35
ATOM     35  O   UNL A   1      44.554  23.826  28.867  1.00  0.00    -0.460 OA
BRANCH  35  36
ATOM     36  C   UNL A   1      45.058  24.771  29.690  1.00  0.00     0.338 C 
ATOM     37  O   UNL A   1      46.222  24.933  29.988  1.00  0.00    -0.246 OA
BRANCH  36  38
ATOM     38  C   UNL A   1      43.964  25.779  29.855  1.00  0.00     0.060 A 
ATOM     39  C   UNL A   1      42.949  25.945  28.906  1.00  0.00     0.016 A 
ATOM     40  C   UNL A   1      44.157  26.756  30.844  1.00  0.00     0.016 A 
ATOM     41  C   UNL A   1      42.208  27.132  28.898  1.00  0.00     0.010 A 
ATOM     42  C   UNL A   1      43.429  27.952  30.819  1.00  0.00     0.010 A 
ATOM     43  C   UNL A   1      42.468  28.163  29.830  1.00  0.00    -0.014 A 
BRANCH  43  44
ATOM     44  C   UNL A   1      41.504  29.280  29.905  1.00  0.00     0.031 A 
ATOM     45  C   UNL A   1      42.177  30.593  29.699  1.00  0.00     0.074 A 
ATOM     46  C   UNL A   1      40.151  29.283  29.960  1.00  0.00     0.049 A 
ATOM     47  N   UNL A   1      42.235  31.592  30.516  1.00  0.00    -0.248 NA
ATOM     48  C   UNL A   1      42.988  30.748  28.482  1.00  0.00     0.031 C 
ATOM     49  C   UNL A   1      39.223  28.158  29.860  1.00  0.00     0.029 A 
ATOM     50  N   UNL A   1      39.303  30.369  30.019  1.00  0.00    -0.354 N 
ATOM     51  C   UNL A   1      42.983  32.566  29.865  1.00  0.00     0.074 A 
ATOM     52  C   UNL A   1      43.532  31.946  28.685  1.00  0.00     0.031 C 
ATOM     53  C   UNL A   1      37.970  28.628  29.637  1.00  0.00     0.029 A 
ATOM     54  C   UNL A   1      37.982  30.083  29.687  1.00  0.00     0.049 A 
ATOM     55  H   UNL A   1      39.608  31.269  30.275  1.00  0.00     0.167 HD
ATOM     56  C   UNL A   1      42.954  33.874  30.235  1.00  0.00     0.031 A 
ATOM     57  C   UNL A   1      36.991  30.973  29.405  1.00  0.00     0.031 A 
ATOM     58  C   UNL A   1      42.447  34.053  31.567  1.00  0.00     0.049 A 
ATOM     59  C   UNL A   1      37.364  32.285  29.974  1.00  0.00     0.074 A 
ATOM     60  C   UNL A   1      42.803  33.561  32.809  1.00  0.00     0.029 A 
ATOM     61  N   UNL A   1      41.183  34.571  31.719  1.00  0.00    -0.354 N 
ATOM     62  N   UNL A   1      37.363  32.560  31.244  1.00  0.00    -0.248 NA
ATOM     63  C   UNL A   1      38.093  33.217  29.129  1.00  0.00     0.031 C 
ATOM     64  C   UNL A   1      41.569  33.352  33.487  1.00  0.00     0.029 A 
ATOM     65  C   UNL A   1      40.545  33.788  32.646  1.00  0.00     0.049 A 
ATOM     66  H   UNL A   1      40.808  35.352  31.252  1.00  0.00     0.167 HD
ATOM     67  C   UNL A   1      38.446  33.407  31.414  1.00  0.00     0.074 A 
ATOM     68  C   UNL A   1      38.788  33.861  30.068  1.00  0.00     0.031 C 
ATOM     69  C   UNL A   1      39.144  33.438  32.586  1.00  0.00     0.031 A 
BRANCH  56  70
ATOM     70  C   UNL A   1      43.066  34.999  29.242  1.00  0.00    -0.014 A 
ATOM     71  C   UNL A   1      44.302  35.536  28.827  1.00  0.00     0.009 A 
ATOM     72  C   UNL A   1      41.934  35.369  28.497  1.00  0.00     0.009 A 
ATOM     73  C   UNL A   1      44.409  36.392  27.730  1.00  0.00     0.001 A 
ATOM     74  C   UNL A   1      42.045  36.187  27.366  1.00  0.00     0.001 A 
ATOM     75  C   UNL A   1      43.282  36.696  26.983  1.00  0.00     0.000 A 
ENDBRANCH  56  70
BRANCH  57  76
ATOM     76  C   UNL A   1      35.868  30.871  28.436  1.00  0.00    -0.014 A 
ATOM     77  C   UNL A   1      34.859  31.849  28.410  1.00  0.00     0.009 A 
ATOM     78  C   UNL A   1      35.613  29.664  27.754  1.00  0.00     0.009 A 
ATOM     79  C   UNL A   1      33.631  31.616  27.779  1.00  0.00     0.001 A 
ATOM     80  C   UNL A   1      34.379  29.426  27.130  1.00  0.00     0.001 A 
ATOM     81  C   UNL A   1      33.381  30.396  27.159  1.00  0.00     0.000 A 
ENDBRANCH  57  76
BRANCH  69  82
ATOM     82  C   UNL A   1      38.569  32.781  33.820  1.00  0.00    -0.014 A 
ATOM     83  C   UNL A   1      37.999  33.615  34.799  1.00  0.00     0.009 A 
ATOM     84  C   UNL A   1      38.739  31.422  34.131  1.00  0.00     0.009 A 
ATOM     85  C   UNL A   1      37.638  33.117  36.051  1.00  0.00     0.001 A 
ATOM     86  C   UNL A   1      38.345  30.915  35.376  1.00  0.00     0.001 A 
ATOM     87  C   UNL A   1      37.811  31.766  36.340  1.00  0.00     0.000 A 
ENDBRANCH  69  82
ENDBRANCH  43  44
ENDBRANCH  36  38
ENDBRANCH  35  36
ENDBRANCH  34  35
ENDBRANCH  33  34
ENDBRANCH  32  33
ENDBRANCH  31  32
ENDBRANCH  30  31
ENDBRANCH  29  30
ENDBRANCH   1  29
TORSDOF 23
ENDMDL
MODEL 3
REMARK VINA RESULT:      -9.1      2.627      4.053
REMARK SMILES CC1CCN(S(=O)(=O)c2ccc3c(ccn3CC(=O)OCCOCCOCCOCCOC(=O)c3ccc(-c4c5nc(c(-c6ccccc6)c6ccc([nH]6)c(-c6ccccc6)c6nc(c(-c7ccccc7)c7ccc4[nH]7)C=C6)C=C5)cc3)c2)CC1
REMARK SMILES IDX 25 1 24 2 23 3 22 4 21 5 20 6 18 7 19 8 17 9 16 10 9 11
REMARK SMILES IDX 10 12 83 13 11 14 13 15 12 16 14 17 15 18 6 19 7 20 8 21
REMARK SMILES IDX 5 22 1 23 2 24 3 25 85 26 4 27 84 28 26 29 27 30 28 31 29 32
REMARK SMILES IDX 30 33 31 34 32 35 33 36 34 37 35 38 36 39 82 40 37 41 81 42
REMARK SMILES IDX 38 43 39 44 40 45 75 46 41 47 80 48 74 49 76 50 42 51 79 52
REMARK SMILES IDX 73 53 72 54 43 56 65 57 50 58 64 59 51 60 54 61 63 62 77 63
REMARK SMILES IDX 52 64 53 65 62 67 78 68 55 69 44 70 45 71 49 72 46 73 48 74
REMARK SMILES IDX 47 75 66 76 67 77 71 78 68 79 70 80 69 81 56 82 57 83 61 84
REMARK SMILES IDX 58 85 60 86 59 87
REMARK H PARENT 76 55 54 66
REMARK Flexibility Score: inf
ROOT
ATOM      1  C   UNL A   1      37.822  21.536  25.018  1.00  0.00     0.188 C 
ENDROOT
BRANCH   1   2
ATOM      2  C   UNL A   1      36.517  20.845  25.381  1.00  0.00     0.188 C 
BRANCH   2   3
ATOM      3  O   UNL A   1      35.367  21.130  24.622  1.00  0.00    -0.376 OA
BRANCH   3   4
ATOM      4  C   UNL A   1      34.705  22.383  24.701  1.00  0.00     0.202 C 
BRANCH   4   5
ATOM      5  C   UNL A   1      34.830  23.449  25.820  1.00  0.00     0.261 C 
BRANCH   5   6
ATOM      6  O   UNL A   1      34.124  23.276  27.066  1.00  0.00    -0.462 OA
BRANCH   6   7
ATOM      7  C   UNL A   1      33.259  22.242  27.141  1.00  0.00     0.326 C 
ATOM      8  O   UNL A   1      33.612  21.097  27.428  1.00  0.00    -0.250 OA
BRANCH   7   9
ATOM      9  C   UNL A   1      31.797  22.529  26.878  1.00  0.00     0.244 C 
BRANCH   9  10
ATOM     10  N   UNL A   1      31.322  22.989  25.568  1.00  0.00    -0.336 N 
ATOM     11  C   UNL A   1      30.728  26.744  23.950  1.00  0.00     0.083 A 
ATOM     12  C   UNL A   1      30.810  26.686  25.344  1.00  0.00     0.024 A 
ATOM     13  C   UNL A   1      30.703  25.580  23.182  1.00  0.00     0.032 A 
ATOM     14  C   UNL A   1      30.987  25.467  26.005  1.00  0.00     0.028 A 
ATOM     15  C   UNL A   1      30.904  24.348  23.830  1.00  0.00     0.001 A 
ATOM     16  C   UNL A   1      31.061  24.307  25.223  1.00  0.00     0.049 A 
ATOM     17  C   UNL A   1      31.060  23.030  23.342  1.00  0.00     0.028 A 
ATOM     18  C   UNL A   1      31.477  22.263  24.401  1.00  0.00     0.087 A 
BRANCH  11  19
ATOM     19  S   UNL A   1      30.594  28.319  23.141  1.00  0.00     0.243 S 
ATOM     20  O   UNL A   1      30.145  29.269  24.142  1.00  0.00    -0.207 OA
ATOM     21  O   UNL A   1      29.835  28.137  21.923  1.00  0.00    -0.207 OA
BRANCH  19  22
ATOM     22  N   UNL A   1      32.202  28.709  22.673  1.00  0.00    -0.198 NA
ATOM     23  C   UNL A   1      34.137  27.216  26.139  1.00  0.00     0.008 C 
ATOM     24  C   UNL A   1      34.084  27.911  24.778  1.00  0.00    -0.012 C 
ATOM     25  C   UNL A   1      33.248  29.201  24.872  1.00  0.00     0.020 C 
ATOM     26  C   UNL A   1      33.574  26.925  23.715  1.00  0.00     0.020 C 
ATOM     27  C   UNL A   1      32.842  29.761  23.511  1.00  0.00     0.103 C 
ATOM     28  C   UNL A   1      33.177  27.620  22.423  1.00  0.00     0.103 C 
ENDBRANCH  19  22
ENDBRANCH  11  19
ENDBRANCH   9  10
ENDBRANCH   7   9
ENDBRANCH   6   7
ENDBRANCH   5   6
ENDBRANCH   4   5
ENDBRANCH   3   4
ENDBRANCH   2   3
ENDBRANCH   1   2
BRANCH   1  29
ATOM     29  O   UNL A   1      38.682  21.883  26.071  1.00  0.00    -0.377 OA
BRANCH  29  30
ATOM     30  C   UNL A   1      38.795  23.238  26.448  1.00  0.00     0.188 C 
BRANCH  30  31
ATOM     31  C   UNL A   1      39.954  23.678  27.347  1.00  0.00     0.188 C 
BRANCH  31  32
ATOM     32  O   UNL A   1      41.163  23.802  26.624  1.00  0.00    -0.376 OA
BRANCH  32  33
ATOM     33  C   UNL A   1      42.250  22.941  26.918  1.00  0.00     0.202 C 
BRANCH  33  34
ATOM     34  C   UNL A   1      43.394  23.346  27.873  1.00  0.00     0.261 C 
BRANCH  34  35
ATOM     35  O   UNL A   1      43.015  24.055  29.062  1.00  0.00    -0.460 OA
BRANCH  35  36
ATOM     36  C   UNL A   1      43.901  24.808  29.749  1.00  0.00     0.338 C 
ATOM     37  O   UNL A   1      45.066  24.549  29.966  1.00  0.00    -0.246 OA
BRANCH  36  38
ATOM     38  C   UNL A   1      43.271  26.160  29.861  1.00  0.00     0.060 A 
ATOM     39  C   UNL A   1      43.520  27.015  30.942  1.00  0.00     0.016 A 
ATOM     40  C   UNL A   1      42.193  26.423  29.002  1.00  0.00     0.016 A 
ATOM     41  C   UNL A   1      42.626  28.060  31.207  1.00  0.00     0.010 A 
ATOM     42  C   UNL A   1      41.289  27.455  29.283  1.00  0.00     0.010 A 
ATOM     43  C   UNL A   1      41.482  28.265  30.402  1.00  0.00    -0.014 A 
BRANCH  43  44
ATOM     44  C   UNL A   1      40.717  29.513  30.604  1.00  0.00     0.031 A 
ATOM     45  C   UNL A   1      41.573  30.715  30.395  1.00  0.00     0.074 A 
ATOM     46  C   UNL A   1      39.390  29.724  30.773  1.00  0.00     0.049 A 
ATOM     47  N   UNL A   1      41.852  31.647  31.243  1.00  0.00    -0.248 NA
ATOM     48  C   UNL A   1      42.302  30.806  29.120  1.00  0.00     0.031 C 
ATOM     49  C   UNL A   1      38.290  28.763  30.707  1.00  0.00     0.029 A 
ATOM     50  N   UNL A   1      38.734  30.923  30.948  1.00  0.00    -0.354 N 
ATOM     51  C   UNL A   1      42.693  32.526  30.571  1.00  0.00     0.074 A 
ATOM     52  C   UNL A   1      43.043  31.893  29.325  1.00  0.00     0.031 C 
ATOM     53  C   UNL A   1      37.115  29.434  30.610  1.00  0.00     0.029 A 
ATOM     54  C   UNL A   1      37.362  30.864  30.718  1.00  0.00     0.049 A 
ATOM     55  H   UNL A   1      39.196  31.750  31.213  1.00  0.00     0.167 HD
ATOM     56  C   UNL A   1      42.902  33.801  30.994  1.00  0.00     0.031 A 
ATOM     57  C   UNL A   1      36.506  31.911  30.557  1.00  0.00     0.031 A 
ATOM     58  C   UNL A   1      42.534  33.987  32.371  1.00  0.00     0.049 A 
ATOM     59  C   UNL A   1      37.127  33.117  31.145  1.00  0.00     0.074 A 
ATOM     60  C   UNL A   1      42.902  33.380  33.557  1.00  0.00     0.029 A 
ATOM     61  N   UNL A   1      41.385  34.685  32.650  1.00  0.00    -0.354 N 
ATOM     62  N   UNL A   1      37.268  33.320  32.421  1.00  0.00    -0.248 NA
ATOM     63  C   UNL A   1      37.927  33.968  30.280  1.00  0.00     0.031 C 
ATOM     64  C   UNL A   1      41.708  33.329  34.328  1.00  0.00     0.029 A 
ATOM     65  C   UNL A   1      40.704  33.963  33.596  1.00  0.00     0.049 A 
ATOM     66  H   UNL A   1      41.103  35.539  32.249  1.00  0.00     0.167 HD
ATOM     67  C   UNL A   1      38.481  33.979  32.532  1.00  0.00     0.074 A 
ATOM     68  C   UNL A   1      38.787  34.445  31.181  1.00  0.00     0.031 C 
ATOM     69  C   UNL A   1      39.265  33.838  33.640  1.00  0.00     0.031 A 
BRANCH  56  70
ATOM     70  C   UNL A   1      43.114  34.947  30.042  1.00  0.00    -0.014 A 
ATOM     71  C   UNL A   1      42.140  35.362  29.111  1.00  0.00     0.009 A 
ATOM     72  C   UNL A   1      44.204  35.810  30.242  1.00  0.00     0.009 A 
ATOM     73  C   UNL A   1      42.240  36.569  28.418  1.00  0.00     0.001 A 
ATOM     74  C   UNL A   1      44.282  37.045  29.587  1.00  0.00     0.001 A 
ATOM     75  C   UNL A   1      43.300  37.424  28.677  1.00  0.00     0.000 A 
ENDBRANCH  56  70
BRANCH  57  76
ATOM     76  C   UNL A   1      35.309  32.036  29.684  1.00  0.00    -0.014 A 
ATOM     77  C   UNL A   1      35.036  31.062  28.709  1.00  0.00     0.009 A 
ATOM     78  C   UNL A   1      34.610  33.256  29.590  1.00  0.00     0.009 A 
ATOM     79  C   UNL A   1      34.147  31.310  27.656  1.00  0.00     0.001 A 
ATOM     80  C   UNL A   1      33.727  33.510  28.530  1.00  0.00     0.001 A 
ATOM     81  C   UNL A   1      33.510  32.543  27.553  1.00  0.00     0.000 A 
ENDBRANCH  57  76
BRANCH  69  82
ATOM     82  C   UNL A   1      38.689  33.215  34.892  1.00  0.00    -0.014 A 
ATOM     83  C   UNL A   1      38.361  34.071  35.958  1.00  0.00     0.009 A 
ATOM     84  C   UNL A   1      38.643  31.829  35.122  1.00  0.00     0.009 A 
ATOM     85  C   UNL A   1      38.025  33.565  37.214  1.00  0.00     0.001 A 
ATOM     86  C   UNL A   1      38.273  31.321  36.373  1.00  0.00     0.001 A 
ATOM     87  C   UNL A   1      37.981  32.189  37.422  1.00  0.00     0.000 A 
ENDBRANCH  69  82
ENDBRANCH  43  44
ENDBRANCH  36  38
ENDBRANCH  35  36
ENDBRANCH  34  35
ENDBRANCH  33  34
ENDBRANCH  32  33
ENDBRANCH  31  32
ENDBRANCH  30  31
ENDBRANCH  29  30
ENDBRANCH   1  29
TORSDOF 23
ENDMDL
