MODEL 1
REMARK VINA RESULT:      -9.7      0.000      0.000
REMARK SMILES O=C(OCCOCCOCCOCCOC(=O)[C@H](Cc1ccc(O)cc1)NC(=O)c1ccc(Cl)s1)c1ccc(-c2c3nc(c(-c4ccccc4)c4ccc([nH]4)c(-c4ccccc4)c4nc(c(-c5ccccc5)c5ccc2[nH]5)C=C4)C=C3)cc1
REMARK SMILES IDX 10 1 9 2 8 3 7 4 6 5 5 6 4 7 3 8 2 9 1 10 36 11 37 12 83 13
REMARK SMILES IDX 38 14 82 15 39 16 40 17 41 18 76 19 42 20 81 21 75 22 77 23
REMARK SMILES IDX 43 24 80 25 74 26 73 27 44 29 66 30 51 31 65 32 52 33 55 34
REMARK SMILES IDX 64 35 78 36 53 37 54 38 63 40 79 41 56 42 45 43 46 44 50 45
REMARK SMILES IDX 47 46 49 47 48 48 67 49 68 50 72 51 69 52 71 53 70 54 57 55
REMARK SMILES IDX 58 56 62 57 59 58 61 59 60 60 11 61 12 62 13 63 14 64 15 65
REMARK SMILES IDX 16 66 17 67 18 68 27 69 28 70 29 72 30 73 31 74 35 75 32 76
REMARK SMILES IDX 33 77 34 78 19 79 20 80 21 81 26 82 22 83 25 84 23 85 24 86
REMARK H PARENT 77 28 55 39 27 71 24 87
REMARK Flexibility Score: inf
ROOT
ATOM      1  C   UNL A   1      33.664  28.417  22.870  1.00  0.00     0.188 C 
ENDROOT
BRANCH   1   2
ATOM      2  O   UNL A   1      32.761  29.226  23.614  1.00  0.00    -0.377 OA
BRANCH   2   3
ATOM      3  C   UNL A   1      31.484  28.659  23.882  1.00  0.00     0.188 C 
BRANCH   3   4
ATOM      4  C   UNL A   1      31.324  28.201  25.328  1.00  0.00     0.188 C 
BRANCH   4   5
ATOM      5  O   UNL A   1      32.601  28.190  25.976  1.00  0.00    -0.376 OA
BRANCH   5   6
ATOM      6  C   UNL A   1      32.724  29.060  27.097  1.00  0.00     0.202 C 
BRANCH   6   7
ATOM      7  C   UNL A   1      33.577  30.299  26.830  1.00  0.00     0.261 C 
BRANCH   7   8
ATOM      8  O   UNL A   1      33.702  31.140  27.983  1.00  0.00    -0.460 OA
BRANCH   8   9
ATOM      9  C   UNL A   1      34.778  31.339  28.783  1.00  0.00     0.338 C 
ATOM     10  O   UNL A   1      34.755  32.327  29.519  1.00  0.00    -0.246 OA
BRANCH   9  11
ATOM     11  C   UNL A   1      36.009  30.472  28.832  1.00  0.00     0.060 A 
ATOM     12  C   UNL A   1      36.446  29.699  29.911  1.00  0.00     0.016 A 
ATOM     13  C   UNL A   1      36.791  30.438  27.658  1.00  0.00     0.016 A 
ATOM     14  C   UNL A   1      37.638  28.984  29.866  1.00  0.00     0.010 A 
ATOM     15  C   UNL A   1      37.996  29.729  27.600  1.00  0.00     0.010 A 
ATOM     16  C   UNL A   1      38.440  29.041  28.730  1.00  0.00    -0.014 A 
BRANCH  16  17
ATOM     17  C   UNL A   1      39.836  28.598  28.869  1.00  0.00     0.031 A 
ATOM     18  C   UNL A   1      40.783  29.533  29.567  1.00  0.00     0.074 A 
ATOM     19  C   UNL A   1      40.191  27.344  28.549  1.00  0.00     0.049 A 
ATOM     20  N   UNL A   1      42.046  29.376  29.850  1.00  0.00    -0.248 NA
ATOM     21  C   UNL A   1      40.210  30.806  30.042  1.00  0.00     0.031 C 
ATOM     22  C   UNL A   1      39.291  26.320  28.017  1.00  0.00     0.029 A 
ATOM     23  N   UNL A   1      41.397  26.708  28.663  1.00  0.00    -0.354 N 
ATOM     24  C   UNL A   1      42.418  30.529  30.531  1.00  0.00     0.074 A 
ATOM     25  C   UNL A   1      41.254  31.379  30.617  1.00  0.00     0.031 C 
ATOM     26  C   UNL A   1      39.977  25.175  27.863  1.00  0.00     0.029 A 
ATOM     27  C   UNL A   1      41.371  25.404  28.235  1.00  0.00     0.049 A 
ATOM     28  H   UNL A   1      42.205  27.143  29.018  1.00  0.00     0.167 HD
ATOM     29  C   UNL A   1      43.632  30.854  31.029  1.00  0.00     0.031 A 
ATOM     30  C   UNL A   1      42.377  24.515  28.133  1.00  0.00     0.031 A 
ATOM     31  C   UNL A   1      44.788  30.018  30.882  1.00  0.00     0.049 A 
ATOM     32  C   UNL A   1      43.755  24.959  28.552  1.00  0.00     0.074 A 
ATOM     33  C   UNL A   1      46.101  30.279  31.220  1.00  0.00     0.029 A 
ATOM     34  N   UNL A   1      44.753  28.743  30.336  1.00  0.00    -0.354 N 
ATOM     35  N   UNL A   1      44.124  26.087  29.114  1.00  0.00    -0.248 NA
ATOM     36  C   UNL A   1      44.855  24.017  28.311  1.00  0.00     0.031 C 
ATOM     37  C   UNL A   1      46.869  29.173  30.838  1.00  0.00     0.029 A 
ATOM     38  C   UNL A   1      46.025  28.206  30.310  1.00  0.00     0.049 A 
ATOM     39  H   UNL A   1      43.942  28.288  30.014  1.00  0.00     0.167 HD
ATOM     40  C   UNL A   1      45.495  25.988  29.302  1.00  0.00     0.074 A 
ATOM     41  C   UNL A   1      45.887  24.679  28.817  1.00  0.00     0.031 C 
ATOM     42  C   UNL A   1      46.362  26.895  29.819  1.00  0.00     0.031 A 
BRANCH  29  43
ATOM     43  C   UNL A   1      43.753  32.202  31.677  1.00  0.00    -0.014 A 
ATOM     44  C   UNL A   1      44.172  33.328  30.950  1.00  0.00     0.009 A 
ATOM     45  C   UNL A   1      43.519  32.330  33.054  1.00  0.00     0.009 A 
ATOM     46  C   UNL A   1      44.393  34.546  31.599  1.00  0.00     0.001 A 
ATOM     47  C   UNL A   1      43.720  33.554  33.696  1.00  0.00     0.001 A 
ATOM     48  C   UNL A   1      44.167  34.656  32.970  1.00  0.00     0.000 A 
ENDBRANCH  29  43
BRANCH  30  49
ATOM     49  C   UNL A   1      42.143  23.166  27.553  1.00  0.00    -0.014 A 
ATOM     50  C   UNL A   1      42.206  22.948  26.169  1.00  0.00     0.009 A 
ATOM     51  C   UNL A   1      41.822  22.083  28.390  1.00  0.00     0.009 A 
ATOM     52  C   UNL A   1      41.931  21.684  25.635  1.00  0.00     0.001 A 
ATOM     53  C   UNL A   1      41.576  20.815  27.858  1.00  0.00     0.001 A 
ATOM     54  C   UNL A   1      41.620  20.619  26.480  1.00  0.00     0.000 A 
ENDBRANCH  30  49
BRANCH  42  55
ATOM     55  C   UNL A   1      47.800  26.481  29.905  1.00  0.00    -0.014 A 
ATOM     56  C   UNL A   1      48.677  26.690  28.831  1.00  0.00     0.009 A 
ATOM     57  C   UNL A   1      48.290  25.929  31.097  1.00  0.00     0.009 A 
ATOM     58  C   UNL A   1      50.020  26.326  28.942  1.00  0.00     0.001 A 
ATOM     59  C   UNL A   1      49.637  25.590  31.214  1.00  0.00     0.001 A 
ATOM     60  C   UNL A   1      50.498  25.782  30.134  1.00  0.00     0.000 A 
ENDBRANCH  42  55
ENDBRANCH  16  17
ENDBRANCH   9  11
ENDBRANCH   8   9
ENDBRANCH   7   8
ENDBRANCH   6   7
ENDBRANCH   5   6
ENDBRANCH   4   5
ENDBRANCH   3   4
ENDBRANCH   2   3
ENDBRANCH   1   2
BRANCH   1  61
ATOM     61  C   UNL A   1      33.085  27.190  22.140  1.00  0.00     0.188 C 
BRANCH  61  62
ATOM     62  O   UNL A   1      33.670  25.970  22.569  1.00  0.00    -0.376 OA
BRANCH  62  63
ATOM     63  C   UNL A   1      33.027  25.317  23.655  1.00  0.00     0.202 C 
BRANCH  63  64
ATOM     64  C   UNL A   1      31.668  24.684  23.322  1.00  0.00     0.261 C 
BRANCH  64  65
ATOM     65  O   UNL A   1      31.557  23.247  23.479  1.00  0.00    -0.462 OA
BRANCH  65  66
ATOM     66  C   UNL A   1      32.509  22.441  22.948  1.00  0.00     0.329 C 
ATOM     67  O   UNL A   1      33.094  22.659  21.894  1.00  0.00    -0.250 OA
BRANCH  66  68
ATOM     68  C   UNL A   1      32.802  21.233  23.862  1.00  0.00     0.197 C 
BRANCH  68  69
ATOM     69  N   UNL A   1      32.279  21.635  25.167  1.00  0.00    -0.338 N 
ATOM     70  C   UNL A   1      32.949  22.201  26.218  1.00  0.00     0.262 C 
ATOM     71  H   UNL A   1      31.317  21.479  25.309  1.00  0.00     0.164 HD
ATOM     72  O   UNL A   1      32.328  22.419  27.258  1.00  0.00    -0.268 OA
BRANCH  70  73
ATOM     73  C   UNL A   1      34.350  22.491  26.032  1.00  0.00     0.093 A 
ATOM     74  C   UNL A   1      34.975  23.720  25.907  1.00  0.00     0.027 A 
ATOM     75  S   UNL A   1      35.456  21.194  25.890  1.00  0.00    -0.118 S 
ATOM     76  C   UNL A   1      36.363  23.582  25.604  1.00  0.00     0.033 A 
ATOM     77  C   UNL A   1      36.728  22.261  25.566  1.00  0.00     0.094 A 
ATOM     78  Cl  UNL A   1      38.291  21.643  25.223  1.00  0.00    -0.072 Cl
ENDBRANCH  70  73
ENDBRANCH  68  69
BRANCH  68  79
ATOM     79  C   UNL A   1      32.176  19.928  23.330  1.00  0.00     0.072 C 
BRANCH  79  80
ATOM     80  C   UNL A   1      32.707  18.593  23.815  1.00  0.00    -0.045 A 
ATOM     81  C   UNL A   1      33.399  17.727  22.956  1.00  0.00     0.007 A 
ATOM     82  C   UNL A   1      32.631  18.251  25.178  1.00  0.00     0.007 A 
ATOM     83  C   UNL A   1      33.974  16.544  23.432  1.00  0.00     0.046 A 
ATOM     84  C   UNL A   1      33.220  17.078  25.659  1.00  0.00     0.046 A 
ATOM     85  C   UNL A   1      33.884  16.232  24.781  1.00  0.00     0.115 A 
BRANCH  85  86
ATOM     86  O   UNL A   1      34.452  15.101  25.287  1.00  0.00    -0.508 OA
ATOM     87  H   UNL A   1      34.103  14.261  25.063  1.00  0.00     0.293 HD
ENDBRANCH  85  86
ENDBRANCH  79  80
ENDBRANCH  68  79
ENDBRANCH  66  68
ENDBRANCH  65  66
ENDBRANCH  64  65
ENDBRANCH  63  64
ENDBRANCH  62  63
ENDBRANCH  61  62
ENDBRANCH   1  61
TORSDOF 25
ENDMDL
MODEL 2
REMARK VINA RESULT:      -9.7      3.520      8.522
REMARK SMILES O=C(OCCOCCOCCOCCOC(=O)[C@H](Cc1ccc(O)cc1)NC(=O)c1ccc(Cl)s1)c1ccc(-c2c3nc(c(-c4ccccc4)c4ccc([nH]4)c(-c4ccccc4)c4nc(c(-c5ccccc5)c5ccc2[nH]5)C=C4)C=C3)cc1
REMARK SMILES IDX 10 1 9 2 8 3 7 4 6 5 5 6 4 7 3 8 2 9 1 10 36 11 37 12 83 13
REMARK SMILES IDX 38 14 82 15 39 16 40 17 41 18 76 19 42 20 81 21 75 22 77 23
REMARK SMILES IDX 43 24 80 25 74 26 73 27 44 29 66 30 51 31 65 32 52 33 55 34
REMARK SMILES IDX 64 35 78 36 53 37 54 38 63 40 79 41 56 42 45 43 46 44 50 45
REMARK SMILES IDX 47 46 49 47 48 48 67 49 68 50 72 51 69 52 71 53 70 54 57 55
REMARK SMILES IDX 58 56 62 57 59 58 61 59 60 60 11 61 12 62 13 63 14 64 15 65
REMARK SMILES IDX 16 66 17 67 18 68 27 69 28 70 29 72 30 73 31 74 35 75 32 76
REMARK SMILES IDX 33 77 34 78 19 79 20 80 21 81 26 82 22 83 25 84 23 85 24 86
REMARK H PARENT 77 28 55 39 27 71 24 87
REMARK Flexibility Score: inf
ROOT
ATOM      1  C   UNL A   1      35.542  21.823  24.903  1.00  0.00     0.188 C 
ENDROOT
BRANCH   1   2
ATOM      2  O   UNL A   1      36.497  20.997  25.557  1.00  0.00    -0.377 OA
BRANCH   2   3
ATOM      3  C   UNL A   1      37.797  20.965  24.982  1.00  0.00     0.188 C 
BRANCH   3   4
ATOM      4  C   UNL A   1      38.854  21.638  25.853  1.00  0.00     0.188 C 
BRANCH   4   5
ATOM      5  O   UNL A   1      40.007  20.794  25.953  1.00  0.00    -0.376 OA
BRANCH   5   6
ATOM      6  C   UNL A   1      40.881  21.082  27.041  1.00  0.00     0.202 C 
BRANCH   6   7
ATOM      7  C   UNL A   1      42.361  21.074  26.666  1.00  0.00     0.261 C 
BRANCH   7   8
ATOM      8  O   UNL A   1      42.976  22.358  26.827  1.00  0.00    -0.460 OA
BRANCH   8   9
ATOM      9  C   UNL A   1      42.677  23.531  26.217  1.00  0.00     0.338 C 
ATOM     10  O   UNL A   1      42.863  23.595  25.001  1.00  0.00    -0.246 OA
BRANCH   9  11
ATOM     11  C   UNL A   1      42.159  24.769  26.902  1.00  0.00     0.060 A 
ATOM     12  C   UNL A   1      42.650  26.071  26.762  1.00  0.00     0.016 A 
ATOM     13  C   UNL A   1      41.060  24.586  27.767  1.00  0.00     0.016 A 
ATOM     14  C   UNL A   1      42.133  27.132  27.496  1.00  0.00     0.010 A 
ATOM     15  C   UNL A   1      40.533  25.644  28.517  1.00  0.00     0.010 A 
ATOM     16  C   UNL A   1      41.110  26.910  28.412  1.00  0.00    -0.014 A 
BRANCH  16  17
ATOM     17  C   UNL A   1      40.868  27.957  29.418  1.00  0.00     0.031 A 
ATOM     18  C   UNL A   1      41.883  28.096  30.516  1.00  0.00     0.074 A 
ATOM     19  C   UNL A   1      39.885  28.855  29.247  1.00  0.00     0.049 A 
ATOM     20  N   UNL A   1      41.929  28.950  31.501  1.00  0.00    -0.248 NA
ATOM     21  C   UNL A   1      43.024  27.162  30.473  1.00  0.00     0.031 C 
ATOM     22  C   UNL A   1      38.956  28.887  28.117  1.00  0.00     0.029 A 
ATOM     23  N   UNL A   1      39.533  29.937  30.006  1.00  0.00    -0.354 N 
ATOM     24  C   UNL A   1      43.097  28.654  32.194  1.00  0.00     0.074 A 
ATOM     25  C   UNL A   1      43.730  27.543  31.524  1.00  0.00     0.031 C 
ATOM     26  C   UNL A   1      38.144  29.949  28.252  1.00  0.00     0.029 A 
ATOM     27  C   UNL A   1      38.464  30.635  29.501  1.00  0.00     0.049 A 
ATOM     28  H   UNL A   1      40.000  30.191  30.835  1.00  0.00     0.167 HD
ATOM     29  C   UNL A   1      43.589  29.252  33.301  1.00  0.00     0.031 A 
ATOM     30  C   UNL A   1      37.810  31.692  30.018  1.00  0.00     0.031 A 
ATOM     31  C   UNL A   1      42.914  30.318  33.981  1.00  0.00     0.049 A 
ATOM     32  C   UNL A   1      38.288  32.242  31.337  1.00  0.00     0.074 A 
ATOM     33  C   UNL A   1      43.231  30.926  35.180  1.00  0.00     0.029 A 
ATOM     34  N   UNL A   1      41.764  30.931  33.505  1.00  0.00    -0.354 N 
ATOM     35  N   UNL A   1      39.343  31.900  32.040  1.00  0.00    -0.248 NA
ATOM     36  C   UNL A   1      37.481  33.309  31.941  1.00  0.00     0.031 C 
ATOM     37  C   UNL A   1      42.243  31.881  35.449  1.00  0.00     0.029 A 
ATOM     38  C   UNL A   1      41.343  31.901  34.393  1.00  0.00     0.049 A 
ATOM     39  H   UNL A   1      41.313  30.707  32.659  1.00  0.00     0.167 HD
ATOM     40  C   UNL A   1      39.333  32.715  33.163  1.00  0.00     0.074 A 
ATOM     41  C   UNL A   1      38.180  33.585  33.034  1.00  0.00     0.031 C 
ATOM     42  C   UNL A   1      40.189  32.743  34.216  1.00  0.00     0.031 A 
BRANCH  29  43
ATOM     43  C   UNL A   1      44.858  28.681  33.864  1.00  0.00    -0.014 A 
ATOM     44  C   UNL A   1      46.116  29.088  33.390  1.00  0.00     0.009 A 
ATOM     45  C   UNL A   1      44.790  27.664  34.828  1.00  0.00     0.009 A 
ATOM     46  C   UNL A   1      47.278  28.458  33.844  1.00  0.00     0.001 A 
ATOM     47  C   UNL A   1      45.955  27.051  35.294  1.00  0.00     0.001 A 
ATOM     48  C   UNL A   1      47.196  27.441  34.794  1.00  0.00     0.000 A 
ENDBRANCH  29  43
BRANCH  30  49
ATOM     49  C   UNL A   1      36.607  32.246  29.341  1.00  0.00    -0.014 A 
ATOM     50  C   UNL A   1      36.676  33.428  28.588  1.00  0.00     0.009 A 
ATOM     51  C   UNL A   1      35.364  31.603  29.469  1.00  0.00     0.009 A 
ATOM     52  C   UNL A   1      35.525  33.965  28.001  1.00  0.00     0.001 A 
ATOM     53  C   UNL A   1      34.221  32.124  28.858  1.00  0.00     0.001 A 
ATOM     54  C   UNL A   1      34.301  33.311  28.133  1.00  0.00     0.000 A 
ENDBRANCH  30  49
BRANCH  42  55
ATOM     55  C   UNL A   1      39.916  33.762  35.281  1.00  0.00    -0.014 A 
ATOM     56  C   UNL A   1      40.319  35.096  35.125  1.00  0.00     0.009 A 
ATOM     57  C   UNL A   1      39.197  33.388  36.426  1.00  0.00     0.009 A 
ATOM     58  C   UNL A   1      40.028  36.035  36.114  1.00  0.00     0.001 A 
ATOM     59  C   UNL A   1      38.886  34.335  37.400  1.00  0.00     0.001 A 
ATOM     60  C   UNL A   1      39.308  35.655  37.247  1.00  0.00     0.000 A 
ENDBRANCH  42  55
ENDBRANCH  16  17
ENDBRANCH   9  11
ENDBRANCH   8   9
ENDBRANCH   7   8
ENDBRANCH   6   7
ENDBRANCH   5   6
ENDBRANCH   4   5
ENDBRANCH   3   4
ENDBRANCH   2   3
ENDBRANCH   1   2
BRANCH   1  61
ATOM     61  C   UNL A   1      34.090  21.311  24.826  1.00  0.00     0.188 C 
BRANCH  61  62
ATOM     62  O   UNL A   1      33.363  21.884  23.750  1.00  0.00    -0.376 OA
BRANCH  62  63
ATOM     63  C   UNL A   1      34.043  22.878  22.995  1.00  0.00     0.202 C 
BRANCH  63  64
ATOM     64  C   UNL A   1      33.278  23.400  21.771  1.00  0.00     0.261 C 
BRANCH  64  65
ATOM     65  O   UNL A   1      33.491  24.788  21.406  1.00  0.00    -0.462 OA
BRANCH  65  66
ATOM     66  C   UNL A   1      32.423  25.589  21.170  1.00  0.00     0.329 C 
ATOM     67  O   UNL A   1      31.906  25.751  20.072  1.00  0.00    -0.250 OA
BRANCH  66  68
ATOM     68  C   UNL A   1      31.905  26.237  22.471  1.00  0.00     0.197 C 
BRANCH  68  69
ATOM     69  N   UNL A   1      31.378  27.532  22.042  1.00  0.00    -0.338 N 
ATOM     70  C   UNL A   1      31.309  28.702  22.750  1.00  0.00     0.262 C 
ATOM     71  H   UNL A   1      31.028  27.568  21.124  1.00  0.00     0.164 HD
ATOM     72  O   UNL A   1      30.777  29.677  22.219  1.00  0.00    -0.268 OA
BRANCH  70  73
ATOM     73  C   UNL A   1      31.856  28.703  24.085  1.00  0.00     0.093 A 
ATOM     74  C   UNL A   1      31.191  28.683  25.299  1.00  0.00     0.027 A 
ATOM     75  S   UNL A   1      33.553  28.785  24.289  1.00  0.00    -0.118 S 
ATOM     76  C   UNL A   1      32.087  28.825  26.400  1.00  0.00     0.033 A 
ATOM     77  C   UNL A   1      33.387  28.893  25.968  1.00  0.00     0.094 A 
ATOM     78  Cl  UNL A   1      34.781  29.080  26.951  1.00  0.00    -0.072 Cl
ENDBRANCH  70  73
ENDBRANCH  68  69
BRANCH  68  79
ATOM     79  C   UNL A   1      30.858  25.360  23.187  1.00  0.00     0.072 C 
BRANCH  79  80
ATOM     80  C   UNL A   1      31.206  24.715  24.515  1.00  0.00    -0.045 A 
ATOM     81  C   UNL A   1      30.580  23.533  24.937  1.00  0.00     0.007 A 
ATOM     82  C   UNL A   1      32.263  25.220  25.294  1.00  0.00     0.007 A 
ATOM     83  C   UNL A   1      30.976  22.887  26.113  1.00  0.00     0.046 A 
ATOM     84  C   UNL A   1      32.671  24.565  26.461  1.00  0.00     0.046 A 
ATOM     85  C   UNL A   1      32.022  23.406  26.863  1.00  0.00     0.115 A 
BRANCH  85  86
ATOM     86  O   UNL A   1      32.453  22.793  28.001  1.00  0.00    -0.508 OA
ATOM     87  H   UNL A   1      32.215  21.903  28.173  1.00  0.00     0.293 HD
ENDBRANCH  85  86
ENDBRANCH  79  80
ENDBRANCH  68  79
ENDBRANCH  66  68
ENDBRANCH  65  66
ENDBRANCH  64  65
ENDBRANCH  63  64
ENDBRANCH  62  63
ENDBRANCH  61  62
ENDBRANCH   1  61
TORSDOF 25
ENDMDL
MODEL 3
REMARK VINA RESULT:      -9.6      2.119      3.253
REMARK SMILES O=C(OCCOCCOCCOCCOC(=O)[C@H](Cc1ccc(O)cc1)NC(=O)c1ccc(Cl)s1)c1ccc(-c2c3nc(c(-c4ccccc4)c4ccc([nH]4)c(-c4ccccc4)c4nc(c(-c5ccccc5)c5ccc2[nH]5)C=C4)C=C3)cc1
REMARK SMILES IDX 10 1 9 2 8 3 7 4 6 5 5 6 4 7 3 8 2 9 1 10 36 11 37 12 83 13
REMARK SMILES IDX 38 14 82 15 39 16 40 17 41 18 76 19 42 20 81 21 75 22 77 23
REMARK SMILES IDX 43 24 80 25 74 26 73 27 44 29 66 30 51 31 65 32 52 33 55 34
REMARK SMILES IDX 64 35 78 36 53 37 54 38 63 40 79 41 56 42 45 43 46 44 50 45
REMARK SMILES IDX 47 46 49 47 48 48 67 49 68 50 72 51 69 52 71 53 70 54 57 55
REMARK SMILES IDX 58 56 62 57 59 58 61 59 60 60 11 61 12 62 13 63 14 64 15 65
REMARK SMILES IDX 16 66 17 67 18 68 27 69 28 70 29 72 30 73 31 74 35 75 32 76
REMARK SMILES IDX 33 77 34 78 19 79 20 80 21 81 26 82 22 83 25 84 23 85 24 86
REMARK H PARENT 77 28 55 39 27 71 24 87
REMARK Flexibility Score: inf
ROOT
ATOM      1  C   UNL A   1      33.458  28.283  22.969  1.00  0.00     0.188 C 
ENDROOT
BRANCH   1   2
ATOM      2  O   UNL A   1      32.615  29.066  23.805  1.00  0.00    -0.377 OA
BRANCH   2   3
ATOM      3  C   UNL A   1      31.463  28.414  24.324  1.00  0.00     0.188 C 
BRANCH   3   4
ATOM      4  C   UNL A   1      31.470  28.308  25.846  1.00  0.00     0.188 C 
BRANCH   4   5
ATOM      5  O   UNL A   1      32.642  28.944  26.369  1.00  0.00    -0.376 OA
BRANCH   5   6
ATOM      6  C   UNL A   1      32.402  30.075  27.202  1.00  0.00     0.202 C 
BRANCH   6   7
ATOM      7  C   UNL A   1      32.675  31.415  26.522  1.00  0.00     0.261 C 
BRANCH   7   8
ATOM      8  O   UNL A   1      32.212  32.528  27.296  1.00  0.00    -0.460 OA
BRANCH   8   9
ATOM      9  C   UNL A   1      32.930  33.441  27.994  1.00  0.00     0.338 C 
ATOM     10  O   UNL A   1      32.409  34.542  28.181  1.00  0.00    -0.246 OA
BRANCH   9  11
ATOM     11  C   UNL A   1      34.319  33.236  28.540  1.00  0.00     0.060 A 
ATOM     12  C   UNL A   1      35.522  33.600  27.928  1.00  0.00     0.016 A 
ATOM     13  C   UNL A   1      34.404  32.616  29.804  1.00  0.00     0.016 A 
ATOM     14  C   UNL A   1      36.755  33.301  28.498  1.00  0.00     0.010 A 
ATOM     15  C   UNL A   1      35.636  32.303  30.387  1.00  0.00     0.010 A 
ATOM     16  C   UNL A   1      36.814  32.606  29.702  1.00  0.00    -0.014 A 
BRANCH  16  17
ATOM     17  C   UNL A   1      38.100  31.989  30.060  1.00  0.00     0.031 A 
ATOM     18  C   UNL A   1      38.894  32.649  31.151  1.00  0.00     0.074 A 
ATOM     19  C   UNL A   1      38.448  30.794  29.558  1.00  0.00     0.049 A 
ATOM     20  N   UNL A   1      40.033  32.296  31.679  1.00  0.00    -0.248 NA
ATOM     21  C   UNL A   1      38.296  33.856  31.754  1.00  0.00     0.031 C 
ATOM     22  C   UNL A   1      37.652  30.008  28.614  1.00  0.00     0.029 A 
ATOM     23  N   UNL A   1      39.546  30.015  29.805  1.00  0.00    -0.354 N 
ATOM     24  C   UNL A   1      40.289  33.236  32.669  1.00  0.00     0.074 A 
ATOM     25  C   UNL A   1      39.194  34.177  32.670  1.00  0.00     0.031 C 
ATOM     26  C   UNL A   1      38.286  28.848  28.371  1.00  0.00     0.029 A 
ATOM     27  C   UNL A   1      39.551  28.837  29.100  1.00  0.00     0.049 A 
ATOM     28  H   UNL A   1      40.263  30.275  30.427  1.00  0.00     0.167 HD
ATOM     29  C   UNL A   1      41.355  33.313  33.497  1.00  0.00     0.031 A 
ATOM     30  C   UNL A   1      40.496  27.879  29.039  1.00  0.00     0.031 A 
ATOM     31  C   UNL A   1      42.458  32.399  33.440  1.00  0.00     0.049 A 
ATOM     32  C   UNL A   1      41.746  28.069  29.858  1.00  0.00     0.074 A 
ATOM     33  C   UNL A   1      43.656  32.435  34.126  1.00  0.00     0.029 A 
ATOM     34  N   UNL A   1      42.486  31.273  32.629  1.00  0.00    -0.354 N 
ATOM     35  N   UNL A   1      42.028  29.011  30.729  1.00  0.00    -0.248 NA
ATOM     36  C   UNL A   1      42.813  27.077  29.675  1.00  0.00     0.031 C 
ATOM     37  C   UNL A   1      44.428  31.350  33.695  1.00  0.00     0.029 A 
ATOM     38  C   UNL A   1      43.689  30.612  32.781  1.00  0.00     0.049 A 
ATOM     39  H   UNL A   1      41.757  30.989  32.032  1.00  0.00     0.167 HD
ATOM     40  C   UNL A   1      43.299  28.720  31.205  1.00  0.00     0.074 A 
ATOM     41  C   UNL A   1      43.721  27.501  30.543  1.00  0.00     0.031 C 
ATOM     42  C   UNL A   1      44.059  29.399  32.101  1.00  0.00     0.031 A 
BRANCH  29  43
ATOM     43  C   UNL A   1      41.388  34.478  34.442  1.00  0.00    -0.014 A 
ATOM     44  C   UNL A   1      41.976  35.700  34.075  1.00  0.00     0.009 A 
ATOM     45  C   UNL A   1      40.894  34.326  35.746  1.00  0.00     0.009 A 
ATOM     46  C   UNL A   1      42.103  36.731  35.010  1.00  0.00     0.001 A 
ATOM     47  C   UNL A   1      41.003  35.366  36.671  1.00  0.00     0.001 A 
ATOM     48  C   UNL A   1      41.618  36.562  36.306  1.00  0.00     0.000 A 
ENDBRANCH  29  43
BRANCH  30  49
ATOM     49  C   UNL A   1      40.335  26.711  28.133  1.00  0.00    -0.014 A 
ATOM     50  C   UNL A   1      40.868  26.718  26.835  1.00  0.00     0.009 A 
ATOM     51  C   UNL A   1      39.613  25.582  28.556  1.00  0.00     0.009 A 
ATOM     52  C   UNL A   1      40.663  25.634  25.976  1.00  0.00     0.001 A 
ATOM     53  C   UNL A   1      39.434  24.487  27.707  1.00  0.00     0.001 A 
ATOM     54  C   UNL A   1      39.950  24.518  26.414  1.00  0.00     0.000 A 
ENDBRANCH  30  49
BRANCH  42  55
ATOM     55  C   UNL A   1      45.402  28.816  32.425  1.00  0.00    -0.014 A 
ATOM     56  C   UNL A   1      46.546  29.194  31.709  1.00  0.00     0.009 A 
ATOM     57  C   UNL A   1      45.525  27.920  33.498  1.00  0.00     0.009 A 
ATOM     58  C   UNL A   1      47.791  28.663  32.047  1.00  0.00     0.001 A 
ATOM     59  C   UNL A   1      46.774  27.412  33.849  1.00  0.00     0.001 A 
ATOM     60  C   UNL A   1      47.904  27.777  33.118  1.00  0.00     0.000 A 
ENDBRANCH  42  55
ENDBRANCH  16  17
ENDBRANCH   9  11
ENDBRANCH   8   9
ENDBRANCH   7   8
ENDBRANCH   6   7
ENDBRANCH   5   6
ENDBRANCH   4   5
ENDBRANCH   3   4
ENDBRANCH   2   3
ENDBRANCH   1   2
BRANCH   1  61
ATOM     61  C   UNL A   1      32.806  27.132  22.179  1.00  0.00     0.188 C 
BRANCH  61  62
ATOM     62  O   UNL A   1      33.713  26.076  21.900  1.00  0.00    -0.376 OA
BRANCH  62  63
ATOM     63  C   UNL A   1      33.476  24.852  22.582  1.00  0.00     0.202 C 
BRANCH  63  64
ATOM     64  C   UNL A   1      32.029  24.637  23.049  1.00  0.00     0.261 C 
BRANCH  64  65
ATOM     65  O   UNL A   1      31.720  23.359  23.661  1.00  0.00    -0.462 OA
BRANCH  65  66
ATOM     66  C   UNL A   1      32.299  22.230  23.182  1.00  0.00     0.329 C 
ATOM     67  O   UNL A   1      32.525  22.015  21.998  1.00  0.00    -0.250 OA
BRANCH  66  68
ATOM     68  C   UNL A   1      32.688  21.267  24.323  1.00  0.00     0.197 C 
BRANCH  68  69
ATOM     69  N   UNL A   1      32.242  21.949  25.537  1.00  0.00    -0.338 N 
ATOM     70  C   UNL A   1      32.982  22.682  26.426  1.00  0.00     0.262 C 
ATOM     71  H   UNL A   1      31.283  21.871  25.743  1.00  0.00     0.164 HD
ATOM     72  O   UNL A   1      32.419  23.136  27.422  1.00  0.00    -0.268 OA
BRANCH  70  73
ATOM     73  C   UNL A   1      34.383  22.860  26.133  1.00  0.00     0.093 A 
ATOM     74  C   UNL A   1      35.042  23.993  25.687  1.00  0.00     0.027 A 
ATOM     75  S   UNL A   1      35.442  21.524  26.286  1.00  0.00    -0.118 S 
ATOM     76  C   UNL A   1      36.412  23.728  25.388  1.00  0.00     0.033 A 
ATOM     77  C   UNL A   1      36.733  22.425  25.670  1.00  0.00     0.094 A 
ATOM     78  Cl  UNL A   1      38.262  21.679  25.447  1.00  0.00    -0.072 Cl
ENDBRANCH  70  73
ENDBRANCH  68  69
BRANCH  68  79
ATOM     79  C   UNL A   1      32.065  19.867  24.147  1.00  0.00     0.072 C 
BRANCH  79  80
ATOM     80  C   UNL A   1      32.923  18.635  24.364  1.00  0.00    -0.045 A 
ATOM     81  C   UNL A   1      34.319  18.687  24.242  1.00  0.00     0.007 A 
ATOM     82  C   UNL A   1      32.342  17.439  24.824  1.00  0.00     0.007 A 
ATOM     83  C   UNL A   1      35.112  17.575  24.542  1.00  0.00     0.046 A 
ATOM     84  C   UNL A   1      33.136  16.331  25.142  1.00  0.00     0.046 A 
ATOM     85  C   UNL A   1      34.514  16.407  24.995  1.00  0.00     0.115 A 
BRANCH  85  86
ATOM     86  O   UNL A   1      35.254  15.310  25.320  1.00  0.00    -0.508 OA
ATOM     87  H   UNL A   1      36.189  15.350  25.291  1.00  0.00     0.293 HD
ENDBRANCH  85  86
ENDBRANCH  79  80
ENDBRANCH  68  79
ENDBRANCH  66  68
ENDBRANCH  65  66
ENDBRANCH  64  65
ENDBRANCH  63  64
ENDBRANCH  62  63
ENDBRANCH  61  62
ENDBRANCH   1  61
TORSDOF 25
ENDMDL
