MODEL 1
REMARK VINA RESULT:      -9.9      0.000      0.000
REMARK SMILES Cc1c(C#N)c2ccccc2n1CC(=O)N1CC[C@H](O)C[C@@H]1C(=O)OCCOCCOCCOCCOC(=O)c1ccc(-c2c3nc(c(-c4ccccc4)c4ccc([nH]4)c(-c4ccccc4)c4nc(c(-c5ccccc5)c5ccc2[nH]5)C=C4)C=C3)cc1
REMARK SMILES IDX 30 1 29 2 28 3 27 4 26 5 25 6 23 7 24 8 22 9 16 10 17 11
REMARK SMILES IDX 18 12 21 13 19 14 14 15 15 16 13 17 12 18 1 19 2 20 3 21
REMARK SMILES IDX 6 22 11 23 7 24 10 25 8 26 9 27 4 28 5 29 20 30 31 32 32 33
REMARK SMILES IDX 33 34 34 35 35 36 36 37 37 38 38 39 39 40 40 41 41 42 87 43
REMARK SMILES IDX 42 44 86 45 43 46 44 47 45 48 80 49 46 50 85 51 79 52 81 53
REMARK SMILES IDX 47 54 84 55 78 56 77 57 48 59 70 60 55 61 69 62 56 63 59 64
REMARK SMILES IDX 68 65 82 66 57 67 58 68 67 70 83 71 60 72 49 73 50 74 54 75
REMARK SMILES IDX 51 76 53 77 52 78 71 79 72 80 76 81 73 82 75 83 74 84 61 85
REMARK SMILES IDX 62 86 66 87 63 88 65 89 64 90
REMARK H PARENT 20 31 81 58 59 69
REMARK Flexibility Score: inf
ROOT
ATOM      1  C   UNL A   1      36.849  22.301  24.443  1.00  0.00     0.188 C 
ENDROOT
BRANCH   1   2
ATOM      2  C   UNL A   1      35.493  21.605  24.314  1.00  0.00     0.188 C 
BRANCH   2   3
ATOM      3  O   UNL A   1      34.916  21.009  25.454  1.00  0.00    -0.376 OA
BRANCH   3   4
ATOM      4  C   UNL A   1      33.568  21.088  25.890  1.00  0.00     0.202 C 
BRANCH   4   5
ATOM      5  C   UNL A   1      32.263  21.468  25.156  1.00  0.00     0.261 C 
BRANCH   5   6
ATOM      6  O   UNL A   1      31.239  22.036  25.940  1.00  0.00    -0.462 OA
BRANCH   6   7
ATOM      7  C   UNL A   1      31.589  23.249  26.401  1.00  0.00     0.329 C 
ATOM      8  O   UNL A   1      31.659  23.517  27.599  1.00  0.00    -0.250 OA
BRANCH   7   9
ATOM      9  C   UNL A   1      31.842  24.242  25.259  1.00  0.00     0.197 C 
ATOM     10  N   UNL A   1      32.639  25.380  25.774  1.00  0.00    -0.327 N 
ATOM     11  C   UNL A   1      31.966  26.178  26.797  1.00  0.00     0.123 C 
ATOM     12  C   UNL A   1      30.511  26.513  26.445  1.00  0.00     0.053 C 
ATOM     13  C   UNL A   1      30.525  24.702  24.675  1.00  0.00     0.069 C 
ATOM     14  C   UNL A   1      29.706  25.424  25.736  1.00  0.00     0.118 C 
BRANCH  10  15
ATOM     15  C   UNL A   1      33.923  25.575  25.286  1.00  0.00     0.243 C 
ATOM     16  O   UNL A   1      34.848  24.859  25.695  1.00  0.00    -0.273 OA
BRANCH  15  17
ATOM     17  C   UNL A   1      34.313  26.785  24.439  1.00  0.00     0.222 C 
BRANCH  17  18
ATOM     18  N   UNL A   1      33.306  27.797  24.177  1.00  0.00    -0.334 N 
ATOM     19  C   UNL A   1      32.562  26.840  21.954  1.00  0.00     0.066 C 
ATOM     20  C   UNL A   1      32.474  27.825  23.073  1.00  0.00     0.034 A 
ATOM     21  C   UNL A   1      31.525  28.805  23.319  1.00  0.00     0.080 A 
ATOM     22  C   UNL A   1      31.856  29.459  24.539  1.00  0.00     0.018 A 
ATOM     23  C   UNL A   1      33.013  28.848  25.032  1.00  0.00     0.050 A 
ATOM     24  C   UNL A   1      31.268  30.501  25.288  1.00  0.00     0.012 A 
ATOM     25  C   UNL A   1      33.627  29.279  26.222  1.00  0.00     0.027 A 
ATOM     26  C   UNL A   1      31.865  30.923  26.480  1.00  0.00     0.001 A 
ATOM     27  C   UNL A   1      33.036  30.327  26.931  1.00  0.00     0.002 A 
BRANCH  21  28
ATOM     28  C   UNL A   1      30.367  29.057  22.508  1.00  0.00     0.102 C 
ATOM     29  N   UNL A   1      29.425  29.281  21.885  1.00  0.00    -0.192 NA
ENDBRANCH  21  28
ENDBRANCH  17  18
ENDBRANCH  15  17
ENDBRANCH  10  15
BRANCH  14  30
ATOM     30  O   UNL A   1      29.145  24.497  26.663  1.00  0.00    -0.393 OA
ATOM     31  H   UNL A   1      28.430  24.002  26.233  1.00  0.00     0.210 HD
ENDBRANCH  14  30
ENDBRANCH   7   9
ENDBRANCH   6   7
ENDBRANCH   5   6
ENDBRANCH   4   5
ENDBRANCH   3   4
ENDBRANCH   2   3
ENDBRANCH   1   2
BRANCH   1  32
ATOM     32  O   UNL A   1      37.423  22.171  25.711  1.00  0.00    -0.377 OA
BRANCH  32  33
ATOM     33  C   UNL A   1      38.739  21.663  25.776  1.00  0.00     0.188 C 
BRANCH  33  34
ATOM     34  C   UNL A   1      39.788  22.125  26.826  1.00  0.00     0.188 C 
BRANCH  34  35
ATOM     35  O   UNL A   1      40.633  21.119  27.321  1.00  0.00    -0.376 OA
BRANCH  35  36
ATOM     36  C   UNL A   1      42.032  21.325  27.257  1.00  0.00     0.202 C 
BRANCH  36  37
ATOM     37  C   UNL A   1      42.822  21.364  25.919  1.00  0.00     0.261 C 
BRANCH  37  38
ATOM     38  O   UNL A   1      42.652  22.522  25.064  1.00  0.00    -0.460 OA
BRANCH  38  39
ATOM     39  C   UNL A   1      43.413  23.638  25.192  1.00  0.00     0.338 C 
ATOM     40  O   UNL A   1      44.341  23.948  24.467  1.00  0.00    -0.246 OA
BRANCH  39  41
ATOM     41  C   UNL A   1      42.665  24.609  26.087  1.00  0.00     0.060 A 
ATOM     42  C   UNL A   1      41.588  25.401  25.671  1.00  0.00     0.016 A 
ATOM     43  C   UNL A   1      43.324  24.957  27.279  1.00  0.00     0.016 A 
ATOM     44  C   UNL A   1      41.307  26.609  26.354  1.00  0.00     0.010 A 
ATOM     45  C   UNL A   1      43.072  26.179  27.928  1.00  0.00     0.010 A 
ATOM     46  C   UNL A   1      42.104  27.057  27.443  1.00  0.00    -0.014 A 
BRANCH  46  47
ATOM     47  C   UNL A   1      41.662  28.235  28.253  1.00  0.00     0.031 A 
ATOM     48  C   UNL A   1      42.668  29.321  28.084  1.00  0.00     0.074 A 
ATOM     49  C   UNL A   1      40.506  28.512  28.928  1.00  0.00     0.049 A 
ATOM     50  N   UNL A   1      43.454  29.807  28.984  1.00  0.00    -0.248 NA
ATOM     51  C   UNL A   1      42.982  29.754  26.708  1.00  0.00     0.031 C 
ATOM     52  C   UNL A   1      39.275  27.726  28.999  1.00  0.00     0.029 A 
ATOM     53  N   UNL A   1      40.151  29.612  29.693  1.00  0.00    -0.354 N 
ATOM     54  C   UNL A   1      44.231  30.752  28.323  1.00  0.00     0.074 A 
ATOM     55  C   UNL A   1      44.042  30.531  26.915  1.00  0.00     0.031 C 
ATOM     56  C   UNL A   1      38.279  28.425  29.590  1.00  0.00     0.029 A 
ATOM     57  C   UNL A   1      38.782  29.717  30.002  1.00  0.00     0.049 A 
ATOM     58  H   UNL A   1      40.811  30.275  30.000  1.00  0.00     0.167 HD
ATOM     59  C   UNL A   1      44.761  31.814  28.987  1.00  0.00     0.031 A 
ATOM     60  C   UNL A   1      38.070  30.762  30.526  1.00  0.00     0.031 A 
ATOM     61  C   UNL A   1      44.807  31.573  30.404  1.00  0.00     0.049 A 
ATOM     62  C   UNL A   1      39.025  31.678  31.178  1.00  0.00     0.074 A 
ATOM     63  C   UNL A   1      45.419  30.624  31.199  1.00  0.00     0.029 A 
ATOM     64  N   UNL A   1      43.808  32.125  31.167  1.00  0.00    -0.354 N 
ATOM     65  N   UNL A   1      39.666  31.375  32.266  1.00  0.00    -0.248 NA
ATOM     66  C   UNL A   1      39.634  32.678  30.318  1.00  0.00     0.031 C 
ATOM     67  C   UNL A   1      44.455  30.307  32.195  1.00  0.00     0.029 A 
ATOM     68  C   UNL A   1      43.367  31.165  32.040  1.00  0.00     0.049 A 
ATOM     69  H   UNL A   1      43.469  33.046  31.100  1.00  0.00     0.167 HD
ATOM     70  C   UNL A   1      40.967  31.748  31.987  1.00  0.00     0.074 A 
ATOM     71  C   UNL A   1      40.883  32.561  30.770  1.00  0.00     0.031 C 
ATOM     72  C   UNL A   1      42.026  31.125  32.574  1.00  0.00     0.031 A 
BRANCH  59  73
ATOM     73  C   UNL A   1      44.822  33.195  28.386  1.00  0.00    -0.014 A 
ATOM     74  C   UNL A   1      45.982  33.742  27.802  1.00  0.00     0.009 A 
ATOM     75  C   UNL A   1      43.618  33.881  28.152  1.00  0.00     0.009 A 
ATOM     76  C   UNL A   1      45.950  34.902  27.025  1.00  0.00     0.001 A 
ATOM     77  C   UNL A   1      43.576  35.020  27.340  1.00  0.00     0.001 A 
ATOM     78  C   UNL A   1      44.741  35.530  26.777  1.00  0.00     0.000 A 
ENDBRANCH  59  73
BRANCH  60  79
ATOM     79  C   UNL A   1      36.720  31.278  30.120  1.00  0.00    -0.014 A 
ATOM     80  C   UNL A   1      36.470  31.618  28.780  1.00  0.00     0.009 A 
ATOM     81  C   UNL A   1      35.805  31.765  31.082  1.00  0.00     0.009 A 
ATOM     82  C   UNL A   1      35.423  32.479  28.423  1.00  0.00     0.001 A 
ATOM     83  C   UNL A   1      34.753  32.628  30.723  1.00  0.00     0.001 A 
ATOM     84  C   UNL A   1      34.581  33.008  29.396  1.00  0.00     0.000 A 
ENDBRANCH  60  79
BRANCH  72  85
ATOM     85  C   UNL A   1      41.795  30.183  33.730  1.00  0.00    -0.014 A 
ATOM     86  C   UNL A   1      42.227  30.624  34.993  1.00  0.00     0.009 A 
ATOM     87  C   UNL A   1      41.375  28.847  33.602  1.00  0.00     0.009 A 
ATOM     88  C   UNL A   1      42.282  29.758  36.083  1.00  0.00     0.001 A 
ATOM     89  C   UNL A   1      41.403  27.985  34.708  1.00  0.00     0.001 A 
ATOM     90  C   UNL A   1      41.872  28.438  35.941  1.00  0.00     0.000 A 
ENDBRANCH  72  85
ENDBRANCH  46  47
ENDBRANCH  39  41
ENDBRANCH  38  39
ENDBRANCH  37  38
ENDBRANCH  36  37
ENDBRANCH  35  36
ENDBRANCH  34  35
ENDBRANCH  33  34
ENDBRANCH  32  33
ENDBRANCH   1  32
TORSDOF 25
ENDMDL
MODEL 2
REMARK VINA RESULT:      -9.9      3.415      9.071
REMARK SMILES Cc1c(C#N)c2ccccc2n1CC(=O)N1CC[C@H](O)C[C@@H]1C(=O)OCCOCCOCCOCCOC(=O)c1ccc(-c2c3nc(c(-c4ccccc4)c4ccc([nH]4)c(-c4ccccc4)c4nc(c(-c5ccccc5)c5ccc2[nH]5)C=C4)C=C3)cc1
REMARK SMILES IDX 30 1 29 2 28 3 27 4 26 5 25 6 23 7 24 8 22 9 16 10 17 11
REMARK SMILES IDX 18 12 21 13 19 14 14 15 15 16 13 17 12 18 1 19 2 20 3 21
REMARK SMILES IDX 6 22 11 23 7 24 10 25 8 26 9 27 4 28 5 29 20 30 31 32 32 33
REMARK SMILES IDX 33 34 34 35 35 36 36 37 37 38 38 39 39 40 40 41 41 42 87 43
REMARK SMILES IDX 42 44 86 45 43 46 44 47 45 48 80 49 46 50 85 51 79 52 81 53
REMARK SMILES IDX 47 54 84 55 78 56 77 57 48 59 70 60 55 61 69 62 56 63 59 64
REMARK SMILES IDX 68 65 82 66 57 67 58 68 67 70 83 71 60 72 49 73 50 74 54 75
REMARK SMILES IDX 51 76 53 77 52 78 71 79 72 80 76 81 73 82 75 83 74 84 61 85
REMARK SMILES IDX 62 86 66 87 63 88 65 89 64 90
REMARK H PARENT 20 31 81 58 59 69
REMARK Flexibility Score: inf
ROOT
ATOM      1  C   UNL A   1      34.320  34.626  27.895  1.00  0.00     0.188 C 
ENDROOT
BRANCH   1   2
ATOM      2  C   UNL A   1      33.635  33.262  27.999  1.00  0.00     0.188 C 
BRANCH   2   3
ATOM      3  O   UNL A   1      34.180  32.164  27.301  1.00  0.00    -0.376 OA
BRANCH   3   4
ATOM      4  C   UNL A   1      34.023  30.784  27.591  1.00  0.00     0.202 C 
BRANCH   4   5
ATOM      5  C   UNL A   1      33.683  29.571  26.697  1.00  0.00     0.261 C 
BRANCH   5   6
ATOM      6  O   UNL A   1      32.845  29.817  25.590  1.00  0.00    -0.462 OA
BRANCH   6   7
ATOM      7  C   UNL A   1      33.111  28.976  24.576  1.00  0.00     0.329 C 
ATOM      8  O   UNL A   1      33.745  29.309  23.578  1.00  0.00    -0.250 OA
BRANCH   7   9
ATOM      9  C   UNL A   1      32.495  27.590  24.808  1.00  0.00     0.197 C 
ATOM     10  N   UNL A   1      32.840  26.710  23.667  1.00  0.00    -0.327 N 
ATOM     11  C   UNL A   1      32.286  27.135  22.384  1.00  0.00     0.123 C 
ATOM     12  C   UNL A   1      30.809  27.541  22.465  1.00  0.00     0.053 C 
ATOM     13  C   UNL A   1      30.998  27.715  24.984  1.00  0.00     0.069 C 
ATOM     14  C   UNL A   1      30.369  28.291  23.722  1.00  0.00     0.118 C 
BRANCH  10  15
ATOM     15  C   UNL A   1      33.654  25.609  23.892  1.00  0.00     0.243 C 
ATOM     16  O   UNL A   1      34.126  24.990  22.929  1.00  0.00    -0.273 OA
BRANCH  15  17
ATOM     17  C   UNL A   1      33.817  24.966  25.269  1.00  0.00     0.222 C 
BRANCH  17  18
ATOM     18  N   UNL A   1      33.971  23.525  25.343  1.00  0.00    -0.334 N 
ATOM     19  C   UNL A   1      31.495  23.015  25.492  1.00  0.00     0.066 C 
ATOM     20  C   UNL A   1      32.931  22.615  25.410  1.00  0.00     0.034 A 
ATOM     21  C   UNL A   1      33.494  21.360  25.235  1.00  0.00     0.080 A 
ATOM     22  C   UNL A   1      34.909  21.502  25.178  1.00  0.00     0.018 A 
ATOM     23  C   UNL A   1      35.190  22.866  25.306  1.00  0.00     0.050 A 
ATOM     24  C   UNL A   1      35.981  20.602  25.004  1.00  0.00     0.012 A 
ATOM     25  C   UNL A   1      36.511  23.351  25.317  1.00  0.00     0.027 A 
ATOM     26  C   UNL A   1      37.296  21.080  24.998  1.00  0.00     0.001 A 
ATOM     27  C   UNL A   1      37.554  22.434  25.165  1.00  0.00     0.002 A 
BRANCH  21  28
ATOM     28  C   UNL A   1      32.756  20.139  25.070  1.00  0.00     0.102 C 
ATOM     29  N   UNL A   1      32.156  19.161  24.974  1.00  0.00    -0.192 NA
ENDBRANCH  21  28
ENDBRANCH  17  18
ENDBRANCH  15  17
ENDBRANCH  10  15
BRANCH  14  30
ATOM     30  O   UNL A   1      30.627  29.689  23.619  1.00  0.00    -0.393 OA
ATOM     31  H   UNL A   1      31.519  29.879  23.950  1.00  0.00     0.210 HD
ENDBRANCH  14  30
ENDBRANCH   7   9
ENDBRANCH   6   7
ENDBRANCH   5   6
ENDBRANCH   4   5
ENDBRANCH   3   4
ENDBRANCH   2   3
ENDBRANCH   1   2
BRANCH   1  32
ATOM     32  O   UNL A   1      33.782  35.585  28.757  1.00  0.00    -0.377 OA
BRANCH  32  33
ATOM     33  C   UNL A   1      33.082  35.115  29.890  1.00  0.00     0.188 C 
BRANCH  33  34
ATOM     34  C   UNL A   1      33.488  35.453  31.352  1.00  0.00     0.188 C 
BRANCH  34  35
ATOM     35  O   UNL A   1      34.680  34.860  31.802  1.00  0.00    -0.376 OA
BRANCH  35  36
ATOM     36  C   UNL A   1      34.595  33.640  32.514  1.00  0.00     0.202 C 
BRANCH  36  37
ATOM     37  C   UNL A   1      35.281  32.330  32.035  1.00  0.00     0.261 C 
BRANCH  37  38
ATOM     38  O   UNL A   1      35.459  32.139  30.610  1.00  0.00    -0.460 OA
BRANCH  38  39
ATOM     39  C   UNL A   1      36.600  32.494  29.965  1.00  0.00     0.338 C 
ATOM     40  O   UNL A   1      36.847  33.602  29.526  1.00  0.00    -0.246 OA
BRANCH  39  41
ATOM     41  C   UNL A   1      37.647  31.437  30.260  1.00  0.00     0.060 A 
ATOM     42  C   UNL A   1      39.002  31.705  30.490  1.00  0.00     0.016 A 
ATOM     43  C   UNL A   1      37.277  30.118  29.941  1.00  0.00     0.016 A 
ATOM     44  C   UNL A   1      39.965  30.701  30.227  1.00  0.00     0.010 A 
ATOM     45  C   UNL A   1      38.238  29.137  29.637  1.00  0.00     0.010 A 
ATOM     46  C   UNL A   1      39.599  29.427  29.713  1.00  0.00    -0.014 A 
BRANCH  46  47
ATOM     47  C   UNL A   1      40.621  28.337  29.631  1.00  0.00     0.031 A 
ATOM     48  C   UNL A   1      41.185  28.123  30.994  1.00  0.00     0.074 A 
ATOM     49  C   UNL A   1      40.971  27.470  28.634  1.00  0.00     0.049 A 
ATOM     50  N   UNL A   1      42.392  28.350  31.387  1.00  0.00    -0.248 NA
ATOM     51  C   UNL A   1      40.236  27.834  32.088  1.00  0.00     0.031 C 
ATOM     52  C   UNL A   1      40.367  27.300  27.314  1.00  0.00     0.029 A 
ATOM     53  N   UNL A   1      41.950  26.489  28.595  1.00  0.00    -0.354 N 
ATOM     54  C   UNL A   1      42.403  28.044  32.743  1.00  0.00     0.074 A 
ATOM     55  C   UNL A   1      41.029  27.933  33.153  1.00  0.00     0.031 C 
ATOM     56  C   UNL A   1      40.851  26.201  26.689  1.00  0.00     0.029 A 
ATOM     57  C   UNL A   1      41.850  25.577  27.529  1.00  0.00     0.049 A 
ATOM     58  H   UNL A   1      42.667  26.434  29.268  1.00  0.00     0.167 HD
ATOM     59  C   UNL A   1      43.544  27.641  33.363  1.00  0.00     0.031 A 
ATOM     60  C   UNL A   1      42.490  24.386  27.319  1.00  0.00     0.031 A 
ATOM     61  C   UNL A   1      44.709  28.015  32.607  1.00  0.00     0.049 A 
ATOM     62  C   UNL A   1      43.694  24.363  28.172  1.00  0.00     0.074 A 
ATOM     63  C   UNL A   1      45.230  29.219  32.178  1.00  0.00     0.029 A 
ATOM     64  N   UNL A   1      45.286  27.047  31.824  1.00  0.00    -0.354 N 
ATOM     65  N   UNL A   1      44.724  25.124  27.962  1.00  0.00    -0.248 NA
ATOM     66  C   UNL A   1      43.500  23.885  29.530  1.00  0.00     0.031 C 
ATOM     67  C   UNL A   1      45.694  28.965  30.857  1.00  0.00     0.029 A 
ATOM     68  C   UNL A   1      45.556  27.601  30.601  1.00  0.00     0.049 A 
ATOM     69  H   UNL A   1      45.473  26.119  32.093  1.00  0.00     0.167 HD
ATOM     70  C   UNL A   1      45.010  25.630  29.216  1.00  0.00     0.074 A 
ATOM     71  C   UNL A   1      44.225  24.817  30.149  1.00  0.00     0.031 C 
ATOM     72  C   UNL A   1      45.607  26.844  29.372  1.00  0.00     0.031 A 
BRANCH  59  73
ATOM     73  C   UNL A   1      43.557  26.554  34.407  1.00  0.00    -0.014 A 
ATOM     74  C   UNL A   1      43.383  26.792  35.785  1.00  0.00     0.009 A 
ATOM     75  C   UNL A   1      43.474  25.216  33.987  1.00  0.00     0.009 A 
ATOM     76  C   UNL A   1      43.136  25.762  36.696  1.00  0.00     0.001 A 
ATOM     77  C   UNL A   1      43.186  24.185  34.889  1.00  0.00     0.001 A 
ATOM     78  C   UNL A   1      43.018  24.459  36.243  1.00  0.00     0.000 A 
ENDBRANCH  59  73
BRANCH  60  79
ATOM     79  C   UNL A   1      41.925  23.090  26.814  1.00  0.00    -0.014 A 
ATOM     80  C   UNL A   1      40.712  22.602  27.330  1.00  0.00     0.009 A 
ATOM     81  C   UNL A   1      42.728  22.171  26.101  1.00  0.00     0.009 A 
ATOM     82  C   UNL A   1      40.362  21.249  27.229  1.00  0.00     0.001 A 
ATOM     83  C   UNL A   1      42.376  20.812  25.999  1.00  0.00     0.001 A 
ATOM     84  C   UNL A   1      41.206  20.347  26.590  1.00  0.00     0.000 A 
ENDBRANCH  60  79
BRANCH  72  85
ATOM     85  C   UNL A   1      46.195  27.551  28.175  1.00  0.00    -0.014 A 
ATOM     86  C   UNL A   1      47.416  27.049  27.690  1.00  0.00     0.009 A 
ATOM     87  C   UNL A   1      45.723  28.768  27.653  1.00  0.00     0.009 A 
ATOM     88  C   UNL A   1      48.166  27.753  26.750  1.00  0.00     0.001 A 
ATOM     89  C   UNL A   1      46.465  29.460  26.685  1.00  0.00     0.001 A 
ATOM     90  C   UNL A   1      47.692  28.959  26.248  1.00  0.00     0.000 A 
ENDBRANCH  72  85
ENDBRANCH  46  47
ENDBRANCH  39  41
ENDBRANCH  38  39
ENDBRANCH  37  38
ENDBRANCH  36  37
ENDBRANCH  35  36
ENDBRANCH  34  35
ENDBRANCH  33  34
ENDBRANCH  32  33
ENDBRANCH   1  32
TORSDOF 25
ENDMDL
MODEL 3
REMARK VINA RESULT:      -9.4      1.199      2.098
REMARK SMILES Cc1c(C#N)c2ccccc2n1CC(=O)N1CC[C@H](O)C[C@@H]1C(=O)OCCOCCOCCOCCOC(=O)c1ccc(-c2c3nc(c(-c4ccccc4)c4ccc([nH]4)c(-c4ccccc4)c4nc(c(-c5ccccc5)c5ccc2[nH]5)C=C4)C=C3)cc1
REMARK SMILES IDX 30 1 29 2 28 3 27 4 26 5 25 6 23 7 24 8 22 9 16 10 17 11
REMARK SMILES IDX 18 12 21 13 19 14 14 15 15 16 13 17 12 18 1 19 2 20 3 21
REMARK SMILES IDX 6 22 11 23 7 24 10 25 8 26 9 27 4 28 5 29 20 30 31 32 32 33
REMARK SMILES IDX 33 34 34 35 35 36 36 37 37 38 38 39 39 40 40 41 41 42 87 43
REMARK SMILES IDX 42 44 86 45 43 46 44 47 45 48 80 49 46 50 85 51 79 52 81 53
REMARK SMILES IDX 47 54 84 55 78 56 77 57 48 59 70 60 55 61 69 62 56 63 59 64
REMARK SMILES IDX 68 65 82 66 57 67 58 68 67 70 83 71 60 72 49 73 50 74 54 75
REMARK SMILES IDX 51 76 53 77 52 78 71 79 72 80 76 81 73 82 75 83 74 84 61 85
REMARK SMILES IDX 62 86 66 87 63 88 65 89 64 90
REMARK H PARENT 20 31 81 58 59 69
REMARK Flexibility Score: inf
ROOT
ATOM      1  C   UNL A   1      37.072  21.542  24.109  1.00  0.00     0.188 C 
ENDROOT
BRANCH   1   2
ATOM      2  C   UNL A   1      36.614  22.981  23.865  1.00  0.00     0.188 C 
BRANCH   2   3
ATOM      3  O   UNL A   1      35.686  23.241  22.836  1.00  0.00    -0.376 OA
BRANCH   3   4
ATOM      4  C   UNL A   1      34.287  23.001  22.844  1.00  0.00     0.202 C 
BRANCH   4   5
ATOM      5  C   UNL A   1      33.441  21.825  23.378  1.00  0.00     0.261 C 
BRANCH   5   6
ATOM      6  O   UNL A   1      32.373  22.153  24.238  1.00  0.00    -0.462 OA
BRANCH   6   7
ATOM      7  C   UNL A   1      32.332  21.339  25.305  1.00  0.00     0.329 C 
ATOM      8  O   UNL A   1      32.547  20.131  25.235  1.00  0.00    -0.250 OA
BRANCH   7   9
ATOM      9  C   UNL A   1      31.949  22.095  26.585  1.00  0.00     0.197 C 
ATOM     10  N   UNL A   1      32.039  23.552  26.331  1.00  0.00    -0.327 N 
ATOM     11  C   UNL A   1      33.383  24.033  26.021  1.00  0.00     0.123 C 
ATOM     12  C   UNL A   1      34.459  23.473  26.960  1.00  0.00     0.053 C 
ATOM     13  C   UNL A   1      32.851  21.671  27.722  1.00  0.00     0.069 C 
ATOM     14  C   UNL A   1      34.298  22.017  27.400  1.00  0.00     0.118 C 
BRANCH  10  15
ATOM     15  C   UNL A   1      30.879  24.312  26.376  1.00  0.00     0.243 C 
ATOM     16  O   UNL A   1      30.003  24.044  27.210  1.00  0.00    -0.273 OA
BRANCH  15  17
ATOM     17  C   UNL A   1      30.509  25.325  25.293  1.00  0.00     0.222 C 
BRANCH  17  18
ATOM     18  N   UNL A   1      31.498  26.314  24.907  1.00  0.00    -0.334 N 
ATOM     19  C   UNL A   1      32.065  25.248  22.682  1.00  0.00     0.066 C 
ATOM     20  C   UNL A   1      32.194  26.321  23.712  1.00  0.00     0.034 A 
ATOM     21  C   UNL A   1      32.852  27.539  23.646  1.00  0.00     0.080 A 
ATOM     22  C   UNL A   1      32.646  28.232  24.872  1.00  0.00     0.018 A 
ATOM     23  C   UNL A   1      31.839  27.418  25.673  1.00  0.00     0.050 A 
ATOM     24  C   UNL A   1      33.049  29.489  25.371  1.00  0.00     0.012 A 
ATOM     25  C   UNL A   1      31.466  27.800  26.975  1.00  0.00     0.027 A 
ATOM     26  C   UNL A   1      32.668  29.881  26.658  1.00  0.00     0.001 A 
ATOM     27  C   UNL A   1      31.898  29.040  27.452  1.00  0.00     0.002 A 
BRANCH  21  28
ATOM     28  C   UNL A   1      33.560  28.035  22.499  1.00  0.00     0.102 C 
ATOM     29  N   UNL A   1      34.144  28.399  21.576  1.00  0.00    -0.192 NA
ENDBRANCH  21  28
ENDBRANCH  17  18
ENDBRANCH  15  17
ENDBRANCH  10  15
BRANCH  14  30
ATOM     30  O   UNL A   1      34.835  21.114  26.437  1.00  0.00    -0.393 OA
ATOM     31  H   UNL A   1      34.128  20.816  25.843  1.00  0.00     0.210 HD
ENDBRANCH  14  30
ENDBRANCH   7   9
ENDBRANCH   6   7
ENDBRANCH   5   6
ENDBRANCH   4   5
ENDBRANCH   3   4
ENDBRANCH   2   3
ENDBRANCH   1   2
BRANCH   1  32
ATOM     32  O   UNL A   1      37.756  21.374  25.316  1.00  0.00    -0.377 OA
BRANCH  32  33
ATOM     33  C   UNL A   1      38.204  22.542  25.973  1.00  0.00     0.188 C 
BRANCH  33  34
ATOM     34  C   UNL A   1      39.583  22.653  26.681  1.00  0.00     0.188 C 
BRANCH  34  35
ATOM     35  O   UNL A   1      40.130  21.442  27.136  1.00  0.00    -0.376 OA
BRANCH  35  36
ATOM     36  C   UNL A   1      41.373  21.025  26.602  1.00  0.00     0.202 C 
BRANCH  36  37
ATOM     37  C   UNL A   1      42.578  21.987  26.408  1.00  0.00     0.261 C 
BRANCH  37  38
ATOM     38  O   UNL A   1      42.713  22.655  25.130  1.00  0.00    -0.460 OA
BRANCH  38  39
ATOM     39  C   UNL A   1      43.774  23.449  24.833  1.00  0.00     0.338 C 
ATOM     40  O   UNL A   1      44.558  23.268  23.919  1.00  0.00    -0.246 OA
BRANCH  39  41
ATOM     41  C   UNL A   1      43.568  24.779  25.532  1.00  0.00     0.060 A 
ATOM     42  C   UNL A   1      44.273  25.195  26.668  1.00  0.00     0.016 A 
ATOM     43  C   UNL A   1      42.375  25.450  25.209  1.00  0.00     0.016 A 
ATOM     44  C   UNL A   1      43.688  26.143  27.542  1.00  0.00     0.010 A 
ATOM     45  C   UNL A   1      41.776  26.357  26.101  1.00  0.00     0.010 A 
ATOM     46  C   UNL A   1      42.389  26.673  27.313  1.00  0.00    -0.014 A 
BRANCH  46  47
ATOM     47  C   UNL A   1      41.890  27.808  28.152  1.00  0.00     0.031 A 
ATOM     48  C   UNL A   1      42.867  28.929  28.049  1.00  0.00     0.074 A 
ATOM     49  C   UNL A   1      40.709  28.026  28.804  1.00  0.00     0.049 A 
ATOM     50  N   UNL A   1      43.614  29.405  28.986  1.00  0.00    -0.248 NA
ATOM     51  C   UNL A   1      43.204  29.419  26.697  1.00  0.00     0.031 C 
ATOM     52  C   UNL A   1      39.501  27.203  28.813  1.00  0.00     0.029 A 
ATOM     53  N   UNL A   1      40.300  29.088  29.597  1.00  0.00    -0.354 N 
ATOM     54  C   UNL A   1      44.380  30.395  28.381  1.00  0.00     0.074 A 
ATOM     55  C   UNL A   1      44.234  30.219  26.961  1.00  0.00     0.031 C 
ATOM     56  C   UNL A   1      38.469  27.851  29.401  1.00  0.00     0.029 A 
ATOM     57  C   UNL A   1      38.922  29.141  29.871  1.00  0.00     0.049 A 
ATOM     58  H   UNL A   1      40.932  29.758  29.945  1.00  0.00     0.167 HD
ATOM     59  C   UNL A   1      44.859  31.447  29.096  1.00  0.00     0.031 A 
ATOM     60  C   UNL A   1      38.165  30.146  30.412  1.00  0.00     0.031 A 
ATOM     61  C   UNL A   1      44.875  31.157  30.504  1.00  0.00     0.049 A 
ATOM     62  C   UNL A   1      39.075  31.065  31.122  1.00  0.00     0.074 A 
ATOM     63  C   UNL A   1      45.494  30.199  31.282  1.00  0.00     0.029 A 
ATOM     64  N   UNL A   1      43.840  31.652  31.258  1.00  0.00    -0.354 N 
ATOM     65  N   UNL A   1      39.695  30.742  32.216  1.00  0.00    -0.248 NA
ATOM     66  C   UNL A   1      39.675  32.113  30.314  1.00  0.00     0.031 C 
ATOM     67  C   UNL A   1      44.514  29.818  32.239  1.00  0.00     0.029 A 
ATOM     68  C   UNL A   1      43.405  30.649  32.084  1.00  0.00     0.049 A 
ATOM     69  H   UNL A   1      43.475  32.565  31.214  1.00  0.00     0.167 HD
ATOM     70  C   UNL A   1      40.991  31.162  31.986  1.00  0.00     0.074 A 
ATOM     71  C   UNL A   1      40.915  32.016  30.796  1.00  0.00     0.031 C 
ATOM     72  C   UNL A   1      42.052  30.550  32.579  1.00  0.00     0.031 A 
BRANCH  59  73
ATOM     73  C   UNL A   1      44.895  32.850  28.546  1.00  0.00    -0.014 A 
ATOM     74  C   UNL A   1      45.978  33.375  27.813  1.00  0.00     0.009 A 
ATOM     75  C   UNL A   1      43.703  33.595  28.523  1.00  0.00     0.009 A 
ATOM     76  C   UNL A   1      45.884  34.569  27.094  1.00  0.00     0.001 A 
ATOM     77  C   UNL A   1      43.593  34.770  27.771  1.00  0.00     0.001 A 
ATOM     78  C   UNL A   1      44.683  35.257  27.057  1.00  0.00     0.000 A 
ENDBRANCH  59  73
BRANCH  60  79
ATOM     79  C   UNL A   1      36.811  30.637  29.988  1.00  0.00    -0.014 A 
ATOM     80  C   UNL A   1      36.492  30.729  28.623  1.00  0.00     0.009 A 
ATOM     81  C   UNL A   1      35.973  31.336  30.886  1.00  0.00     0.009 A 
ATOM     82  C   UNL A   1      35.455  31.554  28.164  1.00  0.00     0.001 A 
ATOM     83  C   UNL A   1      34.931  32.163  30.426  1.00  0.00     0.001 A 
ATOM     84  C   UNL A   1      34.693  32.294  29.062  1.00  0.00     0.000 A 
ENDBRANCH  60  79
BRANCH  72  85
ATOM     85  C   UNL A   1      41.820  29.561  33.695  1.00  0.00    -0.014 A 
ATOM     86  C   UNL A   1      42.065  30.020  35.000  1.00  0.00     0.009 A 
ATOM     87  C   UNL A   1      41.577  28.188  33.510  1.00  0.00     0.009 A 
ATOM     88  C   UNL A   1      42.112  29.142  36.081  1.00  0.00     0.001 A 
ATOM     89  C   UNL A   1      41.596  27.310  34.603  1.00  0.00     0.001 A 
ATOM     90  C   UNL A   1      41.880  27.786  35.883  1.00  0.00     0.000 A 
ENDBRANCH  72  85
ENDBRANCH  46  47
ENDBRANCH  39  41
ENDBRANCH  38  39
ENDBRANCH  37  38
ENDBRANCH  36  37
ENDBRANCH  35  36
ENDBRANCH  34  35
ENDBRANCH  33  34
ENDBRANCH  32  33
ENDBRANCH   1  32
TORSDOF 25
ENDMDL
