MODEL 1
REMARK VINA RESULT:     -10.1      0.000      0.000
REMARK SMILES Cc1cc(OC(F)(F)F)cc2c1O[C@H](C(F)(F)F)C(C(=O)OCCOCCOCCOCCOC(=O)c1ccc(-c3c4nc(c(-c5ccccc5)c5ccc([nH]5)c(-c5ccccc5)c5nc(c(-c6ccccc6)c6ccc3[nH]6)C=C5)C=C4)cc1)=C2
REMARK SMILES IDX 28 1 27 2 26 3 25 4 24 5 23 6 22 7 20 8 21 9 19 10 1 11 2 12
REMARK SMILES IDX 3 13 12 14 4 15 11 16 13 17 10 18 85 19 14 20 5 21 6 22 7 23
REMARK SMILES IDX 8 24 9 25 15 26 16 27 17 28 18 29 29 30 30 31 31 32 32 33
REMARK SMILES IDX 33 34 34 35 35 36 36 37 37 38 38 39 84 40 39 41 83 42 40 43
REMARK SMILES IDX 41 44 42 45 77 46 43 47 82 48 76 49 78 50 44 51 81 52 75 53
REMARK SMILES IDX 74 54 45 56 67 57 52 58 66 59 53 60 56 61 65 62 79 63 54 64
REMARK SMILES IDX 55 65 64 67 80 68 57 69 46 70 47 71 51 72 48 73 50 74 49 75
REMARK SMILES IDX 68 76 69 77 73 78 70 79 72 80 71 81 58 82 59 83 63 84 60 85
REMARK SMILES IDX 62 86 61 87
REMARK H PARENT 78 55 56 66
REMARK Flexibility Score: inf
ROOT
ATOM      1  O   UNL A   1      32.574  35.518  31.052  1.00  0.00    -0.377 OA
ENDROOT
BRANCH   1   2
ATOM      2  C   UNL A   1      32.997  36.021  29.793  1.00  0.00     0.188 C 
BRANCH   2   3
ATOM      3  C   UNL A   1      33.559  34.926  28.865  1.00  0.00     0.188 C 
BRANCH   3   4
ATOM      4  O   UNL A   1      32.558  34.062  28.355  1.00  0.00    -0.376 OA
BRANCH   4   5
ATOM      5  C   UNL A   1      32.889  32.973  27.510  1.00  0.00     0.202 C 
BRANCH   5   6
ATOM      6  C   UNL A   1      33.694  31.745  27.974  1.00  0.00     0.261 C 
BRANCH   6   7
ATOM      7  O   UNL A   1      33.192  30.456  27.618  1.00  0.00    -0.460 OA
BRANCH   7   8
ATOM      8  C   UNL A   1      34.021  29.616  26.977  1.00  0.00     0.338 C 
ATOM      9  O   UNL A   1      35.236  29.684  26.925  1.00  0.00    -0.246 OA
BRANCH   8  10
ATOM     10  C   UNL A   1      33.208  28.484  26.478  1.00  0.00     0.087 C 
ATOM     11  C   UNL A   1      29.720  25.576  24.159  1.00  0.00     0.048 C 
ATOM     12  C   UNL A   1      31.061  25.332  24.795  1.00  0.00    -0.005 A 
ATOM     13  C   UNL A   1      31.665  24.066  24.702  1.00  0.00     0.054 A 
ATOM     14  C   UNL A   1      31.734  26.369  25.457  1.00  0.00     0.131 A 
ATOM     15  C   UNL A   1      32.923  23.835  25.259  1.00  0.00     0.130 A 
ATOM     16  C   UNL A   1      33.016  26.157  25.969  1.00  0.00     0.021 A 
ATOM     17  O   UNL A   1      31.082  27.564  25.548  1.00  0.00    -0.475 OA
ATOM     18  C   UNL A   1      33.586  24.882  25.903  1.00  0.00     0.058 A 
ATOM     19  C   UNL A   1      33.786  27.277  26.480  1.00  0.00     0.027 C 
ATOM     20  C   UNL A   1      31.775  28.725  26.079  1.00  0.00     0.316 C 
BRANCH  15  21
ATOM     21  O   UNL A   1      33.619  22.660  25.235  1.00  0.00    -0.406 OA
BRANCH  21  22
ATOM     22  C   UNL A   1      33.055  21.547  25.908  1.00  0.00     0.573 C 
ATOM     23  F   UNL A   1      33.996  20.872  26.599  1.00  0.00    -0.132 F 
ATOM     24  F   UNL A   1      32.068  21.931  26.745  1.00  0.00    -0.132 F 
ATOM     25  F   UNL A   1      32.526  20.710  24.990  1.00  0.00    -0.132 F 
ENDBRANCH  21  22
ENDBRANCH  15  21
BRANCH  20  26
ATOM     26  C   UNL A   1      31.633  29.858  25.055  1.00  0.00     0.430 C 
ATOM     27  F   UNL A   1      30.683  29.569  24.131  1.00  0.00    -0.167 F 
ATOM     28  F   UNL A   1      31.270  31.027  25.629  1.00  0.00    -0.167 F 
ATOM     29  F   UNL A   1      32.791  30.077  24.389  1.00  0.00    -0.167 F 
ENDBRANCH  20  26
ENDBRANCH   8  10
ENDBRANCH   7   8
ENDBRANCH   6   7
ENDBRANCH   5   6
ENDBRANCH   4   5
ENDBRANCH   3   4
ENDBRANCH   2   3
ENDBRANCH   1   2
BRANCH   1  30
ATOM     30  C   UNL A   1      32.910  36.273  32.218  1.00  0.00     0.188 C 
BRANCH  30  31
ATOM     31  C   UNL A   1      34.368  36.402  32.726  1.00  0.00     0.188 C 
BRANCH  31  32
ATOM     32  O   UNL A   1      34.583  35.848  34.018  1.00  0.00    -0.376 OA
BRANCH  32  33
ATOM     33  C   UNL A   1      35.571  34.844  34.162  1.00  0.00     0.202 C 
BRANCH  33  34
ATOM     34  C   UNL A   1      35.143  33.417  33.800  1.00  0.00     0.261 C 
BRANCH  34  35
ATOM     35  O   UNL A   1      36.040  32.689  32.947  1.00  0.00    -0.460 OA
BRANCH  35  36
ATOM     36  C   UNL A   1      35.519  32.083  31.860  1.00  0.00     0.338 C 
ATOM     37  O   UNL A   1      34.427  32.271  31.356  1.00  0.00    -0.246 OA
BRANCH  36  38
ATOM     38  C   UNL A   1      36.593  31.257  31.273  1.00  0.00     0.060 A 
ATOM     39  C   UNL A   1      37.492  30.590  32.115  1.00  0.00     0.016 A 
ATOM     40  C   UNL A   1      36.690  31.132  29.886  1.00  0.00     0.016 A 
ATOM     41  C   UNL A   1      38.510  29.809  31.568  1.00  0.00     0.010 A 
ATOM     42  C   UNL A   1      37.731  30.382  29.338  1.00  0.00     0.010 A 
ATOM     43  C   UNL A   1      38.661  29.744  30.176  1.00  0.00    -0.014 A 
BRANCH  43  44
ATOM     44  C   UNL A   1      39.922  29.223  29.602  1.00  0.00     0.031 A 
ATOM     45  C   UNL A   1      41.093  30.164  29.522  1.00  0.00     0.074 A 
ATOM     46  C   UNL A   1      40.038  27.953  29.179  1.00  0.00     0.049 A 
ATOM     47  N   UNL A   1      42.281  29.962  29.016  1.00  0.00    -0.248 NA
ATOM     48  C   UNL A   1      40.900  31.509  30.095  1.00  0.00     0.031 C 
ATOM     49  C   UNL A   1      39.002  26.927  29.269  1.00  0.00     0.029 A 
ATOM     50  N   UNL A   1      41.100  27.311  28.588  1.00  0.00    -0.354 N 
ATOM     51  C   UNL A   1      42.976  31.146  29.219  1.00  0.00     0.074 A 
ATOM     52  C   UNL A   1      42.077  32.073  29.868  1.00  0.00     0.031 C 
ATOM     53  C   UNL A   1      39.481  25.781  28.752  1.00  0.00     0.029 A 
ATOM     54  C   UNL A   1      40.843  26.002  28.266  1.00  0.00     0.049 A 
ATOM     55  H   UNL A   1      41.963  27.750  28.412  1.00  0.00     0.167 HD
ATOM     56  C   UNL A   1      44.257  31.434  28.902  1.00  0.00     0.031 A 
ATOM     57  C   UNL A   1      41.615  25.093  27.638  1.00  0.00     0.031 A 
ATOM     58  C   UNL A   1      45.149  30.524  28.243  1.00  0.00     0.049 A 
ATOM     59  C   UNL A   1      43.000  25.476  27.188  1.00  0.00     0.074 A 
ATOM     60  C   UNL A   1      46.463  30.738  27.868  1.00  0.00     0.029 A 
ATOM     61  N   UNL A   1      44.821  29.234  27.866  1.00  0.00    -0.354 N 
ATOM     62  N   UNL A   1      43.643  26.604  27.371  1.00  0.00    -0.248 NA
ATOM     63  C   UNL A   1      43.766  24.465  26.442  1.00  0.00     0.031 C 
ATOM     64  C   UNL A   1      46.918  29.589  27.220  1.00  0.00     0.029 A 
ATOM     65  C   UNL A   1      45.904  28.643  27.242  1.00  0.00     0.049 A 
ATOM     66  H   UNL A   1      43.950  28.802  28.018  1.00  0.00     0.167 HD
ATOM     67  C   UNL A   1      44.894  26.429  26.791  1.00  0.00     0.074 A 
ATOM     68  C   UNL A   1      44.923  25.087  26.250  1.00  0.00     0.031 C 
ATOM     69  C   UNL A   1      45.924  27.304  26.718  1.00  0.00     0.031 A 
BRANCH  56  70
ATOM     70  C   UNL A   1      44.785  32.790  29.255  1.00  0.00    -0.014 A 
ATOM     71  C   UNL A   1      45.448  33.002  30.473  1.00  0.00     0.009 A 
ATOM     72  C   UNL A   1      44.723  33.831  28.316  1.00  0.00     0.009 A 
ATOM     73  C   UNL A   1      46.050  34.232  30.740  1.00  0.00     0.001 A 
ATOM     74  C   UNL A   1      45.344  35.053  28.578  1.00  0.00     0.001 A 
ATOM     75  C   UNL A   1      46.009  35.250  29.788  1.00  0.00     0.000 A 
ENDBRANCH  56  70
BRANCH  57  76
ATOM     76  C   UNL A   1      41.097  23.720  27.403  1.00  0.00    -0.014 A 
ATOM     77  C   UNL A   1      40.100  23.494  26.443  1.00  0.00     0.009 A 
ATOM     78  C   UNL A   1      41.604  22.628  28.124  1.00  0.00     0.009 A 
ATOM     79  C   UNL A   1      39.618  22.204  26.211  1.00  0.00     0.001 A 
ATOM     80  C   UNL A   1      41.137  21.336  27.875  1.00  0.00     0.001 A 
ATOM     81  C   UNL A   1      40.142  21.125  26.922  1.00  0.00     0.000 A 
ENDBRANCH  57  76
BRANCH  69  82
ATOM     82  C   UNL A   1      47.195  26.859  26.056  1.00  0.00    -0.014 A 
ATOM     83  C   UNL A   1      47.429  27.120  24.699  1.00  0.00     0.009 A 
ATOM     84  C   UNL A   1      48.228  26.314  26.836  1.00  0.00     0.009 A 
ATOM     85  C   UNL A   1      48.676  26.843  24.134  1.00  0.00     0.001 A 
ATOM     86  C   UNL A   1      49.480  26.060  26.274  1.00  0.00     0.001 A 
ATOM     87  C   UNL A   1      49.702  26.324  24.924  1.00  0.00     0.000 A 
ENDBRANCH  69  82
ENDBRANCH  43  44
ENDBRANCH  36  38
ENDBRANCH  35  36
ENDBRANCH  34  35
ENDBRANCH  33  34
ENDBRANCH  32  33
ENDBRANCH  31  32
ENDBRANCH  30  31
ENDBRANCH   1  30
TORSDOF 23
ENDMDL
MODEL 2
REMARK VINA RESULT:     -10.0      1.906      3.942
REMARK SMILES Cc1cc(OC(F)(F)F)cc2c1O[C@H](C(F)(F)F)C(C(=O)OCCOCCOCCOCCOC(=O)c1ccc(-c3c4nc(c(-c5ccccc5)c5ccc([nH]5)c(-c5ccccc5)c5nc(c(-c6ccccc6)c6ccc3[nH]6)C=C5)C=C4)cc1)=C2
REMARK SMILES IDX 28 1 27 2 26 3 25 4 24 5 23 6 22 7 20 8 21 9 19 10 1 11 2 12
REMARK SMILES IDX 3 13 12 14 4 15 11 16 13 17 10 18 85 19 14 20 5 21 6 22 7 23
REMARK SMILES IDX 8 24 9 25 15 26 16 27 17 28 18 29 29 30 30 31 31 32 32 33
REMARK SMILES IDX 33 34 34 35 35 36 36 37 37 38 38 39 84 40 39 41 83 42 40 43
REMARK SMILES IDX 41 44 42 45 77 46 43 47 82 48 76 49 78 50 44 51 81 52 75 53
REMARK SMILES IDX 74 54 45 56 67 57 52 58 66 59 53 60 56 61 65 62 79 63 54 64
REMARK SMILES IDX 55 65 64 67 80 68 57 69 46 70 47 71 51 72 48 73 50 74 49 75
REMARK SMILES IDX 68 76 69 77 73 78 70 79 72 80 71 81 58 82 59 83 63 84 60 85
REMARK SMILES IDX 62 86 61 87
REMARK H PARENT 78 55 56 66
REMARK Flexibility Score: inf
ROOT
ATOM      1  O   UNL A   1      33.844  28.862  26.484  1.00  0.00    -0.377 OA
ENDROOT
BRANCH   1   2
ATOM      2  C   UNL A   1      33.315  29.702  25.468  1.00  0.00     0.188 C 
BRANCH   2   3
ATOM      3  C   UNL A   1      31.901  29.286  25.018  1.00  0.00     0.188 C 
BRANCH   3   4
ATOM      4  O   UNL A   1      31.847  28.876  23.662  1.00  0.00    -0.376 OA
BRANCH   4   5
ATOM      5  C   UNL A   1      30.788  28.066  23.182  1.00  0.00     0.202 C 
BRANCH   5   6
ATOM      6  C   UNL A   1      30.931  27.078  22.009  1.00  0.00     0.261 C 
BRANCH   6   7
ATOM      7  O   UNL A   1      31.654  25.871  22.250  1.00  0.00    -0.460 OA
BRANCH   7   8
ATOM      8  C   UNL A   1      31.140  24.999  23.134  1.00  0.00     0.338 C 
ATOM      9  O   UNL A   1      29.979  24.917  23.491  1.00  0.00    -0.246 OA
BRANCH   8  10
ATOM     10  C   UNL A   1      32.208  24.032  23.477  1.00  0.00     0.087 C 
ATOM     11  C   UNL A   1      36.465  21.804  25.184  1.00  0.00     0.048 C 
ATOM     12  C   UNL A   1      35.111  21.321  24.741  1.00  0.00    -0.005 A 
ATOM     13  C   UNL A   1      34.766  19.966  24.884  1.00  0.00     0.054 A 
ATOM     14  C   UNL A   1      34.172  22.220  24.214  1.00  0.00     0.131 A 
ATOM     15  C   UNL A   1      33.502  19.511  24.507  1.00  0.00     0.130 A 
ATOM     16  C   UNL A   1      32.889  21.779  23.886  1.00  0.00     0.021 A 
ATOM     17  O   UNL A   1      34.578  23.515  24.065  1.00  0.00    -0.475 OA
ATOM     18  C   UNL A   1      32.573  20.421  23.996  1.00  0.00     0.058 A 
ATOM     19  C   UNL A   1      31.863  22.741  23.524  1.00  0.00     0.027 C 
ATOM     20  C   UNL A   1      33.617  24.530  23.673  1.00  0.00     0.316 C 
BRANCH  15  21
ATOM     21  O   UNL A   1      33.040  18.229  24.597  1.00  0.00    -0.406 OA
BRANCH  21  22
ATOM     22  C   UNL A   1      33.324  17.351  23.521  1.00  0.00     0.573 C 
ATOM     23  F   UNL A   1      32.599  17.673  22.429  1.00  0.00    -0.132 F 
ATOM     24  F   UNL A   1      34.638  17.365  23.211  1.00  0.00    -0.132 F 
ATOM     25  F   UNL A   1      32.992  16.094  23.889  1.00  0.00    -0.132 F 
ENDBRANCH  21  22
ENDBRANCH  15  21
BRANCH  20  26
ATOM     26  C   UNL A   1      33.701  25.668  24.698  1.00  0.00     0.430 C 
ATOM     27  F   UNL A   1      34.456  25.310  25.767  1.00  0.00    -0.167 F 
ATOM     28  F   UNL A   1      34.265  26.784  24.183  1.00  0.00    -0.167 F 
ATOM     29  F   UNL A   1      32.478  26.011  25.165  1.00  0.00    -0.167 F 
ENDBRANCH  20  26
ENDBRANCH   8  10
ENDBRANCH   7   8
ENDBRANCH   6   7
ENDBRANCH   5   6
ENDBRANCH   4   5
ENDBRANCH   3   4
ENDBRANCH   2   3
ENDBRANCH   1   2
BRANCH   1  30
ATOM     30  C   UNL A   1      34.556  29.482  27.557  1.00  0.00     0.188 C 
BRANCH  30  31
ATOM     31  C   UNL A   1      34.723  31.019  27.657  1.00  0.00     0.188 C 
BRANCH  31  32
ATOM     32  O   UNL A   1      34.394  31.557  28.931  1.00  0.00    -0.376 OA
BRANCH  32  33
ATOM     33  C   UNL A   1      34.429  32.963  29.097  1.00  0.00     0.202 C 
BRANCH  33  34
ATOM     34  C   UNL A   1      34.583  33.471  30.535  1.00  0.00     0.261 C 
BRANCH  34  35
ATOM     35  O   UNL A   1      35.215  32.570  31.456  1.00  0.00    -0.460 OA
BRANCH  35  36
ATOM     36  C   UNL A   1      36.412  32.928  31.963  1.00  0.00     0.338 C 
ATOM     37  O   UNL A   1      36.633  33.730  32.853  1.00  0.00    -0.246 OA
BRANCH  36  38
ATOM     38  C   UNL A   1      37.420  32.035  31.358  1.00  0.00     0.060 A 
ATOM     39  C   UNL A   1      38.205  31.218  32.183  1.00  0.00     0.016 A 
ATOM     40  C   UNL A   1      37.568  31.998  29.970  1.00  0.00     0.016 A 
ATOM     41  C   UNL A   1      39.160  30.373  31.618  1.00  0.00     0.010 A 
ATOM     42  C   UNL A   1      38.550  31.180  29.409  1.00  0.00     0.010 A 
ATOM     43  C   UNL A   1      39.368  30.389  30.232  1.00  0.00    -0.014 A 
BRANCH  43  44
ATOM     44  C   UNL A   1      40.593  29.778  29.670  1.00  0.00     0.031 A 
ATOM     45  C   UNL A   1      41.821  30.641  29.570  1.00  0.00     0.074 A 
ATOM     46  C   UNL A   1      40.629  28.494  29.275  1.00  0.00     0.049 A 
ATOM     47  N   UNL A   1      42.994  30.354  29.070  1.00  0.00    -0.248 NA
ATOM     48  C   UNL A   1      41.714  32.008  30.114  1.00  0.00     0.031 C 
ATOM     49  C   UNL A   1      39.531  27.538  29.388  1.00  0.00     0.029 A 
ATOM     50  N   UNL A   1      41.648  27.774  28.699  1.00  0.00    -0.354 N 
ATOM     51  C   UNL A   1      43.762  31.497  29.247  1.00  0.00     0.074 A 
ATOM     52  C   UNL A   1      42.924  32.492  29.875  1.00  0.00     0.031 C 
ATOM     53  C   UNL A   1      39.936  26.353  28.896  1.00  0.00     0.029 A 
ATOM     54  C   UNL A   1      41.309  26.477  28.406  1.00  0.00     0.049 A 
ATOM     55  H   UNL A   1      42.537  28.154  28.514  1.00  0.00     0.167 HD
ATOM     56  C   UNL A   1      45.058  31.696  28.924  1.00  0.00     0.031 A 
ATOM     57  C   UNL A   1      42.021  25.507  27.799  1.00  0.00     0.031 A 
ATOM     58  C   UNL A   1      45.890  30.717  28.287  1.00  0.00     0.049 A 
ATOM     59  C   UNL A   1      43.428  25.793  27.341  1.00  0.00     0.074 A 
ATOM     60  C   UNL A   1      47.215  30.840  27.907  1.00  0.00     0.029 A 
ATOM     61  N   UNL A   1      45.482  29.443  27.937  1.00  0.00    -0.354 N 
ATOM     62  N   UNL A   1      44.140  26.881  27.500  1.00  0.00    -0.248 NA
ATOM     63  C   UNL A   1      44.128  24.720  26.617  1.00  0.00     0.031 C 
ATOM     64  C   UNL A   1      47.596  29.651  27.285  1.00  0.00     0.029 A 
ATOM     65  C   UNL A   1      46.525  28.772  27.327  1.00  0.00     0.049 A 
ATOM     66  H   UNL A   1      44.585  29.070  28.098  1.00  0.00     0.167 HD
ATOM     67  C   UNL A   1      45.377  26.616  26.924  1.00  0.00     0.074 A 
ATOM     68  C   UNL A   1      45.321  25.263  26.412  1.00  0.00     0.031 C 
ATOM     69  C   UNL A   1      46.460  27.423  26.832  1.00  0.00     0.031 A 
BRANCH  56  70
ATOM     70  C   UNL A   1      45.671  33.024  29.248  1.00  0.00    -0.014 A 
ATOM     71  C   UNL A   1      46.261  33.250  30.501  1.00  0.00     0.009 A 
ATOM     72  C   UNL A   1      45.763  34.012  28.257  1.00  0.00     0.009 A 
ATOM     73  C   UNL A   1      46.943  34.441  30.750  1.00  0.00     0.001 A 
ATOM     74  C   UNL A   1      46.463  35.193  28.503  1.00  0.00     0.001 A 
ATOM     75  C   UNL A   1      47.054  35.405  29.749  1.00  0.00     0.000 A 
ENDBRANCH  56  70
BRANCH  57  76
ATOM     76  C   UNL A   1      41.418  24.165  27.594  1.00  0.00    -0.014 A 
ATOM     77  C   UNL A   1      40.468  23.963  26.581  1.00  0.00     0.009 A 
ATOM     78  C   UNL A   1      41.797  23.077  28.395  1.00  0.00     0.009 A 
ATOM     79  C   UNL A   1      39.907  22.701  26.378  1.00  0.00     0.001 A 
ATOM     80  C   UNL A   1      41.251  21.811  28.175  1.00  0.00     0.001 A 
ATOM     81  C   UNL A   1      40.304  21.624  27.170  1.00  0.00     0.000 A 
ENDBRANCH  57  76
BRANCH  69  82
ATOM     82  C   UNL A   1      47.701  26.884  26.181  1.00  0.00    -0.014 A 
ATOM     83  C   UNL A   1      47.960  27.120  24.824  1.00  0.00     0.009 A 
ATOM     84  C   UNL A   1      48.687  26.271  26.971  1.00  0.00     0.009 A 
ATOM     85  C   UNL A   1      49.187  26.751  24.269  1.00  0.00     0.001 A 
ATOM     86  C   UNL A   1      49.921  25.925  26.418  1.00  0.00     0.001 A 
ATOM     87  C   UNL A   1      50.169  26.165  25.068  1.00  0.00     0.000 A 
ENDBRANCH  69  82
ENDBRANCH  43  44
ENDBRANCH  36  38
ENDBRANCH  35  36
ENDBRANCH  34  35
ENDBRANCH  33  34
ENDBRANCH  32  33
ENDBRANCH  31  32
ENDBRANCH  30  31
ENDBRANCH   1  30
TORSDOF 23
ENDMDL
MODEL 3
REMARK VINA RESULT:      -9.9      0.740      5.644
REMARK SMILES Cc1cc(OC(F)(F)F)cc2c1O[C@H](C(F)(F)F)C(C(=O)OCCOCCOCCOCCOC(=O)c1ccc(-c3c4nc(c(-c5ccccc5)c5ccc([nH]5)c(-c5ccccc5)c5nc(c(-c6ccccc6)c6ccc3[nH]6)C=C5)C=C4)cc1)=C2
REMARK SMILES IDX 28 1 27 2 26 3 25 4 24 5 23 6 22 7 20 8 21 9 19 10 1 11 2 12
REMARK SMILES IDX 3 13 12 14 4 15 11 16 13 17 10 18 85 19 14 20 5 21 6 22 7 23
REMARK SMILES IDX 8 24 9 25 15 26 16 27 17 28 18 29 29 30 30 31 31 32 32 33
REMARK SMILES IDX 33 34 34 35 35 36 36 37 37 38 38 39 84 40 39 41 83 42 40 43
REMARK SMILES IDX 41 44 42 45 77 46 43 47 82 48 76 49 78 50 44 51 81 52 75 53
REMARK SMILES IDX 74 54 45 56 67 57 52 58 66 59 53 60 56 61 65 62 79 63 54 64
REMARK SMILES IDX 55 65 64 67 80 68 57 69 46 70 47 71 51 72 48 73 50 74 49 75
REMARK SMILES IDX 68 76 69 77 73 78 70 79 72 80 71 81 58 82 59 83 63 84 60 85
REMARK SMILES IDX 62 86 61 87
REMARK H PARENT 78 55 56 66
REMARK Flexibility Score: inf
ROOT
ATOM      1  O   UNL A   1      32.618  35.701  30.925  1.00  0.00    -0.377 OA
ENDROOT
BRANCH   1   2
ATOM      2  C   UNL A   1      33.142  36.037  29.649  1.00  0.00     0.188 C 
BRANCH   2   3
ATOM      3  C   UNL A   1      33.611  34.806  28.847  1.00  0.00     0.188 C 
BRANCH   3   4
ATOM      4  O   UNL A   1      32.544  33.967  28.441  1.00  0.00    -0.376 OA
BRANCH   4   5
ATOM      5  C   UNL A   1      32.740  32.944  27.480  1.00  0.00     0.202 C 
BRANCH   5   6
ATOM      6  C   UNL A   1      33.629  31.708  27.716  1.00  0.00     0.261 C 
BRANCH   6   7
ATOM      7  O   UNL A   1      33.093  30.434  27.359  1.00  0.00    -0.460 OA
BRANCH   7   8
ATOM      8  C   UNL A   1      33.942  29.507  26.885  1.00  0.00     0.338 C 
ATOM      9  O   UNL A   1      35.157  29.525  26.953  1.00  0.00    -0.246 OA
BRANCH   8  10
ATOM     10  C   UNL A   1      33.131  28.364  26.409  1.00  0.00     0.087 C 
ATOM     11  C   UNL A   1      29.684  25.399  24.100  1.00  0.00     0.048 C 
ATOM     12  C   UNL A   1      30.998  25.167  24.793  1.00  0.00    -0.005 A 
ATOM     13  C   UNL A   1      31.587  23.890  24.778  1.00  0.00     0.054 A 
ATOM     14  C   UNL A   1      31.663  26.224  25.432  1.00  0.00     0.131 A 
ATOM     15  C   UNL A   1      32.822  23.669  25.389  1.00  0.00     0.130 A 
ATOM     16  C   UNL A   1      32.923  26.020  25.997  1.00  0.00     0.021 A 
ATOM     17  O   UNL A   1      31.025  27.431  25.446  1.00  0.00    -0.475 OA
ATOM     18  C   UNL A   1      33.477  24.736  26.009  1.00  0.00     0.058 A 
ATOM     19  C   UNL A   1      33.691  27.151  26.485  1.00  0.00     0.027 C 
ATOM     20  C   UNL A   1      31.715  28.605  25.949  1.00  0.00     0.316 C 
BRANCH  15  21
ATOM     21  O   UNL A   1      33.501  22.485  25.442  1.00  0.00    -0.406 OA
BRANCH  21  22
ATOM     22  C   UNL A   1      33.893  21.897  24.213  1.00  0.00     0.573 C 
ATOM     23  F   UNL A   1      32.883  21.181  23.676  1.00  0.00    -0.132 F 
ATOM     24  F   UNL A   1      34.302  22.833  23.331  1.00  0.00    -0.132 F 
ATOM     25  F   UNL A   1      34.926  21.058  24.445  1.00  0.00    -0.132 F 
ENDBRANCH  21  22
ENDBRANCH  15  21
BRANCH  20  26
ATOM     26  C   UNL A   1      31.626  29.692  24.871  1.00  0.00     0.430 C 
ATOM     27  F   UNL A   1      32.815  29.856  24.238  1.00  0.00    -0.167 F 
ATOM     28  F   UNL A   1      30.717  29.394  23.914  1.00  0.00    -0.167 F 
ATOM     29  F   UNL A   1      31.280  30.891  25.396  1.00  0.00    -0.167 F 
ENDBRANCH  20  26
ENDBRANCH   8  10
ENDBRANCH   7   8
ENDBRANCH   6   7
ENDBRANCH   5   6
ENDBRANCH   4   5
ENDBRANCH   3   4
ENDBRANCH   2   3
ENDBRANCH   1   2
BRANCH   1  30
ATOM     30  C   UNL A   1      32.970  36.534  32.031  1.00  0.00     0.188 C 
BRANCH  30  31
ATOM     31  C   UNL A   1      34.373  36.484  32.688  1.00  0.00     0.188 C 
BRANCH  31  32
ATOM     32  O   UNL A   1      34.384  35.912  33.989  1.00  0.00    -0.376 OA
BRANCH  32  33
ATOM     33  C   UNL A   1      35.218  34.792  34.224  1.00  0.00     0.202 C 
BRANCH  33  34
ATOM     34  C   UNL A   1      34.729  33.454  33.657  1.00  0.00     0.261 C 
BRANCH  34  35
ATOM     35  O   UNL A   1      35.703  32.681  32.940  1.00  0.00    -0.460 OA
BRANCH  35  36
ATOM     36  C   UNL A   1      35.335  32.148  31.757  1.00  0.00     0.338 C 
ATOM     37  O   UNL A   1      34.288  32.321  31.157  1.00  0.00    -0.246 OA
BRANCH  36  38
ATOM     38  C   UNL A   1      36.513  31.441  31.218  1.00  0.00     0.060 A 
ATOM     39  C   UNL A   1      37.370  30.758  32.092  1.00  0.00     0.016 A 
ATOM     40  C   UNL A   1      36.752  31.442  29.842  1.00  0.00     0.016 A 
ATOM     41  C   UNL A   1      38.486  30.089  31.590  1.00  0.00     0.010 A 
ATOM     42  C   UNL A   1      37.889  30.804  29.345  1.00  0.00     0.010 A 
ATOM     43  C   UNL A   1      38.775  30.153  30.220  1.00  0.00    -0.014 A 
BRANCH  43  44
ATOM     44  C   UNL A   1      40.117  29.759  29.738  1.00  0.00     0.031 A 
ATOM     45  C   UNL A   1      40.304  28.342  29.271  1.00  0.00     0.074 A 
ATOM     46  C   UNL A   1      41.140  30.630  29.695  1.00  0.00     0.049 A 
ATOM     47  N   UNL A   1      41.389  27.745  28.854  1.00  0.00    -0.248 NA
ATOM     48  C   UNL A   1      39.103  27.484  29.266  1.00  0.00     0.031 C 
ATOM     49  C   UNL A   1      41.068  32.045  30.050  1.00  0.00     0.029 A 
ATOM     50  N   UNL A   1      42.449  30.440  29.323  1.00  0.00    -0.354 N 
ATOM     51  C   UNL A   1      41.001  26.452  28.531  1.00  0.00     0.074 A 
ATOM     52  C   UNL A   1      39.590  26.336  28.821  1.00  0.00     0.031 C 
ATOM     53  C   UNL A   1      42.283  32.598  29.876  1.00  0.00     0.029 A 
ATOM     54  C   UNL A   1      43.223  31.569  29.431  1.00  0.00     0.049 A 
ATOM     55  H   UNL A   1      42.798  29.575  29.009  1.00  0.00     0.167 HD
ATOM     56  C   UNL A   1      41.753  25.451  28.026  1.00  0.00     0.031 A 
ATOM     57  C   UNL A   1      44.540  31.745  29.209  1.00  0.00     0.031 A 
ATOM     58  C   UNL A   1      43.156  25.555  27.751  1.00  0.00     0.049 A 
ATOM     59  C   UNL A   1      45.381  30.580  28.757  1.00  0.00     0.074 A 
ATOM     60  C   UNL A   1      44.004  24.582  27.251  1.00  0.00     0.029 A 
ATOM     61  N   UNL A   1      43.915  26.695  27.949  1.00  0.00    -0.354 N 
ATOM     62  N   UNL A   1      45.008  29.357  28.469  1.00  0.00    -0.248 NA
ATOM     63  C   UNL A   1      46.826  30.816  28.604  1.00  0.00     0.031 C 
ATOM     64  C   UNL A   1      45.289  25.121  27.190  1.00  0.00     0.029 A 
ATOM     65  C   UNL A   1      45.229  26.444  27.599  1.00  0.00     0.049 A 
ATOM     66  H   UNL A   1      43.573  27.553  28.287  1.00  0.00     0.167 HD
ATOM     67  C   UNL A   1      46.160  28.688  28.075  1.00  0.00     0.074 A 
ATOM     68  C   UNL A   1      47.248  29.639  28.159  1.00  0.00     0.031 C 
ATOM     69  C   UNL A   1      46.300  27.402  27.677  1.00  0.00     0.031 A 
BRANCH  56  70
ATOM     70  C   UNL A   1      41.083  24.143  27.734  1.00  0.00    -0.014 A 
ATOM     71  C   UNL A   1      40.064  24.062  26.773  1.00  0.00     0.009 A 
ATOM     72  C   UNL A   1      41.555  22.966  28.336  1.00  0.00     0.009 A 
ATOM     73  C   UNL A   1      39.535  22.822  26.414  1.00  0.00     0.001 A 
ATOM     74  C   UNL A   1      41.037  21.727  27.959  1.00  0.00     0.001 A 
ATOM     75  C   UNL A   1      40.030  21.656  26.997  1.00  0.00     0.000 A 
ENDBRANCH  56  70
BRANCH  57  76
ATOM     76  C   UNL A   1      45.149  33.086  29.402  1.00  0.00    -0.014 A 
ATOM     77  C   UNL A   1      45.206  33.998  28.336  1.00  0.00     0.009 A 
ATOM     78  C   UNL A   1      45.662  33.469  30.650  1.00  0.00     0.009 A 
ATOM     79  C   UNL A   1      45.768  35.264  28.516  1.00  0.00     0.001 A 
ATOM     80  C   UNL A   1      46.204  34.744  30.833  1.00  0.00     0.001 A 
ATOM     81  C   UNL A   1      46.259  35.638  29.766  1.00  0.00     0.000 A 
ENDBRANCH  57  76
BRANCH  69  82
ATOM     82  C   UNL A   1      47.663  26.923  27.270  1.00  0.00    -0.014 A 
ATOM     83  C   UNL A   1      48.610  26.546  28.232  1.00  0.00     0.009 A 
ATOM     84  C   UNL A   1      47.941  26.700  25.911  1.00  0.00     0.009 A 
ATOM     85  C   UNL A   1      49.813  25.955  27.841  1.00  0.00     0.001 A 
ATOM     86  C   UNL A   1      49.135  26.088  25.525  1.00  0.00     0.001 A 
ATOM     87  C   UNL A   1      50.068  25.717  26.490  1.00  0.00     0.000 A 
ENDBRANCH  69  82
ENDBRANCH  43  44
ENDBRANCH  36  38
ENDBRANCH  35  36
ENDBRANCH  34  35
ENDBRANCH  33  34
ENDBRANCH  32  33
ENDBRANCH  31  32
ENDBRANCH  30  31
ENDBRANCH   1  30
TORSDOF 23
ENDMDL
