MODEL 1
REMARK VINA RESULT:      -9.2      0.000      0.000
REMARK SMILES NC(=O)[C@H]1CCCN1S(=O)(=O)Cc1ccc(C(=O)OCCOCCOCCOCCOC(=O)c2ccc(-c3c4nc(c(-c5ccccc5)c5ccc([nH]5)c(-c5ccccc5)c5nc(c(-c6ccccc6)c6ccc3[nH]6)C=C5)C=C4)cc2)cc1
REMARK SMILES IDX 24 1 23 2 22 3 21 4 20 5 19 6 17 7 18 8 16 9 13 10 14 11
REMARK SMILES IDX 83 12 15 13 82 14 12 15 9 16 10 17 11 18 8 19 4 20 5 21 6 22
REMARK SMILES IDX 7 23 2 24 1 25 3 28 25 29 26 30 27 31 28 32 29 33 30 34
REMARK SMILES IDX 31 35 32 36 33 37 34 38 35 39 81 40 36 41 80 42 37 43 38 44
REMARK SMILES IDX 39 45 74 46 40 47 79 48 73 49 75 50 41 51 78 52 72 53 71 54
REMARK SMILES IDX 42 56 64 57 49 58 63 59 50 60 53 61 62 62 76 63 51 64 52 65
REMARK SMILES IDX 61 67 77 68 54 69 43 70 44 71 48 72 45 73 47 74 46 75 65 76
REMARK SMILES IDX 66 77 70 78 67 79 69 80 68 81 55 82 56 83 60 84 57 85 59 86
REMARK SMILES IDX 58 87
REMARK H PARENT 1 26 1 27 75 55 53 66
REMARK Flexibility Score: inf
ROOT
ATOM      1  C   UNL A   1      36.794  22.637  25.207  1.00  0.00     0.188 C 
ENDROOT
BRANCH   1   2
ATOM      2  C   UNL A   1      36.061  21.371  25.695  1.00  0.00     0.188 C 
BRANCH   2   3
ATOM      3  O   UNL A   1      35.262  20.753  24.699  1.00  0.00    -0.376 OA
BRANCH   3   4
ATOM      4  C   UNL A   1      34.534  19.586  25.034  1.00  0.00     0.202 C 
BRANCH   4   5
ATOM      5  C   UNL A   1      33.406  19.133  24.094  1.00  0.00     0.261 C 
BRANCH   5   6
ATOM      6  O   UNL A   1      32.227  19.947  24.095  1.00  0.00    -0.460 OA
BRANCH   6   7
ATOM      7  C   UNL A   1      32.186  20.936  23.177  1.00  0.00     0.338 C 
ATOM      8  O   UNL A   1      31.864  20.830  22.007  1.00  0.00    -0.246 OA
BRANCH   7   9
ATOM      9  C   UNL A   1      32.409  22.227  23.864  1.00  0.00     0.060 A 
ATOM     10  C   UNL A   1      32.698  24.667  25.240  1.00  0.00    -0.032 A 
ATOM     11  C   UNL A   1      32.200  23.532  25.891  1.00  0.00     0.006 A 
ATOM     12  C   UNL A   1      33.168  24.516  23.918  1.00  0.00     0.006 A 
ATOM     13  C   UNL A   1      32.019  22.334  25.200  1.00  0.00     0.016 A 
ATOM     14  C   UNL A   1      33.036  23.304  23.235  1.00  0.00     0.016 A 
BRANCH  10  15
ATOM     15  C   UNL A   1      32.787  26.047  25.848  1.00  0.00     0.189 C 
BRANCH  15  16
ATOM     16  S   UNL A   1      31.253  26.976  25.963  1.00  0.00     0.219 S 
ATOM     17  O   UNL A   1      31.156  27.497  27.312  1.00  0.00    -0.212 OA
ATOM     18  O   UNL A   1      30.189  26.149  25.430  1.00  0.00    -0.212 OA
BRANCH  16  19
ATOM     19  N   UNL A   1      31.421  28.310  24.933  1.00  0.00    -0.189 NA
ATOM     20  C   UNL A   1      30.857  28.209  23.555  1.00  0.00     0.161 C 
ATOM     21  C   UNL A   1      32.038  27.770  22.702  1.00  0.00     0.032 C 
ATOM     22  C   UNL A   1      33.239  28.461  23.331  1.00  0.00     0.019 C 
ATOM     23  C   UNL A   1      32.838  28.771  24.770  1.00  0.00     0.103 C 
BRANCH  20  24
ATOM     24  C   UNL A   1      30.354  29.591  23.093  1.00  0.00     0.235 C 
ATOM     25  N   UNL A   1      30.635  29.941  21.804  1.00  0.00    -0.368 N 
ATOM     26  H   UNL A   1      30.337  30.813  21.455  1.00  0.00     0.159 HD
ATOM     27  H   UNL A   1      31.134  29.323  21.222  1.00  0.00     0.159 HD
ATOM     28  O   UNL A   1      29.740  30.379  23.809  1.00  0.00    -0.273 OA
ENDBRANCH  20  24
ENDBRANCH  16  19
ENDBRANCH  15  16
ENDBRANCH  10  15
ENDBRANCH   7   9
ENDBRANCH   6   7
ENDBRANCH   5   6
ENDBRANCH   4   5
ENDBRANCH   3   4
ENDBRANCH   2   3
ENDBRANCH   1   2
BRANCH   1  29
ATOM     29  O   UNL A   1      38.206  22.707  25.362  1.00  0.00    -0.377 OA
BRANCH  29  30
ATOM     30  C   UNL A   1      38.927  21.568  25.831  1.00  0.00     0.188 C 
BRANCH  30  31
ATOM     31  C   UNL A   1      40.043  21.678  26.898  1.00  0.00     0.188 C 
BRANCH  31  32
ATOM     32  O   UNL A   1      41.325  21.266  26.460  1.00  0.00    -0.376 OA
BRANCH  32  33
ATOM     33  C   UNL A   1      41.824  20.037  26.951  1.00  0.00     0.202 C 
BRANCH  33  34
ATOM     34  C   UNL A   1      42.701  19.219  25.994  1.00  0.00     0.261 C 
BRANCH  34  35
ATOM     35  O   UNL A   1      43.145  19.900  24.809  1.00  0.00    -0.460 OA
BRANCH  35  36
ATOM     36  C   UNL A   1      44.475  19.947  24.582  1.00  0.00     0.338 C 
ATOM     37  O   UNL A   1      45.162  19.100  24.034  1.00  0.00    -0.246 OA
BRANCH  36  38
ATOM     38  C   UNL A   1      44.943  21.299  24.948  1.00  0.00     0.060 A 
ATOM     39  C   UNL A   1      45.420  21.529  26.247  1.00  0.00     0.016 A 
ATOM     40  C   UNL A   1      44.924  22.330  24.007  1.00  0.00     0.016 A 
ATOM     41  C   UNL A   1      45.853  22.804  26.613  1.00  0.00     0.010 A 
ATOM     42  C   UNL A   1      45.338  23.611  24.383  1.00  0.00     0.010 A 
ATOM     43  C   UNL A   1      45.775  23.860  25.696  1.00  0.00    -0.014 A 
BRANCH  43  44
ATOM     44  C   UNL A   1      45.980  25.254  26.159  1.00  0.00     0.031 A 
ATOM     45  C   UNL A   1      44.794  26.019  26.678  1.00  0.00     0.074 A 
ATOM     46  C   UNL A   1      47.195  25.828  26.135  1.00  0.00     0.049 A 
ATOM     47  N   UNL A   1      44.725  27.252  27.108  1.00  0.00    -0.248 NA
ATOM     48  C   UNL A   1      43.514  25.293  26.716  1.00  0.00     0.031 C 
ATOM     49  C   UNL A   1      48.429  25.182  25.695  1.00  0.00     0.029 A 
ATOM     50  N   UNL A   1      47.584  27.096  26.489  1.00  0.00    -0.354 N 
ATOM     51  C   UNL A   1      43.394  27.455  27.454  1.00  0.00     0.074 A 
ATOM     52  C   UNL A   1      42.687  26.229  27.157  1.00  0.00     0.031 C 
ATOM     53  C   UNL A   1      49.441  26.062  25.799  1.00  0.00     0.029 A 
ATOM     54  C   UNL A   1      48.918  27.341  26.277  1.00  0.00     0.049 A 
ATOM     55  H   UNL A   1      46.965  27.766  26.860  1.00  0.00     0.167 HD
ATOM     56  C   UNL A   1      42.813  28.560  27.976  1.00  0.00     0.031 A 
ATOM     57  C   UNL A   1      49.631  28.475  26.428  1.00  0.00     0.031 A 
ATOM     58  C   UNL A   1      43.512  29.788  28.252  1.00  0.00     0.049 A 
ATOM     59  C   UNL A   1      48.946  29.718  26.935  1.00  0.00     0.074 A 
ATOM     60  C   UNL A   1      43.017  30.956  28.802  1.00  0.00     0.029 A 
ATOM     61  N   UNL A   1      44.854  30.009  27.985  1.00  0.00    -0.354 N 
ATOM     62  N   UNL A   1      47.696  29.887  27.294  1.00  0.00    -0.248 NA
ATOM     63  C   UNL A   1      49.775  30.925  27.062  1.00  0.00     0.031 C 
ATOM     64  C   UNL A   1      44.041  31.908  28.800  1.00  0.00     0.029 A 
ATOM     65  C   UNL A   1      45.195  31.307  28.322  1.00  0.00     0.049 A 
ATOM     66  H   UNL A   1      45.473  29.340  27.610  1.00  0.00     0.167 HD
ATOM     67  C   UNL A   1      47.596  31.208  27.718  1.00  0.00     0.074 A 
ATOM     68  C   UNL A   1      48.916  31.788  27.587  1.00  0.00     0.031 C 
ATOM     69  C   UNL A   1      46.510  31.878  28.178  1.00  0.00     0.031 A 
BRANCH  56  70
ATOM     70  C   UNL A   1      41.331  28.506  28.233  1.00  0.00    -0.014 A 
ATOM     71  C   UNL A   1      40.403  28.980  27.292  1.00  0.00     0.009 A 
ATOM     72  C   UNL A   1      40.856  27.949  29.431  1.00  0.00     0.009 A 
ATOM     73  C   UNL A   1      39.033  28.933  27.564  1.00  0.00     0.001 A 
ATOM     74  C   UNL A   1      39.487  27.873  29.686  1.00  0.00     0.001 A 
ATOM     75  C   UNL A   1      38.576  28.376  28.758  1.00  0.00     0.000 A 
ENDBRANCH  56  70
BRANCH  57  76
ATOM     76  C   UNL A   1      51.076  28.498  26.073  1.00  0.00    -0.014 A 
ATOM     77  C   UNL A   1      52.057  28.200  27.030  1.00  0.00     0.009 A 
ATOM     78  C   UNL A   1      51.481  28.836  24.772  1.00  0.00     0.009 A 
ATOM     79  C   UNL A   1      53.413  28.263  26.698  1.00  0.00     0.001 A 
ATOM     80  C   UNL A   1      52.834  28.866  24.434  1.00  0.00     0.001 A 
ATOM     81  C   UNL A   1      53.800  28.589  25.398  1.00  0.00     0.000 A 
ENDBRANCH  57  76
BRANCH  69  82
ATOM     82  C   UNL A   1      46.709  33.307  28.608  1.00  0.00    -0.014 A 
ATOM     83  C   UNL A   1      46.651  34.365  27.688  1.00  0.00     0.009 A 
ATOM     84  C   UNL A   1      46.915  33.600  29.965  1.00  0.00     0.009 A 
ATOM     85  C   UNL A   1      46.834  35.683  28.115  1.00  0.00     0.001 A 
ATOM     86  C   UNL A   1      47.062  34.920  30.394  1.00  0.00     0.001 A 
ATOM     87  C   UNL A   1      47.034  35.959  29.467  1.00  0.00     0.000 A 
ENDBRANCH  69  82
ENDBRANCH  43  44
ENDBRANCH  36  38
ENDBRANCH  35  36
ENDBRANCH  34  35
ENDBRANCH  33  34
ENDBRANCH  32  33
ENDBRANCH  31  32
ENDBRANCH  30  31
ENDBRANCH  29  30
ENDBRANCH   1  29
TORSDOF 24
ENDMDL
MODEL 2
REMARK VINA RESULT:      -8.7      0.961      5.697
REMARK SMILES NC(=O)[C@H]1CCCN1S(=O)(=O)Cc1ccc(C(=O)OCCOCCOCCOCCOC(=O)c2ccc(-c3c4nc(c(-c5ccccc5)c5ccc([nH]5)c(-c5ccccc5)c5nc(c(-c6ccccc6)c6ccc3[nH]6)C=C5)C=C4)cc2)cc1
REMARK SMILES IDX 24 1 23 2 22 3 21 4 20 5 19 6 17 7 18 8 16 9 13 10 14 11
REMARK SMILES IDX 83 12 15 13 82 14 12 15 9 16 10 17 11 18 8 19 4 20 5 21 6 22
REMARK SMILES IDX 7 23 2 24 1 25 3 28 25 29 26 30 27 31 28 32 29 33 30 34
REMARK SMILES IDX 31 35 32 36 33 37 34 38 35 39 81 40 36 41 80 42 37 43 38 44
REMARK SMILES IDX 39 45 74 46 40 47 79 48 73 49 75 50 41 51 78 52 72 53 71 54
REMARK SMILES IDX 42 56 64 57 49 58 63 59 50 60 53 61 62 62 76 63 51 64 52 65
REMARK SMILES IDX 61 67 77 68 54 69 43 70 44 71 48 72 45 73 47 74 46 75 65 76
REMARK SMILES IDX 66 77 70 78 67 79 69 80 68 81 55 82 56 83 60 84 57 85 59 86
REMARK SMILES IDX 58 87
REMARK H PARENT 1 26 1 27 75 55 53 66
REMARK Flexibility Score: inf
ROOT
ATOM      1  C   UNL A   1      36.797  22.367  24.960  1.00  0.00     0.188 C 
ENDROOT
BRANCH   1   2
ATOM      2  C   UNL A   1      35.989  21.204  25.572  1.00  0.00     0.188 C 
BRANCH   2   3
ATOM      3  O   UNL A   1      35.603  20.218  24.629  1.00  0.00    -0.376 OA
BRANCH   3   4
ATOM      4  C   UNL A   1      34.707  19.200  25.033  1.00  0.00     0.202 C 
BRANCH   4   5
ATOM      5  C   UNL A   1      33.202  19.421  24.817  1.00  0.00     0.261 C 
BRANCH   5   6
ATOM      6  O   UNL A   1      32.761  20.783  24.840  1.00  0.00    -0.460 OA
BRANCH   6   7
ATOM      7  C   UNL A   1      32.558  21.365  23.639  1.00  0.00     0.338 C 
ATOM      8  O   UNL A   1      32.135  20.826  22.632  1.00  0.00    -0.246 OA
BRANCH   7   9
ATOM      9  C   UNL A   1      32.749  22.825  23.784  1.00  0.00     0.060 A 
ATOM     10  C   UNL A   1      33.045  25.595  24.198  1.00  0.00    -0.032 A 
ATOM     11  C   UNL A   1      33.324  24.683  25.223  1.00  0.00     0.006 A 
ATOM     12  C   UNL A   1      32.738  25.078  22.922  1.00  0.00     0.006 A 
ATOM     13  C   UNL A   1      33.139  23.314  25.032  1.00  0.00     0.016 A 
ATOM     14  C   UNL A   1      32.600  23.704  22.710  1.00  0.00     0.016 A 
BRANCH  10  15
ATOM     15  C   UNL A   1      33.061  27.098  24.345  1.00  0.00     0.189 C 
BRANCH  15  16
ATOM     16  S   UNL A   1      31.901  27.803  25.522  1.00  0.00     0.219 S 
ATOM     17  O   UNL A   1      32.476  29.037  26.021  1.00  0.00    -0.212 OA
ATOM     18  O   UNL A   1      31.516  26.760  26.451  1.00  0.00    -0.212 OA
BRANCH  16  19
ATOM     19  N   UNL A   1      30.520  28.228  24.638  1.00  0.00    -0.189 NA
ATOM     20  C   UNL A   1      29.998  27.252  23.638  1.00  0.00     0.161 C 
ATOM     21  C   UNL A   1      30.621  27.699  22.323  1.00  0.00     0.032 C 
ATOM     22  C   UNL A   1      30.678  29.216  22.427  1.00  0.00     0.019 C 
ATOM     23  C   UNL A   1      30.644  29.537  23.918  1.00  0.00     0.103 C 
BRANCH  20  24
ATOM     24  C   UNL A   1      28.462  27.354  23.558  1.00  0.00     0.235 C 
ATOM     25  N   UNL A   1      27.757  26.259  23.967  1.00  0.00    -0.368 N 
ATOM     26  H   UNL A   1      26.773  26.269  23.938  1.00  0.00     0.159 HD
ATOM     27  H   UNL A   1      28.232  25.459  24.291  1.00  0.00     0.159 HD
ATOM     28  O   UNL A   1      27.855  28.340  23.147  1.00  0.00    -0.273 OA
ENDBRANCH  20  24
ENDBRANCH  16  19
ENDBRANCH  15  16
ENDBRANCH  10  15
ENDBRANCH   7   9
ENDBRANCH   6   7
ENDBRANCH   5   6
ENDBRANCH   4   5
ENDBRANCH   3   4
ENDBRANCH   2   3
ENDBRANCH   1   2
BRANCH   1  29
ATOM     29  O   UNL A   1      38.211  22.363  25.108  1.00  0.00    -0.377 OA
BRANCH  29  30
ATOM     30  C   UNL A   1      38.852  21.283  25.786  1.00  0.00     0.188 C 
BRANCH  30  31
ATOM     31  C   UNL A   1      40.206  21.454  26.518  1.00  0.00     0.188 C 
BRANCH  31  32
ATOM     32  O   UNL A   1      41.314  20.866  25.860  1.00  0.00    -0.376 OA
BRANCH  32  33
ATOM     33  C   UNL A   1      42.035  19.865  26.552  1.00  0.00     0.202 C 
BRANCH  33  34
ATOM     34  C   UNL A   1      42.939  18.959  25.706  1.00  0.00     0.261 C 
BRANCH  34  35
ATOM     35  O   UNL A   1      43.393  19.509  24.458  1.00  0.00    -0.460 OA
BRANCH  35  36
ATOM     36  C   UNL A   1      44.721  19.698  24.310  1.00  0.00     0.338 C 
ATOM     37  O   UNL A   1      45.523  18.936  23.796  1.00  0.00    -0.246 OA
BRANCH  36  38
ATOM     38  C   UNL A   1      45.022  21.086  24.714  1.00  0.00     0.060 A 
ATOM     39  C   UNL A   1      45.449  21.340  26.025  1.00  0.00     0.016 A 
ATOM     40  C   UNL A   1      44.898  22.131  23.796  1.00  0.00     0.016 A 
ATOM     41  C   UNL A   1      45.725  22.647  26.428  1.00  0.00     0.010 A 
ATOM     42  C   UNL A   1      45.154  23.441  24.207  1.00  0.00     0.010 A 
ATOM     43  C   UNL A   1      45.538  23.708  25.533  1.00  0.00    -0.014 A 
BRANCH  43  44
ATOM     44  C   UNL A   1      45.572  25.105  26.030  1.00  0.00     0.031 A 
ATOM     45  C   UNL A   1      46.880  25.845  26.003  1.00  0.00     0.074 A 
ATOM     46  C   UNL A   1      44.462  25.714  26.482  1.00  0.00     0.049 A 
ATOM     47  N   UNL A   1      47.158  27.057  26.409  1.00  0.00    -0.248 NA
ATOM     48  C   UNL A   1      48.031  25.117  25.443  1.00  0.00     0.031 C 
ATOM     49  C   UNL A   1      43.127  25.122  26.522  1.00  0.00     0.029 A 
ATOM     50  N   UNL A   1      44.290  26.973  27.000  1.00  0.00    -0.354 N 
ATOM     51  C   UNL A   1      48.515  27.232  26.167  1.00  0.00     0.074 A 
ATOM     52  C   UNL A   1      49.010  25.994  25.606  1.00  0.00     0.031 C 
ATOM     53  C   UNL A   1      42.271  26.018  27.045  1.00  0.00     0.029 A 
ATOM     54  C   UNL A   1      43.004  27.229  27.409  1.00  0.00     0.049 A 
ATOM     55  H   UNL A   1      45.019  27.631  27.072  1.00  0.00     0.167 HD
ATOM     56  C   UNL A   1      49.281  28.326  26.387  1.00  0.00     0.031 A 
ATOM     57  C   UNL A   1      42.485  28.306  28.029  1.00  0.00     0.031 A 
ATOM     58  C   UNL A   1      48.794  29.552  26.964  1.00  0.00     0.049 A 
ATOM     59  C   UNL A   1      43.374  29.484  28.338  1.00  0.00     0.074 A 
ATOM     60  C   UNL A   1      49.486  30.725  27.206  1.00  0.00     0.029 A 
ATOM     61  N   UNL A   1      47.495  29.755  27.402  1.00  0.00    -0.354 N 
ATOM     62  N   UNL A   1      44.647  29.653  28.070  1.00  0.00    -0.248 NA
ATOM     63  C   UNL A   1      42.750  30.621  29.029  1.00  0.00     0.031 C 
ATOM     64  C   UNL A   1      48.625  31.613  27.858  1.00  0.00     0.029 A 
ATOM     65  C   UNL A   1      47.375  31.021  27.950  1.00  0.00     0.049 A 
ATOM     66  H   UNL A   1      46.766  29.097  27.335  1.00  0.00     0.167 HD
ATOM     67  C   UNL A   1      44.968  30.925  28.532  1.00  0.00     0.074 A 
ATOM     68  C   UNL A   1      43.752  31.488  29.080  1.00  0.00     0.031 C 
ATOM     69  C   UNL A   1      46.161  31.569  28.502  1.00  0.00     0.031 A 
BRANCH  56  70
ATOM     70  C   UNL A   1      50.744  28.225  26.048  1.00  0.00    -0.014 A 
ATOM     71  C   UNL A   1      51.228  28.552  24.771  1.00  0.00     0.009 A 
ATOM     72  C   UNL A   1      51.656  27.816  27.033  1.00  0.00     0.009 A 
ATOM     73  C   UNL A   1      52.589  28.433  24.478  1.00  0.00     0.001 A 
ATOM     74  C   UNL A   1      53.019  27.729  26.748  1.00  0.00     0.001 A 
ATOM     75  C   UNL A   1      53.483  28.026  25.468  1.00  0.00     0.000 A 
ENDBRANCH  56  70
BRANCH  57  76
ATOM     76  C   UNL A   1      41.050  28.318  28.423  1.00  0.00    -0.014 A 
ATOM     77  C   UNL A   1      40.618  27.666  29.587  1.00  0.00     0.009 A 
ATOM     78  C   UNL A   1      40.100  28.972  27.621  1.00  0.00     0.009 A 
ATOM     79  C   UNL A   1      39.263  27.650  29.928  1.00  0.00     0.001 A 
ATOM     80  C   UNL A   1      38.752  28.981  27.981  1.00  0.00     0.001 A 
ATOM     81  C   UNL A   1      38.332  28.313  29.129  1.00  0.00     0.000 A 
ENDBRANCH  57  76
BRANCH  69  82
ATOM     82  C   UNL A   1      46.205  32.972  29.045  1.00  0.00    -0.014 A 
ATOM     83  C   UNL A   1      45.610  34.043  28.361  1.00  0.00     0.009 A 
ATOM     84  C   UNL A   1      46.817  33.216  30.285  1.00  0.00     0.009 A 
ATOM     85  C   UNL A   1      45.661  35.335  28.890  1.00  0.00     0.001 A 
ATOM     86  C   UNL A   1      46.836  34.502  30.828  1.00  0.00     0.001 A 
ATOM     87  C   UNL A   1      46.269  35.562  30.125  1.00  0.00     0.000 A 
ENDBRANCH  69  82
ENDBRANCH  43  44
ENDBRANCH  36  38
ENDBRANCH  35  36
ENDBRANCH  34  35
ENDBRANCH  33  34
ENDBRANCH  32  33
ENDBRANCH  31  32
ENDBRANCH  30  31
ENDBRANCH  29  30
ENDBRANCH   1  29
TORSDOF 24
ENDMDL
MODEL 3
REMARK VINA RESULT:      -8.3      2.469      6.604
REMARK SMILES NC(=O)[C@H]1CCCN1S(=O)(=O)Cc1ccc(C(=O)OCCOCCOCCOCCOC(=O)c2ccc(-c3c4nc(c(-c5ccccc5)c5ccc([nH]5)c(-c5ccccc5)c5nc(c(-c6ccccc6)c6ccc3[nH]6)C=C5)C=C4)cc2)cc1
REMARK SMILES IDX 24 1 23 2 22 3 21 4 20 5 19 6 17 7 18 8 16 9 13 10 14 11
REMARK SMILES IDX 83 12 15 13 82 14 12 15 9 16 10 17 11 18 8 19 4 20 5 21 6 22
REMARK SMILES IDX 7 23 2 24 1 25 3 28 25 29 26 30 27 31 28 32 29 33 30 34
REMARK SMILES IDX 31 35 32 36 33 37 34 38 35 39 81 40 36 41 80 42 37 43 38 44
REMARK SMILES IDX 39 45 74 46 40 47 79 48 73 49 75 50 41 51 78 52 72 53 71 54
REMARK SMILES IDX 42 56 64 57 49 58 63 59 50 60 53 61 62 62 76 63 51 64 52 65
REMARK SMILES IDX 61 67 77 68 54 69 43 70 44 71 48 72 45 73 47 74 46 75 65 76
REMARK SMILES IDX 66 77 70 78 67 79 69 80 68 81 55 82 56 83 60 84 57 85 59 86
REMARK SMILES IDX 58 87
REMARK H PARENT 1 26 1 27 75 55 53 66
REMARK Flexibility Score: inf
ROOT
ATOM      1  C   UNL A   1      36.031  22.496  25.172  1.00  0.00     0.188 C 
ENDROOT
BRANCH   1   2
ATOM      2  C   UNL A   1      35.005  21.581  24.473  1.00  0.00     0.188 C 
BRANCH   2   3
ATOM      3  O   UNL A   1      33.802  22.239  24.116  1.00  0.00    -0.376 OA
BRANCH   3   4
ATOM      4  C   UNL A   1      32.667  22.088  24.947  1.00  0.00     0.202 C 
BRANCH   4   5
ATOM      5  C   UNL A   1      31.639  23.229  24.998  1.00  0.00     0.261 C 
BRANCH   5   6
ATOM      6  O   UNL A   1      32.170  24.539  25.228  1.00  0.00    -0.460 OA
BRANCH   6   7
ATOM      7  C   UNL A   1      31.267  25.527  25.400  1.00  0.00     0.338 C 
ATOM      8  O   UNL A   1      30.056  25.432  25.302  1.00  0.00    -0.246 OA
BRANCH   7   9
ATOM      9  C   UNL A   1      31.968  26.720  25.923  1.00  0.00     0.060 A 
ATOM     10  C   UNL A   1      33.169  29.069  26.908  1.00  0.00    -0.032 A 
ATOM     11  C   UNL A   1      31.907  28.666  27.359  1.00  0.00     0.006 A 
ATOM     12  C   UNL A   1      33.870  28.198  26.047  1.00  0.00     0.006 A 
ATOM     13  C   UNL A   1      31.294  27.526  26.842  1.00  0.00     0.016 A 
ATOM     14  C   UNL A   1      33.281  27.027  25.564  1.00  0.00     0.016 A 
BRANCH  10  15
ATOM     15  C   UNL A   1      33.854  30.363  27.282  1.00  0.00     0.189 C 
BRANCH  15  16
ATOM     16  S   UNL A   1      35.405  30.222  28.177  1.00  0.00     0.219 S 
ATOM     17  O   UNL A   1      36.481  30.344  27.213  1.00  0.00    -0.212 OA
ATOM     18  O   UNL A   1      35.327  29.051  29.027  1.00  0.00    -0.212 OA
BRANCH  16  19
ATOM     19  N   UNL A   1      35.499  31.576  29.190  1.00  0.00    -0.189 NA
ATOM     20  C   UNL A   1      34.632  32.749  28.877  1.00  0.00     0.161 C 
ATOM     21  C   UNL A   1      35.529  33.665  28.055  1.00  0.00     0.032 C 
ATOM     22  C   UNL A   1      36.915  33.473  28.653  1.00  0.00     0.019 C 
ATOM     23  C   UNL A   1      36.888  32.116  29.349  1.00  0.00     0.103 C 
BRANCH  20  24
ATOM     24  C   UNL A   1      34.210  33.453  30.182  1.00  0.00     0.235 C 
ATOM     25  N   UNL A   1      34.395  32.751  31.339  1.00  0.00    -0.368 N 
ATOM     26  H   UNL A   1      34.143  33.152  32.202  1.00  0.00     0.159 HD
ATOM     27  H   UNL A   1      34.780  31.845  31.310  1.00  0.00     0.159 HD
ATOM     28  O   UNL A   1      33.718  34.577  30.234  1.00  0.00    -0.273 OA
ENDBRANCH  20  24
ENDBRANCH  16  19
ENDBRANCH  15  16
ENDBRANCH  10  15
ENDBRANCH   7   9
ENDBRANCH   6   7
ENDBRANCH   5   6
ENDBRANCH   4   5
ENDBRANCH   3   4
ENDBRANCH   2   3
ENDBRANCH   1   2
BRANCH   1  29
ATOM     29  O   UNL A   1      37.409  22.333  24.862  1.00  0.00    -0.377 OA
BRANCH  29  30
ATOM     30  C   UNL A   1      38.131  21.222  25.391  1.00  0.00     0.188 C 
BRANCH  30  31
ATOM     31  C   UNL A   1      39.496  21.386  26.103  1.00  0.00     0.188 C 
BRANCH  31  32
ATOM     32  O   UNL A   1      40.506  20.499  25.659  1.00  0.00    -0.376 OA
BRANCH  32  33
ATOM     33  C   UNL A   1      41.819  20.700  26.147  1.00  0.00     0.202 C 
BRANCH  33  34
ATOM     34  C   UNL A   1      42.821  19.562  25.914  1.00  0.00     0.261 C 
BRANCH  34  35
ATOM     35  O   UNL A   1      43.325  19.429  24.575  1.00  0.00    -0.460 OA
BRANCH  35  36
ATOM     36  C   UNL A   1      44.650  19.603  24.390  1.00  0.00     0.338 C 
ATOM     37  O   UNL A   1      45.433  18.826  23.867  1.00  0.00    -0.246 OA
BRANCH  36  38
ATOM     38  C   UNL A   1      44.974  20.994  24.766  1.00  0.00     0.060 A 
ATOM     39  C   UNL A   1      45.504  21.254  26.038  1.00  0.00     0.016 A 
ATOM     40  C   UNL A   1      44.768  22.036  23.858  1.00  0.00     0.016 A 
ATOM     41  C   UNL A   1      45.803  22.564  26.414  1.00  0.00     0.010 A 
ATOM     42  C   UNL A   1      45.048  23.349  24.245  1.00  0.00     0.010 A 
ATOM     43  C   UNL A   1      45.537  23.621  25.535  1.00  0.00    -0.014 A 
BRANCH  43  44
ATOM     44  C   UNL A   1      45.601  25.020  26.024  1.00  0.00     0.031 A 
ATOM     45  C   UNL A   1      46.913  25.750  25.941  1.00  0.00     0.074 A 
ATOM     46  C   UNL A   1      44.516  25.639  26.519  1.00  0.00     0.049 A 
ATOM     47  N   UNL A   1      47.216  26.961  26.331  1.00  0.00    -0.248 NA
ATOM     48  C   UNL A   1      48.034  25.011  25.337  1.00  0.00     0.031 C 
ATOM     49  C   UNL A   1      43.178  25.057  26.617  1.00  0.00     0.029 A 
ATOM     50  N   UNL A   1      44.374  26.901  27.040  1.00  0.00    -0.354 N 
ATOM     51  C   UNL A   1      48.563  27.126  26.032  1.00  0.00     0.074 A 
ATOM     52  C   UNL A   1      49.025  25.882  25.456  1.00  0.00     0.031 C 
ATOM     53  C   UNL A   1      42.351  25.961  27.171  1.00  0.00     0.029 A 
ATOM     54  C   UNL A   1      43.108  27.168  27.500  1.00  0.00     0.049 A 
ATOM     55  H   UNL A   1      45.110  27.554  27.079  1.00  0.00     0.167 HD
ATOM     56  C   UNL A   1      49.345  28.215  26.216  1.00  0.00     0.031 A 
ATOM     57  C   UNL A   1      42.623  28.251  28.137  1.00  0.00     0.031 A 
ATOM     58  C   UNL A   1      48.891  29.446  26.807  1.00  0.00     0.049 A 
ATOM     59  C   UNL A   1      43.532  29.423  28.404  1.00  0.00     0.074 A 
ATOM     60  C   UNL A   1      49.601  30.615  27.016  1.00  0.00     0.029 A 
ATOM     61  N   UNL A   1      47.613  29.661  27.298  1.00  0.00    -0.354 N 
ATOM     62  N   UNL A   1      44.794  29.582  28.084  1.00  0.00    -0.248 NA
ATOM     63  C   UNL A   1      42.946  30.568  29.116  1.00  0.00     0.031 C 
ATOM     64  C   UNL A   1      48.774  31.512  27.699  1.00  0.00     0.029 A 
ATOM     65  C   UNL A   1      47.525  30.930  27.845  1.00  0.00     0.049 A 
ATOM     66  H   UNL A   1      46.877  29.007  27.263  1.00  0.00     0.167 HD
ATOM     67  C   UNL A   1      45.144  30.853  28.527  1.00  0.00     0.074 A 
ATOM     68  C   UNL A   1      43.955  31.427  29.122  1.00  0.00     0.031 C 
ATOM     69  C   UNL A   1      46.339  31.488  28.445  1.00  0.00     0.031 A 
BRANCH  56  70
ATOM     70  C   UNL A   1      50.792  28.102  25.817  1.00  0.00    -0.014 A 
ATOM     71  C   UNL A   1      51.222  28.401  24.514  1.00  0.00     0.009 A 
ATOM     72  C   UNL A   1      51.744  27.710  26.771  1.00  0.00     0.009 A 
ATOM     73  C   UNL A   1      52.569  28.271  24.166  1.00  0.00     0.001 A 
ATOM     74  C   UNL A   1      53.094  27.612  26.430  1.00  0.00     0.001 A 
ATOM     75  C   UNL A   1      53.504  27.882  25.125  1.00  0.00     0.000 A 
ENDBRANCH  56  70
BRANCH  57  76
ATOM     76  C   UNL A   1      41.205  28.275  28.590  1.00  0.00    -0.014 A 
ATOM     77  C   UNL A   1      40.187  28.741  27.745  1.00  0.00     0.009 A 
ATOM     78  C   UNL A   1      40.867  27.844  29.883  1.00  0.00     0.009 A 
ATOM     79  C   UNL A   1      38.865  28.796  28.194  1.00  0.00     0.001 A 
ATOM     80  C   UNL A   1      39.541  27.869  30.317  1.00  0.00     0.001 A 
ATOM     81  C   UNL A   1      38.542  28.353  29.476  1.00  0.00     0.000 A 
ENDBRANCH  57  76
BRANCH  69  82
ATOM     82  C   UNL A   1      46.415  32.893  28.980  1.00  0.00    -0.014 A 
ATOM     83  C   UNL A   1      47.240  33.220  30.068  1.00  0.00     0.009 A 
ATOM     84  C   UNL A   1      45.680  33.913  28.357  1.00  0.00     0.009 A 
ATOM     85  C   UNL A   1      47.296  34.533  30.542  1.00  0.00     0.001 A 
ATOM     86  C   UNL A   1      45.765  35.231  28.810  1.00  0.00     0.001 A 
ATOM     87  C   UNL A   1      46.564  35.537  29.910  1.00  0.00     0.000 A 
ENDBRANCH  69  82
ENDBRANCH  43  44
ENDBRANCH  36  38
ENDBRANCH  35  36
ENDBRANCH  34  35
ENDBRANCH  33  34
ENDBRANCH  32  33
ENDBRANCH  31  32
ENDBRANCH  30  31
ENDBRANCH  29  30
ENDBRANCH   1  29
TORSDOF 24
ENDMDL
