MODEL 1
REMARK VINA RESULT:      -9.2      0.000      0.000
REMARK SMILES O=C(OCCOCCOCCOCCOC(=O)c1nn(-c2ccc(Br)cc2F)cc1CCCO)c1ccc(-c2c3nc(c(-c4ccccc4)c4ccc([nH]4)c(-c4ccccc4)c4nc(c(-c5ccccc5)c5ccc2[nH]5)C=C4)C=C3)cc1
REMARK SMILES IDX 10 1 9 2 8 3 7 4 6 5 5 6 4 7 3 8 2 9 1 10 35 11 36 12 82 13
REMARK SMILES IDX 37 14 81 15 38 16 39 17 40 18 75 19 41 20 80 21 74 22 76 23
REMARK SMILES IDX 42 24 79 25 73 26 72 27 43 29 65 30 50 31 64 32 51 33 54 34
REMARK SMILES IDX 63 35 77 36 52 37 53 38 62 40 78 41 55 42 44 43 45 44 49 45
REMARK SMILES IDX 46 46 48 47 47 48 66 49 67 50 71 51 68 52 70 53 69 54 56 55
REMARK SMILES IDX 57 56 61 57 58 58 60 59 59 60 11 61 12 62 13 63 14 64 15 65
REMARK SMILES IDX 16 66 17 67 18 68 19 69 30 70 20 71 29 72 31 73 32 74 33 75
REMARK SMILES IDX 34 76 21 78 22 79 27 80 23 81 26 82 28 83 24 84 25 85
REMARK H PARENT 76 28 54 39 34 77
REMARK Flexibility Score: inf
ROOT
ATOM      1  C   UNL A   1      35.583  23.982  24.951  1.00  0.00     0.188 C 
ENDROOT
BRANCH   1   2
ATOM      2  O   UNL A   1      35.149  25.295  24.652  1.00  0.00    -0.377 OA
BRANCH   2   3
ATOM      3  C   UNL A   1      33.889  25.753  25.081  1.00  0.00     0.188 C 
BRANCH   3   4
ATOM      4  C   UNL A   1      33.778  26.914  26.097  1.00  0.00     0.188 C 
BRANCH   4   5
ATOM      5  O   UNL A   1      32.631  27.382  26.801  1.00  0.00    -0.376 OA
BRANCH   5   6
ATOM      6  C   UNL A   1      32.521  28.579  27.545  1.00  0.00     0.202 C 
BRANCH   6   7
ATOM      7  C   UNL A   1      32.448  29.907  26.807  1.00  0.00     0.261 C 
BRANCH   7   8
ATOM      8  O   UNL A   1      33.727  30.509  26.633  1.00  0.00    -0.460 OA
BRANCH   8   9
ATOM      9  C   UNL A   1      34.427  31.274  27.491  1.00  0.00     0.338 C 
ATOM     10  O   UNL A   1      34.020  32.418  27.701  1.00  0.00    -0.246 OA
BRANCH   9  11
ATOM     11  C   UNL A   1      35.669  30.852  28.211  1.00  0.00     0.060 A 
ATOM     12  C   UNL A   1      36.587  31.669  28.875  1.00  0.00     0.016 A 
ATOM     13  C   UNL A   1      35.913  29.464  28.195  1.00  0.00     0.016 A 
ATOM     14  C   UNL A   1      37.806  31.163  29.298  1.00  0.00     0.010 A 
ATOM     15  C   UNL A   1      37.106  28.940  28.664  1.00  0.00     0.010 A 
ATOM     16  C   UNL A   1      38.084  29.812  29.120  1.00  0.00    -0.014 A 
BRANCH  16  17
ATOM     17  C   UNL A   1      39.434  29.366  29.408  1.00  0.00     0.031 A 
ATOM     18  C   UNL A   1      39.779  29.205  30.840  1.00  0.00     0.074 A 
ATOM     19  C   UNL A   1      40.301  29.077  28.420  1.00  0.00     0.049 A 
ATOM     20  N   UNL A   1      40.703  29.813  31.508  1.00  0.00    -0.248 NA
ATOM     21  C   UNL A   1      38.936  28.312  31.648  1.00  0.00     0.031 C 
ATOM     22  C   UNL A   1      40.021  28.954  26.985  1.00  0.00     0.029 A 
ATOM     23  N   UNL A   1      41.609  28.717  28.514  1.00  0.00    -0.354 N 
ATOM     24  C   UNL A   1      40.678  29.261  32.787  1.00  0.00     0.074 A 
ATOM     25  C   UNL A   1      39.499  28.434  32.849  1.00  0.00     0.031 C 
ATOM     26  C   UNL A   1      41.049  28.314  26.390  1.00  0.00     0.029 A 
ATOM     27  C   UNL A   1      42.106  28.117  27.368  1.00  0.00     0.049 A 
ATOM     28  H   UNL A   1      42.153  28.868  29.321  1.00  0.00     0.167 HD
ATOM     29  C   UNL A   1      41.743  29.350  33.629  1.00  0.00     0.031 A 
ATOM     30  C   UNL A   1      43.271  27.440  27.249  1.00  0.00     0.031 A 
ATOM     31  C   UNL A   1      42.642  30.411  33.258  1.00  0.00     0.049 A 
ATOM     32  C   UNL A   1      44.144  27.833  28.377  1.00  0.00     0.074 A 
ATOM     33  C   UNL A   1      42.530  31.780  33.125  1.00  0.00     0.029 A 
ATOM     34  N   UNL A   1      43.808  30.064  32.621  1.00  0.00    -0.354 N 
ATOM     35  N   UNL A   1      44.690  29.009  28.492  1.00  0.00    -0.248 NA
ATOM     36  C   UNL A   1      44.093  27.049  29.601  1.00  0.00     0.031 C 
ATOM     37  C   UNL A   1      43.371  32.114  32.024  1.00  0.00     0.029 A 
ATOM     38  C   UNL A   1      43.981  30.939  31.582  1.00  0.00     0.049 A 
ATOM     39  H   UNL A   1      44.409  29.324  32.867  1.00  0.00     0.167 HD
ATOM     40  C   UNL A   1      44.649  29.286  29.850  1.00  0.00     0.074 A 
ATOM     41  C   UNL A   1      44.389  28.000  30.490  1.00  0.00     0.031 C 
ATOM     42  C   UNL A   1      44.546  30.571  30.302  1.00  0.00     0.031 A 
BRANCH  29  43
ATOM     43  C   UNL A   1      42.166  28.222  34.537  1.00  0.00    -0.014 A 
ATOM     44  C   UNL A   1      42.698  27.051  33.964  1.00  0.00     0.009 A 
ATOM     45  C   UNL A   1      41.792  28.147  35.892  1.00  0.00     0.009 A 
ATOM     46  C   UNL A   1      42.768  25.853  34.686  1.00  0.00     0.001 A 
ATOM     47  C   UNL A   1      41.902  26.965  36.629  1.00  0.00     0.001 A 
ATOM     48  C   UNL A   1      42.361  25.809  36.016  1.00  0.00     0.000 A 
ENDBRANCH  29  43
BRANCH  30  49
ATOM     49  C   UNL A   1      43.575  26.295  26.370  1.00  0.00    -0.014 A 
ATOM     50  C   UNL A   1      44.753  26.269  25.609  1.00  0.00     0.009 A 
ATOM     51  C   UNL A   1      42.831  25.104  26.470  1.00  0.00     0.009 A 
ATOM     52  C   UNL A   1      45.189  25.085  25.002  1.00  0.00     0.001 A 
ATOM     53  C   UNL A   1      43.261  23.924  25.857  1.00  0.00     0.001 A 
ATOM     54  C   UNL A   1      44.450  23.911  25.137  1.00  0.00     0.000 A 
ENDBRANCH  30  49
BRANCH  42  55
ATOM     55  C   UNL A   1      44.753  31.692  29.313  1.00  0.00    -0.014 A 
ATOM     56  C   UNL A   1      43.735  32.159  28.464  1.00  0.00     0.009 A 
ATOM     57  C   UNL A   1      45.966  32.396  29.346  1.00  0.00     0.009 A 
ATOM     58  C   UNL A   1      43.941  33.274  27.643  1.00  0.00     0.001 A 
ATOM     59  C   UNL A   1      46.163  33.523  28.545  1.00  0.00     0.001 A 
ATOM     60  C   UNL A   1      45.154  33.958  27.689  1.00  0.00     0.000 A 
ENDBRANCH  42  55
ENDBRANCH  16  17
ENDBRANCH   9  11
ENDBRANCH   8   9
ENDBRANCH   7   8
ENDBRANCH   6   7
ENDBRANCH   5   6
ENDBRANCH   4   5
ENDBRANCH   3   4
ENDBRANCH   2   3
ENDBRANCH   1   2
BRANCH   1  61
ATOM     61  C   UNL A   1      35.412  23.435  26.372  1.00  0.00     0.188 C 
BRANCH  61  62
ATOM     62  O   UNL A   1      34.722  22.194  26.409  1.00  0.00    -0.376 OA
BRANCH  62  63
ATOM     63  C   UNL A   1      34.062  21.891  27.629  1.00  0.00     0.202 C 
BRANCH  63  64
ATOM     64  C   UNL A   1      32.540  22.017  27.532  1.00  0.00     0.261 C 
BRANCH  64  65
ATOM     65  O   UNL A   1      32.055  23.327  27.188  1.00  0.00    -0.458 OA
BRANCH  65  66
ATOM     66  C   UNL A   1      30.744  23.491  26.812  1.00  0.00     0.359 C 
ATOM     67  O   UNL A   1      29.788  23.175  27.475  1.00  0.00    -0.244 OA
BRANCH  66  68
ATOM     68  C   UNL A   1      30.690  24.204  25.522  1.00  0.00     0.173 A 
ATOM     69  N   UNL A   1      30.295  25.486  25.526  1.00  0.00    -0.160 NA
ATOM     70  C   UNL A   1      30.934  23.746  24.183  1.00  0.00     0.006 A 
ATOM     71  N   UNL A   1      30.135  25.822  24.232  1.00  0.00    -0.237 N 
ATOM     72  C   UNL A   1      30.454  24.782  23.400  1.00  0.00     0.119 A 
BRANCH  70  73
ATOM     73  C   UNL A   1      31.471  22.464  23.611  1.00  0.00     0.042 C 
BRANCH  73  74
ATOM     74  C   UNL A   1      32.944  22.494  23.194  1.00  0.00     0.033 C 
BRANCH  74  75
ATOM     75  C   UNL A   1      33.269  23.589  22.187  1.00  0.00     0.156 C 
BRANCH  75  76
ATOM     76  O   UNL A   1      33.097  23.080  20.869  1.00  0.00    -0.396 OA
ATOM     77  H   UNL A   1      32.667  22.210  20.912  1.00  0.00     0.210 HD
ENDBRANCH  75  76
ENDBRANCH  74  75
ENDBRANCH  73  74
ENDBRANCH  70  73
BRANCH  71  78
ATOM     78  C   UNL A   1      29.764  27.136  23.884  1.00  0.00     0.100 A 
ATOM     79  C   UNL A   1      30.754  28.132  23.876  1.00  0.00     0.032 A 
ATOM     80  C   UNL A   1      28.459  27.455  23.515  1.00  0.00     0.149 A 
ATOM     81  C   UNL A   1      30.440  29.421  23.447  1.00  0.00     0.018 A 
ATOM     82  C   UNL A   1      28.133  28.752  23.126  1.00  0.00     0.057 A 
ATOM     83  F   UNL A   1      27.473  26.548  23.576  1.00  0.00    -0.205 F 
ATOM     84  C   UNL A   1      29.131  29.724  23.076  1.00  0.00     0.021 A 
ATOM     85  Br  UNL A   1      28.710  31.472  22.495  1.00  0.00    -0.051 Br
ENDBRANCH  71  78
ENDBRANCH  66  68
ENDBRANCH  65  66
ENDBRANCH  64  65
ENDBRANCH  63  64
ENDBRANCH  62  63
ENDBRANCH  61  62
ENDBRANCH   1  61
TORSDOF 25
ENDMDL
MODEL 2
REMARK VINA RESULT:      -8.9      2.052      5.727
REMARK SMILES O=C(OCCOCCOCCOCCOC(=O)c1nn(-c2ccc(Br)cc2F)cc1CCCO)c1ccc(-c2c3nc(c(-c4ccccc4)c4ccc([nH]4)c(-c4ccccc4)c4nc(c(-c5ccccc5)c5ccc2[nH]5)C=C4)C=C3)cc1
REMARK SMILES IDX 10 1 9 2 8 3 7 4 6 5 5 6 4 7 3 8 2 9 1 10 35 11 36 12 82 13
REMARK SMILES IDX 37 14 81 15 38 16 39 17 40 18 75 19 41 20 80 21 74 22 76 23
REMARK SMILES IDX 42 24 79 25 73 26 72 27 43 29 65 30 50 31 64 32 51 33 54 34
REMARK SMILES IDX 63 35 77 36 52 37 53 38 62 40 78 41 55 42 44 43 45 44 49 45
REMARK SMILES IDX 46 46 48 47 47 48 66 49 67 50 71 51 68 52 70 53 69 54 56 55
REMARK SMILES IDX 57 56 61 57 58 58 60 59 59 60 11 61 12 62 13 63 14 64 15 65
REMARK SMILES IDX 16 66 17 67 18 68 19 69 30 70 20 71 29 72 31 73 32 74 33 75
REMARK SMILES IDX 34 76 21 78 22 79 27 80 23 81 26 82 28 83 24 84 25 85
REMARK H PARENT 76 28 54 39 34 77
REMARK Flexibility Score: inf
ROOT
ATOM      1  C   UNL A   1      35.023  24.347  24.383  1.00  0.00     0.188 C 
ENDROOT
BRANCH   1   2
ATOM      2  O   UNL A   1      34.370  25.601  24.340  1.00  0.00    -0.377 OA
BRANCH   2   3
ATOM      3  C   UNL A   1      34.022  26.274  25.525  1.00  0.00     0.188 C 
BRANCH   3   4
ATOM      4  C   UNL A   1      33.369  27.675  25.473  1.00  0.00     0.188 C 
BRANCH   4   5
ATOM      5  O   UNL A   1      33.923  28.936  25.839  1.00  0.00    -0.376 OA
BRANCH   5   6
ATOM      6  C   UNL A   1      33.290  29.959  26.581  1.00  0.00     0.202 C 
BRANCH   6   7
ATOM      7  C   UNL A   1      34.069  30.672  27.677  1.00  0.00     0.261 C 
BRANCH   7   8
ATOM      8  O   UNL A   1      35.223  29.946  28.089  1.00  0.00    -0.460 OA
BRANCH   8   9
ATOM      9  C   UNL A   1      36.493  30.372  28.211  1.00  0.00     0.338 C 
ATOM     10  O   UNL A   1      36.679  31.574  28.405  1.00  0.00    -0.246 OA
BRANCH   9  11
ATOM     11  C   UNL A   1      37.709  29.502  28.125  1.00  0.00     0.060 A 
ATOM     12  C   UNL A   1      38.108  28.507  29.021  1.00  0.00     0.016 A 
ATOM     13  C   UNL A   1      38.526  29.744  27.003  1.00  0.00     0.016 A 
ATOM     14  C   UNL A   1      39.371  27.944  28.935  1.00  0.00     0.010 A 
ATOM     15  C   UNL A   1      39.769  29.147  26.878  1.00  0.00     0.010 A 
ATOM     16  C   UNL A   1      40.220  28.326  27.902  1.00  0.00    -0.014 A 
BRANCH  16  17
ATOM     17  C   UNL A   1      41.590  27.852  27.955  1.00  0.00     0.031 A 
ATOM     18  C   UNL A   1      41.858  26.547  27.305  1.00  0.00     0.074 A 
ATOM     19  C   UNL A   1      42.562  28.585  28.530  1.00  0.00     0.049 A 
ATOM     20  N   UNL A   1      42.316  25.467  27.849  1.00  0.00    -0.248 NA
ATOM     21  C   UNL A   1      41.493  26.405  25.889  1.00  0.00     0.031 C 
ATOM     22  C   UNL A   1      42.489  29.978  28.981  1.00  0.00     0.029 A 
ATOM     23  N   UNL A   1      43.869  28.262  28.724  1.00  0.00    -0.354 N 
ATOM     24  C   UNL A   1      42.462  24.549  26.812  1.00  0.00     0.074 A 
ATOM     25  C   UNL A   1      41.831  25.137  25.656  1.00  0.00     0.031 C 
ATOM     26  C   UNL A   1      43.742  30.449  29.160  1.00  0.00     0.029 A 
ATOM     27  C   UNL A   1      44.682  29.356  28.976  1.00  0.00     0.049 A 
ATOM     28  H   UNL A   1      44.207  27.338  28.689  1.00  0.00     0.167 HD
ATOM     29  C   UNL A   1      43.281  23.468  26.920  1.00  0.00     0.031 A 
ATOM     30  C   UNL A   1      46.035  29.379  28.961  1.00  0.00     0.031 A 
ATOM     31  C   UNL A   1      43.578  23.147  28.290  1.00  0.00     0.049 A 
ATOM     32  C   UNL A   1      46.516  27.988  29.101  1.00  0.00     0.074 A 
ATOM     33  C   UNL A   1      42.827  22.789  29.392  1.00  0.00     0.029 A 
ATOM     34  N   UNL A   1      44.812  23.505  28.776  1.00  0.00    -0.354 N 
ATOM     35  N   UNL A   1      46.413  27.295  30.197  1.00  0.00    -0.248 NA
ATOM     36  C   UNL A   1      46.758  27.211  27.895  1.00  0.00     0.031 C 
ATOM     37  C   UNL A   1      43.483  23.398  30.501  1.00  0.00     0.029 A 
ATOM     38  C   UNL A   1      44.619  24.050  30.017  1.00  0.00     0.049 A 
ATOM     39  H   UNL A   1      45.675  23.390  28.317  1.00  0.00     0.167 HD
ATOM     40  C   UNL A   1      46.137  26.003  29.775  1.00  0.00     0.074 A 
ATOM     41  C   UNL A   1      46.485  25.988  28.356  1.00  0.00     0.031 C 
ATOM     42  C   UNL A   1      45.388  25.156  30.542  1.00  0.00     0.031 A 
BRANCH  29  43
ATOM     43  C   UNL A   1      44.126  22.963  25.777  1.00  0.00    -0.014 A 
ATOM     44  C   UNL A   1      44.152  21.581  25.510  1.00  0.00     0.009 A 
ATOM     45  C   UNL A   1      45.115  23.745  25.149  1.00  0.00     0.009 A 
ATOM     46  C   UNL A   1      45.165  21.008  24.730  1.00  0.00     0.001 A 
ATOM     47  C   UNL A   1      46.100  23.182  24.334  1.00  0.00     0.001 A 
ATOM     48  C   UNL A   1      46.144  21.809  24.150  1.00  0.00     0.000 A 
ENDBRANCH  29  43
BRANCH  30  49
ATOM     49  C   UNL A   1      46.923  30.494  28.581  1.00  0.00    -0.014 A 
ATOM     50  C   UNL A   1      46.916  31.001  27.272  1.00  0.00     0.009 A 
ATOM     51  C   UNL A   1      47.597  31.236  29.569  1.00  0.00     0.009 A 
ATOM     52  C   UNL A   1      47.530  32.224  26.974  1.00  0.00     0.001 A 
ATOM     53  C   UNL A   1      48.218  32.452  29.270  1.00  0.00     0.001 A 
ATOM     54  C   UNL A   1      48.169  32.953  27.974  1.00  0.00     0.000 A 
ENDBRANCH  30  49
BRANCH  42  55
ATOM     55  C   UNL A   1      45.102  25.556  31.969  1.00  0.00    -0.014 A 
ATOM     56  C   UNL A   1      45.761  24.982  33.070  1.00  0.00     0.009 A 
ATOM     57  C   UNL A   1      44.251  26.648  32.199  1.00  0.00     0.009 A 
ATOM     58  C   UNL A   1      45.544  25.463  34.366  1.00  0.00     0.001 A 
ATOM     59  C   UNL A   1      44.053  27.143  33.489  1.00  0.00     0.001 A 
ATOM     60  C   UNL A   1      44.693  26.547  34.573  1.00  0.00     0.000 A 
ENDBRANCH  42  55
ENDBRANCH  16  17
ENDBRANCH   9  11
ENDBRANCH   8   9
ENDBRANCH   7   8
ENDBRANCH   6   7
ENDBRANCH   5   6
ENDBRANCH   4   5
ENDBRANCH   3   4
ENDBRANCH   2   3
ENDBRANCH   1   2
BRANCH   1  61
ATOM     61  C   UNL A   1      35.887  23.986  25.596  1.00  0.00     0.188 C 
BRANCH  61  62
ATOM     62  O   UNL A   1      35.295  22.995  26.424  1.00  0.00    -0.376 OA
BRANCH  62  63
ATOM     63  C   UNL A   1      34.187  23.424  27.201  1.00  0.00     0.202 C 
BRANCH  63  64
ATOM     64  C   UNL A   1      33.009  22.448  27.150  1.00  0.00     0.261 C 
BRANCH  64  65
ATOM     65  O   UNL A   1      31.709  23.060  27.074  1.00  0.00    -0.458 OA
BRANCH  65  66
ATOM     66  C   UNL A   1      30.851  22.714  26.060  1.00  0.00     0.359 C 
ATOM     67  O   UNL A   1      29.991  21.872  26.137  1.00  0.00    -0.244 OA
BRANCH  66  68
ATOM     68  C   UNL A   1      31.077  23.600  24.903  1.00  0.00     0.173 A 
ATOM     69  N   UNL A   1      30.505  24.814  24.917  1.00  0.00    -0.160 NA
ATOM     70  C   UNL A   1      31.780  23.377  23.671  1.00  0.00     0.006 A 
ATOM     71  N   UNL A   1      30.691  25.318  23.682  1.00  0.00    -0.237 N 
ATOM     72  C   UNL A   1      31.402  24.457  22.890  1.00  0.00     0.119 A 
BRANCH  70  73
ATOM     73  C   UNL A   1      32.656  22.265  23.167  1.00  0.00     0.042 C 
BRANCH  73  74
ATOM     74  C   UNL A   1      31.995  20.886  23.093  1.00  0.00     0.033 C 
BRANCH  74  75
ATOM     75  C   UNL A   1      32.485  19.919  24.164  1.00  0.00     0.156 C 
BRANCH  75  76
ATOM     76  O   UNL A   1      32.498  18.599  23.632  1.00  0.00    -0.396 OA
ATOM     77  H   UNL A   1      32.050  17.998  24.248  1.00  0.00     0.210 HD
ENDBRANCH  75  76
ENDBRANCH  74  75
ENDBRANCH  73  74
ENDBRANCH  70  73
BRANCH  71  78
ATOM     78  C   UNL A   1      30.242  26.618  23.375  1.00  0.00     0.100 A 
ATOM     79  C   UNL A   1      31.138  27.507  22.760  1.00  0.00     0.032 A 
ATOM     80  C   UNL A   1      28.933  27.021  23.632  1.00  0.00     0.149 A 
ATOM     81  C   UNL A   1      30.699  28.769  22.359  1.00  0.00     0.018 A 
ATOM     82  C   UNL A   1      28.504  28.295  23.270  1.00  0.00     0.057 A 
ATOM     83  F   UNL A   1      28.070  26.224  24.279  1.00  0.00    -0.205 F 
ATOM     84  C   UNL A   1      29.385  29.157  22.618  1.00  0.00     0.021 A 
ATOM     85  Br  UNL A   1      28.795  30.866  22.072  1.00  0.00    -0.051 Br
ENDBRANCH  71  78
ENDBRANCH  66  68
ENDBRANCH  65  66
ENDBRANCH  64  65
ENDBRANCH  63  64
ENDBRANCH  62  63
ENDBRANCH  61  62
ENDBRANCH   1  61
TORSDOF 25
ENDMDL
MODEL 3
REMARK VINA RESULT:      -8.9      3.103      5.503
REMARK SMILES O=C(OCCOCCOCCOCCOC(=O)c1nn(-c2ccc(Br)cc2F)cc1CCCO)c1ccc(-c2c3nc(c(-c4ccccc4)c4ccc([nH]4)c(-c4ccccc4)c4nc(c(-c5ccccc5)c5ccc2[nH]5)C=C4)C=C3)cc1
REMARK SMILES IDX 10 1 9 2 8 3 7 4 6 5 5 6 4 7 3 8 2 9 1 10 35 11 36 12 82 13
REMARK SMILES IDX 37 14 81 15 38 16 39 17 40 18 75 19 41 20 80 21 74 22 76 23
REMARK SMILES IDX 42 24 79 25 73 26 72 27 43 29 65 30 50 31 64 32 51 33 54 34
REMARK SMILES IDX 63 35 77 36 52 37 53 38 62 40 78 41 55 42 44 43 45 44 49 45
REMARK SMILES IDX 46 46 48 47 47 48 66 49 67 50 71 51 68 52 70 53 69 54 56 55
REMARK SMILES IDX 57 56 61 57 58 58 60 59 59 60 11 61 12 62 13 63 14 64 15 65
REMARK SMILES IDX 16 66 17 67 18 68 19 69 30 70 20 71 29 72 31 73 32 74 33 75
REMARK SMILES IDX 34 76 21 78 22 79 27 80 23 81 26 82 28 83 24 84 25 85
REMARK H PARENT 76 28 54 39 34 77
REMARK Flexibility Score: inf
ROOT
ATOM      1  C   UNL A   1      33.565  33.616  28.198  1.00  0.00     0.188 C 
ENDROOT
BRANCH   1   2
ATOM      2  O   UNL A   1      34.160  34.759  28.781  1.00  0.00    -0.377 OA
BRANCH   2   3
ATOM      3  C   UNL A   1      33.367  35.780  29.336  1.00  0.00     0.188 C 
BRANCH   3   4
ATOM      4  C   UNL A   1      33.217  35.915  30.871  1.00  0.00     0.188 C 
BRANCH   4   5
ATOM      5  O   UNL A   1      33.753  35.087  31.899  1.00  0.00    -0.376 OA
BRANCH   5   6
ATOM      6  C   UNL A   1      34.985  35.256  32.569  1.00  0.00     0.202 C 
BRANCH   6   7
ATOM      7  C   UNL A   1      36.250  34.672  31.956  1.00  0.00     0.261 C 
BRANCH   7   8
ATOM      8  O   UNL A   1      35.986  33.546  31.125  1.00  0.00    -0.460 OA
BRANCH   8   9
ATOM      9  C   UNL A   1      35.995  32.238  31.441  1.00  0.00     0.338 C 
ATOM     10  O   UNL A   1      35.091  31.817  32.165  1.00  0.00    -0.246 OA
BRANCH   9  11
ATOM     11  C   UNL A   1      37.021  31.246  30.988  1.00  0.00     0.060 A 
ATOM     12  C   UNL A   1      36.816  29.908  30.644  1.00  0.00     0.016 A 
ATOM     13  C   UNL A   1      38.334  31.751  30.915  1.00  0.00     0.016 A 
ATOM     14  C   UNL A   1      37.891  29.052  30.465  1.00  0.00     0.010 A 
ATOM     15  C   UNL A   1      39.413  30.915  30.684  1.00  0.00     0.010 A 
ATOM     16  C   UNL A   1      39.185  29.552  30.561  1.00  0.00    -0.014 A 
BRANCH  16  17
ATOM     17  C   UNL A   1      40.273  28.592  30.548  1.00  0.00     0.031 A 
ATOM     18  C   UNL A   1      40.965  28.368  31.839  1.00  0.00     0.074 A 
ATOM     19  C   UNL A   1      40.598  27.919  29.428  1.00  0.00     0.049 A 
ATOM     20  N   UNL A   1      42.213  28.561  32.116  1.00  0.00    -0.248 NA
ATOM     21  C   UNL A   1      40.147  27.954  32.987  1.00  0.00     0.031 C 
ATOM     22  C   UNL A   1      39.852  27.858  28.167  1.00  0.00     0.029 A 
ATOM     23  N   UNL A   1      41.621  27.045  29.227  1.00  0.00    -0.354 N 
ATOM     24  C   UNL A   1      42.384  28.132  33.429  1.00  0.00     0.074 A 
ATOM     25  C   UNL A   1      41.063  27.883  33.952  1.00  0.00     0.031 C 
ATOM     26  C   UNL A   1      40.305  26.817  27.438  1.00  0.00     0.029 A 
ATOM     27  C   UNL A   1      41.455  26.239  28.113  1.00  0.00     0.049 A 
ATOM     28  H   UNL A   1      42.407  26.991  29.819  1.00  0.00     0.167 HD
ATOM     29  C   UNL A   1      43.609  27.804  33.924  1.00  0.00     0.031 A 
ATOM     30  C   UNL A   1      42.165  25.129  27.805  1.00  0.00     0.031 A 
ATOM     31  C   UNL A   1      44.678  28.368  33.145  1.00  0.00     0.049 A 
ATOM     32  C   UNL A   1      43.431  25.170  28.568  1.00  0.00     0.074 A 
ATOM     33  C   UNL A   1      45.068  29.649  32.810  1.00  0.00     0.029 A 
ATOM     34  N   UNL A   1      45.352  27.532  32.288  1.00  0.00    -0.354 N 
ATOM     35  N   UNL A   1      44.395  26.010  28.324  1.00  0.00    -0.248 NA
ATOM     36  C   UNL A   1      43.473  24.539  29.879  1.00  0.00     0.031 C 
ATOM     37  C   UNL A   1      45.576  29.545  31.482  1.00  0.00     0.029 A 
ATOM     38  C   UNL A   1      45.509  28.203  31.105  1.00  0.00     0.049 A 
ATOM     39  H   UNL A   1      45.664  26.621  32.488  1.00  0.00     0.167 HD
ATOM     40  C   UNL A   1      44.898  26.343  29.573  1.00  0.00     0.074 A 
ATOM     41  C   UNL A   1      44.379  25.318  30.474  1.00  0.00     0.031 C 
ATOM     42  C   UNL A   1      45.449  27.572  29.805  1.00  0.00     0.031 A 
BRANCH  29  43
ATOM     43  C   UNL A   1      43.828  26.646  34.867  1.00  0.00    -0.014 A 
ATOM     44  C   UNL A   1      44.590  26.854  36.033  1.00  0.00     0.009 A 
ATOM     45  C   UNL A   1      43.570  25.308  34.513  1.00  0.00     0.009 A 
ATOM     46  C   UNL A   1      45.134  25.781  36.748  1.00  0.00     0.001 A 
ATOM     47  C   UNL A   1      44.074  24.234  35.250  1.00  0.00     0.001 A 
ATOM     48  C   UNL A   1      44.884  24.471  36.351  1.00  0.00     0.000 A 
ENDBRANCH  29  43
BRANCH  30  49
ATOM     49  C   UNL A   1      41.706  23.923  27.090  1.00  0.00    -0.014 A 
ATOM     50  C   UNL A   1      42.582  23.201  26.267  1.00  0.00     0.009 A 
ATOM     51  C   UNL A   1      40.472  23.328  27.417  1.00  0.00     0.009 A 
ATOM     52  C   UNL A   1      42.251  21.916  25.819  1.00  0.00     0.001 A 
ATOM     53  C   UNL A   1      40.137  22.050  26.963  1.00  0.00     0.001 A 
ATOM     54  C   UNL A   1      41.036  21.337  26.177  1.00  0.00     0.000 A 
ENDBRANCH  30  49
BRANCH  42  55
ATOM     55  C   UNL A   1      45.747  28.453  28.616  1.00  0.00    -0.014 A 
ATOM     56  C   UNL A   1      46.978  28.431  27.938  1.00  0.00     0.009 A 
ATOM     57  C   UNL A   1      44.704  29.219  28.074  1.00  0.00     0.009 A 
ATOM     58  C   UNL A   1      47.170  29.183  26.774  1.00  0.00     0.001 A 
ATOM     59  C   UNL A   1      44.887  29.951  26.899  1.00  0.00     0.001 A 
ATOM     60  C   UNL A   1      46.121  29.939  26.253  1.00  0.00     0.000 A 
ENDBRANCH  42  55
ENDBRANCH  16  17
ENDBRANCH   9  11
ENDBRANCH   8   9
ENDBRANCH   7   8
ENDBRANCH   6   7
ENDBRANCH   5   6
ENDBRANCH   4   5
ENDBRANCH   3   4
ENDBRANCH   2   3
ENDBRANCH   1   2
BRANCH   1  61
ATOM     61  C   UNL A   1      34.333  32.291  28.177  1.00  0.00     0.188 C 
BRANCH  61  62
ATOM     62  O   UNL A   1      33.674  31.279  27.429  1.00  0.00    -0.376 OA
BRANCH  62  63
ATOM     63  C   UNL A   1      34.438  30.112  27.164  1.00  0.00     0.202 C 
BRANCH  63  64
ATOM     64  C   UNL A   1      33.670  29.068  26.350  1.00  0.00     0.261 C 
BRANCH  64  65
ATOM     65  O   UNL A   1      33.352  27.854  27.054  1.00  0.00    -0.458 OA
BRANCH  65  66
ATOM     66  C   UNL A   1      32.170  27.205  26.796  1.00  0.00     0.359 C 
ATOM     67  O   UNL A   1      31.095  27.520  27.243  1.00  0.00    -0.244 OA
BRANCH  66  68
ATOM     68  C   UNL A   1      32.404  26.135  25.809  1.00  0.00     0.173 A 
ATOM     69  N   UNL A   1      33.365  25.236  26.070  1.00  0.00    -0.160 NA
ATOM     70  C   UNL A   1      31.808  25.893  24.525  1.00  0.00     0.006 A 
ATOM     71  N   UNL A   1      33.508  24.518  24.940  1.00  0.00    -0.237 N 
ATOM     72  C   UNL A   1      32.629  24.924  23.971  1.00  0.00     0.119 A 
BRANCH  70  73
ATOM     73  C   UNL A   1      30.654  26.512  23.787  1.00  0.00     0.042 C 
BRANCH  73  74
ATOM     74  C   UNL A   1      31.011  27.684  22.869  1.00  0.00     0.033 C 
BRANCH  74  75
ATOM     75  C   UNL A   1      31.114  29.018  23.598  1.00  0.00     0.156 C 
BRANCH  75  76
ATOM     76  O   UNL A   1      29.830  29.629  23.640  1.00  0.00    -0.396 OA
ATOM     77  H   UNL A   1      29.556  29.744  24.564  1.00  0.00     0.210 HD
ENDBRANCH  75  76
ENDBRANCH  74  75
ENDBRANCH  73  74
ENDBRANCH  70  73
BRANCH  71  78
ATOM     78  C   UNL A   1      34.421  23.445  24.895  1.00  0.00     0.100 A 
ATOM     79  C   UNL A   1      35.460  23.490  23.952  1.00  0.00     0.032 A 
ATOM     80  C   UNL A   1      34.336  22.374  25.782  1.00  0.00     0.149 A 
ATOM     81  C   UNL A   1      36.434  22.491  23.943  1.00  0.00     0.018 A 
ATOM     82  C   UNL A   1      35.284  21.354  25.747  1.00  0.00     0.057 A 
ATOM     83  F   UNL A   1      33.320  22.263  26.650  1.00  0.00    -0.205 F 
ATOM     84  C   UNL A   1      36.339  21.428  24.839  1.00  0.00     0.021 A 
ATOM     85  Br  UNL A   1      37.660  20.077  24.824  1.00  0.00    -0.051 Br
ENDBRANCH  71  78
ENDBRANCH  66  68
ENDBRANCH  65  66
ENDBRANCH  64  65
ENDBRANCH  63  64
ENDBRANCH  62  63
ENDBRANCH  61  62
ENDBRANCH   1  61
TORSDOF 25
ENDMDL
