MODEL 1
REMARK VINA RESULT:      -9.6      0.000      0.000
REMARK SMILES O=C(OCCOCCOCCOCCOC(=O)c1ccc([C@@H]2CC(O)=Nc3c2ncn3-c2cccc(Cl)c2)cc1)c1ccc(-c2c3nc(c(-c4ccccc4)c4ccc([nH]4)c(-c4ccccc4)c4nc(c(-c5ccccc5)c5ccc2[nH]5)C=C4)C=C3)cc1
REMARK SMILES IDX 9 1 8 2 7 3 6 4 5 5 4 6 3 7 2 8 1 9 41 10 42 11 88 12 43 13
REMARK SMILES IDX 87 14 44 15 45 16 46 17 81 18 47 19 86 20 80 21 82 22 48 23
REMARK SMILES IDX 85 24 79 25 78 26 49 28 71 29 56 30 70 31 57 32 60 33 69 34
REMARK SMILES IDX 83 35 58 36 59 37 68 39 84 40 61 41 50 42 51 43 55 44 52 45
REMARK SMILES IDX 54 46 53 47 72 48 73 49 77 50 74 51 76 52 75 53 62 54 63 55
REMARK SMILES IDX 67 56 64 57 66 58 65 59 10 60 11 61 12 62 13 63 14 64 15 65
REMARK SMILES IDX 16 66 17 67 18 68 19 69 40 70 20 71 39 72 21 73 22 74 23 75
REMARK SMILES IDX 28 76 24 77 27 78 29 79 26 80 31 81 30 82 25 83 32 85 33 86
REMARK SMILES IDX 38 87 34 88 36 89 35 90 37 91
REMARK H PARENT 82 27 60 38 25 84
REMARK Flexibility Score: inf
ROOT
ATOM      1  O   UNL A   1      38.158  22.856  25.700  1.00  0.00    -0.377 OA
ENDROOT
BRANCH   1   2
ATOM      2  C   UNL A   1      39.121  21.910  26.127  1.00  0.00     0.188 C 
BRANCH   2   3
ATOM      3  C   UNL A   1      40.056  22.259  27.304  1.00  0.00     0.188 C 
BRANCH   3   4
ATOM      4  O   UNL A   1      41.320  21.687  27.610  1.00  0.00    -0.376 OA
BRANCH   4   5
ATOM      5  C   UNL A   1      42.288  21.107  26.764  1.00  0.00     0.202 C 
BRANCH   5   6
ATOM      6  C   UNL A   1      43.162  21.895  25.799  1.00  0.00     0.261 C 
BRANCH   6   7
ATOM      7  O   UNL A   1      43.455  23.225  26.192  1.00  0.00    -0.460 OA
BRANCH   7   8
ATOM      8  C   UNL A   1      42.829  24.355  25.818  1.00  0.00     0.338 C 
ATOM      9  O   UNL A   1      42.849  24.657  24.625  1.00  0.00    -0.246 OA
BRANCH   8  10
ATOM     10  C   UNL A   1      42.196  25.326  26.758  1.00  0.00     0.060 A 
ATOM     11  C   UNL A   1      41.278  26.330  26.444  1.00  0.00     0.016 A 
ATOM     12  C   UNL A   1      42.641  25.212  28.091  1.00  0.00     0.016 A 
ATOM     13  C   UNL A   1      40.987  27.314  27.372  1.00  0.00     0.010 A 
ATOM     14  C   UNL A   1      42.328  26.173  29.033  1.00  0.00     0.010 A 
ATOM     15  C   UNL A   1      41.592  27.273  28.627  1.00  0.00    -0.014 A 
BRANCH  15  16
ATOM     16  C   UNL A   1      41.457  28.448  29.464  1.00  0.00     0.031 A 
ATOM     17  C   UNL A   1      42.519  29.468  29.293  1.00  0.00     0.074 A 
ATOM     18  C   UNL A   1      40.450  28.569  30.348  1.00  0.00     0.049 A 
ATOM     19  N   UNL A   1      43.425  29.811  30.147  1.00  0.00    -0.248 NA
ATOM     20  C   UNL A   1      42.667  30.084  27.967  1.00  0.00     0.031 C 
ATOM     21  C   UNL A   1      39.231  27.763  30.473  1.00  0.00     0.029 A 
ATOM     22  N   UNL A   1      40.276  29.527  31.295  1.00  0.00    -0.354 N 
ATOM     23  C   UNL A   1      44.170  30.811  29.531  1.00  0.00     0.074 A 
ATOM     24  C   UNL A   1      43.742  30.853  28.155  1.00  0.00     0.031 C 
ATOM     25  C   UNL A   1      38.345  28.414  31.262  1.00  0.00     0.029 A 
ATOM     26  C   UNL A   1      38.995  29.587  31.821  1.00  0.00     0.049 A 
ATOM     27  H   UNL A   1      41.000  30.129  31.584  1.00  0.00     0.167 HD
ATOM     28  C   UNL A   1      44.940  31.673  30.249  1.00  0.00     0.031 A 
ATOM     29  C   UNL A   1      38.500  30.569  32.613  1.00  0.00     0.031 A 
ATOM     30  C   UNL A   1      45.233  31.171  31.564  1.00  0.00     0.049 A 
ATOM     31  C   UNL A   1      39.652  31.273  33.221  1.00  0.00     0.074 A 
ATOM     32  C   UNL A   1      45.918  30.074  32.047  1.00  0.00     0.029 A 
ATOM     33  N   UNL A   1      44.458  31.621  32.606  1.00  0.00    -0.354 N 
ATOM     34  N   UNL A   1      40.442  30.719  34.095  1.00  0.00    -0.248 NA
ATOM     35  C   UNL A   1      40.207  32.417  32.513  1.00  0.00     0.031 C 
ATOM     36  C   UNL A   1      45.151  29.629  33.163  1.00  0.00     0.029 A 
ATOM     37  C   UNL A   1      44.092  30.522  33.341  1.00  0.00     0.049 A 
ATOM     38  H   UNL A   1      44.212  32.555  32.790  1.00  0.00     0.167 HD
ATOM     39  C   UNL A   1      41.715  31.145  33.743  1.00  0.00     0.074 A 
ATOM     40  C   UNL A   1      41.498  32.258  32.819  1.00  0.00     0.031 C 
ATOM     41  C   UNL A   1      42.816  30.382  34.008  1.00  0.00     0.031 A 
BRANCH  28  42
ATOM     42  C   UNL A   1      45.093  33.125  29.884  1.00  0.00    -0.014 A 
ATOM     43  C   UNL A   1      43.946  33.928  29.772  1.00  0.00     0.009 A 
ATOM     44  C   UNL A   1      46.294  33.655  29.373  1.00  0.00     0.009 A 
ATOM     45  C   UNL A   1      43.992  35.170  29.125  1.00  0.00     0.001 A 
ATOM     46  C   UNL A   1      46.350  34.909  28.762  1.00  0.00     0.001 A 
ATOM     47  C   UNL A   1      45.192  35.656  28.614  1.00  0.00     0.000 A 
ENDBRANCH  28  42
BRANCH  29  48
ATOM     48  C   UNL A   1      37.138  31.143  32.595  1.00  0.00    -0.014 A 
ATOM     49  C   UNL A   1      36.688  31.966  33.639  1.00  0.00     0.009 A 
ATOM     50  C   UNL A   1      36.378  31.112  31.411  1.00  0.00     0.009 A 
ATOM     51  C   UNL A   1      35.540  32.756  33.487  1.00  0.00     0.001 A 
ATOM     52  C   UNL A   1      35.233  31.900  31.259  1.00  0.00     0.001 A 
ATOM     53  C   UNL A   1      34.822  32.735  32.293  1.00  0.00     0.000 A 
ENDBRANCH  29  48
BRANCH  41  54
ATOM     54  C   UNL A   1      42.635  29.151  34.862  1.00  0.00    -0.014 A 
ATOM     55  C   UNL A   1      41.926  28.013  34.432  1.00  0.00     0.009 A 
ATOM     56  C   UNL A   1      43.334  29.074  36.076  1.00  0.00     0.009 A 
ATOM     57  C   UNL A   1      41.898  26.848  35.208  1.00  0.00     0.001 A 
ATOM     58  C   UNL A   1      43.322  27.906  36.841  1.00  0.00     0.001 A 
ATOM     59  C   UNL A   1      42.601  26.795  36.409  1.00  0.00     0.000 A 
ENDBRANCH  41  54
ENDBRANCH  15  16
ENDBRANCH   8  10
ENDBRANCH   7   8
ENDBRANCH   6   7
ENDBRANCH   5   6
ENDBRANCH   4   5
ENDBRANCH   3   4
ENDBRANCH   2   3
ENDBRANCH   1   2
BRANCH   1  60
ATOM     60  C   UNL A   1      37.014  22.288  25.101  1.00  0.00     0.188 C 
BRANCH  60  61
ATOM     61  C   UNL A   1      37.029  20.753  25.174  1.00  0.00     0.188 C 
BRANCH  61  62
ATOM     62  O   UNL A   1      35.851  20.049  24.839  1.00  0.00    -0.376 OA
BRANCH  62  63
ATOM     63  C   UNL A   1      34.564  20.604  25.067  1.00  0.00     0.202 C 
BRANCH  63  64
ATOM     64  C   UNL A   1      33.202  19.937  24.760  1.00  0.00     0.261 C 
BRANCH  64  65
ATOM     65  O   UNL A   1      32.067  20.761  24.493  1.00  0.00    -0.460 OA
BRANCH  65  66
ATOM     66  C   UNL A   1      32.103  21.477  23.352  1.00  0.00     0.338 C 
ATOM     67  O   UNL A   1      32.141  21.051  22.207  1.00  0.00    -0.246 OA
BRANCH  66  68
ATOM     68  C   UNL A   1      31.873  22.892  23.696  1.00  0.00     0.060 A 
ATOM     69  C   UNL A   1      30.626  23.456  23.404  1.00  0.00     0.016 A 
ATOM     70  C   UNL A   1      32.869  23.653  24.305  1.00  0.00     0.016 A 
ATOM     71  C   UNL A   1      30.372  24.785  23.716  1.00  0.00     0.005 A 
ATOM     72  C   UNL A   1      32.634  25.007  24.556  1.00  0.00     0.005 A 
ATOM     73  C   UNL A   1      31.388  25.592  24.250  1.00  0.00    -0.038 A 
BRANCH  73  74
ATOM     74  C   UNL A   1      31.145  27.089  24.291  1.00  0.00     0.081 C 
ATOM     75  C   UNL A   1      31.664  27.735  22.989  1.00  0.00     0.111 C 
ATOM     76  C   UNL A   1      31.806  27.644  25.491  1.00  0.00     0.093 A 
ATOM     77  C   UNL A   1      32.789  28.737  23.169  1.00  0.00     0.188 C 
ATOM     78  C   UNL A   1      32.739  28.652  25.391  1.00  0.00     0.164 A 
ATOM     79  N   UNL A   1      31.610  27.254  26.785  1.00  0.00    -0.238 NA
ATOM     80  N   UNL A   1      33.268  29.208  24.275  1.00  0.00    -0.198 NA
ATOM     81  N   UNL A   1      33.141  28.898  26.689  1.00  0.00    -0.283 N 
ATOM     82  C   UNL A   1      32.457  27.991  27.475  1.00  0.00     0.206 A 
BRANCH  77  83
ATOM     83  O   UNL A   1      33.310  29.180  22.006  1.00  0.00    -0.496 OA
ATOM     84  H   UNL A   1      33.129  30.052  21.714  1.00  0.00     0.294 HD
ENDBRANCH  77  83
BRANCH  81  85
ATOM     85  C   UNL A   1      34.055  29.879  27.138  1.00  0.00     0.050 A 
ATOM     86  C   UNL A   1      33.631  31.202  27.312  1.00  0.00     0.027 A 
ATOM     87  C   UNL A   1      35.384  29.520  27.391  1.00  0.00     0.047 A 
ATOM     88  C   UNL A   1      34.539  32.160  27.769  1.00  0.00     0.004 A 
ATOM     89  C   UNL A   1      36.290  30.496  27.797  1.00  0.00     0.043 A 
ATOM     90  C   UNL A   1      35.871  31.810  27.999  1.00  0.00     0.020 A 
ATOM     91  Cl  UNL A   1      37.945  30.083  28.025  1.00  0.00    -0.084 Cl
ENDBRANCH  81  85
ENDBRANCH  73  74
ENDBRANCH  66  68
ENDBRANCH  65  66
ENDBRANCH  64  65
ENDBRANCH  63  64
ENDBRANCH  62  63
ENDBRANCH  61  62
ENDBRANCH  60  61
ENDBRANCH   1  60
TORSDOF 23
ENDMDL
MODEL 2
REMARK VINA RESULT:      -9.5      2.507      4.265
REMARK SMILES O=C(OCCOCCOCCOCCOC(=O)c1ccc([C@@H]2CC(O)=Nc3c2ncn3-c2cccc(Cl)c2)cc1)c1ccc(-c2c3nc(c(-c4ccccc4)c4ccc([nH]4)c(-c4ccccc4)c4nc(c(-c5ccccc5)c5ccc2[nH]5)C=C4)C=C3)cc1
REMARK SMILES IDX 9 1 8 2 7 3 6 4 5 5 4 6 3 7 2 8 1 9 41 10 42 11 88 12 43 13
REMARK SMILES IDX 87 14 44 15 45 16 46 17 81 18 47 19 86 20 80 21 82 22 48 23
REMARK SMILES IDX 85 24 79 25 78 26 49 28 71 29 56 30 70 31 57 32 60 33 69 34
REMARK SMILES IDX 83 35 58 36 59 37 68 39 84 40 61 41 50 42 51 43 55 44 52 45
REMARK SMILES IDX 54 46 53 47 72 48 73 49 77 50 74 51 76 52 75 53 62 54 63 55
REMARK SMILES IDX 67 56 64 57 66 58 65 59 10 60 11 61 12 62 13 63 14 64 15 65
REMARK SMILES IDX 16 66 17 67 18 68 19 69 40 70 20 71 39 72 21 73 22 74 23 75
REMARK SMILES IDX 28 76 24 77 27 78 29 79 26 80 31 81 30 82 25 83 32 85 33 86
REMARK SMILES IDX 38 87 34 88 36 89 35 90 37 91
REMARK H PARENT 82 27 60 38 25 84
REMARK Flexibility Score: inf
ROOT
ATOM      1  O   UNL A   1      42.984  24.538  28.352  1.00  0.00    -0.377 OA
ENDROOT
BRANCH   1   2
ATOM      2  C   UNL A   1      44.132  24.659  27.531  1.00  0.00     0.188 C 
BRANCH   2   3
ATOM      3  C   UNL A   1      45.059  23.439  27.342  1.00  0.00     0.188 C 
BRANCH   3   4
ATOM      4  O   UNL A   1      46.456  23.441  27.085  1.00  0.00    -0.376 OA
BRANCH   4   5
ATOM      5  C   UNL A   1      47.316  24.498  26.724  1.00  0.00     0.202 C 
BRANCH   5   6
ATOM      6  C   UNL A   1      47.694  24.841  25.289  1.00  0.00     0.261 C 
BRANCH   6   7
ATOM      7  O   UNL A   1      46.678  25.473  24.528  1.00  0.00    -0.460 OA
BRANCH   7   8
ATOM      8  C   UNL A   1      46.290  26.759  24.574  1.00  0.00     0.338 C 
ATOM      9  O   UNL A   1      46.908  27.573  23.887  1.00  0.00    -0.246 OA
BRANCH   8  10
ATOM     10  C   UNL A   1      45.227  27.294  25.474  1.00  0.00     0.060 A 
ATOM     11  C   UNL A   1      43.857  27.363  25.216  1.00  0.00     0.016 A 
ATOM     12  C   UNL A   1      45.711  27.821  26.690  1.00  0.00     0.016 A 
ATOM     13  C   UNL A   1      43.038  28.123  26.032  1.00  0.00     0.010 A 
ATOM     14  C   UNL A   1      44.892  28.553  27.528  1.00  0.00     0.010 A 
ATOM     15  C   UNL A   1      43.587  28.786  27.128  1.00  0.00    -0.014 A 
BRANCH  15  16
ATOM     16  C   UNL A   1      42.751  29.762  27.797  1.00  0.00     0.031 A 
ATOM     17  C   UNL A   1      43.344  31.113  27.929  1.00  0.00     0.074 A 
ATOM     18  C   UNL A   1      41.539  29.434  28.283  1.00  0.00     0.049 A 
ATOM     19  N   UNL A   1      43.715  31.707  29.015  1.00  0.00    -0.248 NA
ATOM     20  C   UNL A   1      43.683  31.835  26.695  1.00  0.00     0.031 C 
ATOM     21  C   UNL A   1      40.745  28.225  28.041  1.00  0.00     0.029 A 
ATOM     22  N   UNL A   1      40.714  30.186  29.055  1.00  0.00    -0.354 N 
ATOM     23  C   UNL A   1      44.189  32.954  28.624  1.00  0.00     0.074 A 
ATOM     24  C   UNL A   1      44.262  32.933  27.184  1.00  0.00     0.031 C 
ATOM     25  C   UNL A   1      39.472  28.439  28.445  1.00  0.00     0.029 A 
ATOM     26  C   UNL A   1      39.408  29.726  29.116  1.00  0.00     0.049 A 
ATOM     27  H   UNL A   1      41.018  30.993  29.532  1.00  0.00     0.167 HD
ATOM     28  C   UNL A   1      44.293  33.987  29.504  1.00  0.00     0.031 A 
ATOM     29  C   UNL A   1      38.347  30.392  29.633  1.00  0.00     0.031 A 
ATOM     30  C   UNL A   1      44.296  33.537  30.869  1.00  0.00     0.049 A 
ATOM     31  C   UNL A   1      38.877  31.430  30.548  1.00  0.00     0.074 A 
ATOM     32  C   UNL A   1      45.138  32.743  31.621  1.00  0.00     0.029 A 
ATOM     33  N   UNL A   1      43.110  33.589  31.561  1.00  0.00    -0.354 N 
ATOM     34  N   UNL A   1      39.477  31.149  31.669  1.00  0.00    -0.248 NA
ATOM     35  C   UNL A   1      39.165  32.746  29.998  1.00  0.00     0.031 C 
ATOM     36  C   UNL A   1      44.269  31.965  32.441  1.00  0.00     0.029 A 
ATOM     37  C   UNL A   1      42.960  32.382  32.197  1.00  0.00     0.049 A 
ATOM     38  H   UNL A   1      42.485  34.349  31.593  1.00  0.00     0.167 HD
ATOM     39  C   UNL A   1      40.536  32.043  31.739  1.00  0.00     0.074 A 
ATOM     40  C   UNL A   1      40.239  33.059  30.729  1.00  0.00     0.031 C 
ATOM     41  C   UNL A   1      41.686  31.730  32.405  1.00  0.00     0.031 A 
BRANCH  28  42
ATOM     42  C   UNL A   1      44.002  35.414  29.122  1.00  0.00    -0.014 A 
ATOM     43  C   UNL A   1      44.818  36.439  29.627  1.00  0.00     0.009 A 
ATOM     44  C   UNL A   1      42.791  35.804  28.517  1.00  0.00     0.009 A 
ATOM     45  C   UNL A   1      44.410  37.779  29.583  1.00  0.00     0.001 A 
ATOM     46  C   UNL A   1      42.399  37.141  28.437  1.00  0.00     0.001 A 
ATOM     47  C   UNL A   1      43.198  38.127  28.995  1.00  0.00     0.000 A 
ENDBRANCH  28  42
BRANCH  29  48
ATOM     48  C   UNL A   1      36.960  30.417  29.124  1.00  0.00    -0.014 A 
ATOM     49  C   UNL A   1      36.136  31.534  29.329  1.00  0.00     0.009 A 
ATOM     50  C   UNL A   1      36.538  29.454  28.188  1.00  0.00     0.009 A 
ATOM     51  C   UNL A   1      34.952  31.697  28.597  1.00  0.00     0.001 A 
ATOM     52  C   UNL A   1      35.357  29.616  27.457  1.00  0.00     0.001 A 
ATOM     53  C   UNL A   1      34.571  30.747  27.651  1.00  0.00     0.000 A 
ENDBRANCH  29  48
BRANCH  41  54
ATOM     54  C   UNL A   1      41.706  30.461  33.223  1.00  0.00    -0.014 A 
ATOM     55  C   UNL A   1      41.383  30.423  34.592  1.00  0.00     0.009 A 
ATOM     56  C   UNL A   1      41.901  29.243  32.555  1.00  0.00     0.009 A 
ATOM     57  C   UNL A   1      41.288  29.204  35.275  1.00  0.00     0.001 A 
ATOM     58  C   UNL A   1      41.787  28.026  33.231  1.00  0.00     0.001 A 
ATOM     59  C   UNL A   1      41.485  28.006  34.591  1.00  0.00     0.000 A 
ENDBRANCH  41  54
ENDBRANCH  15  16
ENDBRANCH   8  10
ENDBRANCH   7   8
ENDBRANCH   6   7
ENDBRANCH   5   6
ENDBRANCH   4   5
ENDBRANCH   3   4
ENDBRANCH   2   3
ENDBRANCH   1   2
BRANCH   1  60
ATOM     60  C   UNL A   1      42.799  23.253  28.903  1.00  0.00     0.188 C 
BRANCH  60  61
ATOM     61  C   UNL A   1      41.575  22.542  28.306  1.00  0.00     0.188 C 
BRANCH  61  62
ATOM     62  O   UNL A   1      41.747  21.765  27.139  1.00  0.00    -0.376 OA
BRANCH  62  63
ATOM     63  C   UNL A   1      40.780  21.762  26.099  1.00  0.00     0.202 C 
BRANCH  63  64
ATOM     64  C   UNL A   1      39.326  21.241  26.189  1.00  0.00     0.261 C 
BRANCH  64  65
ATOM     65  O   UNL A   1      38.353  21.726  25.263  1.00  0.00    -0.460 OA
BRANCH  65  66
ATOM     66  C   UNL A   1      37.411  20.847  24.870  1.00  0.00     0.338 C 
ATOM     67  O   UNL A   1      37.442  19.629  24.971  1.00  0.00    -0.246 OA
BRANCH  66  68
ATOM     68  C   UNL A   1      36.212  21.609  24.477  1.00  0.00     0.060 A 
ATOM     69  C   UNL A   1      34.959  21.003  24.618  1.00  0.00     0.016 A 
ATOM     70  C   UNL A   1      36.319  22.909  23.984  1.00  0.00     0.016 A 
ATOM     71  C   UNL A   1      33.807  21.693  24.261  1.00  0.00     0.005 A 
ATOM     72  C   UNL A   1      35.165  23.574  23.563  1.00  0.00     0.005 A 
ATOM     73  C   UNL A   1      33.898  22.968  23.682  1.00  0.00    -0.038 A 
BRANCH  73  74
ATOM     74  C   UNL A   1      32.644  23.539  23.046  1.00  0.00     0.081 C 
ATOM     75  C   UNL A   1      32.959  24.008  21.610  1.00  0.00     0.111 C 
ATOM     76  C   UNL A   1      32.141  24.640  23.895  1.00  0.00     0.093 A 
ATOM     77  C   UNL A   1      32.776  25.494  21.362  1.00  0.00     0.188 C 
ATOM     78  C   UNL A   1      31.956  25.906  23.389  1.00  0.00     0.164 A 
ATOM     79  N   UNL A   1      31.821  24.566  25.222  1.00  0.00    -0.238 NA
ATOM     80  N   UNL A   1      32.271  26.379  22.159  1.00  0.00    -0.198 NA
ATOM     81  N   UNL A   1      31.500  26.655  24.455  1.00  0.00    -0.283 N 
ATOM     82  C   UNL A   1      31.485  25.800  25.540  1.00  0.00     0.206 A 
BRANCH  77  83
ATOM     83  O   UNL A   1      33.187  25.893  20.141  1.00  0.00    -0.496 OA
ATOM     84  H   UNL A   1      33.459  26.780  20.005  1.00  0.00     0.294 HD
ENDBRANCH  77  83
BRANCH  81  85
ATOM     85  C   UNL A   1      31.112  28.015  24.451  1.00  0.00     0.050 A 
ATOM     86  C   UNL A   1      31.765  28.932  25.283  1.00  0.00     0.027 A 
ATOM     87  C   UNL A   1      30.063  28.431  23.621  1.00  0.00     0.047 A 
ATOM     88  C   UNL A   1      31.382  30.274  25.261  1.00  0.00     0.004 A 
ATOM     89  C   UNL A   1      29.658  29.763  23.648  1.00  0.00     0.043 A 
ATOM     90  C   UNL A   1      30.321  30.687  24.454  1.00  0.00     0.020 A 
ATOM     91  Cl  UNL A   1      28.313  30.265  22.699  1.00  0.00    -0.084 Cl
ENDBRANCH  81  85
ENDBRANCH  73  74
ENDBRANCH  66  68
ENDBRANCH  65  66
ENDBRANCH  64  65
ENDBRANCH  63  64
ENDBRANCH  62  63
ENDBRANCH  61  62
ENDBRANCH  60  61
ENDBRANCH   1  60
TORSDOF 23
ENDMDL
MODEL 3
REMARK VINA RESULT:      -9.3      2.024      2.682
REMARK SMILES O=C(OCCOCCOCCOCCOC(=O)c1ccc([C@@H]2CC(O)=Nc3c2ncn3-c2cccc(Cl)c2)cc1)c1ccc(-c2c3nc(c(-c4ccccc4)c4ccc([nH]4)c(-c4ccccc4)c4nc(c(-c5ccccc5)c5ccc2[nH]5)C=C4)C=C3)cc1
REMARK SMILES IDX 9 1 8 2 7 3 6 4 5 5 4 6 3 7 2 8 1 9 41 10 42 11 88 12 43 13
REMARK SMILES IDX 87 14 44 15 45 16 46 17 81 18 47 19 86 20 80 21 82 22 48 23
REMARK SMILES IDX 85 24 79 25 78 26 49 28 71 29 56 30 70 31 57 32 60 33 69 34
REMARK SMILES IDX 83 35 58 36 59 37 68 39 84 40 61 41 50 42 51 43 55 44 52 45
REMARK SMILES IDX 54 46 53 47 72 48 73 49 77 50 74 51 76 52 75 53 62 54 63 55
REMARK SMILES IDX 67 56 64 57 66 58 65 59 10 60 11 61 12 62 13 63 14 64 15 65
REMARK SMILES IDX 16 66 17 67 18 68 19 69 40 70 20 71 39 72 21 73 22 74 23 75
REMARK SMILES IDX 28 76 24 77 27 78 29 79 26 80 31 81 30 82 25 83 32 85 33 86
REMARK SMILES IDX 38 87 34 88 36 89 35 90 37 91
REMARK H PARENT 82 27 60 38 25 84
REMARK Flexibility Score: inf
ROOT
ATOM      1  O   UNL A   1      37.603  22.686  25.181  1.00  0.00    -0.377 OA
ENDROOT
BRANCH   1   2
ATOM      2  C   UNL A   1      38.526  21.770  25.740  1.00  0.00     0.188 C 
BRANCH   2   3
ATOM      3  C   UNL A   1      39.511  22.254  26.826  1.00  0.00     0.188 C 
BRANCH   3   4
ATOM      4  O   UNL A   1      40.415  21.471  27.592  1.00  0.00    -0.376 OA
BRANCH   4   5
ATOM      5  C   UNL A   1      41.159  20.328  27.236  1.00  0.00     0.202 C 
BRANCH   5   6
ATOM      6  C   UNL A   1      41.930  20.182  25.931  1.00  0.00     0.261 C 
BRANCH   6   7
ATOM      7  O   UNL A   1      43.079  21.003  25.810  1.00  0.00    -0.460 OA
BRANCH   7   8
ATOM      8  C   UNL A   1      43.140  22.286  25.412  1.00  0.00     0.338 C 
ATOM      9  O   UNL A   1      43.520  22.516  24.264  1.00  0.00    -0.246 OA
BRANCH   8  10
ATOM     10  C   UNL A   1      42.878  23.461  26.294  1.00  0.00     0.060 A 
ATOM     11  C   UNL A   1      42.295  24.676  25.931  1.00  0.00     0.016 A 
ATOM     12  C   UNL A   1      43.327  23.299  27.621  1.00  0.00     0.016 A 
ATOM     13  C   UNL A   1      42.362  25.758  26.791  1.00  0.00     0.010 A 
ATOM     14  C   UNL A   1      43.365  24.366  28.498  1.00  0.00     0.010 A 
ATOM     15  C   UNL A   1      42.982  25.611  28.030  1.00  0.00    -0.014 A 
BRANCH  15  16
ATOM     16  C   UNL A   1      43.250  26.820  28.782  1.00  0.00     0.031 A 
ATOM     17  C   UNL A   1      44.621  27.364  28.631  1.00  0.00     0.074 A 
ATOM     18  C   UNL A   1      42.317  27.374  29.578  1.00  0.00     0.049 A 
ATOM     19  N   UNL A   1      45.547  27.423  29.530  1.00  0.00    -0.248 NA
ATOM     20  C   UNL A   1      45.051  27.770  27.286  1.00  0.00     0.031 C 
ATOM     21  C   UNL A   1      40.882  27.082  29.658  1.00  0.00     0.029 A 
ATOM     22  N   UNL A   1      42.464  28.405  30.449  1.00  0.00    -0.354 N 
ATOM     23  C   UNL A   1      46.637  28.027  28.913  1.00  0.00     0.074 A 
ATOM     24  C   UNL A   1      46.323  28.106  27.509  1.00  0.00     0.031 C 
ATOM     25  C   UNL A   1      40.262  28.076  30.336  1.00  0.00     0.029 A 
ATOM     26  C   UNL A   1      41.272  28.973  30.872  1.00  0.00     0.049 A 
ATOM     27  H   UNL A   1      43.344  28.724  30.756  1.00  0.00     0.167 HD
ATOM     28  C   UNL A   1      47.636  28.605  29.635  1.00  0.00     0.031 A 
ATOM     29  C   UNL A   1      41.136  30.130  31.563  1.00  0.00     0.031 A 
ATOM     30  C   UNL A   1      47.658  28.144  30.996  1.00  0.00     0.049 A 
ATOM     31  C   UNL A   1      42.436  30.414  32.214  1.00  0.00     0.074 A 
ATOM     32  C   UNL A   1      47.864  26.917  31.595  1.00  0.00     0.029 A 
ATOM     33  N   UNL A   1      47.054  28.931  31.946  1.00  0.00    -0.354 N 
ATOM     34  N   UNL A   1      42.922  29.685  33.178  1.00  0.00    -0.248 NA
ATOM     35  C   UNL A   1      43.408  31.212  31.483  1.00  0.00     0.031 C 
ATOM     36  C   UNL A   1      46.934  26.879  32.674  1.00  0.00     0.029 A 
ATOM     37  C   UNL A   1      46.272  28.108  32.717  1.00  0.00     0.049 A 
ATOM     38  H   UNL A   1      47.163  29.903  32.055  1.00  0.00     0.167 HD
ATOM     39  C   UNL A   1      44.277  29.586  32.898  1.00  0.00     0.074 A 
ATOM     40  C   UNL A   1      44.533  30.620  31.895  1.00  0.00     0.031 C 
ATOM     41  C   UNL A   1      45.005  28.500  33.292  1.00  0.00     0.031 A 
BRANCH  28  42
ATOM     42  C   UNL A   1      48.332  29.866  29.196  1.00  0.00    -0.014 A 
ATOM     43  C   UNL A   1      47.567  31.008  28.910  1.00  0.00     0.009 A 
ATOM     44  C   UNL A   1      49.679  29.883  28.783  1.00  0.00     0.009 A 
ATOM     45  C   UNL A   1      48.108  32.083  28.193  1.00  0.00     0.001 A 
ATOM     46  C   UNL A   1      50.233  30.968  28.102  1.00  0.00     0.001 A 
ATOM     47  C   UNL A   1      49.439  32.058  27.783  1.00  0.00     0.000 A 
ENDBRANCH  28  42
BRANCH  29  48
ATOM     48  C   UNL A   1      40.085  31.158  31.407  1.00  0.00    -0.014 A 
ATOM     49  C   UNL A   1      39.851  31.767  30.165  1.00  0.00     0.009 A 
ATOM     50  C   UNL A   1      39.122  31.337  32.417  1.00  0.00     0.009 A 
ATOM     51  C   UNL A   1      38.676  32.496  29.932  1.00  0.00     0.001 A 
ATOM     52  C   UNL A   1      37.950  32.065  32.186  1.00  0.00     0.001 A 
ATOM     53  C   UNL A   1      37.720  32.632  30.937  1.00  0.00     0.000 A 
ENDBRANCH  29  48
BRANCH  41  54
ATOM     54  C   UNL A   1      44.340  27.496  34.203  1.00  0.00    -0.014 A 
ATOM     55  C   UNL A   1      43.574  26.415  33.727  1.00  0.00     0.009 A 
ATOM     56  C   UNL A   1      44.626  27.551  35.575  1.00  0.00     0.009 A 
ATOM     57  C   UNL A   1      43.088  25.438  34.604  1.00  0.00     0.001 A 
ATOM     58  C   UNL A   1      44.158  26.566  36.447  1.00  0.00     0.001 A 
ATOM     59  C   UNL A   1      43.386  25.512  35.963  1.00  0.00     0.000 A 
ENDBRANCH  41  54
ENDBRANCH  15  16
ENDBRANCH   8  10
ENDBRANCH   7   8
ENDBRANCH   6   7
ENDBRANCH   5   6
ENDBRANCH   4   5
ENDBRANCH   3   4
ENDBRANCH   2   3
ENDBRANCH   1   2
BRANCH   1  60
ATOM     60  C   UNL A   1      36.379  22.106  24.788  1.00  0.00     0.188 C 
BRANCH  60  61
ATOM     61  C   UNL A   1      36.355  20.589  25.034  1.00  0.00     0.188 C 
BRANCH  61  62
ATOM     62  O   UNL A   1      35.200  19.863  24.669  1.00  0.00    -0.376 OA
BRANCH  62  63
ATOM     63  C   UNL A   1      34.052  19.824  25.505  1.00  0.00     0.202 C 
BRANCH  63  64
ATOM     64  C   UNL A   1      32.579  19.706  25.048  1.00  0.00     0.261 C 
BRANCH  64  65
ATOM     65  O   UNL A   1      31.807  20.894  24.869  1.00  0.00    -0.460 OA
BRANCH  65  66
ATOM     66  C   UNL A   1      32.125  21.659  23.806  1.00  0.00     0.338 C 
ATOM     67  O   UNL A   1      32.492  21.283  22.703  1.00  0.00    -0.246 OA
BRANCH  66  68
ATOM     68  C   UNL A   1      31.750  23.050  24.119  1.00  0.00     0.060 A 
ATOM     69  C   UNL A   1      30.657  23.613  23.452  1.00  0.00     0.016 A 
ATOM     70  C   UNL A   1      32.461  23.788  25.063  1.00  0.00     0.016 A 
ATOM     71  C   UNL A   1      30.274  24.921  23.723  1.00  0.00     0.005 A 
ATOM     72  C   UNL A   1      32.115  25.123  25.285  1.00  0.00     0.005 A 
ATOM     73  C   UNL A   1      31.027  25.709  24.605  1.00  0.00    -0.038 A 
BRANCH  73  74
ATOM     74  C   UNL A   1      30.739  27.199  24.632  1.00  0.00     0.081 C 
ATOM     75  C   UNL A   1      31.172  27.835  23.294  1.00  0.00     0.111 C 
ATOM     76  C   UNL A   1      31.442  27.796  25.787  1.00  0.00     0.093 A 
ATOM     77  C   UNL A   1      32.273  28.875  23.400  1.00  0.00     0.188 C 
ATOM     78  C   UNL A   1      32.336  28.830  25.624  1.00  0.00     0.164 A 
ATOM     79  N   UNL A   1      31.323  27.425  27.097  1.00  0.00    -0.238 NA
ATOM     80  N   UNL A   1      32.792  29.380  24.472  1.00  0.00    -0.198 NA
ATOM     81  N   UNL A   1      32.796  29.112  26.895  1.00  0.00    -0.283 N 
ATOM     82  C   UNL A   1      32.181  28.199  27.730  1.00  0.00     0.206 A 
BRANCH  77  83
ATOM     83  O   UNL A   1      32.721  29.311  22.205  1.00  0.00    -0.496 OA
ATOM     84  H   UNL A   1      32.559  28.807  21.432  1.00  0.00     0.294 HD
ENDBRANCH  77  83
BRANCH  81  85
ATOM     85  C   UNL A   1      33.699  30.129  27.280  1.00  0.00     0.050 A 
ATOM     86  C   UNL A   1      35.061  29.837  27.425  1.00  0.00     0.027 A 
ATOM     87  C   UNL A   1      33.219  31.420  27.530  1.00  0.00     0.047 A 
ATOM     88  C   UNL A   1      35.946  30.852  27.793  1.00  0.00     0.004 A 
ATOM     89  C   UNL A   1      34.106  32.410  27.947  1.00  0.00     0.043 A 
ATOM     90  C   UNL A   1      35.467  32.135  28.067  1.00  0.00     0.020 A 
ATOM     91  Cl  UNL A   1      33.512  33.976  28.342  1.00  0.00    -0.084 Cl
ENDBRANCH  81  85
ENDBRANCH  73  74
ENDBRANCH  66  68
ENDBRANCH  65  66
ENDBRANCH  64  65
ENDBRANCH  63  64
ENDBRANCH  62  63
ENDBRANCH  61  62
ENDBRANCH  60  61
ENDBRANCH   1  60
TORSDOF 23
ENDMDL
