MODEL 1
REMARK VINA RESULT:      -9.9      0.000      0.000
REMARK SMILES C/C(=N\NC(N)=S)c1nnn(-c2ccc(C(=O)OCCOCCOCCOCCOC(=O)c3ccc(-c4c5nc(c(-c6ccccc6)c6ccc([nH]6)c(-c6ccccc6)c6nc(c(-c7ccccc7)c7ccc4[nH]7)C=C6)C=C5)cc3)cc2)c1C
REMARK SMILES IDX 22 1 21 2 20 3 19 4 18 5 16 6 17 7 15 8 12 9 13 10 82 11
REMARK SMILES IDX 14 12 81 13 11 14 8 15 9 16 83 17 10 18 84 19 2 20 1 21 3 22
REMARK SMILES IDX 4 23 5 25 7 26 6 27 23 30 24 31 25 32 26 33 27 34 28 35
REMARK SMILES IDX 29 36 30 37 31 38 32 39 33 40 34 41 80 42 35 43 79 44 36 45
REMARK SMILES IDX 37 46 38 47 73 48 39 49 78 50 72 51 74 52 40 53 77 54 71 55
REMARK SMILES IDX 70 56 41 58 63 59 48 60 62 61 49 62 52 63 61 64 75 65 50 66
REMARK SMILES IDX 51 67 60 69 76 70 53 71 42 72 43 73 47 74 44 75 46 76 45 77
REMARK SMILES IDX 64 78 65 79 69 80 66 81 68 82 67 83 54 84 55 85 59 86 56 87
REMARK SMILES IDX 58 88 57 89
REMARK H PARENT 4 24 6 28 6 29 74 57 52 68
REMARK Flexibility Score: inf
ROOT
ATOM      1  C   UNL A   1      32.164  29.462  24.906  1.00  0.00     0.188 C 
ENDROOT
BRANCH   1   2
ATOM      2  O   UNL A   1      31.208  28.421  25.015  1.00  0.00    -0.376 OA
BRANCH   2   3
ATOM      3  C   UNL A   1      31.170  27.420  24.021  1.00  0.00     0.202 C 
BRANCH   3   4
ATOM      4  C   UNL A   1      30.299  26.189  24.294  1.00  0.00     0.261 C 
BRANCH   4   5
ATOM      5  O   UNL A   1      31.009  24.985  24.597  1.00  0.00    -0.460 OA
BRANCH   5   6
ATOM      6  C   UNL A   1      31.333  24.759  25.881  1.00  0.00     0.338 C 
ATOM      7  O   UNL A   1      30.570  24.771  26.849  1.00  0.00    -0.246 OA
BRANCH   6   8
ATOM      8  C   UNL A   1      32.743  24.324  25.932  1.00  0.00     0.060 A 
ATOM      9  C   UNL A   1      35.324  23.336  25.853  1.00  0.00     0.067 A 
ATOM     10  C   UNL A   1      34.981  24.386  24.996  1.00  0.00     0.029 A 
ATOM     11  C   UNL A   1      34.445  22.886  26.844  1.00  0.00     0.029 A 
ATOM     12  C   UNL A   1      33.669  24.863  25.022  1.00  0.00     0.018 A 
ATOM     13  C   UNL A   1      33.153  23.387  26.887  1.00  0.00     0.018 A 
BRANCH   9  14
ATOM     14  N   UNL A   1      36.430  22.528  25.524  1.00  0.00    -0.217 N 
ATOM     15  C   UNL A   1      38.401  21.612  25.574  1.00  0.00     0.132 A 
ATOM     16  N   UNL A   1      37.519  20.732  25.001  1.00  0.00    -0.128 NA
ATOM     17  C   UNL A   1      37.731  22.760  25.942  1.00  0.00     0.071 A 
ATOM     18  N   UNL A   1      36.305  21.270  25.054  1.00  0.00    -0.061 NA
ATOM     19  C   UNL A   1      38.160  23.915  26.769  1.00  0.00     0.069 C 
BRANCH  15  20
ATOM     20  C   UNL A   1      39.760  21.248  25.921  1.00  0.00     0.087 C 
ATOM     21  C   UNL A   1      40.078  19.774  25.908  1.00  0.00     0.071 C 
ATOM     22  N   UNL A   1      40.556  22.240  26.188  1.00  0.00    -0.176 NA
BRANCH  22  23
ATOM     23  N   UNL A   1      41.871  22.033  26.484  1.00  0.00    -0.254 N 
ATOM     24  H   UNL A   1      42.061  21.326  27.143  1.00  0.00     0.193 HD
BRANCH  23  25
ATOM     25  C   UNL A   1      42.969  22.696  25.973  1.00  0.00     0.184 C 
ATOM     26  S   UNL A   1      44.181  23.511  26.769  1.00  0.00    -0.040 S 
BRANCH  25  27
ATOM     27  N   UNL A   1      43.013  22.637  24.606  1.00  0.00    -0.375 N 
ATOM     28  H   UNL A   1      43.002  21.765  24.150  1.00  0.00     0.159 HD
ATOM     29  H   UNL A   1      43.054  23.468  24.079  1.00  0.00     0.159 HD
ENDBRANCH  25  27
ENDBRANCH  23  25
ENDBRANCH  22  23
ENDBRANCH  15  20
ENDBRANCH   9  14
ENDBRANCH   6   8
ENDBRANCH   5   6
ENDBRANCH   4   5
ENDBRANCH   3   4
ENDBRANCH   2   3
ENDBRANCH   1   2
BRANCH   1  30
ATOM     30  C   UNL A   1      33.354  29.308  25.882  1.00  0.00     0.188 C 
BRANCH  30  31
ATOM     31  O   UNL A   1      33.232  29.751  27.228  1.00  0.00    -0.377 OA
BRANCH  31  32
ATOM     32  C   UNL A   1      33.180  31.146  27.521  1.00  0.00     0.188 C 
BRANCH  32  33
ATOM     33  C   UNL A   1      34.416  31.937  28.032  1.00  0.00     0.188 C 
BRANCH  33  34
ATOM     34  O   UNL A   1      34.164  32.838  29.096  1.00  0.00    -0.376 OA
BRANCH  34  35
ATOM     35  C   UNL A   1      34.320  34.232  28.938  1.00  0.00     0.202 C 
BRANCH  35  36
ATOM     36  C   UNL A   1      33.286  35.135  29.603  1.00  0.00     0.261 C 
BRANCH  36  37
ATOM     37  O   UNL A   1      33.735  35.735  30.803  1.00  0.00    -0.460 OA
BRANCH  37  38
ATOM     38  C   UNL A   1      33.227  35.213  31.923  1.00  0.00     0.338 C 
ATOM     39  O   UNL A   1      32.080  35.352  32.357  1.00  0.00    -0.246 OA
BRANCH  38  40
ATOM     40  C   UNL A   1      34.298  34.527  32.638  1.00  0.00     0.060 A 
ATOM     41  C   UNL A   1      35.458  35.262  32.874  1.00  0.00     0.016 A 
ATOM     42  C   UNL A   1      34.260  33.125  32.736  1.00  0.00     0.016 A 
ATOM     43  C   UNL A   1      36.643  34.573  32.923  1.00  0.00     0.010 A 
ATOM     44  C   UNL A   1      35.447  32.438  32.777  1.00  0.00     0.010 A 
ATOM     45  C   UNL A   1      36.618  33.182  32.751  1.00  0.00    -0.014 A 
BRANCH  45  46
ATOM     46  C   UNL A   1      37.881  32.538  32.494  1.00  0.00     0.031 A 
ATOM     47  C   UNL A   1      38.764  32.462  33.666  1.00  0.00     0.074 A 
ATOM     48  C   UNL A   1      38.220  32.062  31.284  1.00  0.00     0.049 A 
ATOM     49  N   UNL A   1      39.843  33.138  33.873  1.00  0.00    -0.248 NA
ATOM     50  C   UNL A   1      38.316  31.645  34.799  1.00  0.00     0.031 C 
ATOM     51  C   UNL A   1      37.375  31.831  30.111  1.00  0.00     0.029 A 
ATOM     52  N   UNL A   1      39.430  31.585  30.896  1.00  0.00    -0.354 N 
ATOM     53  C   UNL A   1      40.315  32.709  35.103  1.00  0.00     0.074 A 
ATOM     54  C   UNL A   1      39.270  31.906  35.691  1.00  0.00     0.031 C 
ATOM     55  C   UNL A   1      38.045  31.045  29.235  1.00  0.00     0.029 A 
ATOM     56  C   UNL A   1      39.401  30.851  29.724  1.00  0.00     0.049 A 
ATOM     57  H   UNL A   1      40.257  31.748  31.404  1.00  0.00     0.167 HD
ATOM     58  C   UNL A   1      41.620  32.854  35.449  1.00  0.00     0.031 A 
ATOM     59  C   UNL A   1      40.408  30.081  29.251  1.00  0.00     0.031 A 
ATOM     60  C   UNL A   1      42.308  33.801  34.613  1.00  0.00     0.049 A 
ATOM     61  C   UNL A   1      41.667  30.537  29.888  1.00  0.00     0.074 A 
ATOM     62  C   UNL A   1      42.162  35.148  34.344  1.00  0.00     0.029 A 
ATOM     63  N   UNL A   1      43.097  33.299  33.604  1.00  0.00    -0.354 N 
ATOM     64  N   UNL A   1      42.222  31.687  29.634  1.00  0.00    -0.248 NA
ATOM     65  C   UNL A   1      42.082  29.911  31.136  1.00  0.00     0.031 C 
ATOM     66  C   UNL A   1      42.468  35.284  32.957  1.00  0.00     0.029 A 
ATOM     67  C   UNL A   1      42.821  34.023  32.472  1.00  0.00     0.049 A 
ATOM     68  H   UNL A   1      43.741  32.558  33.680  1.00  0.00     0.167 HD
ATOM     69  C   UNL A   1      42.702  32.130  30.859  1.00  0.00     0.074 A 
ATOM     70  C   UNL A   1      42.687  30.950  31.720  1.00  0.00     0.031 C 
ATOM     71  C   UNL A   1      42.798  33.464  31.139  1.00  0.00     0.031 A 
BRANCH  58  72
ATOM     72  C   UNL A   1      42.348  31.831  36.271  1.00  0.00    -0.014 A 
ATOM     73  C   UNL A   1      43.217  32.267  37.283  1.00  0.00     0.009 A 
ATOM     74  C   UNL A   1      42.427  30.474  35.898  1.00  0.00     0.009 A 
ATOM     75  C   UNL A   1      44.158  31.400  37.849  1.00  0.00     0.001 A 
ATOM     76  C   UNL A   1      43.333  29.596  36.492  1.00  0.00     0.001 A 
ATOM     77  C   UNL A   1      44.219  30.068  37.448  1.00  0.00     0.000 A 
ENDBRANCH  58  72
BRANCH  59  78
ATOM     78  C   UNL A   1      40.297  28.791  28.543  1.00  0.00    -0.014 A 
ATOM     79  C   UNL A   1      40.769  28.649  27.229  1.00  0.00     0.009 A 
ATOM     80  C   UNL A   1      39.975  27.621  29.257  1.00  0.00     0.009 A 
ATOM     81  C   UNL A   1      40.946  27.379  26.666  1.00  0.00     0.001 A 
ATOM     82  C   UNL A   1      40.148  26.354  28.693  1.00  0.00     0.001 A 
ATOM     83  C   UNL A   1      40.649  26.234  27.401  1.00  0.00     0.000 A 
ENDBRANCH  59  78
BRANCH  71  84
ATOM     84  C   UNL A   1      42.582  34.434  30.002  1.00  0.00    -0.014 A 
ATOM     85  C   UNL A   1      43.627  34.881  29.174  1.00  0.00     0.009 A 
ATOM     86  C   UNL A   1      41.270  34.798  29.668  1.00  0.00     0.009 A 
ATOM     87  C   UNL A   1      43.369  35.699  28.070  1.00  0.00     0.001 A 
ATOM     88  C   UNL A   1      41.010  35.598  28.554  1.00  0.00     0.001 A 
ATOM     89  C   UNL A   1      42.059  36.055  27.758  1.00  0.00     0.000 A 
ENDBRANCH  71  84
ENDBRANCH  45  46
ENDBRANCH  38  40
ENDBRANCH  37  38
ENDBRANCH  36  37
ENDBRANCH  35  36
ENDBRANCH  34  35
ENDBRANCH  33  34
ENDBRANCH  32  33
ENDBRANCH  31  32
ENDBRANCH  30  31
ENDBRANCH   1  30
TORSDOF 25
ENDMDL
MODEL 2
REMARK VINA RESULT:      -9.6      2.970      6.433
REMARK SMILES C/C(=N\NC(N)=S)c1nnn(-c2ccc(C(=O)OCCOCCOCCOCCOC(=O)c3ccc(-c4c5nc(c(-c6ccccc6)c6ccc([nH]6)c(-c6ccccc6)c6nc(c(-c7ccccc7)c7ccc4[nH]7)C=C6)C=C5)cc3)cc2)c1C
REMARK SMILES IDX 22 1 21 2 20 3 19 4 18 5 16 6 17 7 15 8 12 9 13 10 82 11
REMARK SMILES IDX 14 12 81 13 11 14 8 15 9 16 83 17 10 18 84 19 2 20 1 21 3 22
REMARK SMILES IDX 4 23 5 25 7 26 6 27 23 30 24 31 25 32 26 33 27 34 28 35
REMARK SMILES IDX 29 36 30 37 31 38 32 39 33 40 34 41 80 42 35 43 79 44 36 45
REMARK SMILES IDX 37 46 38 47 73 48 39 49 78 50 72 51 74 52 40 53 77 54 71 55
REMARK SMILES IDX 70 56 41 58 63 59 48 60 62 61 49 62 52 63 61 64 75 65 50 66
REMARK SMILES IDX 51 67 60 69 76 70 53 71 42 72 43 73 47 74 44 75 46 76 45 77
REMARK SMILES IDX 64 78 65 79 69 80 66 81 68 82 67 83 54 84 55 85 59 86 56 87
REMARK SMILES IDX 58 88 57 89
REMARK H PARENT 4 24 6 28 6 29 74 57 52 68
REMARK Flexibility Score: inf
ROOT
ATOM      1  C   UNL A   1      33.485  33.326  27.879  1.00  0.00     0.188 C 
ENDROOT
BRANCH   1   2
ATOM      2  O   UNL A   1      32.117  33.365  27.507  1.00  0.00    -0.376 OA
BRANCH   2   3
ATOM      3  C   UNL A   1      31.658  32.492  26.498  1.00  0.00     0.202 C 
BRANCH   3   4
ATOM      4  C   UNL A   1      31.855  30.990  26.724  1.00  0.00     0.261 C 
BRANCH   4   5
ATOM      5  O   UNL A   1      32.409  30.266  25.622  1.00  0.00    -0.460 OA
BRANCH   5   6
ATOM      6  C   UNL A   1      31.585  29.463  24.928  1.00  0.00     0.338 C 
ATOM      7  O   UNL A   1      30.567  29.797  24.318  1.00  0.00    -0.246 OA
BRANCH   6   8
ATOM      8  C   UNL A   1      32.190  28.117  24.872  1.00  0.00     0.060 A 
ATOM      9  C   UNL A   1      33.136  25.520  24.925  1.00  0.00     0.067 A 
ATOM     10  C   UNL A   1      32.222  25.881  23.931  1.00  0.00     0.029 A 
ATOM     11  C   UNL A   1      33.693  26.473  25.785  1.00  0.00     0.029 A 
ATOM     12  C   UNL A   1      31.727  27.186  23.926  1.00  0.00     0.018 A 
ATOM     13  C   UNL A   1      33.222  27.777  25.754  1.00  0.00     0.018 A 
BRANCH   9  14
ATOM     14  N   UNL A   1      33.268  24.159  25.261  1.00  0.00    -0.217 N 
ATOM     15  C   UNL A   1      33.974  22.102  25.294  1.00  0.00     0.132 A 
ATOM     16  N   UNL A   1      33.457  22.412  26.526  1.00  0.00    -0.128 NA
ATOM     17  C   UNL A   1      33.891  23.205  24.471  1.00  0.00     0.071 A 
ATOM     18  N   UNL A   1      33.107  23.694  26.517  1.00  0.00    -0.061 NA
ATOM     19  C   UNL A   1      34.482  23.470  23.135  1.00  0.00     0.069 C 
BRANCH  15  20
ATOM     20  C   UNL A   1      34.691  20.870  25.030  1.00  0.00     0.087 C 
ATOM     21  C   UNL A   1      36.190  20.926  25.184  1.00  0.00     0.071 C 
ATOM     22  N   UNL A   1      33.953  19.851  24.705  1.00  0.00    -0.176 NA
BRANCH  22  23
ATOM     23  N   UNL A   1      34.502  18.624  24.476  1.00  0.00    -0.254 N 
ATOM     24  H   UNL A   1      35.454  18.616  24.221  1.00  0.00     0.193 HD
BRANCH  23  25
ATOM     25  C   UNL A   1      33.885  17.391  24.557  1.00  0.00     0.184 C 
ATOM     26  S   UNL A   1      32.830  16.808  25.703  1.00  0.00    -0.040 S 
BRANCH  25  27
ATOM     27  N   UNL A   1      34.229  16.576  23.513  1.00  0.00    -0.375 N 
ATOM     28  H   UNL A   1      34.585  15.675  23.688  1.00  0.00     0.159 HD
ATOM     29  H   UNL A   1      34.120  16.891  22.586  1.00  0.00     0.159 HD
ENDBRANCH  25  27
ENDBRANCH  23  25
ENDBRANCH  22  23
ENDBRANCH  15  20
ENDBRANCH   9  14
ENDBRANCH   6   8
ENDBRANCH   5   6
ENDBRANCH   4   5
ENDBRANCH   3   4
ENDBRANCH   2   3
ENDBRANCH   1   2
BRANCH   1  30
ATOM     30  C   UNL A   1      34.057  34.713  28.258  1.00  0.00     0.188 C 
BRANCH  30  31
ATOM     31  O   UNL A   1      33.942  35.190  29.593  1.00  0.00    -0.377 OA
BRANCH  31  32
ATOM     32  C   UNL A   1      32.816  35.975  29.979  1.00  0.00     0.188 C 
BRANCH  32  33
ATOM     33  C   UNL A   1      32.502  36.309  31.464  1.00  0.00     0.188 C 
BRANCH  33  34
ATOM     34  O   UNL A   1      33.488  37.071  32.138  1.00  0.00    -0.376 OA
BRANCH  34  35
ATOM     35  C   UNL A   1      34.226  36.537  33.216  1.00  0.00     0.202 C 
BRANCH  35  36
ATOM     36  C   UNL A   1      35.242  35.446  32.900  1.00  0.00     0.261 C 
BRANCH  36  37
ATOM     37  O   UNL A   1      35.084  34.272  33.673  1.00  0.00    -0.460 OA
BRANCH  37  38
ATOM     38  C   UNL A   1      34.374  33.301  33.092  1.00  0.00     0.338 C 
ATOM     39  O   UNL A   1      33.156  33.112  33.179  1.00  0.00    -0.246 OA
BRANCH  38  40
ATOM     40  C   UNL A   1      35.297  32.400  32.409  1.00  0.00     0.060 A 
ATOM     41  C   UNL A   1      36.335  31.877  33.177  1.00  0.00     0.016 A 
ATOM     42  C   UNL A   1      35.314  32.382  31.004  1.00  0.00     0.016 A 
ATOM     43  C   UNL A   1      37.516  31.600  32.537  1.00  0.00     0.010 A 
ATOM     44  C   UNL A   1      36.498  32.113  30.367  1.00  0.00     0.010 A 
ATOM     45  C   UNL A   1      37.604  31.841  31.159  1.00  0.00    -0.014 A 
BRANCH  45  46
ATOM     46  C   UNL A   1      38.927  31.842  30.585  1.00  0.00     0.031 A 
ATOM     47  C   UNL A   1      39.330  30.553  30.009  1.00  0.00     0.074 A 
ATOM     48  C   UNL A   1      39.719  32.928  30.590  1.00  0.00     0.049 A 
ATOM     49  N   UNL A   1      40.199  29.726  30.483  1.00  0.00    -0.248 NA
ATOM     50  C   UNL A   1      38.577  30.064  28.849  1.00  0.00     0.031 C 
ATOM     51  C   UNL A   1      39.376  34.321  30.883  1.00  0.00     0.029 A 
ATOM     52  N   UNL A   1      41.023  32.997  30.225  1.00  0.00    -0.354 N 
ATOM     53  C   UNL A   1      40.231  28.671  29.585  1.00  0.00     0.074 A 
ATOM     54  C   UNL A   1      39.119  28.858  28.686  1.00  0.00     0.031 C 
ATOM     55  C   UNL A   1      40.383  35.119  30.453  1.00  0.00     0.029 A 
ATOM     56  C   UNL A   1      41.482  34.282  30.000  1.00  0.00     0.049 A 
ATOM     57  H   UNL A   1      41.595  32.201  30.127  1.00  0.00     0.167 HD
ATOM     58  C   UNL A   1      41.306  27.845  29.503  1.00  0.00     0.031 A 
ATOM     59  C   UNL A   1      42.655  34.609  29.410  1.00  0.00     0.031 A 
ATOM     60  C   UNL A   1      42.165  27.945  30.654  1.00  0.00     0.049 A 
ATOM     61  C   UNL A   1      43.556  33.434  29.505  1.00  0.00     0.074 A 
ATOM     62  C   UNL A   1      42.009  27.715  32.007  1.00  0.00     0.029 A 
ATOM     63  N   UNL A   1      43.304  28.704  30.530  1.00  0.00    -0.354 N 
ATOM     64  N   UNL A   1      44.062  33.010  30.627  1.00  0.00    -0.248 NA
ATOM     65  C   UNL A   1      43.545  32.460  28.422  1.00  0.00     0.031 C 
ATOM     66  C   UNL A   1      42.781  28.730  32.647  1.00  0.00     0.029 A 
ATOM     67  C   UNL A   1      43.393  29.492  31.650  1.00  0.00     0.049 A 
ATOM     68  H   UNL A   1      43.939  28.686  29.778  1.00  0.00     0.167 HD
ATOM     69  C   UNL A   1      44.029  31.626  30.534  1.00  0.00     0.074 A 
ATOM     70  C   UNL A   1      43.807  31.348  29.117  1.00  0.00     0.031 C 
ATOM     71  C   UNL A   1      43.901  30.846  31.648  1.00  0.00     0.031 A 
BRANCH  58  72
ATOM     72  C   UNL A   1      41.774  27.270  28.199  1.00  0.00    -0.014 A 
ATOM     73  C   UNL A   1      41.952  28.128  27.103  1.00  0.00     0.009 A 
ATOM     74  C   UNL A   1      41.769  25.885  27.935  1.00  0.00     0.009 A 
ATOM     75  C   UNL A   1      42.058  27.624  25.802  1.00  0.00     0.001 A 
ATOM     76  C   UNL A   1      41.920  25.378  26.645  1.00  0.00     0.001 A 
ATOM     77  C   UNL A   1      42.036  26.250  25.574  1.00  0.00     0.000 A 
ENDBRANCH  58  72
BRANCH  59  78
ATOM     78  C   UNL A   1      42.920  35.741  28.501  1.00  0.00    -0.014 A 
ATOM     79  C   UNL A   1      42.055  36.023  27.433  1.00  0.00     0.009 A 
ATOM     80  C   UNL A   1      43.878  36.713  28.847  1.00  0.00     0.009 A 
ATOM     81  C   UNL A   1      42.123  37.251  26.762  1.00  0.00     0.001 A 
ATOM     82  C   UNL A   1      43.948  37.936  28.174  1.00  0.00     0.001 A 
ATOM     83  C   UNL A   1      43.059  38.210  27.141  1.00  0.00     0.000 A 
ENDBRANCH  59  78
BRANCH  71  84
ATOM     84  C   UNL A   1      44.025  31.522  32.993  1.00  0.00    -0.014 A 
ATOM     85  C   UNL A   1      42.999  32.308  33.547  1.00  0.00     0.009 A 
ATOM     86  C   UNL A   1      45.149  31.245  33.784  1.00  0.00     0.009 A 
ATOM     87  C   UNL A   1      43.113  32.833  34.838  1.00  0.00     0.001 A 
ATOM     88  C   UNL A   1      45.254  31.752  35.081  1.00  0.00     0.001 A 
ATOM     89  C   UNL A   1      44.240  32.551  35.606  1.00  0.00     0.000 A 
ENDBRANCH  71  84
ENDBRANCH  45  46
ENDBRANCH  38  40
ENDBRANCH  37  38
ENDBRANCH  36  37
ENDBRANCH  35  36
ENDBRANCH  34  35
ENDBRANCH  33  34
ENDBRANCH  32  33
ENDBRANCH  31  32
ENDBRANCH  30  31
ENDBRANCH   1  30
TORSDOF 25
ENDMDL
MODEL 3
REMARK VINA RESULT:      -9.5      3.461      5.188
REMARK SMILES C/C(=N\NC(N)=S)c1nnn(-c2ccc(C(=O)OCCOCCOCCOCCOC(=O)c3ccc(-c4c5nc(c(-c6ccccc6)c6ccc([nH]6)c(-c6ccccc6)c6nc(c(-c7ccccc7)c7ccc4[nH]7)C=C6)C=C5)cc3)cc2)c1C
REMARK SMILES IDX 22 1 21 2 20 3 19 4 18 5 16 6 17 7 15 8 12 9 13 10 82 11
REMARK SMILES IDX 14 12 81 13 11 14 8 15 9 16 83 17 10 18 84 19 2 20 1 21 3 22
REMARK SMILES IDX 4 23 5 25 7 26 6 27 23 30 24 31 25 32 26 33 27 34 28 35
REMARK SMILES IDX 29 36 30 37 31 38 32 39 33 40 34 41 80 42 35 43 79 44 36 45
REMARK SMILES IDX 37 46 38 47 73 48 39 49 78 50 72 51 74 52 40 53 77 54 71 55
REMARK SMILES IDX 70 56 41 58 63 59 48 60 62 61 49 62 52 63 61 64 75 65 50 66
REMARK SMILES IDX 51 67 60 69 76 70 53 71 42 72 43 73 47 74 44 75 46 76 45 77
REMARK SMILES IDX 64 78 65 79 69 80 66 81 68 82 67 83 54 84 55 85 59 86 56 87
REMARK SMILES IDX 58 88 57 89
REMARK H PARENT 4 24 6 28 6 29 74 57 52 68
REMARK Flexibility Score: inf
ROOT
ATOM      1  C   UNL A   1      32.222  28.835  27.050  1.00  0.00     0.188 C 
ENDROOT
BRANCH   1   2
ATOM      2  O   UNL A   1      31.384  29.721  26.327  1.00  0.00    -0.376 OA
BRANCH   2   3
ATOM      3  C   UNL A   1      31.645  29.947  24.959  1.00  0.00     0.202 C 
BRANCH   3   4
ATOM      4  C   UNL A   1      30.563  29.529  23.958  1.00  0.00     0.261 C 
BRANCH   4   5
ATOM      5  O   UNL A   1      30.214  28.142  23.968  1.00  0.00    -0.460 OA
BRANCH   5   6
ATOM      6  C   UNL A   1      30.844  27.334  23.099  1.00  0.00     0.338 C 
ATOM      7  O   UNL A   1      30.761  27.364  21.870  1.00  0.00    -0.246 OA
BRANCH   6   8
ATOM      8  C   UNL A   1      31.794  26.495  23.854  1.00  0.00     0.060 A 
ATOM      9  C   UNL A   1      33.499  24.727  25.125  1.00  0.00     0.067 A 
ATOM     10  C   UNL A   1      33.970  25.432  24.013  1.00  0.00     0.029 A 
ATOM     11  C   UNL A   1      32.252  25.009  25.694  1.00  0.00     0.029 A 
ATOM     12  C   UNL A   1      33.096  26.302  23.360  1.00  0.00     0.018 A 
ATOM     13  C   UNL A   1      31.400  25.901  25.059  1.00  0.00     0.018 A 
BRANCH   9  14
ATOM     14  N   UNL A   1      34.143  23.528  25.488  1.00  0.00    -0.217 N 
ATOM     15  C   UNL A   1      34.909  21.494  25.412  1.00  0.00     0.132 A 
ATOM     16  N   UNL A   1      35.714  22.240  26.236  1.00  0.00    -0.128 NA
ATOM     17  C   UNL A   1      33.911  22.295  24.899  1.00  0.00     0.071 A 
ATOM     18  N   UNL A   1      35.284  23.497  26.206  1.00  0.00    -0.061 NA
ATOM     19  C   UNL A   1      32.921  22.046  23.821  1.00  0.00     0.069 C 
BRANCH  15  20
ATOM     20  C   UNL A   1      35.240  20.144  25.003  1.00  0.00     0.087 C 
ATOM     21  C   UNL A   1      36.705  19.850  24.802  1.00  0.00     0.071 C 
ATOM     22  N   UNL A   1      34.232  19.335  24.873  1.00  0.00    -0.176 NA
BRANCH  22  23
ATOM     23  N   UNL A   1      34.413  18.025  24.536  1.00  0.00    -0.254 N 
ATOM     24  H   UNL A   1      35.344  17.743  24.381  1.00  0.00     0.193 HD
BRANCH  23  25
ATOM     25  C   UNL A   1      33.450  17.048  24.387  1.00  0.00     0.184 C 
ATOM     26  S   UNL A   1      33.230  15.637  25.240  1.00  0.00    -0.040 S 
BRANCH  25  27
ATOM     27  N   UNL A   1      32.576  17.340  23.374  1.00  0.00    -0.375 N 
ATOM     28  H   UNL A   1      31.834  17.967  23.530  1.00  0.00     0.159 HD
ATOM     29  H   UNL A   1      32.691  16.923  22.490  1.00  0.00     0.159 HD
ENDBRANCH  25  27
ENDBRANCH  23  25
ENDBRANCH  22  23
ENDBRANCH  15  20
ENDBRANCH   9  14
ENDBRANCH   6   8
ENDBRANCH   5   6
ENDBRANCH   4   5
ENDBRANCH   3   4
ENDBRANCH   2   3
ENDBRANCH   1   2
BRANCH   1  30
ATOM     30  C   UNL A   1      33.717  28.958  26.671  1.00  0.00     0.188 C 
BRANCH  30  31
ATOM     31  O   UNL A   1      34.641  29.519  27.596  1.00  0.00    -0.377 OA
BRANCH  31  32
ATOM     32  C   UNL A   1      34.459  30.850  28.073  1.00  0.00     0.188 C 
BRANCH  32  33
ATOM     33  C   UNL A   1      35.457  31.996  27.748  1.00  0.00     0.188 C 
BRANCH  33  34
ATOM     34  O   UNL A   1      35.003  33.303  28.055  1.00  0.00    -0.376 OA
BRANCH  34  35
ATOM     35  C   UNL A   1      34.204  33.562  29.189  1.00  0.00     0.202 C 
BRANCH  35  36
ATOM     36  C   UNL A   1      34.903  33.623  30.543  1.00  0.00     0.261 C 
BRANCH  36  37
ATOM     37  O   UNL A   1      34.941  32.385  31.225  1.00  0.00    -0.460 OA
BRANCH  37  38
ATOM     38  C   UNL A   1      36.103  32.101  31.821  1.00  0.00     0.338 C 
ATOM     39  O   UNL A   1      36.480  32.474  32.936  1.00  0.00    -0.246 OA
BRANCH  38  40
ATOM     40  C   UNL A   1      36.935  31.359  30.880  1.00  0.00     0.060 A 
ATOM     41  C   UNL A   1      36.638  30.007  30.722  1.00  0.00     0.016 A 
ATOM     42  C   UNL A   1      38.158  31.916  30.467  1.00  0.00     0.016 A 
ATOM     43  C   UNL A   1      37.676  29.164  30.416  1.00  0.00     0.010 A 
ATOM     44  C   UNL A   1      39.196  31.070  30.170  1.00  0.00     0.010 A 
ATOM     45  C   UNL A   1      38.959  29.707  30.266  1.00  0.00    -0.014 A 
BRANCH  45  46
ATOM     46  C   UNL A   1      40.060  28.776  30.262  1.00  0.00     0.031 A 
ATOM     47  C   UNL A   1      40.662  28.555  31.584  1.00  0.00     0.074 A 
ATOM     48  C   UNL A   1      40.498  28.175  29.143  1.00  0.00     0.049 A 
ATOM     49  N   UNL A   1      41.810  28.972  31.995  1.00  0.00    -0.248 NA
ATOM     50  C   UNL A   1      39.827  27.921  32.611  1.00  0.00     0.031 C 
ATOM     51  C   UNL A   1      39.859  28.090  27.828  1.00  0.00     0.029 A 
ATOM     52  N   UNL A   1      41.611  27.413  28.999  1.00  0.00    -0.354 N 
ATOM     53  C   UNL A   1      41.927  28.506  33.296  1.00  0.00     0.074 A 
ATOM     54  C   UNL A   1      40.630  27.997  33.671  1.00  0.00     0.031 C 
ATOM     55  C   UNL A   1      40.477  27.127  27.102  1.00  0.00     0.029 A 
ATOM     56  C   UNL A   1      41.631  26.649  27.847  1.00  0.00     0.049 A 
ATOM     57  H   UNL A   1      42.343  27.405  29.658  1.00  0.00     0.167 HD
ATOM     58  C   UNL A   1      43.140  28.361  33.888  1.00  0.00     0.031 A 
ATOM     59  C   UNL A   1      42.498  25.644  27.581  1.00  0.00     0.031 A 
ATOM     60  C   UNL A   1      44.178  29.082  33.200  1.00  0.00     0.049 A 
ATOM     61  C   UNL A   1      43.686  25.827  28.451  1.00  0.00     0.074 A 
ATOM     62  C   UNL A   1      44.408  30.411  32.903  1.00  0.00     0.029 A 
ATOM     63  N   UNL A   1      45.001  28.362  32.366  1.00  0.00    -0.354 N 
ATOM     64  N   UNL A   1      44.534  26.804  28.306  1.00  0.00    -0.248 NA
ATOM     65  C   UNL A   1      43.697  25.184  29.757  1.00  0.00     0.031 C 
ATOM     66  C   UNL A   1      44.994  30.404  31.602  1.00  0.00     0.029 A 
ATOM     67  C   UNL A   1      45.123  29.074  31.199  1.00  0.00     0.049 A 
ATOM     68  H   UNL A   1      45.425  27.497  32.568  1.00  0.00     0.167 HD
ATOM     69  C   UNL A   1      44.866  27.182  29.600  1.00  0.00     0.074 A 
ATOM     70  C   UNL A   1      44.410  26.082  30.445  1.00  0.00     0.031 C 
ATOM     71  C   UNL A   1      45.220  28.470  29.889  1.00  0.00     0.031 A 
BRANCH  58  72
ATOM     72  C   UNL A   1      43.436  27.240  34.840  1.00  0.00    -0.014 A 
ATOM     73  C   UNL A   1      43.529  25.932  34.339  1.00  0.00     0.009 A 
ATOM     74  C   UNL A   1      43.341  27.386  36.238  1.00  0.00     0.009 A 
ATOM     75  C   UNL A   1      43.469  24.826  35.194  1.00  0.00     0.001 A 
ATOM     76  C   UNL A   1      43.326  26.287  37.097  1.00  0.00     0.001 A 
ATOM     77  C   UNL A   1      43.361  25.005  36.571  1.00  0.00     0.000 A 
ENDBRANCH  58  72
BRANCH  59  78
ATOM     78  C   UNL A   1      42.221  24.382  26.869  1.00  0.00    -0.014 A 
ATOM     79  C   UNL A   1      42.974  24.010  25.746  1.00  0.00     0.009 A 
ATOM     80  C   UNL A   1      41.392  23.408  27.459  1.00  0.00     0.009 A 
ATOM     81  C   UNL A   1      42.927  22.699  25.255  1.00  0.00     0.001 A 
ATOM     82  C   UNL A   1      41.343  22.101  26.966  1.00  0.00     0.001 A 
ATOM     83  C   UNL A   1      42.123  21.743  25.872  1.00  0.00     0.000 A 
ENDBRANCH  59  78
BRANCH  71  84
ATOM     84  C   UNL A   1      45.459  29.407  28.729  1.00  0.00    -0.014 A 
ATOM     85  C   UNL A   1      46.728  29.599  28.155  1.00  0.00     0.009 A 
ATOM     86  C   UNL A   1      44.352  30.004  28.108  1.00  0.00     0.009 A 
ATOM     87  C   UNL A   1      46.889  30.397  27.017  1.00  0.00     0.001 A 
ATOM     88  C   UNL A   1      44.510  30.784  26.961  1.00  0.00     0.001 A 
ATOM     89  C   UNL A   1      45.778  30.987  26.419  1.00  0.00     0.000 A 
ENDBRANCH  71  84
ENDBRANCH  45  46
ENDBRANCH  38  40
ENDBRANCH  37  38
ENDBRANCH  36  37
ENDBRANCH  35  36
ENDBRANCH  34  35
ENDBRANCH  33  34
ENDBRANCH  32  33
ENDBRANCH  31  32
ENDBRANCH  30  31
ENDBRANCH   1  30
TORSDOF 25
ENDMDL
