MODEL 1
REMARK VINA RESULT:     -11.5      0.000      0.000
REMARK SMILES Cc1cccc(N2C(=O)/C(=C/c3ccc(C(=O)OCCOCCOCCOCCOC(=O)c4ccc(-c5c6nc(c(-c7ccccc7)c7ccc([nH]7)c(-c7ccccc7)c7nc(c(-c8ccccc8)c8ccc5[nH]8)C=C7)C=C6)cc4)cc3)c3ccccc3C2=O)c1
REMARK SMILES IDX 24 1 23 2 22 3 21 4 20 5 19 6 18 7 16 8 17 9 15 10 12 11
REMARK SMILES IDX 13 12 82 13 14 14 81 15 11 16 7 17 8 18 89 19 9 20 10 21
REMARK SMILES IDX 88 22 90 23 83 24 87 25 84 26 86 27 85 28 6 29 1 30 2 31
REMARK SMILES IDX 3 32 91 33 4 34 5 35 25 36 26 37 27 38 28 39 29 40 30 41
REMARK SMILES IDX 31 42 32 43 33 44 34 45 80 46 35 47 79 48 36 49 37 50 38 51
REMARK SMILES IDX 73 52 39 53 78 54 72 55 74 56 40 57 77 58 71 59 70 60 41 62
REMARK SMILES IDX 63 63 48 64 62 65 49 66 52 67 61 68 75 69 50 70 51 71 60 73
REMARK SMILES IDX 76 74 53 75 42 76 43 77 47 78 44 79 46 80 45 81 64 82 65 83
REMARK SMILES IDX 69 84 66 85 68 86 67 87 54 88 55 89 59 90 56 91 58 92 57 93
REMARK H PARENT 74 61 52 72
REMARK Flexibility Score: inf
ROOT
ATOM      1  O   UNL A   1      35.429  35.692  33.315  1.00  0.00    -0.377 OA
ENDROOT
BRANCH   1   2
ATOM      2  C   UNL A   1      34.242  36.352  32.882  1.00  0.00     0.188 C 
BRANCH   2   3
ATOM      3  C   UNL A   1      33.457  35.600  31.813  1.00  0.00     0.188 C 
BRANCH   3   4
ATOM      4  O   UNL A   1      33.212  36.249  30.571  1.00  0.00    -0.376 OA
BRANCH   4   5
ATOM      5  C   UNL A   1      33.079  35.361  29.462  1.00  0.00     0.202 C 
BRANCH   5   6
ATOM      6  C   UNL A   1      34.294  34.474  29.188  1.00  0.00     0.261 C 
BRANCH   6   7
ATOM      7  O   UNL A   1      33.911  33.250  28.566  1.00  0.00    -0.460 OA
BRANCH   7   8
ATOM      8  C   UNL A   1      34.931  32.500  28.100  1.00  0.00     0.338 C 
ATOM      9  O   UNL A   1      36.116  32.605  28.331  1.00  0.00    -0.246 OA
BRANCH   8  10
ATOM     10  C   UNL A   1      34.293  31.284  27.575  1.00  0.00     0.060 A 
ATOM     11  C   UNL A   1      33.210  28.767  27.112  1.00  0.00    -0.025 A 
ATOM     12  C   UNL A   1      34.595  28.928  27.277  1.00  0.00     0.009 A 
ATOM     13  C   UNL A   1      32.371  29.886  27.167  1.00  0.00     0.009 A 
ATOM     14  C   UNL A   1      35.140  30.181  27.485  1.00  0.00     0.016 A 
ATOM     15  C   UNL A   1      32.909  31.148  27.431  1.00  0.00     0.016 A 
BRANCH  11  16
ATOM     16  C   UNL A   1      32.785  27.408  26.779  1.00  0.00     0.022 C 
ATOM     17  N   UNL A   1      32.412  24.797  24.613  1.00  0.00    -0.242 N 
ATOM     18  C   UNL A   1      32.010  25.407  25.811  1.00  0.00     0.265 C 
ATOM     19  C   UNL A   1      32.350  25.531  23.401  1.00  0.00     0.265 C 
ATOM     20  O   UNL A   1      31.634  24.893  26.861  1.00  0.00    -0.268 OA
ATOM     21  C   UNL A   1      32.066  26.896  25.767  1.00  0.00     0.049 C 
ATOM     22  C   UNL A   1      31.610  26.830  23.414  1.00  0.00     0.048 A 
ATOM     23  O   UNL A   1      32.822  25.218  22.310  1.00  0.00    -0.268 OA
ATOM     24  C   UNL A   1      31.458  27.524  24.613  1.00  0.00    -0.000 A 
ATOM     25  C   UNL A   1      31.071  27.352  22.233  1.00  0.00     0.014 A 
ATOM     26  C   UNL A   1      30.700  28.700  24.650  1.00  0.00     0.010 A 
ATOM     27  C   UNL A   1      30.344  28.544  22.264  1.00  0.00     0.001 A 
ATOM     28  C   UNL A   1      30.149  29.211  23.474  1.00  0.00     0.001 A 
BRANCH  17  29
ATOM     29  C   UNL A   1      32.860  23.399  24.634  1.00  0.00     0.053 A 
ATOM     30  C   UNL A   1      36.060  21.414  25.404  1.00  0.00     0.044 C 
ATOM     31  C   UNL A   1      34.641  21.711  25.008  1.00  0.00    -0.049 A 
ATOM     32  C   UNL A   1      33.752  20.681  24.733  1.00  0.00     0.003 A 
ATOM     33  C   UNL A   1      34.188  23.042  24.950  1.00  0.00     0.030 A 
ATOM     34  C   UNL A   1      32.443  20.988  24.387  1.00  0.00     0.002 A 
ATOM     35  C   UNL A   1      32.008  22.323  24.337  1.00  0.00     0.027 A 
ENDBRANCH  17  29
ENDBRANCH  11  16
ENDBRANCH   8  10
ENDBRANCH   7   8
ENDBRANCH   6   7
ENDBRANCH   5   6
ENDBRANCH   4   5
ENDBRANCH   3   4
ENDBRANCH   2   3
ENDBRANCH   1   2
BRANCH   1  36
ATOM     36  C   UNL A   1      35.243  34.280  33.395  1.00  0.00     0.188 C 
BRANCH  36  37
ATOM     37  C   UNL A   1      36.535  33.588  33.796  1.00  0.00     0.188 C 
BRANCH  37  38
ATOM     38  O   UNL A   1      36.594  32.182  33.611  1.00  0.00    -0.376 OA
BRANCH  38  39
ATOM     39  C   UNL A   1      37.653  31.621  32.845  1.00  0.00     0.202 C 
BRANCH  39  40
ATOM     40  C   UNL A   1      37.477  31.685  31.322  1.00  0.00     0.261 C 
BRANCH  40  41
ATOM     41  O   UNL A   1      38.182  30.589  30.706  1.00  0.00    -0.460 OA
BRANCH  41  42
ATOM     42  C   UNL A   1      37.415  29.534  30.313  1.00  0.00     0.338 C 
ATOM     43  O   UNL A   1      36.248  29.358  30.621  1.00  0.00    -0.246 OA
BRANCH  42  44
ATOM     44  C   UNL A   1      38.300  28.457  29.769  1.00  0.00     0.060 A 
ATOM     45  C   UNL A   1      39.050  27.669  30.661  1.00  0.00     0.016 A 
ATOM     46  C   UNL A   1      38.679  28.521  28.434  1.00  0.00     0.016 A 
ATOM     47  C   UNL A   1      40.292  27.143  30.266  1.00  0.00     0.010 A 
ATOM     48  C   UNL A   1      39.941  28.076  28.085  1.00  0.00     0.010 A 
ATOM     49  C   UNL A   1      40.801  27.450  29.007  1.00  0.00    -0.014 A 
BRANCH  49  50
ATOM     50  C   UNL A   1      42.237  27.398  28.623  1.00  0.00     0.031 A 
ATOM     51  C   UNL A   1      42.987  28.688  28.435  1.00  0.00     0.074 A 
ATOM     52  C   UNL A   1      42.917  26.230  28.806  1.00  0.00     0.049 A 
ATOM     53  N   UNL A   1      44.245  28.794  28.164  1.00  0.00    -0.248 NA
ATOM     54  C   UNL A   1      42.361  30.010  28.553  1.00  0.00     0.031 C 
ATOM     55  C   UNL A   1      44.340  26.046  29.122  1.00  0.00     0.029 A 
ATOM     56  N   UNL A   1      42.459  24.913  28.774  1.00  0.00    -0.354 N 
ATOM     57  C   UNL A   1      44.646  30.086  28.472  1.00  0.00     0.074 A 
ATOM     58  C   UNL A   1      43.420  30.826  28.602  1.00  0.00     0.031 C 
ATOM     59  C   UNL A   1      44.653  24.742  29.200  1.00  0.00     0.029 A 
ATOM     60  C   UNL A   1      43.551  24.041  28.598  1.00  0.00     0.049 A 
ATOM     61  H   UNL A   1      41.518  24.636  28.860  1.00  0.00     0.167 HD
ATOM     62  C   UNL A   1      45.963  30.337  28.756  1.00  0.00     0.031 A 
ATOM     63  C   UNL A   1      43.698  23.362  27.417  1.00  0.00     0.031 A 
ATOM     64  C   UNL A   1      46.819  29.172  28.462  1.00  0.00     0.049 A 
ATOM     65  C   UNL A   1      44.843  23.932  26.573  1.00  0.00     0.074 A 
ATOM     66  C   UNL A   1      47.799  28.481  29.151  1.00  0.00     0.029 A 
ATOM     67  N   UNL A   1      46.581  28.427  27.309  1.00  0.00    -0.354 N 
ATOM     68  N   UNL A   1      45.312  25.150  26.728  1.00  0.00    -0.248 NA
ATOM     69  C   UNL A   1      45.650  23.175  25.617  1.00  0.00     0.031 C 
ATOM     70  C   UNL A   1      47.997  27.228  28.502  1.00  0.00     0.029 A 
ATOM     71  C   UNL A   1      47.241  27.221  27.340  1.00  0.00     0.049 A 
ATOM     72  H   UNL A   1      46.010  28.726  26.564  1.00  0.00     0.167 HD
ATOM     73  C   UNL A   1      46.480  25.307  26.037  1.00  0.00     0.074 A 
ATOM     74  C   UNL A   1      46.622  24.059  25.309  1.00  0.00     0.031 C 
ATOM     75  C   UNL A   1      47.291  26.404  26.137  1.00  0.00     0.031 A 
BRANCH  62  76
ATOM     76  C   UNL A   1      46.479  31.555  29.529  1.00  0.00    -0.014 A 
ATOM     77  C   UNL A   1      47.723  32.124  29.186  1.00  0.00     0.009 A 
ATOM     78  C   UNL A   1      45.866  32.116  30.667  1.00  0.00     0.009 A 
ATOM     79  C   UNL A   1      48.325  33.153  29.933  1.00  0.00     0.001 A 
ATOM     80  C   UNL A   1      46.438  33.179  31.395  1.00  0.00     0.001 A 
ATOM     81  C   UNL A   1      47.676  33.689  31.035  1.00  0.00     0.000 A 
ENDBRANCH  62  76
BRANCH  63  82
ATOM     82  C   UNL A   1      42.404  22.684  27.065  1.00  0.00    -0.014 A 
ATOM     83  C   UNL A   1      42.484  21.916  25.874  1.00  0.00     0.009 A 
ATOM     84  C   UNL A   1      41.562  22.211  28.086  1.00  0.00     0.009 A 
ATOM     85  C   UNL A   1      42.030  20.590  25.845  1.00  0.00     0.001 A 
ATOM     86  C   UNL A   1      41.060  20.896  28.023  1.00  0.00     0.001 A 
ATOM     87  C   UNL A   1      41.369  20.063  26.946  1.00  0.00     0.000 A 
ENDBRANCH  63  82
BRANCH  75  88
ATOM     88  C   UNL A   1      48.266  26.878  25.080  1.00  0.00    -0.014 A 
ATOM     89  C   UNL A   1      49.642  26.656  25.151  1.00  0.00     0.009 A 
ATOM     90  C   UNL A   1      47.761  27.338  23.835  1.00  0.00     0.009 A 
ATOM     91  C   UNL A   1      50.469  26.891  24.045  1.00  0.00     0.001 A 
ATOM     92  C   UNL A   1      48.572  27.525  22.718  1.00  0.00     0.001 A 
ATOM     93  C   UNL A   1      49.934  27.305  22.826  1.00  0.00     0.000 A 
ENDBRANCH  75  88
ENDBRANCH  49  50
ENDBRANCH  42  44
ENDBRANCH  41  42
ENDBRANCH  40  41
ENDBRANCH  39  40
ENDBRANCH  38  39
ENDBRANCH  37  38
ENDBRANCH  36  37
ENDBRANCH   1  36
TORSDOF 22
ENDMDL
MODEL 2
REMARK VINA RESULT:     -11.3      3.418      5.672
REMARK SMILES Cc1cccc(N2C(=O)/C(=C/c3ccc(C(=O)OCCOCCOCCOCCOC(=O)c4ccc(-c5c6nc(c(-c7ccccc7)c7ccc([nH]7)c(-c7ccccc7)c7nc(c(-c8ccccc8)c8ccc5[nH]8)C=C7)C=C6)cc4)cc3)c3ccccc3C2=O)c1
REMARK SMILES IDX 24 1 23 2 22 3 21 4 20 5 19 6 18 7 16 8 17 9 15 10 12 11
REMARK SMILES IDX 13 12 82 13 14 14 81 15 11 16 7 17 8 18 89 19 9 20 10 21
REMARK SMILES IDX 88 22 90 23 83 24 87 25 84 26 86 27 85 28 6 29 1 30 2 31
REMARK SMILES IDX 3 32 91 33 4 34 5 35 25 36 26 37 27 38 28 39 29 40 30 41
REMARK SMILES IDX 31 42 32 43 33 44 34 45 80 46 35 47 79 48 36 49 37 50 38 51
REMARK SMILES IDX 73 52 39 53 78 54 72 55 74 56 40 57 77 58 71 59 70 60 41 62
REMARK SMILES IDX 63 63 48 64 62 65 49 66 52 67 61 68 75 69 50 70 51 71 60 73
REMARK SMILES IDX 76 74 53 75 42 76 43 77 47 78 44 79 46 80 45 81 64 82 65 83
REMARK SMILES IDX 69 84 66 85 68 86 67 87 54 88 55 89 59 90 56 91 58 92 57 93
REMARK H PARENT 74 61 52 72
REMARK Flexibility Score: inf
ROOT
ATOM      1  O   UNL A   1      37.349  33.144  31.086  1.00  0.00    -0.377 OA
ENDROOT
BRANCH   1   2
ATOM      2  C   UNL A   1      36.464  33.386  32.176  1.00  0.00     0.188 C 
BRANCH   2   3
ATOM      3  C   UNL A   1      35.150  32.615  32.103  1.00  0.00     0.188 C 
BRANCH   3   4
ATOM      4  O   UNL A   1      34.022  33.256  31.518  1.00  0.00    -0.376 OA
BRANCH   4   5
ATOM      5  C   UNL A   1      34.335  34.434  30.778  1.00  0.00     0.202 C 
BRANCH   5   6
ATOM      6  C   UNL A   1      34.261  34.288  29.258  1.00  0.00     0.261 C 
BRANCH   6   7
ATOM      7  O   UNL A   1      34.009  32.937  28.880  1.00  0.00    -0.460 OA
BRANCH   7   8
ATOM      8  C   UNL A   1      34.918  32.397  28.042  1.00  0.00     0.338 C 
ATOM      9  O   UNL A   1      36.102  32.636  27.953  1.00  0.00    -0.246 OA
BRANCH   8  10
ATOM     10  C   UNL A   1      34.278  31.177  27.529  1.00  0.00     0.060 A 
ATOM     11  C   UNL A   1      33.165  28.666  27.100  1.00  0.00    -0.025 A 
ATOM     12  C   UNL A   1      34.545  28.808  27.314  1.00  0.00     0.009 A 
ATOM     13  C   UNL A   1      32.346  29.802  27.089  1.00  0.00     0.009 A 
ATOM     14  C   UNL A   1      35.106  30.057  27.505  1.00  0.00     0.016 A 
ATOM     15  C   UNL A   1      32.897  31.062  27.336  1.00  0.00     0.016 A 
BRANCH  11  16
ATOM     16  C   UNL A   1      32.728  27.306  26.792  1.00  0.00     0.022 C 
ATOM     17  N   UNL A   1      32.337  24.657  24.676  1.00  0.00    -0.242 N 
ATOM     18  C   UNL A   1      31.936  25.295  25.860  1.00  0.00     0.265 C 
ATOM     19  C   UNL A   1      32.289  25.367  23.450  1.00  0.00     0.265 C 
ATOM     20  O   UNL A   1      31.550  24.805  26.917  1.00  0.00    -0.268 OA
ATOM     21  C   UNL A   1      32.008  26.781  25.787  1.00  0.00     0.049 C 
ATOM     22  C   UNL A   1      31.562  26.673  23.434  1.00  0.00     0.048 A 
ATOM     23  O   UNL A   1      32.763  25.027  22.368  1.00  0.00    -0.268 OA
ATOM     24  C   UNL A   1      31.412  27.393  24.617  1.00  0.00    -0.000 A 
ATOM     25  C   UNL A   1      31.034  27.178  22.239  1.00  0.00     0.014 A 
ATOM     26  C   UNL A   1      30.666  28.577  24.628  1.00  0.00     0.010 A 
ATOM     27  C   UNL A   1      30.320  28.378  22.243  1.00  0.00     0.001 A 
ATOM     28  C   UNL A   1      30.127  29.071  23.438  1.00  0.00     0.001 A 
BRANCH  17  29
ATOM     29  C   UNL A   1      32.770  23.255  24.727  1.00  0.00     0.053 A 
ATOM     30  C   UNL A   1      36.054  21.259  24.804  1.00  0.00     0.044 C 
ATOM     31  C   UNL A   1      34.582  21.559  24.782  1.00  0.00    -0.049 A 
ATOM     32  C   UNL A   1      33.649  20.534  24.876  1.00  0.00     0.003 A 
ATOM     33  C   UNL A   1      34.133  22.890  24.704  1.00  0.00     0.030 A 
ATOM     34  C   UNL A   1      32.296  20.845  24.870  1.00  0.00     0.002 A 
ATOM     35  C   UNL A   1      31.867  22.181  24.794  1.00  0.00     0.027 A 
ENDBRANCH  17  29
ENDBRANCH  11  16
ENDBRANCH   8  10
ENDBRANCH   7   8
ENDBRANCH   6   7
ENDBRANCH   5   6
ENDBRANCH   4   5
ENDBRANCH   3   4
ENDBRANCH   2   3
ENDBRANCH   1   2
BRANCH   1  36
ATOM     36  C   UNL A   1      38.327  32.158  31.413  1.00  0.00     0.188 C 
BRANCH  36  37
ATOM     37  C   UNL A   1      38.371  31.070  30.353  1.00  0.00     0.188 C 
BRANCH  37  38
ATOM     38  O   UNL A   1      39.640  30.497  30.075  1.00  0.00    -0.376 OA
BRANCH  38  39
ATOM     39  C   UNL A   1      39.754  29.087  29.933  1.00  0.00     0.202 C 
BRANCH  39  40
ATOM     40  C   UNL A   1      39.015  28.479  28.733  1.00  0.00     0.261 C 
BRANCH  40  41
ATOM     41  O   UNL A   1      39.943  27.731  27.921  1.00  0.00    -0.460 OA
BRANCH  41  42
ATOM     42  C   UNL A   1      40.033  26.399  28.193  1.00  0.00     0.338 C 
ATOM     43  O   UNL A   1      39.254  25.767  28.888  1.00  0.00    -0.246 OA
BRANCH  42  44
ATOM     44  C   UNL A   1      41.401  25.914  27.832  1.00  0.00     0.060 A 
ATOM     45  C   UNL A   1      41.808  24.633  28.250  1.00  0.00     0.016 A 
ATOM     46  C   UNL A   1      42.364  26.849  27.470  1.00  0.00     0.016 A 
ATOM     47  C   UNL A   1      43.163  24.376  28.522  1.00  0.00     0.010 A 
ATOM     48  C   UNL A   1      43.679  26.612  27.826  1.00  0.00     0.010 A 
ATOM     49  C   UNL A   1      44.093  25.408  28.427  1.00  0.00    -0.014 A 
BRANCH  49  50
ATOM     50  C   UNL A   1      45.410  25.445  29.116  1.00  0.00     0.031 A 
ATOM     51  C   UNL A   1      46.645  25.066  28.346  1.00  0.00     0.074 A 
ATOM     52  C   UNL A   1      45.516  26.152  30.278  1.00  0.00     0.049 A 
ATOM     53  N   UNL A   1      47.855  25.111  28.795  1.00  0.00    -0.248 NA
ATOM     54  C   UNL A   1      46.618  24.601  26.955  1.00  0.00     0.031 C 
ATOM     55  C   UNL A   1      46.687  26.867  30.804  1.00  0.00     0.029 A 
ATOM     56  N   UNL A   1      44.558  26.414  31.257  1.00  0.00    -0.354 N 
ATOM     57  C   UNL A   1      48.720  25.095  27.711  1.00  0.00     0.074 A 
ATOM     58  C   UNL A   1      47.907  24.665  26.604  1.00  0.00     0.031 C 
ATOM     59  C   UNL A   1      46.417  27.424  31.995  1.00  0.00     0.029 A 
ATOM     60  C   UNL A   1      45.200  26.808  32.448  1.00  0.00     0.049 A 
ATOM     61  H   UNL A   1      43.584  26.335  31.135  1.00  0.00     0.167 HD
ATOM     62  C   UNL A   1      49.979  25.617  27.841  1.00  0.00     0.031 A 
ATOM     63  C   UNL A   1      45.184  25.977  33.537  1.00  0.00     0.031 A 
ATOM     64  C   UNL A   1      50.300  25.933  29.246  1.00  0.00     0.049 A 
ATOM     65  C   UNL A   1      46.550  25.324  33.773  1.00  0.00     0.074 A 
ATOM     66  C   UNL A   1      50.818  27.033  29.907  1.00  0.00     0.029 A 
ATOM     67  N   UNL A   1      49.906  25.049  30.248  1.00  0.00    -0.354 N 
ATOM     68  N   UNL A   1      47.463  25.209  32.835  1.00  0.00    -0.248 NA
ATOM     69  C   UNL A   1      47.072  24.895  35.071  1.00  0.00     0.031 C 
ATOM     70  C   UNL A   1      50.549  26.880  31.298  1.00  0.00     0.029 A 
ATOM     71  C   UNL A   1      49.995  25.624  31.495  1.00  0.00     0.049 A 
ATOM     72  H   UNL A   1      49.601  24.127  30.085  1.00  0.00     0.167 HD
ATOM     73  C   UNL A   1      48.661  24.830  33.373  1.00  0.00     0.074 A 
ATOM     74  C   UNL A   1      48.352  24.590  34.771  1.00  0.00     0.031 C 
ATOM     75  C   UNL A   1      49.838  24.791  32.677  1.00  0.00     0.031 A 
BRANCH  62  76
ATOM     76  C   UNL A   1      50.864  26.079  26.678  1.00  0.00    -0.014 A 
ATOM     77  C   UNL A   1      50.653  27.350  26.103  1.00  0.00     0.009 A 
ATOM     78  C   UNL A   1      51.830  25.288  26.026  1.00  0.00     0.009 A 
ATOM     79  C   UNL A   1      51.331  27.789  24.950  1.00  0.00     0.001 A 
ATOM     80  C   UNL A   1      52.547  25.737  24.898  1.00  0.00     0.001 A 
ATOM     81  C   UNL A   1      52.288  26.983  24.352  1.00  0.00     0.000 A 
ENDBRANCH  62  76
BRANCH  63  82
ATOM     82  C   UNL A   1      43.775  25.530  33.806  1.00  0.00    -0.014 A 
ATOM     83  C   UNL A   1      43.658  24.126  33.978  1.00  0.00     0.009 A 
ATOM     84  C   UNL A   1      42.913  26.349  34.558  1.00  0.00     0.009 A 
ATOM     85  C   UNL A   1      42.976  23.593  35.080  1.00  0.00     0.001 A 
ATOM     86  C   UNL A   1      42.184  25.797  35.628  1.00  0.00     0.001 A 
ATOM     87  C   UNL A   1      42.286  24.439  35.939  1.00  0.00     0.000 A 
ENDBRANCH  63  82
BRANCH  75  88
ATOM     88  C   UNL A   1      51.035  23.929  33.019  1.00  0.00    -0.014 A 
ATOM     89  C   UNL A   1      52.298  24.450  33.305  1.00  0.00     0.009 A 
ATOM     90  C   UNL A   1      50.831  22.557  33.323  1.00  0.00     0.009 A 
ATOM     91  C   UNL A   1      53.304  23.644  33.852  1.00  0.00     0.001 A 
ATOM     92  C   UNL A   1      51.813  21.765  33.915  1.00  0.00     0.001 A 
ATOM     93  C   UNL A   1      53.057  22.311  34.174  1.00  0.00     0.000 A 
ENDBRANCH  75  88
ENDBRANCH  49  50
ENDBRANCH  42  44
ENDBRANCH  41  42
ENDBRANCH  40  41
ENDBRANCH  39  40
ENDBRANCH  38  39
ENDBRANCH  37  38
ENDBRANCH  36  37
ENDBRANCH   1  36
TORSDOF 22
ENDMDL
MODEL 3
REMARK VINA RESULT:     -11.2      5.238      9.727
REMARK SMILES Cc1cccc(N2C(=O)/C(=C/c3ccc(C(=O)OCCOCCOCCOCCOC(=O)c4ccc(-c5c6nc(c(-c7ccccc7)c7ccc([nH]7)c(-c7ccccc7)c7nc(c(-c8ccccc8)c8ccc5[nH]8)C=C7)C=C6)cc4)cc3)c3ccccc3C2=O)c1
REMARK SMILES IDX 24 1 23 2 22 3 21 4 20 5 19 6 18 7 16 8 17 9 15 10 12 11
REMARK SMILES IDX 13 12 82 13 14 14 81 15 11 16 7 17 8 18 89 19 9 20 10 21
REMARK SMILES IDX 88 22 90 23 83 24 87 25 84 26 86 27 85 28 6 29 1 30 2 31
REMARK SMILES IDX 3 32 91 33 4 34 5 35 25 36 26 37 27 38 28 39 29 40 30 41
REMARK SMILES IDX 31 42 32 43 33 44 34 45 80 46 35 47 79 48 36 49 37 50 38 51
REMARK SMILES IDX 73 52 39 53 78 54 72 55 74 56 40 57 77 58 71 59 70 60 41 62
REMARK SMILES IDX 63 63 48 64 62 65 49 66 52 67 61 68 75 69 50 70 51 71 60 73
REMARK SMILES IDX 76 74 53 75 42 76 43 77 47 78 44 79 46 80 45 81 64 82 65 83
REMARK SMILES IDX 69 84 66 85 68 86 67 87 54 88 55 89 59 90 56 91 58 92 57 93
REMARK H PARENT 74 61 52 72
REMARK Flexibility Score: inf
ROOT
ATOM      1  O   UNL A   1      46.231  20.249  25.338  1.00  0.00    -0.377 OA
ENDROOT
BRANCH   1   2
ATOM      2  C   UNL A   1      45.271  19.417  24.693  1.00  0.00     0.188 C 
BRANCH   2   3
ATOM      3  C   UNL A   1      44.437  18.564  25.643  1.00  0.00     0.188 C 
BRANCH   3   4
ATOM      4  O   UNL A   1      43.054  18.391  25.360  1.00  0.00    -0.376 OA
BRANCH   4   5
ATOM      5  C   UNL A   1      42.185  19.160  26.189  1.00  0.00     0.202 C 
BRANCH   5   6
ATOM      6  C   UNL A   1      42.399  20.673  26.131  1.00  0.00     0.261 C 
BRANCH   6   7
ATOM      7  O   UNL A   1      41.186  21.355  25.823  1.00  0.00    -0.460 OA
BRANCH   7   8
ATOM      8  C   UNL A   1      40.365  21.567  26.873  1.00  0.00     0.338 C 
ATOM      9  O   UNL A   1      40.652  21.726  28.039  1.00  0.00    -0.246 OA
BRANCH   8  10
ATOM     10  C   UNL A   1      39.084  21.967  26.273  1.00  0.00     0.060 A 
ATOM     11  C   UNL A   1      36.994  23.084  24.820  1.00  0.00    -0.025 A 
ATOM     12  C   UNL A   1      37.710  23.856  25.748  1.00  0.00     0.009 A 
ATOM     13  C   UNL A   1      37.328  21.736  24.636  1.00  0.00     0.009 A 
ATOM     14  C   UNL A   1      38.736  23.298  26.489  1.00  0.00     0.016 A 
ATOM     15  C   UNL A   1      38.398  21.180  25.341  1.00  0.00     0.016 A 
BRANCH  11  16
ATOM     16  C   UNL A   1      35.862  23.766  24.197  1.00  0.00     0.022 C 
ATOM     17  N   UNL A   1      32.633  24.872  24.174  1.00  0.00    -0.242 N 
ATOM     18  C   UNL A   1      33.775  24.540  23.430  1.00  0.00     0.265 C 
ATOM     19  C   UNL A   1      32.072  23.914  25.057  1.00  0.00     0.265 C 
ATOM     20  O   UNL A   1      34.195  25.029  22.385  1.00  0.00    -0.268 OA
ATOM     21  C   UNL A   1      34.572  23.432  24.028  1.00  0.00     0.049 C 
ATOM     22  C   UNL A   1      32.564  22.506  24.955  1.00  0.00     0.048 A 
ATOM     23  O   UNL A   1      31.197  24.095  25.901  1.00  0.00    -0.268 OA
ATOM     24  C   UNL A   1      33.829  22.255  24.429  1.00  0.00    -0.000 A 
ATOM     25  C   UNL A   1      31.763  21.442  25.385  1.00  0.00     0.014 A 
ATOM     26  C   UNL A   1      34.267  20.937  24.256  1.00  0.00     0.010 A 
ATOM     27  C   UNL A   1      32.215  20.127  25.245  1.00  0.00     0.001 A 
ATOM     28  C   UNL A   1      33.461  19.875  24.671  1.00  0.00     0.001 A 
BRANCH  17  29
ATOM     29  C   UNL A   1      32.023  26.196  24.002  1.00  0.00     0.053 A 
ATOM     30  C   UNL A   1      32.272  29.703  25.555  1.00  0.00     0.044 C 
ATOM     31  C   UNL A   1      31.819  28.580  24.667  1.00  0.00    -0.049 A 
ATOM     32  C   UNL A   1      30.891  28.803  23.659  1.00  0.00     0.003 A 
ATOM     33  C   UNL A   1      32.362  27.291  24.826  1.00  0.00     0.030 A 
ATOM     34  C   UNL A   1      30.506  27.747  22.843  1.00  0.00     0.002 A 
ATOM     35  C   UNL A   1      31.061  26.468  23.016  1.00  0.00     0.027 A 
ENDBRANCH  17  29
ENDBRANCH  11  16
ENDBRANCH   8  10
ENDBRANCH   7   8
ENDBRANCH   6   7
ENDBRANCH   5   6
ENDBRANCH   4   5
ENDBRANCH   3   4
ENDBRANCH   2   3
ENDBRANCH   1   2
BRANCH   1  36
ATOM     36  C   UNL A   1      45.941  21.633  25.143  1.00  0.00     0.188 C 
BRANCH  36  37
ATOM     37  C   UNL A   1      44.929  21.818  24.024  1.00  0.00     0.188 C 
BRANCH  37  38
ATOM     38  O   UNL A   1      44.142  22.999  24.061  1.00  0.00    -0.376 OA
BRANCH  38  39
ATOM     39  C   UNL A   1      44.040  23.734  25.274  1.00  0.00     0.202 C 
BRANCH  39  40
ATOM     40  C   UNL A   1      42.737  24.524  25.464  1.00  0.00     0.261 C 
BRANCH  40  41
ATOM     41  O   UNL A   1      42.257  24.350  26.812  1.00  0.00    -0.460 OA
BRANCH  41  42
ATOM     42  C   UNL A   1      41.892  25.489  27.465  1.00  0.00     0.338 C 
ATOM     43  O   UNL A   1      41.429  26.486  26.938  1.00  0.00    -0.246 OA
BRANCH  42  44
ATOM     44  C   UNL A   1      42.477  25.476  28.842  1.00  0.00     0.060 A 
ATOM     45  C   UNL A   1      42.949  26.679  29.398  1.00  0.00     0.016 A 
ATOM     46  C   UNL A   1      42.916  24.266  29.366  1.00  0.00     0.016 A 
ATOM     47  C   UNL A   1      44.019  26.664  30.310  1.00  0.00     0.010 A 
ATOM     48  C   UNL A   1      44.025  24.269  30.192  1.00  0.00     0.010 A 
ATOM     49  C   UNL A   1      44.645  25.459  30.618  1.00  0.00    -0.014 A 
BRANCH  49  50
ATOM     50  C   UNL A   1      46.029  25.318  31.144  1.00  0.00     0.031 A 
ATOM     51  C   UNL A   1      47.177  25.290  30.173  1.00  0.00     0.074 A 
ATOM     52  C   UNL A   1      46.253  25.580  32.464  1.00  0.00     0.049 A 
ATOM     53  N   UNL A   1      48.428  25.234  30.489  1.00  0.00    -0.248 NA
ATOM     54  C   UNL A   1      47.003  25.336  28.717  1.00  0.00     0.031 C 
ATOM     55  C   UNL A   1      47.466  26.123  33.089  1.00  0.00     0.029 A 
ATOM     56  N   UNL A   1      45.403  25.439  33.561  1.00  0.00    -0.354 N 
ATOM     57  C   UNL A   1      49.170  25.637  29.388  1.00  0.00     0.074 A 
ATOM     58  C   UNL A   1      48.246  25.581  28.286  1.00  0.00     0.031 C 
ATOM     59  C   UNL A   1      47.321  26.219  34.421  1.00  0.00     0.029 A 
ATOM     60  C   UNL A   1      46.167  25.425  34.745  1.00  0.00     0.049 A 
ATOM     61  H   UNL A   1      44.423  25.361  33.515  1.00  0.00     0.167 HD
ATOM     62  C   UNL A   1      50.430  26.142  29.569  1.00  0.00     0.031 A 
ATOM     63  C   UNL A   1      46.278  24.268  35.470  1.00  0.00     0.031 A 
ATOM     64  C   UNL A   1      50.899  25.965  30.957  1.00  0.00     0.049 A 
ATOM     65  C   UNL A   1      47.669  23.640  35.327  1.00  0.00     0.074 A 
ATOM     66  C   UNL A   1      51.473  26.789  31.908  1.00  0.00     0.029 A 
ATOM     67  N   UNL A   1      50.625  24.770  31.619  1.00  0.00    -0.354 N 
ATOM     68  N   UNL A   1      48.476  23.903  34.323  1.00  0.00    -0.248 NA
ATOM     69  C   UNL A   1      48.333  22.812  36.334  1.00  0.00     0.031 C 
ATOM     70  C   UNL A   1      51.358  26.150  33.176  1.00  0.00     0.029 A 
ATOM     71  C   UNL A   1      50.843  24.879  32.973  1.00  0.00     0.049 A 
ATOM     72  H   UNL A   1      50.314  23.948  31.174  1.00  0.00     0.167 HD
ATOM     73  C   UNL A   1      49.729  23.419  34.574  1.00  0.00     0.074 A 
ATOM     74  C   UNL A   1      49.576  22.693  35.822  1.00  0.00     0.031 C 
ATOM     75  C   UNL A   1      50.824  23.680  33.797  1.00  0.00     0.031 A 
BRANCH  62  76
ATOM     76  C   UNL A   1      51.178  27.021  28.562  1.00  0.00    -0.014 A 
ATOM     77  C   UNL A   1      52.173  26.451  27.740  1.00  0.00     0.009 A 
ATOM     78  C   UNL A   1      51.048  28.420  28.447  1.00  0.00     0.009 A 
ATOM     79  C   UNL A   1      52.994  27.216  26.891  1.00  0.00     0.001 A 
ATOM     80  C   UNL A   1      51.834  29.188  27.565  1.00  0.00     0.001 A 
ATOM     81  C   UNL A   1      52.817  28.587  26.796  1.00  0.00     0.000 A 
ENDBRANCH  62  76
BRANCH  63  82
ATOM     82  C   UNL A   1      44.911  23.688  35.702  1.00  0.00    -0.014 A 
ATOM     83  C   UNL A   1      44.118  24.468  36.584  1.00  0.00     0.009 A 
ATOM     84  C   UNL A   1      44.251  23.016  34.659  1.00  0.00     0.009 A 
ATOM     85  C   UNL A   1      42.811  24.833  36.238  1.00  0.00     0.001 A 
ATOM     86  C   UNL A   1      42.916  23.345  34.352  1.00  0.00     0.001 A 
ATOM     87  C   UNL A   1      42.231  24.315  35.088  1.00  0.00     0.000 A 
ENDBRANCH  63  82
BRANCH  75  88
ATOM     88  C   UNL A   1      52.060  22.812  33.697  1.00  0.00    -0.014 A 
ATOM     89  C   UNL A   1      53.134  22.902  34.584  1.00  0.00     0.009 A 
ATOM     90  C   UNL A   1      52.039  21.681  32.838  1.00  0.00     0.009 A 
ATOM     91  C   UNL A   1      54.136  21.923  34.604  1.00  0.00     0.001 A 
ATOM     92  C   UNL A   1      53.007  20.680  32.890  1.00  0.00     0.001 A 
ATOM     93  C   UNL A   1      54.063  20.806  33.774  1.00  0.00     0.000 A 
ENDBRANCH  75  88
ENDBRANCH  49  50
ENDBRANCH  42  44
ENDBRANCH  41  42
ENDBRANCH  40  41
ENDBRANCH  39  40
ENDBRANCH  38  39
ENDBRANCH  37  38
ENDBRANCH  36  37
ENDBRANCH   1  36
TORSDOF 22
ENDMDL
