MODEL 1
REMARK VINA RESULT:      -7.3      0.000      0.000
REMARK SMILES O=C(Cc1ccn(C(F)F)c(=O)c1)OCCOCCOCCOCCOC(=O)c1ccc(-c2c3nc(c(-c4ccccc4)c4ccc([nH]4)c(-c4ccccc4)c4nc(c(-c5ccccc5)c5ccc2[nH]5)C=C4)C=C3)cc1
REMARK SMILES IDX 20 1 19 2 18 3 17 4 16 5 15 6 14 7 2 8 1 9 3 10 4 11 5 12
REMARK SMILES IDX 13 13 6 14 11 15 7 16 12 17 8 18 9 19 10 20 21 21 22 22
REMARK SMILES IDX 23 23 24 24 25 25 26 26 27 27 28 28 29 29 30 30 76 31 31 32
REMARK SMILES IDX 75 33 32 34 33 35 34 36 69 37 35 38 74 39 68 40 70 41 36 42
REMARK SMILES IDX 73 43 67 44 66 45 37 47 59 48 44 49 58 50 45 51 48 52 57 53
REMARK SMILES IDX 71 54 46 55 47 56 56 58 72 59 49 60 38 61 39 62 43 63 40 64
REMARK SMILES IDX 42 65 41 66 60 67 61 68 65 69 62 70 64 71 63 72 50 73 51 74
REMARK SMILES IDX 55 75 52 76 54 77 53 78
REMARK H PARENT 70 46 48 57
REMARK Flexibility Score: inf
ROOT
ATOM      1  O   UNL A   1      34.504  34.421  29.134  1.00  0.00    -0.377 OA
ENDROOT
BRANCH   1   2
ATOM      2  C   UNL A   1      35.367  33.713  28.248  1.00  0.00     0.188 C 
BRANCH   2   3
ATOM      3  C   UNL A   1      35.048  32.222  28.087  1.00  0.00     0.188 C 
BRANCH   3   4
ATOM      4  O   UNL A   1      35.799  31.373  28.936  1.00  0.00    -0.376 OA
BRANCH   4   5
ATOM      5  C   UNL A   1      37.097  30.907  28.643  1.00  0.00     0.202 C 
BRANCH   5   6
ATOM      6  C   UNL A   1      37.397  29.413  28.602  1.00  0.00     0.261 C 
BRANCH   6   7
ATOM      7  O   UNL A   1      38.662  28.968  29.120  1.00  0.00    -0.463 OA
BRANCH   7   8
ATOM      8  C   UNL A   1      39.694  28.389  28.479  1.00  0.00     0.310 C 
ATOM      9  O   UNL A   1      40.402  27.592  29.093  1.00  0.00    -0.252 OA
BRANCH   8  10
ATOM     10  C   UNL A   1      40.047  28.789  27.058  1.00  0.00     0.158 C 
BRANCH  10  11
ATOM     11  C   UNL A   1      41.357  28.341  26.494  1.00  0.00    -0.030 A 
ATOM     12  C   UNL A   1      41.461  27.062  25.833  1.00  0.00     0.023 A 
ATOM     13  C   UNL A   1      42.454  29.107  26.635  1.00  0.00     0.076 A 
ATOM     14  C   UNL A   1      42.652  26.622  25.417  1.00  0.00     0.095 A 
ATOM     15  C   UNL A   1      43.786  28.630  26.186  1.00  0.00     0.255 A 
ATOM     16  N   UNL A   1      43.798  27.373  25.605  1.00  0.00    -0.258 N 
ATOM     17  O   UNL A   1      44.756  29.353  26.376  1.00  0.00    -0.269 OA
BRANCH  16  18
ATOM     18  C   UNL A   1      45.089  26.798  25.337  1.00  0.00     0.451 C 
ATOM     19  F   UNL A   1      45.808  27.551  24.474  1.00  0.00    -0.185 F 
ATOM     20  F   UNL A   1      45.793  26.688  26.490  1.00  0.00    -0.185 F 
ENDBRANCH  16  18
ENDBRANCH  10  11
ENDBRANCH   8  10
ENDBRANCH   7   8
ENDBRANCH   6   7
ENDBRANCH   5   6
ENDBRANCH   4   5
ENDBRANCH   3   4
ENDBRANCH   2   3
ENDBRANCH   1   2
BRANCH   1  21
ATOM     21  C   UNL A   1      33.932  35.595  28.582  1.00  0.00     0.188 C 
BRANCH  21  22
ATOM     22  C   UNL A   1      32.882  36.301  29.470  1.00  0.00     0.188 C 
BRANCH  22  23
ATOM     23  O   UNL A   1      33.230  37.064  30.616  1.00  0.00    -0.376 OA
BRANCH  23  24
ATOM     24  C   UNL A   1      32.756  36.736  31.910  1.00  0.00     0.202 C 
BRANCH  24  25
ATOM     25  C   UNL A   1      33.604  36.932  33.173  1.00  0.00     0.261 C 
BRANCH  25  26
ATOM     26  O   UNL A   1      34.724  36.061  33.314  1.00  0.00    -0.460 OA
BRANCH  26  27
ATOM     27  C   UNL A   1      34.491  34.759  33.042  1.00  0.00     0.338 C 
ATOM     28  O   UNL A   1      33.435  34.245  32.710  1.00  0.00    -0.246 OA
BRANCH  27  29
ATOM     29  C   UNL A   1      35.793  34.061  33.013  1.00  0.00     0.060 A 
ATOM     30  C   UNL A   1      36.006  32.980  32.156  1.00  0.00     0.016 A 
ATOM     31  C   UNL A   1      36.797  34.479  33.899  1.00  0.00     0.016 A 
ATOM     32  C   UNL A   1      37.248  32.348  32.152  1.00  0.00     0.010 A 
ATOM     33  C   UNL A   1      38.033  33.835  33.908  1.00  0.00     0.010 A 
ATOM     34  C   UNL A   1      38.278  32.794  33.004  1.00  0.00    -0.014 A 
BRANCH  34  35
ATOM     35  C   UNL A   1      39.663  32.341  32.751  1.00  0.00     0.031 A 
ATOM     36  C   UNL A   1      40.254  31.142  33.414  1.00  0.00     0.074 A 
ATOM     37  C   UNL A   1      40.380  33.060  31.865  1.00  0.00     0.049 A 
ATOM     38  N   UNL A   1      41.384  30.541  33.144  1.00  0.00    -0.248 NA
ATOM     39  C   UNL A   1      39.499  30.541  34.523  1.00  0.00     0.031 C 
ATOM     40  C   UNL A   1      39.901  34.274  31.198  1.00  0.00     0.029 A 
ATOM     41  N   UNL A   1      41.633  32.866  31.348  1.00  0.00    -0.354 N 
ATOM     42  C   UNL A   1      41.471  29.477  34.029  1.00  0.00     0.074 A 
ATOM     43  C   UNL A   1      40.300  29.542  34.881  1.00  0.00     0.031 C 
ATOM     44  C   UNL A   1      40.821  34.678  30.313  1.00  0.00     0.029 A 
ATOM     45  C   UNL A   1      41.965  33.775  30.372  1.00  0.00     0.049 A 
ATOM     46  H   UNL A   1      42.236  32.146  31.645  1.00  0.00     0.167 HD
ATOM     47  C   UNL A   1      42.437  28.531  34.102  1.00  0.00     0.031 A 
ATOM     48  C   UNL A   1      43.056  33.859  29.589  1.00  0.00     0.031 A 
ATOM     49  C   UNL A   1      43.603  28.501  33.255  1.00  0.00     0.049 A 
ATOM     50  C   UNL A   1      44.117  32.803  29.707  1.00  0.00     0.074 A 
ATOM     51  C   UNL A   1      44.609  27.549  33.219  1.00  0.00     0.029 A 
ATOM     52  N   UNL A   1      43.931  29.463  32.312  1.00  0.00    -0.354 N 
ATOM     53  N   UNL A   1      44.134  31.738  30.471  1.00  0.00    -0.248 NA
ATOM     54  C   UNL A   1      45.296  32.946  28.844  1.00  0.00     0.031 C 
ATOM     55  C   UNL A   1      45.583  27.977  32.316  1.00  0.00     0.029 A 
ATOM     56  C   UNL A   1      45.142  29.147  31.717  1.00  0.00     0.049 A 
ATOM     57  H   UNL A   1      43.384  30.254  32.096  1.00  0.00     0.167 HD
ATOM     58  C   UNL A   1      45.309  31.067  30.158  1.00  0.00     0.074 A 
ATOM     59  C   UNL A   1      45.967  31.837  29.123  1.00  0.00     0.031 C 
ATOM     60  C   UNL A   1      45.791  29.915  30.684  1.00  0.00     0.031 A 
BRANCH  47  61
ATOM     61  C   UNL A   1      42.291  27.427  35.115  1.00  0.00    -0.014 A 
ATOM     62  C   UNL A   1      42.933  27.530  36.361  1.00  0.00     0.009 A 
ATOM     63  C   UNL A   1      41.661  26.219  34.778  1.00  0.00     0.009 A 
ATOM     64  C   UNL A   1      42.972  26.441  37.233  1.00  0.00     0.001 A 
ATOM     65  C   UNL A   1      41.674  25.140  35.666  1.00  0.00     0.001 A 
ATOM     66  C   UNL A   1      42.342  25.247  36.885  1.00  0.00     0.000 A 
ENDBRANCH  47  61
BRANCH  48  67
ATOM     67  C   UNL A   1      43.146  34.948  28.579  1.00  0.00    -0.014 A 
ATOM     68  C   UNL A   1      43.605  36.225  28.942  1.00  0.00     0.009 A 
ATOM     69  C   UNL A   1      42.713  34.734  27.262  1.00  0.00     0.009 A 
ATOM     70  C   UNL A   1      43.606  37.269  28.016  1.00  0.00     0.001 A 
ATOM     71  C   UNL A   1      42.750  35.771  26.328  1.00  0.00     0.001 A 
ATOM     72  C   UNL A   1      43.185  37.040  26.707  1.00  0.00     0.000 A 
ENDBRANCH  48  67
BRANCH  60  73
ATOM     73  C   UNL A   1      47.091  29.380  30.144  1.00  0.00    -0.014 A 
ATOM     74  C   UNL A   1      47.075  28.435  29.104  1.00  0.00     0.009 A 
ATOM     75  C   UNL A   1      48.318  29.710  30.739  1.00  0.00     0.009 A 
ATOM     76  C   UNL A   1      48.253  27.812  28.690  1.00  0.00     0.001 A 
ATOM     77  C   UNL A   1      49.501  29.114  30.296  1.00  0.00     0.001 A 
ATOM     78  C   UNL A   1      49.465  28.156  29.284  1.00  0.00     0.000 A 
ENDBRANCH  60  73
ENDBRANCH  34  35
ENDBRANCH  27  29
ENDBRANCH  26  27
ENDBRANCH  25  26
ENDBRANCH  24  25
ENDBRANCH  23  24
ENDBRANCH  22  23
ENDBRANCH  21  22
ENDBRANCH   1  21
TORSDOF 22
ENDMDL
MODEL 2
REMARK VINA RESULT:      -7.3      7.280     10.763
REMARK SMILES O=C(Cc1ccn(C(F)F)c(=O)c1)OCCOCCOCCOCCOC(=O)c1ccc(-c2c3nc(c(-c4ccccc4)c4ccc([nH]4)c(-c4ccccc4)c4nc(c(-c5ccccc5)c5ccc2[nH]5)C=C4)C=C3)cc1
REMARK SMILES IDX 20 1 19 2 18 3 17 4 16 5 15 6 14 7 2 8 1 9 3 10 4 11 5 12
REMARK SMILES IDX 13 13 6 14 11 15 7 16 12 17 8 18 9 19 10 20 21 21 22 22
REMARK SMILES IDX 23 23 24 24 25 25 26 26 27 27 28 28 29 29 30 30 76 31 31 32
REMARK SMILES IDX 75 33 32 34 33 35 34 36 69 37 35 38 74 39 68 40 70 41 36 42
REMARK SMILES IDX 73 43 67 44 66 45 37 47 59 48 44 49 58 50 45 51 48 52 57 53
REMARK SMILES IDX 71 54 46 55 47 56 56 58 72 59 49 60 38 61 39 62 43 63 40 64
REMARK SMILES IDX 42 65 41 66 60 67 61 68 65 69 62 70 64 71 63 72 50 73 51 74
REMARK SMILES IDX 55 75 52 76 54 77 53 78
REMARK H PARENT 70 46 48 57
REMARK Flexibility Score: inf
ROOT
ATOM      1  O   UNL A   1      44.009  41.056  30.328  1.00  0.00    -0.377 OA
ENDROOT
BRANCH   1   2
ATOM      2  C   UNL A   1      43.396  41.042  29.041  1.00  0.00     0.188 C 
BRANCH   2   3
ATOM      3  C   UNL A   1      42.023  40.362  28.985  1.00  0.00     0.188 C 
BRANCH   3   4
ATOM      4  O   UNL A   1      41.281  40.651  27.814  1.00  0.00    -0.376 OA
BRANCH   4   5
ATOM      5  C   UNL A   1      41.596  40.150  26.534  1.00  0.00     0.202 C 
BRANCH   5   6
ATOM      6  C   UNL A   1      41.718  41.089  25.339  1.00  0.00     0.261 C 
BRANCH   6   7
ATOM      7  O   UNL A   1      43.027  41.297  24.780  1.00  0.00    -0.463 OA
BRANCH   7   8
ATOM      8  C   UNL A   1      43.818  42.384  24.836  1.00  0.00     0.310 C 
ATOM      9  O   UNL A   1      44.810  42.360  25.563  1.00  0.00    -0.252 OA
BRANCH   8  10
ATOM     10  C   UNL A   1      43.442  43.657  24.099  1.00  0.00     0.158 C 
BRANCH  10  11
ATOM     11  C   UNL A   1      43.291  43.606  22.613  1.00  0.00    -0.030 A 
ATOM     12  C   UNL A   1      44.444  43.778  21.762  1.00  0.00     0.023 A 
ATOM     13  C   UNL A   1      42.075  43.440  22.060  1.00  0.00     0.076 A 
ATOM     14  C   UNL A   1      44.291  43.830  20.436  1.00  0.00     0.095 A 
ATOM     15  C   UNL A   1      41.887  43.503  20.589  1.00  0.00     0.255 A 
ATOM     16  N   UNL A   1      43.041  43.718  19.854  1.00  0.00    -0.258 N 
ATOM     17  O   UNL A   1      40.752  43.385  20.143  1.00  0.00    -0.269 OA
BRANCH  16  18
ATOM     18  C   UNL A   1      42.873  43.979  18.450  1.00  0.00     0.451 C 
ATOM     19  F   UNL A   1      43.494  45.119  18.070  1.00  0.00    -0.185 F 
ATOM     20  F   UNL A   1      43.388  42.955  17.726  1.00  0.00    -0.185 F 
ENDBRANCH  16  18
ENDBRANCH  10  11
ENDBRANCH   8  10
ENDBRANCH   7   8
ENDBRANCH   6   7
ENDBRANCH   5   6
ENDBRANCH   4   5
ENDBRANCH   3   4
ENDBRANCH   2   3
ENDBRANCH   1   2
BRANCH   1  21
ATOM     21  C   UNL A   1      45.319  41.598  30.349  1.00  0.00     0.188 C 
BRANCH  21  22
ATOM     22  C   UNL A   1      45.523  42.804  31.295  1.00  0.00     0.188 C 
BRANCH  22  23
ATOM     23  O   UNL A   1      44.813  44.025  31.148  1.00  0.00    -0.376 OA
BRANCH  23  24
ATOM     24  C   UNL A   1      44.272  44.718  32.259  1.00  0.00     0.202 C 
BRANCH  24  25
ATOM     25  C   UNL A   1      44.994  44.798  33.611  1.00  0.00     0.261 C 
BRANCH  25  26
ATOM     26  O   UNL A   1      44.524  43.911  34.623  1.00  0.00    -0.460 OA
BRANCH  26  27
ATOM     27  C   UNL A   1      45.440  43.051  35.120  1.00  0.00     0.338 C 
ATOM     28  O   UNL A   1      46.357  43.301  35.885  1.00  0.00    -0.246 OA
BRANCH  27  29
ATOM     29  C   UNL A   1      45.030  41.683  34.744  1.00  0.00     0.060 A 
ATOM     30  C   UNL A   1      45.920  40.613  34.855  1.00  0.00     0.016 A 
ATOM     31  C   UNL A   1      43.741  41.488  34.227  1.00  0.00     0.016 A 
ATOM     32  C   UNL A   1      45.498  39.335  34.493  1.00  0.00     0.010 A 
ATOM     33  C   UNL A   1      43.324  40.213  33.849  1.00  0.00     0.010 A 
ATOM     34  C   UNL A   1      44.188  39.124  34.020  1.00  0.00    -0.014 A 
BRANCH  34  35
ATOM     35  C   UNL A   1      43.661  37.742  33.965  1.00  0.00     0.031 A 
ATOM     36  C   UNL A   1      43.153  37.024  35.170  1.00  0.00     0.074 A 
ATOM     37  C   UNL A   1      43.642  37.153  32.754  1.00  0.00     0.049 A 
ATOM     38  N   UNL A   1      42.504  35.889  35.224  1.00  0.00    -0.248 NA
ATOM     39  C   UNL A   1      43.405  37.638  36.482  1.00  0.00     0.031 C 
ATOM     40  C   UNL A   1      44.157  37.761  31.525  1.00  0.00     0.029 A 
ATOM     41  N   UNL A   1      43.148  35.942  32.347  1.00  0.00    -0.354 N 
ATOM     42  C   UNL A   1      42.248  35.659  36.567  1.00  0.00     0.074 A 
ATOM     43  C   UNL A   1      42.854  36.750  37.303  1.00  0.00     0.031 C 
ATOM     44  C   UNL A   1      43.894  36.950  30.492  1.00  0.00     0.029 A 
ATOM     45  C   UNL A   1      43.222  35.754  30.987  1.00  0.00     0.049 A 
ATOM     46  H   UNL A   1      42.776  35.273  32.966  1.00  0.00     0.167 HD
ATOM     47  C   UNL A   1      41.554  34.636  37.120  1.00  0.00     0.031 A 
ATOM     48  C   UNL A   1      42.775  34.745  30.217  1.00  0.00     0.031 A 
ATOM     49  C   UNL A   1      40.978  33.551  36.365  1.00  0.00     0.049 A 
ATOM     50  C   UNL A   1      42.025  33.617  30.864  1.00  0.00     0.074 A 
ATOM     51  C   UNL A   1      40.210  32.498  36.833  1.00  0.00     0.029 A 
ATOM     52  N   UNL A   1      41.114  33.368  34.997  1.00  0.00    -0.354 N 
ATOM     53  N   UNL A   1      41.691  33.467  32.123  1.00  0.00    -0.248 NA
ATOM     54  C   UNL A   1      41.571  32.531  29.985  1.00  0.00     0.031 C 
ATOM     55  C   UNL A   1      39.952  31.637  35.766  1.00  0.00     0.029 A 
ATOM     56  C   UNL A   1      40.478  32.198  34.613  1.00  0.00     0.049 A 
ATOM     57  H   UNL A   1      41.592  33.978  34.389  1.00  0.00     0.167 HD
ATOM     58  C   UNL A   1      40.960  32.288  32.183  1.00  0.00     0.074 A 
ATOM     59  C   UNL A   1      40.886  31.772  30.831  1.00  0.00     0.031 C 
ATOM     60  C   UNL A   1      40.402  31.693  33.265  1.00  0.00     0.031 A 
BRANCH  47  61
ATOM     61  C   UNL A   1      41.351  34.623  38.611  1.00  0.00    -0.014 A 
ATOM     62  C   UNL A   1      42.250  33.925  39.435  1.00  0.00     0.009 A 
ATOM     63  C   UNL A   1      40.187  35.159  39.183  1.00  0.00     0.009 A 
ATOM     64  C   UNL A   1      41.975  33.739  40.790  1.00  0.00     0.001 A 
ATOM     65  C   UNL A   1      39.929  34.998  40.547  1.00  0.00     0.001 A 
ATOM     66  C   UNL A   1      40.815  34.275  41.345  1.00  0.00     0.000 A 
ENDBRANCH  47  61
BRANCH  48  67
ATOM     67  C   UNL A   1      42.969  34.812  28.744  1.00  0.00    -0.014 A 
ATOM     68  C   UNL A   1      44.056  34.165  28.134  1.00  0.00     0.009 A 
ATOM     69  C   UNL A   1      42.105  35.576  27.946  1.00  0.00     0.009 A 
ATOM     70  C   UNL A   1      44.288  34.300  26.765  1.00  0.00     0.001 A 
ATOM     71  C   UNL A   1      42.316  35.680  26.570  1.00  0.00     0.001 A 
ATOM     72  C   UNL A   1      43.413  35.052  25.982  1.00  0.00     0.000 A 
ENDBRANCH  48  67
BRANCH  60  73
ATOM     73  C   UNL A   1      39.632  30.417  33.052  1.00  0.00    -0.014 A 
ATOM     74  C   UNL A   1      40.321  29.194  32.975  1.00  0.00     0.009 A 
ATOM     75  C   UNL A   1      38.251  30.431  32.804  1.00  0.00     0.009 A 
ATOM     76  C   UNL A   1      39.651  28.020  32.630  1.00  0.00     0.001 A 
ATOM     77  C   UNL A   1      37.575  29.248  32.496  1.00  0.00     0.001 A 
ATOM     78  C   UNL A   1      38.278  28.048  32.394  1.00  0.00     0.000 A 
ENDBRANCH  60  73
ENDBRANCH  34  35
ENDBRANCH  27  29
ENDBRANCH  26  27
ENDBRANCH  25  26
ENDBRANCH  24  25
ENDBRANCH  23  24
ENDBRANCH  22  23
ENDBRANCH  21  22
ENDBRANCH   1  21
TORSDOF 22
ENDMDL
MODEL 3
REMARK VINA RESULT:      -7.2      6.992     11.755
REMARK SMILES O=C(Cc1ccn(C(F)F)c(=O)c1)OCCOCCOCCOCCOC(=O)c1ccc(-c2c3nc(c(-c4ccccc4)c4ccc([nH]4)c(-c4ccccc4)c4nc(c(-c5ccccc5)c5ccc2[nH]5)C=C4)C=C3)cc1
REMARK SMILES IDX 20 1 19 2 18 3 17 4 16 5 15 6 14 7 2 8 1 9 3 10 4 11 5 12
REMARK SMILES IDX 13 13 6 14 11 15 7 16 12 17 8 18 9 19 10 20 21 21 22 22
REMARK SMILES IDX 23 23 24 24 25 25 26 26 27 27 28 28 29 29 30 30 76 31 31 32
REMARK SMILES IDX 75 33 32 34 33 35 34 36 69 37 35 38 74 39 68 40 70 41 36 42
REMARK SMILES IDX 73 43 67 44 66 45 37 47 59 48 44 49 58 50 45 51 48 52 57 53
REMARK SMILES IDX 71 54 46 55 47 56 56 58 72 59 49 60 38 61 39 62 43 63 40 64
REMARK SMILES IDX 42 65 41 66 60 67 61 68 65 69 62 70 64 71 63 72 50 73 51 74
REMARK SMILES IDX 55 75 52 76 54 77 53 78
REMARK H PARENT 70 46 48 57
REMARK Flexibility Score: inf
ROOT
ATOM      1  O   UNL A   1      43.560  42.466  30.261  1.00  0.00    -0.377 OA
ENDROOT
BRANCH   1   2
ATOM      2  C   UNL A   1      44.778  43.128  29.931  1.00  0.00     0.188 C 
BRANCH   2   3
ATOM      3  C   UNL A   1      45.126  43.138  28.438  1.00  0.00     0.188 C 
BRANCH   3   4
ATOM      4  O   UNL A   1      45.193  44.432  27.866  1.00  0.00    -0.376 OA
BRANCH   4   5
ATOM      5  C   UNL A   1      45.370  44.680  26.490  1.00  0.00     0.202 C 
BRANCH   5   6
ATOM      6  C   UNL A   1      45.069  43.598  25.458  1.00  0.00     0.261 C 
BRANCH   6   7
ATOM      7  O   UNL A   1      44.579  44.014  24.172  1.00  0.00    -0.463 OA
BRANCH   7   8
ATOM      8  C   UNL A   1      43.592  43.491  23.422  1.00  0.00     0.310 C 
ATOM      9  O   UNL A   1      42.446  43.482  23.870  1.00  0.00    -0.252 OA
BRANCH   8  10
ATOM     10  C   UNL A   1      43.897  42.827  22.091  1.00  0.00     0.158 C 
BRANCH  10  11
ATOM     11  C   UNL A   1      43.355  43.445  20.843  1.00  0.00    -0.030 A 
ATOM     12  C   UNL A   1      44.165  44.368  20.082  1.00  0.00     0.023 A 
ATOM     13  C   UNL A   1      42.099  43.178  20.443  1.00  0.00     0.076 A 
ATOM     14  C   UNL A   1      43.643  44.993  19.022  1.00  0.00     0.095 A 
ATOM     15  C   UNL A   1      41.502  43.870  19.273  1.00  0.00     0.255 A 
ATOM     16  N   UNL A   1      42.335  44.772  18.632  1.00  0.00    -0.258 N 
ATOM     17  O   UNL A   1      40.340  43.617  18.979  1.00  0.00    -0.269 OA
BRANCH  16  18
ATOM     18  C   UNL A   1      41.735  45.600  17.622  1.00  0.00     0.451 C 
ATOM     19  F   UNL A   1      42.649  46.375  16.994  1.00  0.00    -0.185 F 
ATOM     20  F   UNL A   1      41.127  44.824  16.691  1.00  0.00    -0.185 F 
ENDBRANCH  16  18
ENDBRANCH  10  11
ENDBRANCH   8  10
ENDBRANCH   7   8
ENDBRANCH   6   7
ENDBRANCH   5   6
ENDBRANCH   4   5
ENDBRANCH   3   4
ENDBRANCH   2   3
ENDBRANCH   1   2
BRANCH   1  21
ATOM     21  C   UNL A   1      43.301  41.299  29.499  1.00  0.00     0.188 C 
BRANCH  21  22
ATOM     22  C   UNL A   1      44.065  40.031  29.945  1.00  0.00     0.188 C 
BRANCH  22  23
ATOM     23  O   UNL A   1      43.496  38.731  29.889  1.00  0.00    -0.376 OA
BRANCH  23  24
ATOM     24  C   UNL A   1      43.868  37.791  28.897  1.00  0.00     0.202 C 
BRANCH  24  25
ATOM     25  C   UNL A   1      44.723  38.170  27.682  1.00  0.00     0.261 C 
BRANCH  25  26
ATOM     26  O   UNL A   1      45.171  37.087  26.870  1.00  0.00    -0.460 OA
BRANCH  26  27
ATOM     27  C   UNL A   1      46.087  36.271  27.436  1.00  0.00     0.338 C 
ATOM     28  O   UNL A   1      47.178  36.577  27.887  1.00  0.00    -0.246 OA
BRANCH  27  29
ATOM     29  C   UNL A   1      45.464  34.943  27.612  1.00  0.00     0.060 A 
ATOM     30  C   UNL A   1      44.618  34.415  26.636  1.00  0.00     0.016 A 
ATOM     31  C   UNL A   1      45.704  34.243  28.804  1.00  0.00     0.016 A 
ATOM     32  C   UNL A   1      44.050  33.158  26.834  1.00  0.00     0.010 A 
ATOM     33  C   UNL A   1      45.122  32.993  29.009  1.00  0.00     0.010 A 
ATOM     34  C   UNL A   1      44.326  32.427  28.007  1.00  0.00    -0.014 A 
BRANCH  34  35
ATOM     35  C   UNL A   1      43.995  30.985  28.046  1.00  0.00     0.031 A 
ATOM     36  C   UNL A   1      42.732  30.464  28.646  1.00  0.00     0.074 A 
ATOM     37  C   UNL A   1      44.891  30.146  27.492  1.00  0.00     0.049 A 
ATOM     38  N   UNL A   1      42.245  29.251  28.583  1.00  0.00    -0.248 NA
ATOM     39  C   UNL A   1      41.912  31.405  29.422  1.00  0.00     0.031 C 
ATOM     40  C   UNL A   1      46.175  30.560  26.919  1.00  0.00     0.029 A 
ATOM     41  N   UNL A   1      44.853  28.793  27.286  1.00  0.00    -0.354 N 
ATOM     42  C   UNL A   1      41.051  29.282  29.288  1.00  0.00     0.074 A 
ATOM     43  C   UNL A   1      40.909  30.625  29.814  1.00  0.00     0.031 C 
ATOM     44  C   UNL A   1      46.771  29.495  26.369  1.00  0.00     0.029 A 
ATOM     45  C   UNL A   1      45.932  28.320  26.577  1.00  0.00     0.049 A 
ATOM     46  H   UNL A   1      44.126  28.215  27.613  1.00  0.00     0.167 HD
ATOM     47  C   UNL A   1      40.158  28.280  29.458  1.00  0.00     0.031 A 
ATOM     48  C   UNL A   1      46.205  27.085  26.118  1.00  0.00     0.031 A 
ATOM     49  C   UNL A   1      40.333  26.946  28.939  1.00  0.00     0.049 A 
ATOM     50  C   UNL A   1      45.201  25.991  26.339  1.00  0.00     0.074 A 
ATOM     51  C   UNL A   1      39.456  25.877  29.014  1.00  0.00     0.029 A 
ATOM     52  N   UNL A   1      41.459  26.491  28.269  1.00  0.00    -0.354 N 
ATOM     53  N   UNL A   1      44.023  26.060  26.910  1.00  0.00    -0.248 NA
ATOM     54  C   UNL A   1      45.550  24.657  25.835  1.00  0.00     0.031 C 
ATOM     55  C   UNL A   1      40.081  24.758  28.464  1.00  0.00     0.029 A 
ATOM     56  C   UNL A   1      41.312  25.147  27.960  1.00  0.00     0.049 A 
ATOM     57  H   UNL A   1      42.245  27.039  28.045  1.00  0.00     0.167 HD
ATOM     58  C   UNL A   1      43.476  24.788  26.806  1.00  0.00     0.074 A 
ATOM     59  C   UNL A   1      44.445  23.973  26.102  1.00  0.00     0.031 C 
ATOM     60  C   UNL A   1      42.278  24.342  27.254  1.00  0.00     0.031 A 
BRANCH  47  61
ATOM     61  C   UNL A   1      38.891  28.562  30.219  1.00  0.00    -0.014 A 
ATOM     62  C   UNL A   1      37.841  29.262  29.600  1.00  0.00     0.009 A 
ATOM     63  C   UNL A   1      38.799  28.284  31.592  1.00  0.00     0.009 A 
ATOM     64  C   UNL A   1      36.744  29.701  30.341  1.00  0.00     0.001 A 
ATOM     65  C   UNL A   1      37.684  28.698  32.326  1.00  0.00     0.001 A 
ATOM     66  C   UNL A   1      36.666  29.419  31.704  1.00  0.00     0.000 A 
ENDBRANCH  47  61
BRANCH  48  67
ATOM     67  C   UNL A   1      47.454  26.856  25.343  1.00  0.00    -0.014 A 
ATOM     68  C   UNL A   1      48.627  26.427  25.985  1.00  0.00     0.009 A 
ATOM     69  C   UNL A   1      47.497  27.125  23.968  1.00  0.00     0.009 A 
ATOM     70  C   UNL A   1      49.820  26.296  25.273  1.00  0.00     0.001 A 
ATOM     71  C   UNL A   1      48.682  26.958  23.249  1.00  0.00     0.001 A 
ATOM     72  C   UNL A   1      49.846  26.555  23.904  1.00  0.00     0.000 A 
ENDBRANCH  48  67
BRANCH  60  73
ATOM     73  C   UNL A   1      41.911  22.907  26.987  1.00  0.00    -0.014 A 
ATOM     74  C   UNL A   1      40.887  22.611  26.071  1.00  0.00     0.009 A 
ATOM     75  C   UNL A   1      42.484  21.859  27.723  1.00  0.00     0.009 A 
ATOM     76  C   UNL A   1      40.426  21.303  25.917  1.00  0.00     0.001 A 
ATOM     77  C   UNL A   1      42.047  20.545  27.539  1.00  0.00     0.001 A 
ATOM     78  C   UNL A   1      41.009  20.271  26.649  1.00  0.00     0.000 A 
ENDBRANCH  60  73
ENDBRANCH  34  35
ENDBRANCH  27  29
ENDBRANCH  26  27
ENDBRANCH  25  26
ENDBRANCH  24  25
ENDBRANCH  23  24
ENDBRANCH  22  23
ENDBRANCH  21  22
ENDBRANCH   1  21
TORSDOF 22
ENDMDL
