MODEL 1
REMARK VINA RESULT:     -10.4      0.000      0.000
REMARK SMILES Cc1ccc2c(c1)OCCN2c1sc(C(=O)OCCOCCOCCOCCOC(=O)c2ccc(-c3c4nc(c(-c5ccccc5)c5ccc([nH]5)c(-c5ccccc5)c5nc(c(-c6ccccc6)c6ccc3[nH]6)C=C5)C=C4)cc2)cc1C
REMARK SMILES IDX 24 1 23 2 22 3 21 4 20 5 19 6 18 7 17 8 15 9 16 10 14 11
REMARK SMILES IDX 12 12 13 13 81 14 80 15 82 16 11 17 1 18 2 19 3 20 7 21 4 22
REMARK SMILES IDX 6 23 5 24 8 25 9 26 10 27 25 28 26 29 27 30 28 31 29 32
REMARK SMILES IDX 30 33 31 34 32 35 33 36 79 37 34 38 78 39 35 40 36 41 37 42
REMARK SMILES IDX 72 43 38 44 77 45 71 46 73 47 39 48 76 49 70 50 69 51 40 53
REMARK SMILES IDX 62 54 47 55 61 56 48 57 51 58 60 59 74 60 49 61 50 62 59 64
REMARK SMILES IDX 75 65 52 66 41 67 42 68 46 69 43 70 45 71 44 72 63 73 64 74
REMARK SMILES IDX 68 75 65 76 67 77 66 78 53 79 54 80 58 81 55 82 57 83 56 84
REMARK H PARENT 73 52 51 63
REMARK Flexibility Score: inf
ROOT
ATOM      1  C   UNL A   1      34.513  34.307  29.514  1.00  0.00     0.188 C 
ENDROOT
BRANCH   1   2
ATOM      2  O   UNL A   1      34.443  32.892  29.366  1.00  0.00    -0.377 OA
BRANCH   2   3
ATOM      3  C   UNL A   1      34.638  32.320  28.087  1.00  0.00     0.188 C 
BRANCH   3   4
ATOM      4  C   UNL A   1      33.529  31.381  27.585  1.00  0.00     0.188 C 
BRANCH   4   5
ATOM      5  O   UNL A   1      34.015  30.179  26.990  1.00  0.00    -0.376 OA
BRANCH   5   6
ATOM      6  C   UNL A   1      33.236  29.009  27.203  1.00  0.00     0.202 C 
BRANCH   6   7
ATOM      7  C   UNL A   1      32.001  28.890  26.299  1.00  0.00     0.261 C 
BRANCH   7   8
ATOM      8  O   UNL A   1      32.293  28.853  24.895  1.00  0.00    -0.459 OA
BRANCH   8   9
ATOM      9  C   UNL A   1      31.869  27.761  24.208  1.00  0.00     0.348 C 
ATOM     10  O   UNL A   1      31.131  27.802  23.230  1.00  0.00    -0.245 OA
BRANCH   9  11
ATOM     11  C   UNL A   1      32.545  26.576  24.684  1.00  0.00     0.114 A 
ATOM     12  C   UNL A   1      33.070  24.326  25.571  1.00  0.00     0.099 A 
ATOM     13  S   UNL A   1      31.834  25.512  25.805  1.00  0.00    -0.110 S 
ATOM     14  C   UNL A   1      34.174  24.906  24.951  1.00  0.00    -0.015 A 
ATOM     15  C   UNL A   1      33.826  26.175  24.376  1.00  0.00     0.033 A 
ATOM     16  C   UNL A   1      35.524  24.298  24.759  1.00  0.00     0.047 C 
BRANCH  12  17
ATOM     17  N   UNL A   1      32.915  23.031  25.980  1.00  0.00    -0.327 N 
ATOM     18  C   UNL A   1      32.270  18.479  22.491  1.00  0.00     0.044 C 
ATOM     19  C   UNL A   1      32.451  19.653  23.401  1.00  0.00    -0.047 A 
ATOM     20  C   UNL A   1      32.228  20.942  22.923  1.00  0.00     0.006 A 
ATOM     21  C   UNL A   1      32.802  19.488  24.744  1.00  0.00     0.052 A 
ATOM     22  C   UNL A   1      32.395  22.046  23.761  1.00  0.00     0.030 A 
ATOM     23  C   UNL A   1      32.959  20.599  25.583  1.00  0.00     0.143 A 
ATOM     24  C   UNL A   1      32.743  21.913  25.116  1.00  0.00     0.085 A 
ATOM     25  O   UNL A   1      33.348  20.305  26.873  1.00  0.00    -0.490 OA
ATOM     26  C   UNL A   1      33.906  21.443  27.539  1.00  0.00     0.251 C 
ATOM     27  C   UNL A   1      33.006  22.665  27.393  1.00  0.00     0.165 C 
ENDBRANCH  12  17
ENDBRANCH   9  11
ENDBRANCH   8   9
ENDBRANCH   7   8
ENDBRANCH   6   7
ENDBRANCH   5   6
ENDBRANCH   4   5
ENDBRANCH   3   4
ENDBRANCH   2   3
ENDBRANCH   1   2
BRANCH   1  28
ATOM     28  C   UNL A   1      33.399  35.133  30.196  1.00  0.00     0.188 C 
BRANCH  28  29
ATOM     29  O   UNL A   1      33.207  34.864  31.579  1.00  0.00    -0.376 OA
BRANCH  29  30
ATOM     30  C   UNL A   1      34.380  34.718  32.366  1.00  0.00     0.202 C 
BRANCH  30  31
ATOM     31  C   UNL A   1      34.342  33.498  33.293  1.00  0.00     0.261 C 
BRANCH  31  32
ATOM     32  O   UNL A   1      35.231  32.435  32.921  1.00  0.00    -0.460 OA
BRANCH  32  33
ATOM     33  C   UNL A   1      36.406  32.342  33.584  1.00  0.00     0.338 C 
ATOM     34  O   UNL A   1      36.612  32.564  34.762  1.00  0.00    -0.246 OA
BRANCH  33  35
ATOM     35  C   UNL A   1      37.383  31.735  32.658  1.00  0.00     0.060 A 
ATOM     36  C   UNL A   1      37.214  31.860  31.277  1.00  0.00     0.016 A 
ATOM     37  C   UNL A   1      38.455  31.001  33.182  1.00  0.00     0.016 A 
ATOM     38  C   UNL A   1      38.140  31.277  30.416  1.00  0.00     0.010 A 
ATOM     39  C   UNL A   1      39.380  30.412  32.317  1.00  0.00     0.010 A 
ATOM     40  C   UNL A   1      39.242  30.570  30.930  1.00  0.00    -0.014 A 
BRANCH  40  41
ATOM     41  C   UNL A   1      40.343  30.191  30.015  1.00  0.00     0.031 A 
ATOM     42  C   UNL A   1      41.506  31.090  29.743  1.00  0.00     0.074 A 
ATOM     43  C   UNL A   1      40.272  28.978  29.437  1.00  0.00     0.049 A 
ATOM     44  N   UNL A   1      42.599  30.823  29.073  1.00  0.00    -0.248 NA
ATOM     45  C   UNL A   1      41.442  32.457  30.278  1.00  0.00     0.031 C 
ATOM     46  C   UNL A   1      39.167  28.032  29.613  1.00  0.00     0.029 A 
ATOM     47  N   UNL A   1      41.143  28.325  28.605  1.00  0.00    -0.354 N 
ATOM     48  C   UNL A   1      43.366  31.978  29.122  1.00  0.00     0.074 A 
ATOM     49  C   UNL A   1      42.594  32.964  29.851  1.00  0.00     0.031 C 
ATOM     50  C   UNL A   1      39.442  26.909  28.937  1.00  0.00     0.029 A 
ATOM     51  C   UNL A   1      40.728  27.061  28.263  1.00  0.00     0.049 A 
ATOM     52  H   UNL A   1      41.985  28.723  28.283  1.00  0.00     0.167 HD
ATOM     53  C   UNL A   1      44.605  32.182  28.615  1.00  0.00     0.031 A 
ATOM     54  C   UNL A   1      41.319  26.119  27.506  1.00  0.00     0.031 A 
ATOM     55  C   UNL A   1      45.355  31.198  27.874  1.00  0.00     0.049 A 
ATOM     56  C   UNL A   1      42.679  26.383  26.933  1.00  0.00     0.074 A 
ATOM     57  C   UNL A   1      46.642  31.300  27.374  1.00  0.00     0.029 A 
ATOM     58  N   UNL A   1      44.886  29.945  27.513  1.00  0.00    -0.354 N 
ATOM     59  N   UNL A   1      43.435  27.446  27.070  1.00  0.00    -0.248 NA
ATOM     60  C   UNL A   1      43.279  25.317  26.121  1.00  0.00     0.031 C 
ATOM     61  C   UNL A   1      46.925  30.139  26.651  1.00  0.00     0.029 A 
ATOM     62  C   UNL A   1      45.843  29.280  26.762  1.00  0.00     0.049 A 
ATOM     63  H   UNL A   1      44.004  29.580  27.755  1.00  0.00     0.167 HD
ATOM     64  C   UNL A   1      44.607  27.168  26.380  1.00  0.00     0.074 A 
ATOM     65  C   UNL A   1      44.470  25.831  25.839  1.00  0.00     0.031 C 
ATOM     66  C   UNL A   1      45.697  27.955  26.215  1.00  0.00     0.031 A 
BRANCH  53  67
ATOM     67  C   UNL A   1      45.259  33.519  28.841  1.00  0.00    -0.014 A 
ATOM     68  C   UNL A   1      45.140  34.530  27.873  1.00  0.00     0.009 A 
ATOM     69  C   UNL A   1      46.106  33.728  29.940  1.00  0.00     0.009 A 
ATOM     70  C   UNL A   1      45.870  35.714  27.991  1.00  0.00     0.001 A 
ATOM     71  C   UNL A   1      46.816  34.924  30.067  1.00  0.00     0.001 A 
ATOM     72  C   UNL A   1      46.706  35.911  29.088  1.00  0.00     0.000 A 
ENDBRANCH  53  67
BRANCH  54  73
ATOM     73  C   UNL A   1      40.625  24.822  27.300  1.00  0.00    -0.014 A 
ATOM     74  C   UNL A   1      41.128  23.647  27.880  1.00  0.00     0.009 A 
ATOM     75  C   UNL A   1      39.503  24.741  26.462  1.00  0.00     0.009 A 
ATOM     76  C   UNL A   1      40.537  22.412  27.607  1.00  0.00     0.001 A 
ATOM     77  C   UNL A   1      38.895  23.508  26.214  1.00  0.00     0.001 A 
ATOM     78  C   UNL A   1      39.419  22.344  26.778  1.00  0.00     0.000 A 
ENDBRANCH  54  73
BRANCH  66  79
ATOM     79  C   UNL A   1      46.847  27.405  25.416  1.00  0.00    -0.014 A 
ATOM     80  C   UNL A   1      47.812  26.602  26.044  1.00  0.00     0.009 A 
ATOM     81  C   UNL A   1      47.031  27.764  24.072  1.00  0.00     0.009 A 
ATOM     82  C   UNL A   1      48.948  26.184  25.349  1.00  0.00     0.001 A 
ATOM     83  C   UNL A   1      48.153  27.319  23.371  1.00  0.00     0.001 A 
ATOM     84  C   UNL A   1      49.116  26.539  24.011  1.00  0.00     0.000 A 
ENDBRANCH  66  79
ENDBRANCH  40  41
ENDBRANCH  33  35
ENDBRANCH  32  33
ENDBRANCH  31  32
ENDBRANCH  30  31
ENDBRANCH  29  30
ENDBRANCH  28  29
ENDBRANCH   1  28
TORSDOF 21
ENDMDL
MODEL 2
REMARK VINA RESULT:     -10.2      4.170      7.884
REMARK SMILES Cc1ccc2c(c1)OCCN2c1sc(C(=O)OCCOCCOCCOCCOC(=O)c2ccc(-c3c4nc(c(-c5ccccc5)c5ccc([nH]5)c(-c5ccccc5)c5nc(c(-c6ccccc6)c6ccc3[nH]6)C=C5)C=C4)cc2)cc1C
REMARK SMILES IDX 24 1 23 2 22 3 21 4 20 5 19 6 18 7 17 8 15 9 16 10 14 11
REMARK SMILES IDX 12 12 13 13 81 14 80 15 82 16 11 17 1 18 2 19 3 20 7 21 4 22
REMARK SMILES IDX 6 23 5 24 8 25 9 26 10 27 25 28 26 29 27 30 28 31 29 32
REMARK SMILES IDX 30 33 31 34 32 35 33 36 79 37 34 38 78 39 35 40 36 41 37 42
REMARK SMILES IDX 72 43 38 44 77 45 71 46 73 47 39 48 76 49 70 50 69 51 40 53
REMARK SMILES IDX 62 54 47 55 61 56 48 57 51 58 60 59 74 60 49 61 50 62 59 64
REMARK SMILES IDX 75 65 52 66 41 67 42 68 46 69 43 70 45 71 44 72 63 73 64 74
REMARK SMILES IDX 68 75 65 76 67 77 66 78 53 79 54 80 58 81 55 82 57 83 56 84
REMARK H PARENT 73 52 51 63
REMARK Flexibility Score: inf
ROOT
ATOM      1  C   UNL A   1      34.724  31.613  28.305  1.00  0.00     0.188 C 
ENDROOT
BRANCH   1   2
ATOM      2  O   UNL A   1      33.938  31.329  27.152  1.00  0.00    -0.377 OA
BRANCH   2   3
ATOM      3  C   UNL A   1      32.896  30.376  27.243  1.00  0.00     0.188 C 
BRANCH   3   4
ATOM      4  C   UNL A   1      32.197  30.002  25.925  1.00  0.00     0.188 C 
BRANCH   4   5
ATOM      5  O   UNL A   1      32.612  28.748  25.387  1.00  0.00    -0.376 OA
BRANCH   5   6
ATOM      6  C   UNL A   1      33.320  28.792  24.156  1.00  0.00     0.202 C 
BRANCH   6   7
ATOM      7  C   UNL A   1      32.475  28.455  22.920  1.00  0.00     0.261 C 
BRANCH   7   8
ATOM      8  O   UNL A   1      31.413  27.522  23.162  1.00  0.00    -0.459 OA
BRANCH   8   9
ATOM      9  C   UNL A   1      31.407  26.390  22.411  1.00  0.00     0.348 C 
ATOM     10  O   UNL A   1      31.414  26.372  21.186  1.00  0.00    -0.245 OA
BRANCH   9  11
ATOM     11  C   UNL A   1      31.567  25.228  23.255  1.00  0.00     0.114 A 
ATOM     12  C   UNL A   1      32.471  23.270  24.467  1.00  0.00     0.099 A 
ATOM     13  S   UNL A   1      32.719  24.020  22.930  1.00  0.00    -0.110 S 
ATOM     14  C   UNL A   1      31.275  23.714  25.025  1.00  0.00    -0.015 A 
ATOM     15  C   UNL A   1      30.809  24.895  24.356  1.00  0.00     0.033 A 
ATOM     16  C   UNL A   1      30.583  23.167  26.230  1.00  0.00     0.047 C 
BRANCH  12  17
ATOM     17  N   UNL A   1      33.360  22.368  24.984  1.00  0.00    -0.327 N 
ATOM     18  C   UNL A   1      33.695  16.793  23.531  1.00  0.00     0.044 C 
ATOM     19  C   UNL A   1      33.622  18.241  23.902  1.00  0.00    -0.047 A 
ATOM     20  C   UNL A   1      32.475  18.975  23.613  1.00  0.00     0.006 A 
ATOM     21  C   UNL A   1      34.671  18.875  24.575  1.00  0.00     0.052 A 
ATOM     22  C   UNL A   1      32.395  20.327  23.952  1.00  0.00     0.030 A 
ATOM     23  C   UNL A   1      34.582  20.230  24.922  1.00  0.00     0.143 A 
ATOM     24  C   UNL A   1      33.430  20.991  24.633  1.00  0.00     0.085 A 
ATOM     25  O   UNL A   1      35.699  20.747  25.544  1.00  0.00    -0.490 OA
ATOM     26  C   UNL A   1      35.737  22.177  25.479  1.00  0.00     0.251 C 
ATOM     27  C   UNL A   1      34.409  22.786  25.914  1.00  0.00     0.165 C 
ENDBRANCH  12  17
ENDBRANCH   9  11
ENDBRANCH   8   9
ENDBRANCH   7   8
ENDBRANCH   6   7
ENDBRANCH   5   6
ENDBRANCH   4   5
ENDBRANCH   3   4
ENDBRANCH   2   3
ENDBRANCH   1   2
BRANCH   1  28
ATOM     28  C   UNL A   1      34.627  32.950  29.075  1.00  0.00     0.188 C 
BRANCH  28  29
ATOM     29  O   UNL A   1      35.030  34.101  28.342  1.00  0.00    -0.376 OA
BRANCH  29  30
ATOM     30  C   UNL A   1      34.201  35.248  28.457  1.00  0.00     0.202 C 
BRANCH  30  31
ATOM     31  C   UNL A   1      33.074  35.082  29.482  1.00  0.00     0.261 C 
BRANCH  31  32
ATOM     32  O   UNL A   1      33.129  35.997  30.586  1.00  0.00    -0.460 OA
BRANCH  32  33
ATOM     33  C   UNL A   1      32.823  35.517  31.812  1.00  0.00     0.338 C 
ATOM     34  O   UNL A   1      31.733  35.506  32.353  1.00  0.00    -0.246 OA
BRANCH  33  35
ATOM     35  C   UNL A   1      34.023  34.828  32.325  1.00  0.00     0.060 A 
ATOM     36  C   UNL A   1      33.898  33.625  33.024  1.00  0.00     0.016 A 
ATOM     37  C   UNL A   1      35.281  35.415  32.136  1.00  0.00     0.016 A 
ATOM     38  C   UNL A   1      35.039  32.989  33.508  1.00  0.00     0.010 A 
ATOM     39  C   UNL A   1      36.424  34.780  32.627  1.00  0.00     0.010 A 
ATOM     40  C   UNL A   1      36.311  33.549  33.292  1.00  0.00    -0.014 A 
BRANCH  40  41
ATOM     41  C   UNL A   1      37.513  32.734  33.577  1.00  0.00     0.031 A 
ATOM     42  C   UNL A   1      38.040  31.717  32.618  1.00  0.00     0.074 A 
ATOM     43  C   UNL A   1      38.142  32.955  34.747  1.00  0.00     0.049 A 
ATOM     44  N   UNL A   1      39.158  31.037  32.688  1.00  0.00    -0.248 NA
ATOM     45  C   UNL A   1      37.220  31.414  31.437  1.00  0.00     0.031 C 
ATOM     46  C   UNL A   1      37.696  33.906  35.768  1.00  0.00     0.029 A 
ATOM     47  N   UNL A   1      39.289  32.416  35.268  1.00  0.00    -0.354 N 
ATOM     48  C   UNL A   1      39.189  30.241  31.551  1.00  0.00     0.074 A 
ATOM     49  C   UNL A   1      37.957  30.490  30.831  1.00  0.00     0.031 C 
ATOM     50  C   UNL A   1      38.577  33.907  36.778  1.00  0.00     0.029 A 
ATOM     51  C   UNL A   1      39.635  32.944  36.488  1.00  0.00     0.049 A 
ATOM     52  H   UNL A   1      39.814  31.718  34.813  1.00  0.00     0.167 HD
ATOM     53  C   UNL A   1      40.167  29.395  31.149  1.00  0.00     0.031 A 
ATOM     54  C   UNL A   1      40.693  32.698  37.282  1.00  0.00     0.031 A 
ATOM     55  C   UNL A   1      41.380  29.141  31.887  1.00  0.00     0.049 A 
ATOM     56  C   UNL A   1      41.747  31.734  36.824  1.00  0.00     0.074 A 
ATOM     57  C   UNL A   1      42.452  28.344  31.524  1.00  0.00     0.029 A 
ATOM     58  N   UNL A   1      41.677  29.664  33.136  1.00  0.00    -0.354 N 
ATOM     59  N   UNL A   1      41.811  31.062  35.700  1.00  0.00    -0.248 NA
ATOM     60  C   UNL A   1      42.883  31.509  37.727  1.00  0.00     0.031 C 
ATOM     61  C   UNL A   1      43.364  28.327  32.582  1.00  0.00     0.029 A 
ATOM     62  C   UNL A   1      42.896  29.172  33.576  1.00  0.00     0.049 A 
ATOM     63  H   UNL A   1      41.106  30.290  33.637  1.00  0.00     0.167 HD
ATOM     64  C   UNL A   1      43.002  30.351  35.752  1.00  0.00     0.074 A 
ATOM     65  C   UNL A   1      43.637  30.686  37.010  1.00  0.00     0.031 C 
ATOM     66  C   UNL A   1      43.519  29.498  34.834  1.00  0.00     0.031 A 
BRANCH  53  67
ATOM     67  C   UNL A   1      39.993  28.671  29.841  1.00  0.00    -0.014 A 
ATOM     68  C   UNL A   1      39.460  27.372  29.824  1.00  0.00     0.009 A 
ATOM     69  C   UNL A   1      40.486  29.217  28.646  1.00  0.00     0.009 A 
ATOM     70  C   UNL A   1      39.441  26.627  28.644  1.00  0.00     0.001 A 
ATOM     71  C   UNL A   1      40.443  28.479  27.461  1.00  0.00     0.001 A 
ATOM     72  C   UNL A   1      39.932  27.182  27.463  1.00  0.00     0.000 A 
ENDBRANCH  53  67
BRANCH  54  73
ATOM     73  C   UNL A   1      40.811  33.426  38.570  1.00  0.00    -0.014 A 
ATOM     74  C   UNL A   1      40.186  32.932  39.727  1.00  0.00     0.009 A 
ATOM     75  C   UNL A   1      41.483  34.655  38.633  1.00  0.00     0.009 A 
ATOM     76  C   UNL A   1      40.211  33.664  40.914  1.00  0.00     0.001 A 
ATOM     77  C   UNL A   1      41.532  35.372  39.831  1.00  0.00     0.001 A 
ATOM     78  C   UNL A   1      40.887  34.882  40.967  1.00  0.00     0.000 A 
ENDBRANCH  54  73
BRANCH  66  79
ATOM     79  C   UNL A   1      44.844  28.856  35.139  1.00  0.00    -0.014 A 
ATOM     80  C   UNL A   1      44.890  27.680  35.904  1.00  0.00     0.009 A 
ATOM     81  C   UNL A   1      46.048  29.467  34.759  1.00  0.00     0.009 A 
ATOM     82  C   UNL A   1      46.114  27.138  36.300  1.00  0.00     0.001 A 
ATOM     83  C   UNL A   1      47.272  28.906  35.131  1.00  0.00     0.001 A 
ATOM     84  C   UNL A   1      47.304  27.749  35.909  1.00  0.00     0.000 A 
ENDBRANCH  66  79
ENDBRANCH  40  41
ENDBRANCH  33  35
ENDBRANCH  32  33
ENDBRANCH  31  32
ENDBRANCH  30  31
ENDBRANCH  29  30
ENDBRANCH  28  29
ENDBRANCH   1  28
TORSDOF 21
ENDMDL
MODEL 3
REMARK VINA RESULT:      -9.6      4.192     10.172
REMARK SMILES Cc1ccc2c(c1)OCCN2c1sc(C(=O)OCCOCCOCCOCCOC(=O)c2ccc(-c3c4nc(c(-c5ccccc5)c5ccc([nH]5)c(-c5ccccc5)c5nc(c(-c6ccccc6)c6ccc3[nH]6)C=C5)C=C4)cc2)cc1C
REMARK SMILES IDX 24 1 23 2 22 3 21 4 20 5 19 6 18 7 17 8 15 9 16 10 14 11
REMARK SMILES IDX 12 12 13 13 81 14 80 15 82 16 11 17 1 18 2 19 3 20 7 21 4 22
REMARK SMILES IDX 6 23 5 24 8 25 9 26 10 27 25 28 26 29 27 30 28 31 29 32
REMARK SMILES IDX 30 33 31 34 32 35 33 36 79 37 34 38 78 39 35 40 36 41 37 42
REMARK SMILES IDX 72 43 38 44 77 45 71 46 73 47 39 48 76 49 70 50 69 51 40 53
REMARK SMILES IDX 62 54 47 55 61 56 48 57 51 58 60 59 74 60 49 61 50 62 59 64
REMARK SMILES IDX 75 65 52 66 41 67 42 68 46 69 43 70 45 71 44 72 63 73 64 74
REMARK SMILES IDX 68 75 65 76 67 77 66 78 53 79 54 80 58 81 55 82 57 83 56 84
REMARK H PARENT 73 52 51 63
REMARK Flexibility Score: inf
ROOT
ATOM      1  C   UNL A   1      41.357  22.291  26.214  1.00  0.00     0.188 C 
ENDROOT
BRANCH   1   2
ATOM      2  O   UNL A   1      40.163  21.554  25.972  1.00  0.00    -0.377 OA
BRANCH   2   3
ATOM      3  C   UNL A   1      40.076  20.213  26.415  1.00  0.00     0.188 C 
BRANCH   3   4
ATOM      4  C   UNL A   1      39.136  19.293  25.619  1.00  0.00     0.188 C 
BRANCH   4   5
ATOM      5  O   UNL A   1      38.367  19.971  24.627  1.00  0.00    -0.376 OA
BRANCH   5   6
ATOM      6  C   UNL A   1      37.016  20.260  24.963  1.00  0.00     0.202 C 
BRANCH   6   7
ATOM      7  C   UNL A   1      36.628  21.740  24.835  1.00  0.00     0.261 C 
BRANCH   7   8
ATOM      8  O   UNL A   1      35.447  21.980  24.059  1.00  0.00    -0.459 OA
BRANCH   8   9
ATOM      9  C   UNL A   1      34.331  22.353  24.738  1.00  0.00     0.348 C 
ATOM     10  O   UNL A   1      33.949  21.835  25.781  1.00  0.00    -0.245 OA
BRANCH   9  11
ATOM     11  C   UNL A   1      33.766  23.548  24.154  1.00  0.00     0.114 A 
ATOM     12  C   UNL A   1      33.000  25.864  23.738  1.00  0.00     0.099 A 
ATOM     13  S   UNL A   1      33.130  24.810  25.101  1.00  0.00    -0.110 S 
ATOM     14  C   UNL A   1      33.078  25.127  22.558  1.00  0.00    -0.015 A 
ATOM     15  C   UNL A   1      33.598  23.814  22.812  1.00  0.00     0.033 A 
ATOM     16  C   UNL A   1      32.801  25.609  21.173  1.00  0.00     0.047 C 
BRANCH  12  17
ATOM     17  N   UNL A   1      32.829  27.213  23.880  1.00  0.00    -0.327 N 
ATOM     18  C   UNL A   1      27.861  30.053  23.128  1.00  0.00     0.044 C 
ATOM     19  C   UNL A   1      29.149  29.320  23.338  1.00  0.00    -0.047 A 
ATOM     20  C   UNL A   1      29.312  28.039  22.819  1.00  0.00     0.006 A 
ATOM     21  C   UNL A   1      30.221  29.910  24.015  1.00  0.00     0.052 A 
ATOM     22  C   UNL A   1      30.508  27.344  23.009  1.00  0.00     0.030 A 
ATOM     23  C   UNL A   1      31.423  29.212  24.195  1.00  0.00     0.143 A 
ATOM     24  C   UNL A   1      31.604  27.911  23.680  1.00  0.00     0.085 A 
ATOM     25  O   UNL A   1      32.387  29.886  24.914  1.00  0.00    -0.490 OA
ATOM     26  C   UNL A   1      33.386  29.003  25.435  1.00  0.00     0.251 C 
ATOM     27  C   UNL A   1      33.916  28.069  24.352  1.00  0.00     0.165 C 
ENDBRANCH  12  17
ENDBRANCH   9  11
ENDBRANCH   8   9
ENDBRANCH   7   8
ENDBRANCH   6   7
ENDBRANCH   5   6
ENDBRANCH   4   5
ENDBRANCH   3   4
ENDBRANCH   2   3
ENDBRANCH   1   2
BRANCH   1  28
ATOM     28  C   UNL A   1      42.515  21.746  27.081  1.00  0.00     0.188 C 
BRANCH  28  29
ATOM     29  O   UNL A   1      43.807  21.844  26.494  1.00  0.00    -0.376 OA
BRANCH  29  30
ATOM     30  C   UNL A   1      43.863  21.815  25.075  1.00  0.00     0.202 C 
BRANCH  30  31
ATOM     31  C   UNL A   1      44.627  22.999  24.474  1.00  0.00     0.261 C 
BRANCH  31  32
ATOM     32  O   UNL A   1      44.019  24.279  24.693  1.00  0.00    -0.460 OA
BRANCH  32  33
ATOM     33  C   UNL A   1      44.806  25.276  25.155  1.00  0.00     0.338 C 
ATOM     34  O   UNL A   1      45.878  25.641  24.708  1.00  0.00    -0.246 OA
BRANCH  33  35
ATOM     35  C   UNL A   1      44.047  25.983  26.205  1.00  0.00     0.060 A 
ATOM     36  C   UNL A   1      43.024  25.327  26.894  1.00  0.00     0.016 A 
ATOM     37  C   UNL A   1      44.339  27.327  26.471  1.00  0.00     0.016 A 
ATOM     38  C   UNL A   1      42.312  26.009  27.878  1.00  0.00     0.010 A 
ATOM     39  C   UNL A   1      43.621  28.011  27.453  1.00  0.00     0.010 A 
ATOM     40  C   UNL A   1      42.621  27.347  28.181  1.00  0.00    -0.014 A 
BRANCH  40  41
ATOM     41  C   UNL A   1      42.040  27.962  29.396  1.00  0.00     0.031 A 
ATOM     42  C   UNL A   1      42.687  27.854  30.739  1.00  0.00     0.074 A 
ATOM     43  C   UNL A   1      40.893  28.652  29.248  1.00  0.00     0.049 A 
ATOM     44  N   UNL A   1      42.354  28.459  31.852  1.00  0.00    -0.248 NA
ATOM     45  C   UNL A   1      43.845  26.958  30.860  1.00  0.00     0.031 C 
ATOM     46  C   UNL A   1      40.164  28.797  27.986  1.00  0.00     0.029 A 
ATOM     47  N   UNL A   1      40.152  29.370  30.149  1.00  0.00    -0.354 N 
ATOM     48  C   UNL A   1      43.272  28.036  32.803  1.00  0.00     0.074 A 
ATOM     49  C   UNL A   1      44.150  27.089  32.146  1.00  0.00     0.031 C 
ATOM     50  C   UNL A   1      39.097  29.583  28.187  1.00  0.00     0.029 A 
ATOM     51  C   UNL A   1      39.055  29.979  29.592  1.00  0.00     0.049 A 
ATOM     52  H   UNL A   1      40.383  29.442  31.104  1.00  0.00     0.167 HD
ATOM     53  C   UNL A   1      43.373  28.420  34.097  1.00  0.00     0.031 A 
ATOM     54  C   UNL A   1      38.124  30.781  30.139  1.00  0.00     0.031 A 
ATOM     55  C   UNL A   1      42.480  29.350  34.744  1.00  0.00     0.049 A 
ATOM     56  C   UNL A   1      38.245  31.168  31.583  1.00  0.00     0.074 A 
ATOM     57  C   UNL A   1      42.544  29.841  36.037  1.00  0.00     0.029 A 
ATOM     58  N   UNL A   1      41.358  29.915  34.158  1.00  0.00    -0.354 N 
ATOM     59  N   UNL A   1      39.176  30.838  32.445  1.00  0.00    -0.248 NA
ATOM     60  C   UNL A   1      37.205  32.052  32.126  1.00  0.00     0.031 C 
ATOM     61  C   UNL A   1      41.423  30.646  36.256  1.00  0.00     0.029 A 
ATOM     62  C   UNL A   1      40.698  30.717  35.077  1.00  0.00     0.049 A 
ATOM     63  H   UNL A   1      41.070  29.769  33.228  1.00  0.00     0.167 HD
ATOM     64  C   UNL A   1      38.845  31.489  33.626  1.00  0.00     0.074 A 
ATOM     65  C   UNL A   1      37.639  32.247  33.365  1.00  0.00     0.031 C 
ATOM     66  C   UNL A   1      39.491  31.459  34.817  1.00  0.00     0.031 A 
BRANCH  53  67
ATOM     67  C   UNL A   1      44.495  27.854  34.926  1.00  0.00    -0.014 A 
ATOM     68  C   UNL A   1      44.271  26.725  35.731  1.00  0.00     0.009 A 
ATOM     69  C   UNL A   1      45.726  28.519  35.019  1.00  0.00     0.009 A 
ATOM     70  C   UNL A   1      45.248  26.285  36.624  1.00  0.00     0.001 A 
ATOM     71  C   UNL A   1      46.712  28.062  35.897  1.00  0.00     0.001 A 
ATOM     72  C   UNL A   1      46.469  26.952  36.706  1.00  0.00     0.000 A 
ENDBRANCH  53  67
BRANCH  54  73
ATOM     73  C   UNL A   1      37.029  31.302  29.283  1.00  0.00    -0.014 A 
ATOM     74  C   UNL A   1      37.061  32.624  28.811  1.00  0.00     0.009 A 
ATOM     75  C   UNL A   1      35.911  30.505  28.996  1.00  0.00     0.009 A 
ATOM     76  C   UNL A   1      35.987  33.146  28.089  1.00  0.00     0.001 A 
ATOM     77  C   UNL A   1      34.849  31.021  28.249  1.00  0.00     0.001 A 
ATOM     78  C   UNL A   1      34.883  32.343  27.806  1.00  0.00     0.000 A 
ENDBRANCH  54  73
BRANCH  66  79
ATOM     79  C   UNL A   1      38.917  32.268  35.947  1.00  0.00    -0.014 A 
ATOM     80  C   UNL A   1      39.293  33.612  36.105  1.00  0.00     0.009 A 
ATOM     81  C   UNL A   1      38.089  31.676  36.914  1.00  0.00     0.009 A 
ATOM     82  C   UNL A   1      38.868  34.342  37.216  1.00  0.00     0.001 A 
ATOM     83  C   UNL A   1      37.640  32.418  38.008  1.00  0.00     0.001 A 
ATOM     84  C   UNL A   1      38.038  33.746  38.164  1.00  0.00     0.000 A 
ENDBRANCH  66  79
ENDBRANCH  40  41
ENDBRANCH  33  35
ENDBRANCH  32  33
ENDBRANCH  31  32
ENDBRANCH  30  31
ENDBRANCH  29  30
ENDBRANCH  28  29
ENDBRANCH   1  28
TORSDOF 21
ENDMDL
