MODEL 1
REMARK VINA RESULT:     -10.3      0.000      0.000
REMARK SMILES Cc1cccc(-n2c(C)cc(/C=N\c3ccc(O)c(C(=O)OCCOCCOCCOCCOC(=O)c4ccc(-c5c6nc(c(-c7ccccc7)c7ccc([nH]7)c(-c7ccccc7)c7nc(c(-c8ccccc8)c8ccc5[nH]8)C=C7)C=C6)cc4)c3)c2C)c1
REMARK SMILES IDX 27 1 26 2 25 3 24 4 23 5 22 6 20 7 21 8 19 9 14 10 15 11
REMARK SMILES IDX 85 12 16 13 17 14 13 15 12 16 11 17 7 18 8 19 86 20 9 21
REMARK SMILES IDX 10 22 87 23 6 24 1 25 2 26 3 27 88 28 4 29 5 30 18 31 28 33
REMARK SMILES IDX 29 34 30 35 31 36 32 37 33 38 34 39 35 40 36 41 37 42 38 43
REMARK SMILES IDX 84 44 39 45 83 46 40 47 41 48 42 49 77 50 43 51 82 52 76 53
REMARK SMILES IDX 78 54 44 55 81 56 75 57 74 58 45 60 67 61 52 62 66 63 53 64
REMARK SMILES IDX 56 65 65 66 79 67 54 68 55 69 64 71 80 72 57 73 46 74 47 75
REMARK SMILES IDX 51 76 48 77 50 78 49 79 68 80 69 81 73 82 70 83 72 84 71 85
REMARK SMILES IDX 58 86 59 87 63 88 60 89 62 90 61 91
REMARK H PARENT 18 32 78 59 56 70
REMARK Flexibility Score: inf
ROOT
ATOM      1  C   UNL A   1      31.692  31.910  26.735  1.00  0.00     0.188 C 
ENDROOT
BRANCH   1   2
ATOM      2  C   UNL A   1      30.653  32.027  25.598  1.00  0.00     0.188 C 
BRANCH   2   3
ATOM      3  O   UNL A   1      30.376  30.943  24.731  1.00  0.00    -0.376 OA
BRANCH   3   4
ATOM      4  C   UNL A   1      29.305  31.104  23.820  1.00  0.00     0.202 C 
BRANCH   4   5
ATOM      5  C   UNL A   1      29.251  30.261  22.564  1.00  0.00     0.261 C 
BRANCH   5   6
ATOM      6  O   UNL A   1      28.891  28.959  23.011  1.00  0.00    -0.460 OA
BRANCH   6   7
ATOM      7  C   UNL A   1      29.900  28.106  22.828  1.00  0.00     0.342 C 
ATOM      8  O   UNL A   1      30.705  28.125  21.931  1.00  0.00    -0.246 OA
BRANCH   7   9
ATOM      9  C   UNL A   1      30.003  27.322  24.074  1.00  0.00     0.103 A 
ATOM     10  C   UNL A   1      31.616  26.647  25.689  1.00  0.00     0.064 A 
ATOM     11  C   UNL A   1      30.727  25.725  26.241  1.00  0.00     0.032 A 
ATOM     12  C   UNL A   1      31.199  27.545  24.727  1.00  0.00     0.048 A 
ATOM     13  C   UNL A   1      29.463  25.570  25.666  1.00  0.00     0.049 A 
ATOM     14  C   UNL A   1      29.132  26.320  24.533  1.00  0.00     0.130 A 
BRANCH  10  15
ATOM     15  N   UNL A   1      32.960  26.689  25.983  1.00  0.00    -0.256 NA
ATOM     16  C   UNL A   1      33.731  25.672  25.712  1.00  0.00     0.121 C 
BRANCH  16  17
ATOM     17  C   UNL A   1      33.514  24.258  25.344  1.00  0.00     0.014 A 
ATOM     18  N   UNL A   1      33.513  22.014  24.924  1.00  0.00    -0.318 N 
ATOM     19  C   UNL A   1      33.108  22.642  23.772  1.00  0.00     0.021 A 
ATOM     20  C   UNL A   1      33.717  22.986  25.901  1.00  0.00     0.029 A 
ATOM     21  C   UNL A   1      32.833  21.929  22.505  1.00  0.00     0.065 C 
ATOM     22  C   UNL A   1      33.004  23.986  24.039  1.00  0.00     0.033 A 
ATOM     23  C   UNL A   1      34.180  22.524  27.221  1.00  0.00     0.065 C 
BRANCH  18  24
ATOM     24  C   UNL A   1      33.916  20.651  25.055  1.00  0.00     0.046 A 
ATOM     25  C   UNL A   1      32.189  17.263  25.002  1.00  0.00     0.044 C 
ATOM     26  C   UNL A   1      33.245  18.325  24.939  1.00  0.00    -0.049 A 
ATOM     27  C   UNL A   1      34.576  17.970  24.672  1.00  0.00     0.003 A 
ATOM     28  C   UNL A   1      32.917  19.674  25.126  1.00  0.00     0.030 A 
ATOM     29  C   UNL A   1      35.575  18.943  24.625  1.00  0.00     0.002 A 
ATOM     30  C   UNL A   1      35.252  20.284  24.838  1.00  0.00     0.026 A 
ENDBRANCH  18  24
ENDBRANCH  16  17
ENDBRANCH  10  15
BRANCH  14  31
ATOM     31  O   UNL A   1      28.000  25.939  23.876  1.00  0.00    -0.507 OA
ATOM     32  H   UNL A   1      27.632  25.092  24.031  1.00  0.00     0.293 HD
ENDBRANCH  14  31
ENDBRANCH   7   9
ENDBRANCH   6   7
ENDBRANCH   5   6
ENDBRANCH   4   5
ENDBRANCH   3   4
ENDBRANCH   2   3
ENDBRANCH   1   2
BRANCH   1  33
ATOM     33  O   UNL A   1      31.794  32.929  27.717  1.00  0.00    -0.377 OA
BRANCH  33  34
ATOM     34  C   UNL A   1      32.603  34.056  27.401  1.00  0.00     0.188 C 
BRANCH  34  35
ATOM     35  C   UNL A   1      33.953  34.161  28.044  1.00  0.00     0.188 C 
BRANCH  35  36
ATOM     36  O   UNL A   1      34.111  35.535  28.383  1.00  0.00    -0.376 OA
BRANCH  36  37
ATOM     37  C   UNL A   1      32.988  36.119  29.019  1.00  0.00     0.202 C 
BRANCH  37  38
ATOM     38  C   UNL A   1      33.159  36.162  30.538  1.00  0.00     0.261 C 
BRANCH  38  39
ATOM     39  O   UNL A   1      34.429  35.556  30.867  1.00  0.00    -0.460 OA
BRANCH  39  40
ATOM     40  C   UNL A   1      34.402  34.626  31.861  1.00  0.00     0.338 C 
ATOM     41  O   UNL A   1      34.000  34.825  32.997  1.00  0.00    -0.246 OA
BRANCH  40  42
ATOM     42  C   UNL A   1      35.193  33.418  31.469  1.00  0.00     0.060 A 
ATOM     43  C   UNL A   1      35.031  32.210  32.168  1.00  0.00     0.016 A 
ATOM     44  C   UNL A   1      36.296  33.570  30.641  1.00  0.00     0.016 A 
ATOM     45  C   UNL A   1      36.057  31.245  32.183  1.00  0.00     0.010 A 
ATOM     46  C   UNL A   1      37.325  32.647  30.715  1.00  0.00     0.010 A 
ATOM     47  C   UNL A   1      37.258  31.500  31.528  1.00  0.00    -0.014 A 
BRANCH  47  48
ATOM     48  C   UNL A   1      38.516  30.727  31.707  1.00  0.00     0.031 A 
ATOM     49  C   UNL A   1      38.763  29.537  30.828  1.00  0.00     0.074 A 
ATOM     50  C   UNL A   1      39.578  31.289  32.358  1.00  0.00     0.049 A 
ATOM     51  N   UNL A   1      39.851  28.849  30.828  1.00  0.00    -0.248 NA
ATOM     52  C   UNL A   1      37.854  29.085  29.777  1.00  0.00     0.031 C 
ATOM     53  C   UNL A   1      40.998  30.935  32.275  1.00  0.00     0.029 A 
ATOM     54  N   UNL A   1      39.633  32.386  33.218  1.00  0.00    -0.354 N 
ATOM     55  C   UNL A   1      39.959  28.172  29.631  1.00  0.00     0.074 A 
ATOM     56  C   UNL A   1      38.647  28.291  29.044  1.00  0.00     0.031 C 
ATOM     57  C   UNL A   1      41.732  31.602  33.178  1.00  0.00     0.029 A 
ATOM     58  C   UNL A   1      40.783  32.269  34.023  1.00  0.00     0.049 A 
ATOM     59  H   UNL A   1      38.977  33.119  33.255  1.00  0.00     0.167 HD
ATOM     60  C   UNL A   1      41.191  27.713  29.247  1.00  0.00     0.031 A 
ATOM     61  C   UNL A   1      40.647  32.048  35.355  1.00  0.00     0.031 A 
ATOM     62  C   UNL A   1      42.201  27.927  30.314  1.00  0.00     0.049 A 
ATOM     63  C   UNL A   1      41.111  30.610  35.594  1.00  0.00     0.074 A 
ATOM     64  C   UNL A   1      43.416  28.589  30.403  1.00  0.00     0.029 A 
ATOM     65  N   UNL A   1      41.862  27.597  31.633  1.00  0.00    -0.354 N 
ATOM     66  N   UNL A   1      40.997  29.644  34.699  1.00  0.00    -0.248 NA
ATOM     67  C   UNL A   1      42.062  30.264  36.649  1.00  0.00     0.031 C 
ATOM     68  C   UNL A   1      43.715  28.774  31.793  1.00  0.00     0.029 A 
ATOM     69  C   UNL A   1      42.703  28.195  32.554  1.00  0.00     0.049 A 
ATOM     70  H   UNL A   1      41.113  27.007  31.875  1.00  0.00     0.167 HD
ATOM     71  C   UNL A   1      42.005  28.726  34.895  1.00  0.00     0.074 A 
ATOM     72  C   UNL A   1      42.581  29.113  36.180  1.00  0.00     0.031 C 
ATOM     73  C   UNL A   1      42.574  27.873  33.977  1.00  0.00     0.031 A 
BRANCH  60  74
ATOM     74  C   UNL A   1      41.554  27.209  27.848  1.00  0.00    -0.014 A 
ATOM     75  C   UNL A   1      42.780  27.586  27.257  1.00  0.00     0.009 A 
ATOM     76  C   UNL A   1      40.740  26.391  27.040  1.00  0.00     0.009 A 
ATOM     77  C   UNL A   1      43.163  27.175  25.966  1.00  0.00     0.001 A 
ATOM     78  C   UNL A   1      41.122  25.961  25.755  1.00  0.00     0.001 A 
ATOM     79  C   UNL A   1      42.336  26.354  25.216  1.00  0.00     0.000 A 
ENDBRANCH  60  74
BRANCH  61  80
ATOM     80  C   UNL A   1      39.590  32.987  35.878  1.00  0.00    -0.014 A 
ATOM     81  C   UNL A   1      38.565  32.345  36.636  1.00  0.00     0.009 A 
ATOM     82  C   UNL A   1      39.877  34.319  36.219  1.00  0.00     0.009 A 
ATOM     83  C   UNL A   1      38.025  32.920  37.799  1.00  0.00     0.001 A 
ATOM     84  C   UNL A   1      39.308  34.901  37.376  1.00  0.00     0.001 A 
ATOM     85  C   UNL A   1      38.433  34.186  38.194  1.00  0.00     0.000 A 
ENDBRANCH  61  80
BRANCH  73  86
ATOM     86  C   UNL A   1      43.029  26.483  34.374  1.00  0.00    -0.014 A 
ATOM     87  C   UNL A   1      42.216  25.575  35.058  1.00  0.00     0.009 A 
ATOM     88  C   UNL A   1      44.242  25.977  33.844  1.00  0.00     0.009 A 
ATOM     89  C   UNL A   1      42.595  24.238  35.205  1.00  0.00     0.001 A 
ATOM     90  C   UNL A   1      44.593  24.633  33.934  1.00  0.00     0.001 A 
ATOM     91  C   UNL A   1      43.768  23.763  34.625  1.00  0.00     0.000 A 
ENDBRANCH  73  86
ENDBRANCH  47  48
ENDBRANCH  40  42
ENDBRANCH  39  40
ENDBRANCH  38  39
ENDBRANCH  37  38
ENDBRANCH  36  37
ENDBRANCH  35  36
ENDBRANCH  34  35
ENDBRANCH  33  34
ENDBRANCH   1  33
TORSDOF 24
ENDMDL
MODEL 2
REMARK VINA RESULT:     -10.1      3.617      5.615
REMARK SMILES Cc1cccc(-n2c(C)cc(/C=N\c3ccc(O)c(C(=O)OCCOCCOCCOCCOC(=O)c4ccc(-c5c6nc(c(-c7ccccc7)c7ccc([nH]7)c(-c7ccccc7)c7nc(c(-c8ccccc8)c8ccc5[nH]8)C=C7)C=C6)cc4)c3)c2C)c1
REMARK SMILES IDX 27 1 26 2 25 3 24 4 23 5 22 6 20 7 21 8 19 9 14 10 15 11
REMARK SMILES IDX 85 12 16 13 17 14 13 15 12 16 11 17 7 18 8 19 86 20 9 21
REMARK SMILES IDX 10 22 87 23 6 24 1 25 2 26 3 27 88 28 4 29 5 30 18 31 28 33
REMARK SMILES IDX 29 34 30 35 31 36 32 37 33 38 34 39 35 40 36 41 37 42 38 43
REMARK SMILES IDX 84 44 39 45 83 46 40 47 41 48 42 49 77 50 43 51 82 52 76 53
REMARK SMILES IDX 78 54 44 55 81 56 75 57 74 58 45 60 67 61 52 62 66 63 53 64
REMARK SMILES IDX 56 65 65 66 79 67 54 68 55 69 64 71 80 72 57 73 46 74 47 75
REMARK SMILES IDX 51 76 48 77 50 78 49 79 68 80 69 81 73 82 70 83 72 84 71 85
REMARK SMILES IDX 58 86 59 87 63 88 60 89 62 90 61 91
REMARK H PARENT 18 32 78 59 56 70
REMARK Flexibility Score: inf
ROOT
ATOM      1  C   UNL A   1      32.601  31.110  27.317  1.00  0.00     0.188 C 
ENDROOT
BRANCH   1   2
ATOM      2  C   UNL A   1      31.456  31.699  26.465  1.00  0.00     0.188 C 
BRANCH   2   3
ATOM      3  O   UNL A   1      31.011  31.066  25.280  1.00  0.00    -0.376 OA
BRANCH   3   4
ATOM      4  C   UNL A   1      29.892  31.635  24.626  1.00  0.00     0.202 C 
BRANCH   4   5
ATOM      5  C   UNL A   1      29.318  30.967  23.396  1.00  0.00     0.261 C 
BRANCH   5   6
ATOM      6  O   UNL A   1      29.350  29.574  23.687  1.00  0.00    -0.460 OA
BRANCH   6   7
ATOM      7  C   UNL A   1      30.147  28.936  22.828  1.00  0.00     0.342 C 
ATOM      8  O   UNL A   1      30.239  29.139  21.644  1.00  0.00    -0.246 OA
BRANCH   7   9
ATOM      9  C   UNL A   1      31.079  28.140  23.651  1.00  0.00     0.103 A 
ATOM     10  C   UNL A   1      31.063  26.528  25.401  1.00  0.00     0.064 A 
ATOM     11  C   UNL A   1      32.433  26.686  25.605  1.00  0.00     0.032 A 
ATOM     12  C   UNL A   1      30.432  27.126  24.329  1.00  0.00     0.048 A 
ATOM     13  C   UNL A   1      33.131  27.624  24.842  1.00  0.00     0.049 A 
ATOM     14  C   UNL A   1      32.433  28.405  23.915  1.00  0.00     0.130 A 
BRANCH  10  15
ATOM     15  N   UNL A   1      30.230  25.854  26.266  1.00  0.00    -0.256 NA
ATOM     16  C   UNL A   1      30.417  24.587  26.515  1.00  0.00     0.121 C 
BRANCH  16  17
ATOM     17  C   UNL A   1      31.213  23.503  25.904  1.00  0.00     0.014 A 
ATOM     18  N   UNL A   1      32.718  21.946  25.179  1.00  0.00    -0.318 N 
ATOM     19  C   UNL A   1      32.126  22.487  24.064  1.00  0.00     0.021 A 
ATOM     20  C   UNL A   1      32.134  22.523  26.305  1.00  0.00     0.029 A 
ATOM     21  C   UNL A   1      32.518  22.141  22.680  1.00  0.00     0.065 C 
ATOM     22  C   UNL A   1      31.145  23.353  24.485  1.00  0.00     0.033 A 
ATOM     23  C   UNL A   1      32.643  22.093  27.619  1.00  0.00     0.065 C 
BRANCH  18  24
ATOM     24  C   UNL A   1      33.893  21.138  25.212  1.00  0.00     0.046 A 
ATOM     25  C   UNL A   1      34.780  17.546  24.330  1.00  0.00     0.044 C 
ATOM     26  C   UNL A   1      34.899  19.008  24.642  1.00  0.00    -0.049 A 
ATOM     27  C   UNL A   1      36.159  19.622  24.629  1.00  0.00     0.003 A 
ATOM     28  C   UNL A   1      33.762  19.773  24.931  1.00  0.00     0.030 A 
ATOM     29  C   UNL A   1      36.291  20.978  24.932  1.00  0.00     0.002 A 
ATOM     30  C   UNL A   1      35.162  21.735  25.247  1.00  0.00     0.026 A 
ENDBRANCH  18  24
ENDBRANCH  16  17
ENDBRANCH  10  15
BRANCH  14  31
ATOM     31  O   UNL A   1      33.114  29.465  23.395  1.00  0.00    -0.507 OA
ATOM     32  H   UNL A   1      32.650  30.145  22.948  1.00  0.00     0.293 HD
ENDBRANCH  14  31
ENDBRANCH   7   9
ENDBRANCH   6   7
ENDBRANCH   5   6
ENDBRANCH   4   5
ENDBRANCH   3   4
ENDBRANCH   2   3
ENDBRANCH   1   2
BRANCH   1  33
ATOM     33  O   UNL A   1      33.742  31.897  27.621  1.00  0.00    -0.377 OA
BRANCH  33  34
ATOM     34  C   UNL A   1      33.518  33.144  28.268  1.00  0.00     0.188 C 
BRANCH  34  35
ATOM     35  C   UNL A   1      34.650  33.758  29.035  1.00  0.00     0.188 C 
BRANCH  35  36
ATOM     36  O   UNL A   1      34.345  33.540  30.409  1.00  0.00    -0.376 OA
BRANCH  36  37
ATOM     37  C   UNL A   1      34.778  32.292  30.918  1.00  0.00     0.202 C 
BRANCH  37  38
ATOM     38  C   UNL A   1      36.279  32.087  30.711  1.00  0.00     0.261 C 
BRANCH  38  39
ATOM     39  O   UNL A   1      36.475  30.805  30.072  1.00  0.00    -0.460 OA
BRANCH  39  40
ATOM     40  C   UNL A   1      37.230  30.818  28.939  1.00  0.00     0.338 C 
ATOM     41  O   UNL A   1      37.003  31.500  27.952  1.00  0.00    -0.246 OA
BRANCH  40  42
ATOM     42  C   UNL A   1      38.202  29.680  28.945  1.00  0.00     0.060 A 
ATOM     43  C   UNL A   1      38.997  29.439  30.078  1.00  0.00     0.016 A 
ATOM     44  C   UNL A   1      38.543  29.073  27.746  1.00  0.00     0.016 A 
ATOM     45  C   UNL A   1      40.222  28.750  29.963  1.00  0.00     0.010 A 
ATOM     46  C   UNL A   1      39.777  28.457  27.630  1.00  0.00     0.010 A 
ATOM     47  C   UNL A   1      40.668  28.334  28.712  1.00  0.00    -0.014 A 
BRANCH  47  48
ATOM     48  C   UNL A   1      42.048  27.879  28.400  1.00  0.00     0.031 A 
ATOM     49  C   UNL A   1      42.355  26.411  28.457  1.00  0.00     0.074 A 
ATOM     50  C   UNL A   1      42.900  28.696  27.712  1.00  0.00     0.049 A 
ATOM     51  N   UNL A   1      43.484  25.892  28.120  1.00  0.00    -0.248 NA
ATOM     52  C   UNL A   1      41.375  25.376  28.782  1.00  0.00     0.031 C 
ATOM     53  C   UNL A   1      44.085  28.337  26.927  1.00  0.00     0.029 A 
ATOM     54  N   UNL A   1      42.853  30.073  27.497  1.00  0.00    -0.354 N 
ATOM     55  C   UNL A   1      43.298  24.558  27.824  1.00  0.00     0.074 A 
ATOM     56  C   UNL A   1      41.980  24.268  28.331  1.00  0.00     0.031 C 
ATOM     57  C   UNL A   1      44.763  29.421  26.523  1.00  0.00     0.029 A 
ATOM     58  C   UNL A   1      44.155  30.527  27.205  1.00  0.00     0.049 A 
ATOM     59  H   UNL A   1      42.045  30.634  27.541  1.00  0.00     0.167 HD
ATOM     60  C   UNL A   1      44.246  23.916  27.070  1.00  0.00     0.031 A 
ATOM     61  C   UNL A   1      44.794  31.337  28.087  1.00  0.00     0.031 A 
ATOM     62  C   UNL A   1      45.417  24.793  26.820  1.00  0.00     0.049 A 
ATOM     63  C   UNL A   1      45.912  30.493  28.701  1.00  0.00     0.074 A 
ATOM     64  C   UNL A   1      46.067  25.272  25.692  1.00  0.00     0.029 A 
ATOM     65  N   UNL A   1      45.948  25.525  27.890  1.00  0.00    -0.354 N 
ATOM     66  N   UNL A   1      45.838  29.183  28.863  1.00  0.00    -0.248 NA
ATOM     67  C   UNL A   1      47.290  30.976  28.793  1.00  0.00     0.031 C 
ATOM     68  C   UNL A   1      46.874  26.387  26.089  1.00  0.00     0.029 A 
ATOM     69  C   UNL A   1      46.747  26.571  27.464  1.00  0.00     0.049 A 
ATOM     70  H   UNL A   1      45.772  25.318  28.836  1.00  0.00     0.167 HD
ATOM     71  C   UNL A   1      47.106  28.649  28.805  1.00  0.00     0.074 A 
ATOM     72  C   UNL A   1      47.979  29.819  28.855  1.00  0.00     0.031 C 
ATOM     73  C   UNL A   1      47.481  27.375  28.442  1.00  0.00     0.031 A 
BRANCH  60  74
ATOM     74  C   UNL A   1      44.076  22.547  26.408  1.00  0.00    -0.014 A 
ATOM     75  C   UNL A   1      45.161  21.950  25.731  1.00  0.00     0.009 A 
ATOM     76  C   UNL A   1      42.883  21.799  26.380  1.00  0.00     0.009 A 
ATOM     77  C   UNL A   1      45.064  20.704  25.082  1.00  0.00     0.001 A 
ATOM     78  C   UNL A   1      42.781  20.544  25.748  1.00  0.00     0.001 A 
ATOM     79  C   UNL A   1      43.873  19.995  25.098  1.00  0.00     0.000 A 
ENDBRANCH  60  74
BRANCH  61  80
ATOM     80  C   UNL A   1      43.825  32.405  28.527  1.00  0.00    -0.014 A 
ATOM     81  C   UNL A   1      43.619  32.458  29.938  1.00  0.00     0.009 A 
ATOM     82  C   UNL A   1      43.680  33.614  27.829  1.00  0.00     0.009 A 
ATOM     83  C   UNL A   1      43.500  33.676  30.630  1.00  0.00     0.001 A 
ATOM     84  C   UNL A   1      43.533  34.835  28.531  1.00  0.00     0.001 A 
ATOM     85  C   UNL A   1      43.503  34.871  29.925  1.00  0.00     0.000 A 
ENDBRANCH  61  80
BRANCH  73  86
ATOM     86  C   UNL A   1      48.647  26.679  29.115  1.00  0.00    -0.014 A 
ATOM     87  C   UNL A   1      49.814  26.309  28.440  1.00  0.00     0.009 A 
ATOM     88  C   UNL A   1      48.674  26.591  30.529  1.00  0.00     0.009 A 
ATOM     89  C   UNL A   1      50.943  25.875  29.140  1.00  0.00     0.001 A 
ATOM     90  C   UNL A   1      49.817  26.220  31.232  1.00  0.00     0.001 A 
ATOM     91  C   UNL A   1      50.953  25.853  30.532  1.00  0.00     0.000 A 
ENDBRANCH  73  86
ENDBRANCH  47  48
ENDBRANCH  40  42
ENDBRANCH  39  40
ENDBRANCH  38  39
ENDBRANCH  37  38
ENDBRANCH  36  37
ENDBRANCH  35  36
ENDBRANCH  34  35
ENDBRANCH  33  34
ENDBRANCH   1  33
TORSDOF 24
ENDMDL
MODEL 3
REMARK VINA RESULT:     -10.0      4.619      9.808
REMARK SMILES Cc1cccc(-n2c(C)cc(/C=N\c3ccc(O)c(C(=O)OCCOCCOCCOCCOC(=O)c4ccc(-c5c6nc(c(-c7ccccc7)c7ccc([nH]7)c(-c7ccccc7)c7nc(c(-c8ccccc8)c8ccc5[nH]8)C=C7)C=C6)cc4)c3)c2C)c1
REMARK SMILES IDX 27 1 26 2 25 3 24 4 23 5 22 6 20 7 21 8 19 9 14 10 15 11
REMARK SMILES IDX 85 12 16 13 17 14 13 15 12 16 11 17 7 18 8 19 86 20 9 21
REMARK SMILES IDX 10 22 87 23 6 24 1 25 2 26 3 27 88 28 4 29 5 30 18 31 28 33
REMARK SMILES IDX 29 34 30 35 31 36 32 37 33 38 34 39 35 40 36 41 37 42 38 43
REMARK SMILES IDX 84 44 39 45 83 46 40 47 41 48 42 49 77 50 43 51 82 52 76 53
REMARK SMILES IDX 78 54 44 55 81 56 75 57 74 58 45 60 67 61 52 62 66 63 53 64
REMARK SMILES IDX 56 65 65 66 79 67 54 68 55 69 64 71 80 72 57 73 46 74 47 75
REMARK SMILES IDX 51 76 48 77 50 78 49 79 68 80 69 81 73 82 70 83 72 84 71 85
REMARK SMILES IDX 58 86 59 87 63 88 60 89 62 90 61 91
REMARK H PARENT 18 32 78 59 56 70
REMARK Flexibility Score: inf
ROOT
ATOM      1  C   UNL A   1      33.933  25.680  25.253  1.00  0.00     0.188 C 
ENDROOT
BRANCH   1   2
ATOM      2  C   UNL A   1      33.948  27.212  25.052  1.00  0.00     0.188 C 
BRANCH   2   3
ATOM      3  O   UNL A   1      32.832  27.904  24.525  1.00  0.00    -0.376 OA
BRANCH   3   4
ATOM      4  C   UNL A   1      32.899  29.317  24.508  1.00  0.00     0.202 C 
BRANCH   4   5
ATOM      5  C   UNL A   1      32.519  30.105  25.743  1.00  0.00     0.261 C 
BRANCH   5   6
ATOM      6  O   UNL A   1      33.758  30.464  26.344  1.00  0.00    -0.460 OA
BRANCH   6   7
ATOM      7  C   UNL A   1      33.899  29.855  27.523  1.00  0.00     0.342 C 
ATOM      8  O   UNL A   1      33.291  28.890  27.912  1.00  0.00    -0.246 OA
BRANCH   7   9
ATOM      9  C   UNL A   1      35.120  30.418  28.130  1.00  0.00     0.103 A 
ATOM     10  C   UNL A   1      36.724  29.925  29.819  1.00  0.00     0.064 A 
ATOM     11  C   UNL A   1      37.242  31.218  29.751  1.00  0.00     0.032 A 
ATOM     12  C   UNL A   1      35.787  29.488  28.904  1.00  0.00     0.048 A 
ATOM     13  C   UNL A   1      36.656  32.142  28.883  1.00  0.00     0.049 A 
ATOM     14  C   UNL A   1      35.543  31.757  28.127  1.00  0.00     0.130 A 
BRANCH  10  15
ATOM     15  N   UNL A   1      37.027  29.027  30.818  1.00  0.00    -0.256 NA
ATOM     16  C   UNL A   1      38.231  28.537  30.928  1.00  0.00     0.121 C 
BRANCH  16  17
ATOM     17  C   UNL A   1      39.430  28.496  30.066  1.00  0.00     0.014 A 
ATOM     18  N   UNL A   1      41.376  28.751  28.899  1.00  0.00    -0.318 N 
ATOM     19  C   UNL A   1      40.398  28.429  27.991  1.00  0.00     0.021 A 
ATOM     20  C   UNL A   1      40.807  28.748  30.171  1.00  0.00     0.029 A 
ATOM     21  C   UNL A   1      40.625  28.372  26.530  1.00  0.00     0.065 C 
ATOM     22  C   UNL A   1      39.242  28.171  28.688  1.00  0.00     0.033 A 
ATOM     23  C   UNL A   1      41.687  29.093  31.301  1.00  0.00     0.065 C 
BRANCH  18  24
ATOM     24  C   UNL A   1      42.676  29.259  28.606  1.00  0.00     0.046 A 
ATOM     25  C   UNL A   1      45.754  28.015  26.751  1.00  0.00     0.044 C 
ATOM     26  C   UNL A   1      44.758  28.919  27.413  1.00  0.00    -0.049 A 
ATOM     27  C   UNL A   1      44.978  30.304  27.430  1.00  0.00     0.003 A 
ATOM     28  C   UNL A   1      43.598  28.398  28.000  1.00  0.00     0.030 A 
ATOM     29  C   UNL A   1      44.070  31.159  28.054  1.00  0.00     0.002 A 
ATOM     30  C   UNL A   1      42.928  30.638  28.664  1.00  0.00     0.026 A 
ENDBRANCH  18  24
ENDBRANCH  16  17
ENDBRANCH  10  15
BRANCH  14  31
ATOM     31  O   UNL A   1      34.869  32.764  27.504  1.00  0.00    -0.507 OA
ATOM     32  H   UNL A   1      34.446  32.606  26.683  1.00  0.00     0.293 HD
ENDBRANCH  14  31
ENDBRANCH   7   9
ENDBRANCH   6   7
ENDBRANCH   5   6
ENDBRANCH   4   5
ENDBRANCH   3   4
ENDBRANCH   2   3
ENDBRANCH   1   2
BRANCH   1  33
ATOM     33  O   UNL A   1      33.676  24.819  24.155  1.00  0.00    -0.377 OA
BRANCH  33  34
ATOM     34  C   UNL A   1      34.800  24.199  23.540  1.00  0.00     0.188 C 
BRANCH  34  35
ATOM     35  C   UNL A   1      35.130  22.788  23.927  1.00  0.00     0.188 C 
BRANCH  35  36
ATOM     36  O   UNL A   1      35.797  22.881  25.181  1.00  0.00    -0.376 OA
BRANCH  36  37
ATOM     37  C   UNL A   1      37.193  23.096  25.093  1.00  0.00     0.202 C 
BRANCH  37  38
ATOM     38  C   UNL A   1      37.930  22.529  26.307  1.00  0.00     0.261 C 
BRANCH  38  39
ATOM     39  O   UNL A   1      39.288  23.023  26.283  1.00  0.00    -0.460 OA
BRANCH  39  40
ATOM     40  C   UNL A   1      40.229  22.195  26.814  1.00  0.00     0.338 C 
ATOM     41  O   UNL A   1      40.245  20.981  26.691  1.00  0.00    -0.246 OA
BRANCH  40  42
ATOM     42  C   UNL A   1      41.075  22.933  27.804  1.00  0.00     0.060 A 
ATOM     43  C   UNL A   1      41.188  24.331  27.733  1.00  0.00     0.016 A 
ATOM     44  C   UNL A   1      41.983  22.226  28.579  1.00  0.00     0.016 A 
ATOM     45  C   UNL A   1      42.308  24.990  28.277  1.00  0.00     0.010 A 
ATOM     46  C   UNL A   1      43.112  22.873  29.052  1.00  0.00     0.010 A 
ATOM     47  C   UNL A   1      43.332  24.250  28.863  1.00  0.00    -0.014 A 
BRANCH  47  48
ATOM     48  C   UNL A   1      44.684  24.768  29.197  1.00  0.00     0.031 A 
ATOM     49  C   UNL A   1      45.803  24.548  28.222  1.00  0.00     0.074 A 
ATOM     50  C   UNL A   1      44.830  25.738  30.148  1.00  0.00     0.049 A 
ATOM     51  N   UNL A   1      46.990  25.028  28.359  1.00  0.00    -0.248 NA
ATOM     52  C   UNL A   1      45.655  23.868  26.937  1.00  0.00     0.031 C 
ATOM     53  C   UNL A   1      45.932  26.687  30.332  1.00  0.00     0.029 A 
ATOM     54  N   UNL A   1      43.960  26.151  31.158  1.00  0.00    -0.354 N 
ATOM     55  C   UNL A   1      47.608  25.066  27.127  1.00  0.00     0.074 A 
ATOM     56  C   UNL A   1      46.761  24.256  26.287  1.00  0.00     0.031 C 
ATOM     57  C   UNL A   1      45.803  27.388  31.468  1.00  0.00     0.029 A 
ATOM     58  C   UNL A   1      44.714  26.775  32.172  1.00  0.00     0.049 A 
ATOM     59  H   UNL A   1      42.984  26.027  31.161  1.00  0.00     0.167 HD
ATOM     60  C   UNL A   1      48.689  25.891  26.962  1.00  0.00     0.031 A 
ATOM     61  C   UNL A   1      44.816  26.184  33.389  1.00  0.00     0.031 A 
ATOM     62  C   UNL A   1      49.090  26.515  28.248  1.00  0.00     0.049 A 
ATOM     63  C   UNL A   1      46.260  25.693  33.501  1.00  0.00     0.074 A 
ATOM     64  C   UNL A   1      49.241  27.814  28.709  1.00  0.00     0.029 A 
ATOM     65  N   UNL A   1      49.166  25.707  29.390  1.00  0.00    -0.354 N 
ATOM     66  N   UNL A   1      46.988  25.316  32.464  1.00  0.00    -0.248 NA
ATOM     67  C   UNL A   1      47.087  25.967  34.676  1.00  0.00     0.031 C 
ATOM     68  C   UNL A   1      49.259  27.774  30.142  1.00  0.00     0.029 A 
ATOM     69  C   UNL A   1      49.155  26.448  30.558  1.00  0.00     0.049 A 
ATOM     70  H   UNL A   1      49.221  24.724  29.364  1.00  0.00     0.167 HD
ATOM     71  C   UNL A   1      48.317  25.553  32.736  1.00  0.00     0.074 A 
ATOM     72  C   UNL A   1      48.328  25.870  34.162  1.00  0.00     0.031 C 
ATOM     73  C   UNL A   1      49.344  25.783  31.848  1.00  0.00     0.031 A 
BRANCH  60  74
ATOM     74  C   UNL A   1      49.312  26.281  25.620  1.00  0.00    -0.014 A 
ATOM     75  C   UNL A   1      50.715  26.297  25.469  1.00  0.00     0.009 A 
ATOM     76  C   UNL A   1      48.594  26.671  24.472  1.00  0.00     0.009 A 
ATOM     77  C   UNL A   1      51.351  26.667  24.269  1.00  0.00     0.001 A 
ATOM     78  C   UNL A   1      49.220  27.027  23.262  1.00  0.00     0.001 A 
ATOM     79  C   UNL A   1      50.601  27.026  23.159  1.00  0.00     0.000 A 
ENDBRANCH  60  74
BRANCH  61  80
ATOM     80  C   UNL A   1      43.440  25.724  33.802  1.00  0.00    -0.014 A 
ATOM     81  C   UNL A   1      43.370  24.342  34.152  1.00  0.00     0.009 A 
ATOM     82  C   UNL A   1      42.528  26.578  34.442  1.00  0.00     0.009 A 
ATOM     83  C   UNL A   1      42.596  23.885  35.233  1.00  0.00     0.001 A 
ATOM     84  C   UNL A   1      41.732  26.104  35.512  1.00  0.00     0.001 A 
ATOM     85  C   UNL A   1      41.809  24.779  35.943  1.00  0.00     0.000 A 
ENDBRANCH  61  80
BRANCH  73  86
ATOM     86  C   UNL A   1      50.744  25.268  32.117  1.00  0.00    -0.014 A 
ATOM     87  C   UNL A   1      51.840  26.105  32.340  1.00  0.00     0.009 A 
ATOM     88  C   UNL A   1      50.931  23.888  32.382  1.00  0.00     0.009 A 
ATOM     89  C   UNL A   1      53.056  25.592  32.801  1.00  0.00     0.001 A 
ATOM     90  C   UNL A   1      52.120  23.383  32.902  1.00  0.00     0.001 A 
ATOM     91  C   UNL A   1      53.188  24.239  33.104  1.00  0.00     0.000 A 
ENDBRANCH  73  86
ENDBRANCH  47  48
ENDBRANCH  40  42
ENDBRANCH  39  40
ENDBRANCH  38  39
ENDBRANCH  37  38
ENDBRANCH  36  37
ENDBRANCH  35  36
ENDBRANCH  34  35
ENDBRANCH  33  34
ENDBRANCH   1  33
TORSDOF 24
ENDMDL
