MODEL 1
REMARK VINA RESULT:     -11.3      0.000      0.000
REMARK SMILES O=C(OCCOCCOCCOCCOC(=O)[C@H]1Cc2[nH]cnc2CN1C(=O)NCc1nc[nH]n1)c1ccc(-c2c3nc(c(-c4ccccc4)c4ccc([nH]4)c(-c4ccccc4)c4nc(c(-c5ccccc5)c5ccc2[nH]5)C=C4)C=C3)cc1
REMARK SMILES IDX 10 1 9 2 8 3 7 4 6 5 5 6 4 7 3 8 2 9 1 10 36 11 37 12 83 13
REMARK SMILES IDX 38 14 82 15 39 16 40 17 41 18 76 19 42 20 81 21 75 22 77 23
REMARK SMILES IDX 43 24 80 25 74 26 73 27 44 29 66 30 51 31 65 32 52 33 55 34
REMARK SMILES IDX 64 35 78 36 53 37 54 38 63 40 79 41 56 42 45 43 46 44 50 45
REMARK SMILES IDX 47 46 49 47 48 48 67 49 68 50 72 51 69 52 71 53 70 54 57 55
REMARK SMILES IDX 58 56 62 57 59 58 61 59 60 60 11 61 12 62 13 63 14 64 15 65
REMARK SMILES IDX 16 66 17 67 18 68 19 69 26 70 20 71 25 72 21 73 24 74 22 75
REMARK SMILES IDX 23 77 27 78 28 79 29 80 30 82 31 83 32 84 35 85 33 86 34 87
REMARK H PARENT 77 28 55 39 21 76 29 81 34 88
REMARK Flexibility Score: inf
ROOT
ATOM      1  C   UNL A   1      43.505  18.435  26.100  1.00  0.00     0.188 C 
ENDROOT
BRANCH   1   2
ATOM      2  O   UNL A   1      44.319  18.179  24.999  1.00  0.00    -0.377 OA
BRANCH   2   3
ATOM      3  C   UNL A   1      44.750  19.346  24.356  1.00  0.00     0.188 C 
BRANCH   3   4
ATOM      4  C   UNL A   1      45.912  20.264  24.835  1.00  0.00     0.188 C 
BRANCH   4   5
ATOM      5  O   UNL A   1      46.003  21.415  25.680  1.00  0.00    -0.376 OA
BRANCH   5   6
ATOM      6  C   UNL A   1      45.825  22.805  25.482  1.00  0.00     0.202 C 
BRANCH   6   7
ATOM      7  C   UNL A   1      44.805  23.290  24.471  1.00  0.00     0.261 C 
BRANCH   7   8
ATOM      8  O   UNL A   1      43.806  24.127  25.033  1.00  0.00    -0.460 OA
BRANCH   8   9
ATOM      9  C   UNL A   1      42.661  23.724  25.608  1.00  0.00     0.338 C 
ATOM     10  O   UNL A   1      42.235  22.600  25.335  1.00  0.00    -0.246 OA
BRANCH   9  11
ATOM     11  C   UNL A   1      41.847  24.528  26.563  1.00  0.00     0.060 A 
ATOM     12  C   UNL A   1      40.638  25.171  26.336  1.00  0.00     0.016 A 
ATOM     13  C   UNL A   1      42.428  24.667  27.832  1.00  0.00     0.016 A 
ATOM     14  C   UNL A   1      40.369  26.307  27.066  1.00  0.00     0.010 A 
ATOM     15  C   UNL A   1      42.108  25.740  28.613  1.00  0.00     0.010 A 
ATOM     16  C   UNL A   1      41.263  26.684  28.073  1.00  0.00    -0.014 A 
BRANCH  16  17
ATOM     17  C   UNL A   1      41.114  27.935  28.788  1.00  0.00     0.031 A 
ATOM     18  C   UNL A   1      42.215  28.823  28.332  1.00  0.00     0.074 A 
ATOM     19  C   UNL A   1      40.120  28.177  29.688  1.00  0.00     0.049 A 
ATOM     20  N   UNL A   1      43.357  28.905  28.925  1.00  0.00    -0.248 NA
ATOM     21  C   UNL A   1      42.261  29.336  26.944  1.00  0.00     0.031 C 
ATOM     22  C   UNL A   1      38.957  27.363  30.081  1.00  0.00     0.029 A 
ATOM     23  N   UNL A   1      39.941  29.284  30.484  1.00  0.00    -0.354 N 
ATOM     24  C   UNL A   1      44.104  29.803  28.182  1.00  0.00     0.074 A 
ATOM     25  C   UNL A   1      43.508  29.816  26.876  1.00  0.00     0.031 C 
ATOM     26  C   UNL A   1      38.077  28.107  30.807  1.00  0.00     0.029 A 
ATOM     27  C   UNL A   1      38.665  29.403  31.087  1.00  0.00     0.049 A 
ATOM     28  H   UNL A   1      40.652  29.950  30.625  1.00  0.00     0.167 HD
ATOM     29  C   UNL A   1      44.836  30.728  28.859  1.00  0.00     0.031 A 
ATOM     30  C   UNL A   1      38.201  30.475  31.810  1.00  0.00     0.031 A 
ATOM     31  C   UNL A   1      45.006  30.299  30.233  1.00  0.00     0.049 A 
ATOM     32  C   UNL A   1      39.401  31.220  32.277  1.00  0.00     0.074 A 
ATOM     33  C   UNL A   1      45.568  29.199  30.851  1.00  0.00     0.029 A 
ATOM     34  N   UNL A   1      44.066  30.801  31.101  1.00  0.00    -0.354 N 
ATOM     35  N   UNL A   1      40.228  30.709  33.147  1.00  0.00    -0.248 NA
ATOM     36  C   UNL A   1      39.965  32.171  31.330  1.00  0.00     0.031 C 
ATOM     37  C   UNL A   1      44.655  28.848  31.891  1.00  0.00     0.029 A 
ATOM     38  C   UNL A   1      43.675  29.835  31.985  1.00  0.00     0.049 A 
ATOM     39  H   UNL A   1      43.723  31.724  31.088  1.00  0.00     0.167 HD
ATOM     40  C   UNL A   1      41.467  30.852  32.546  1.00  0.00     0.074 A 
ATOM     41  C   UNL A   1      41.240  31.777  31.423  1.00  0.00     0.031 C 
ATOM     42  C   UNL A   1      42.466  29.944  32.768  1.00  0.00     0.031 A 
BRANCH  29  43
ATOM     43  C   UNL A   1      44.813  32.198  28.496  1.00  0.00    -0.014 A 
ATOM     44  C   UNL A   1      46.047  32.870  28.421  1.00  0.00     0.009 A 
ATOM     45  C   UNL A   1      43.659  33.007  28.539  1.00  0.00     0.009 A 
ATOM     46  C   UNL A   1      46.125  34.266  28.467  1.00  0.00     0.001 A 
ATOM     47  C   UNL A   1      43.733  34.403  28.553  1.00  0.00     0.001 A 
ATOM     48  C   UNL A   1      44.968  35.032  28.540  1.00  0.00     0.000 A 
ENDBRANCH  29  43
BRANCH  30  49
ATOM     49  C   UNL A   1      36.867  31.161  31.801  1.00  0.00    -0.014 A 
ATOM     50  C   UNL A   1      36.310  31.773  32.950  1.00  0.00     0.009 A 
ATOM     51  C   UNL A   1      36.295  31.510  30.568  1.00  0.00     0.009 A 
ATOM     52  C   UNL A   1      35.255  32.707  32.854  1.00  0.00     0.001 A 
ATOM     53  C   UNL A   1      35.256  32.449  30.471  1.00  0.00     0.001 A 
ATOM     54  C   UNL A   1      34.742  33.059  31.611  1.00  0.00     0.000 A 
ENDBRANCH  30  49
BRANCH  42  55
ATOM     55  C   UNL A   1      42.285  28.928  33.869  1.00  0.00    -0.014 A 
ATOM     56  C   UNL A   1      41.773  27.624  33.714  1.00  0.00     0.009 A 
ATOM     57  C   UNL A   1      42.795  29.294  35.121  1.00  0.00     0.009 A 
ATOM     58  C   UNL A   1      41.735  26.744  34.808  1.00  0.00     0.001 A 
ATOM     59  C   UNL A   1      42.776  28.415  36.199  1.00  0.00     0.001 A 
ATOM     60  C   UNL A   1      42.231  27.144  36.049  1.00  0.00     0.000 A 
ENDBRANCH  42  55
ENDBRANCH  16  17
ENDBRANCH   9  11
ENDBRANCH   8   9
ENDBRANCH   7   8
ENDBRANCH   6   7
ENDBRANCH   5   6
ENDBRANCH   4   5
ENDBRANCH   3   4
ENDBRANCH   2   3
ENDBRANCH   1   2
BRANCH   1  61
ATOM     61  C   UNL A   1      42.337  19.431  25.853  1.00  0.00     0.188 C 
BRANCH  61  62
ATOM     62  O   UNL A   1      41.012  19.504  26.516  1.00  0.00    -0.376 OA
BRANCH  62  63
ATOM     63  C   UNL A   1      39.547  19.986  25.805  1.00  0.00     0.202 C 
BRANCH  63  64
ATOM     64  C   UNL A   1      38.692  22.103  25.886  1.00  0.00     0.261 C 
BRANCH  64  65
ATOM     65  O   UNL A   1      37.343  22.499  24.860  1.00  0.00    -0.462 OA
BRANCH  65  66
ATOM     66  C   UNL A   1      36.130  22.789  25.389  1.00  0.00     0.329 C 
ATOM     67  O   UNL A   1      36.029  23.671  26.241  1.00  0.00    -0.250 OA
BRANCH  66  68
ATOM     68  C   UNL A   1      34.862  22.047  24.779  1.00  0.00     0.203 C 
ATOM     69  C   UNL A   1      34.773  20.727  25.593  1.00  0.00     0.093 C 
ATOM     70  N   UNL A   1      33.385  22.443  24.592  1.00  0.00    -0.305 N 
ATOM     71  C   UNL A   1      33.831  19.813  24.907  1.00  0.00     0.042 A 
ATOM     72  C   UNL A   1      32.665  21.607  23.568  1.00  0.00     0.180 C 
ATOM     73  N   UNL A   1      33.699  18.476  25.078  1.00  0.00    -0.348 N 
ATOM     74  C   UNL A   1      32.880  20.183  23.982  1.00  0.00     0.081 A 
ATOM     75  C   UNL A   1      32.735  18.069  24.196  1.00  0.00     0.197 A 
ATOM     76  H   UNL A   1      34.199  17.910  25.709  1.00  0.00     0.167 HD
ATOM     77  N   UNL A   1      32.216  19.078  23.523  1.00  0.00    -0.240 NA
BRANCH  70  78
ATOM     78  C   UNL A   1      32.531  22.964  25.536  1.00  0.00     0.318 C 
ATOM     79  O   UNL A   1      31.603  22.320  26.037  1.00  0.00    -0.249 OA
ATOM     80  N   UNL A   1      32.508  24.274  25.826  1.00  0.00    -0.331 N 
ATOM     81  H   UNL A   1      31.728  24.508  26.380  1.00  0.00     0.165 HD
BRANCH  80  82
ATOM     82  C   UNL A   1      33.318  25.429  25.543  1.00  0.00     0.197 C 
BRANCH  82  83
ATOM     83  C   UNL A   1      33.159  26.227  24.272  1.00  0.00     0.169 A 
ATOM     84  N   UNL A   1      32.381  25.330  22.805  1.00  0.00    -0.218 NA
ATOM     85  N   UNL A   1      33.808  27.742  23.540  1.00  0.00    -0.157 NA
ATOM     86  C   UNL A   1      32.541  26.102  21.445  1.00  0.00     0.216 A 
ATOM     87  N   UNL A   1      33.449  27.641  21.721  1.00  0.00    -0.266 N 
ATOM     88  H   UNL A   1      33.706  28.299  21.036  1.00  0.00     0.191 HD
ENDBRANCH  82  83
ENDBRANCH  80  82
ENDBRANCH  70  78
ENDBRANCH  66  68
ENDBRANCH  65  66
ENDBRANCH  64  65
ENDBRANCH  63  64
ENDBRANCH  62  63
ENDBRANCH  61  62
ENDBRANCH   1  61
TORSDOF 23
ENDMDL
MODEL 2
REMARK VINA RESULT:     -10.6      3.821      9.274
REMARK SMILES O=C(OCCOCCOCCOCCOC(=O)[C@H]1Cc2[nH]cnc2CN1C(=O)NCc1nc[nH]n1)c1ccc(-c2c3nc(c(-c4ccccc4)c4ccc([nH]4)c(-c4ccccc4)c4nc(c(-c5ccccc5)c5ccc2[nH]5)C=C4)C=C3)cc1
REMARK SMILES IDX 10 1 9 2 8 3 7 4 6 5 5 6 4 7 3 8 2 9 1 10 36 11 37 12 83 13
REMARK SMILES IDX 38 14 82 15 39 16 40 17 41 18 76 19 42 20 81 21 75 22 77 23
REMARK SMILES IDX 43 24 80 25 74 26 73 27 44 29 66 30 51 31 65 32 52 33 55 34
REMARK SMILES IDX 64 35 78 36 53 37 54 38 63 40 79 41 56 42 45 43 46 44 50 45
REMARK SMILES IDX 47 46 49 47 48 48 67 49 68 50 72 51 69 52 71 53 70 54 57 55
REMARK SMILES IDX 58 56 62 57 59 58 61 59 60 60 11 61 12 62 13 63 14 64 15 65
REMARK SMILES IDX 16 66 17 67 18 68 19 69 26 70 20 71 25 72 21 73 24 74 22 75
REMARK SMILES IDX 23 77 27 78 28 79 29 80 30 82 31 83 32 84 35 85 33 86 34 87
REMARK H PARENT 77 28 55 39 21 76 29 81 34 88
REMARK Flexibility Score: inf
ROOT
ATOM      1  C   UNL A   1      35.157  32.424  28.038  1.00  0.00     0.188 C 
ENDROOT
BRANCH   1   2
ATOM      2  O   UNL A   1      34.592  33.681  27.838  1.00  0.00    -0.377 OA
BRANCH   2   3
ATOM      3  C   UNL A   1      33.405  33.866  28.558  1.00  0.00     0.188 C 
BRANCH   3   4
ATOM      4  C   UNL A   1      32.932  35.206  29.191  1.00  0.00     0.188 C 
BRANCH   4   5
ATOM      5  O   UNL A   1      32.821  35.706  30.527  1.00  0.00    -0.376 OA
BRANCH   5   6
ATOM      6  C   UNL A   1      33.722  36.308  31.437  1.00  0.00     0.202 C 
BRANCH   6   7
ATOM      7  C   UNL A   1      33.677  35.918  32.900  1.00  0.00     0.261 C 
BRANCH   7   8
ATOM      8  O   UNL A   1      33.882  34.530  33.121  1.00  0.00    -0.460 OA
BRANCH   8   9
ATOM      9  C   UNL A   1      34.546  33.685  32.315  1.00  0.00     0.338 C 
ATOM     10  O   UNL A   1      33.943  32.707  31.872  1.00  0.00    -0.246 OA
BRANCH   9  11
ATOM     11  C   UNL A   1      35.970  33.831  31.901  1.00  0.00     0.060 A 
ATOM     12  C   UNL A   1      36.480  34.468  30.778  1.00  0.00     0.016 A 
ATOM     13  C   UNL A   1      36.882  33.195  32.757  1.00  0.00     0.016 A 
ATOM     14  C   UNL A   1      37.661  33.992  30.252  1.00  0.00     0.010 A 
ATOM     15  C   UNL A   1      38.097  32.795  32.280  1.00  0.00     0.010 A 
ATOM     16  C   UNL A   1      38.341  32.981  30.938  1.00  0.00    -0.014 A 
BRANCH  16  17
ATOM     17  C   UNL A   1      39.514  32.343  30.377  1.00  0.00     0.031 A 
ATOM     18  C   UNL A   1      39.083  31.006  29.891  1.00  0.00     0.074 A 
ATOM     19  C   UNL A   1      40.744  32.927  30.333  1.00  0.00     0.049 A 
ATOM     20  N   UNL A   1      39.145  29.934  30.604  1.00  0.00    -0.248 NA
ATOM     21  C   UNL A   1      38.156  30.870  28.745  1.00  0.00     0.031 C 
ATOM     22  C   UNL A   1      41.179  34.284  30.706  1.00  0.00     0.029 A 
ATOM     23  N   UNL A   1      41.933  32.381  29.912  1.00  0.00    -0.354 N 
ATOM     24  C   UNL A   1      38.626  28.924  29.812  1.00  0.00     0.074 A 
ATOM     25  C   UNL A   1      37.808  29.581  28.832  1.00  0.00     0.031 C 
ATOM     26  C   UNL A   1      42.437  34.526  30.241  1.00  0.00     0.029 A 
ATOM     27  C   UNL A   1      42.982  33.305  29.682  1.00  0.00     0.049 A 
ATOM     28  H   UNL A   1      42.048  31.412  29.778  1.00  0.00     0.167 HD
ATOM     29  C   UNL A   1      39.279  27.730  29.803  1.00  0.00     0.031 A 
ATOM     30  C   UNL A   1      44.212  33.024  29.135  1.00  0.00     0.031 A 
ATOM     31  C   UNL A   1      40.145  27.644  30.962  1.00  0.00     0.049 A 
ATOM     32  C   UNL A   1      44.430  31.564  29.317  1.00  0.00     0.074 A 
ATOM     33  C   UNL A   1      39.954  27.686  32.330  1.00  0.00     0.029 A 
ATOM     34  N   UNL A   1      41.438  28.047  30.732  1.00  0.00    -0.354 N 
ATOM     35  N   UNL A   1      44.589  31.038  30.499  1.00  0.00    -0.248 NA
ATOM     36  C   UNL A   1      43.841  30.703  28.300  1.00  0.00     0.031 C 
ATOM     37  C   UNL A   1      41.013  28.503  32.830  1.00  0.00     0.029 A 
ATOM     38  C   UNL A   1      41.900  28.780  31.790  1.00  0.00     0.049 A 
ATOM     39  H   UNL A   1      41.957  27.839  29.922  1.00  0.00     0.167 HD
ATOM     40  C   UNL A   1      43.669  30.003  30.526  1.00  0.00     0.074 A 
ATOM     41  C   UNL A   1      43.241  29.840  29.126  1.00  0.00     0.031 C 
ATOM     42  C   UNL A   1      43.064  29.629  31.694  1.00  0.00     0.031 A 
BRANCH  29  43
ATOM     43  C   UNL A   1      39.619  27.007  28.517  1.00  0.00    -0.014 A 
ATOM     44  C   UNL A   1      39.531  25.603  28.517  1.00  0.00     0.009 A 
ATOM     45  C   UNL A   1      40.311  27.593  27.438  1.00  0.00     0.009 A 
ATOM     46  C   UNL A   1      40.165  24.829  27.539  1.00  0.00     0.001 A 
ATOM     47  C   UNL A   1      40.919  26.823  26.441  1.00  0.00     0.001 A 
ATOM     48  C   UNL A   1      40.864  25.440  26.504  1.00  0.00     0.000 A 
ENDBRANCH  29  43
BRANCH  30  49
ATOM     49  C   UNL A   1      45.027  33.769  28.121  1.00  0.00    -0.014 A 
ATOM     50  C   UNL A   1      46.383  33.462  27.850  1.00  0.00     0.009 A 
ATOM     51  C   UNL A   1      44.365  34.566  27.174  1.00  0.00     0.009 A 
ATOM     52  C   UNL A   1      47.023  33.909  26.673  1.00  0.00     0.001 A 
ATOM     53  C   UNL A   1      44.997  34.998  25.997  1.00  0.00     0.001 A 
ATOM     54  C   UNL A   1      46.321  34.661  25.737  1.00  0.00     0.000 A 
ENDBRANCH  30  49
BRANCH  42  55
ATOM     55  C   UNL A   1      43.598  30.185  32.992  1.00  0.00    -0.014 A 
ATOM     56  C   UNL A   1      44.626  29.619  33.772  1.00  0.00     0.009 A 
ATOM     57  C   UNL A   1      43.097  31.439  33.365  1.00  0.00     0.009 A 
ATOM     58  C   UNL A   1      45.091  30.283  34.920  1.00  0.00     0.001 A 
ATOM     59  C   UNL A   1      43.572  32.105  34.491  1.00  0.00     0.001 A 
ATOM     60  C   UNL A   1      44.557  31.521  35.280  1.00  0.00     0.000 A 
ENDBRANCH  42  55
ENDBRANCH  16  17
ENDBRANCH   9  11
ENDBRANCH   8   9
ENDBRANCH   7   8
ENDBRANCH   6   7
ENDBRANCH   5   6
ENDBRANCH   4   5
ENDBRANCH   3   4
ENDBRANCH   2   3
ENDBRANCH   1   2
BRANCH   1  61
ATOM     61  C   UNL A   1      34.283  31.217  27.596  1.00  0.00     0.188 C 
BRANCH  61  62
ATOM     62  O   UNL A   1      34.707  29.878  27.117  1.00  0.00    -0.376 OA
BRANCH  62  63
ATOM     63  C   UNL A   1      33.749  28.748  26.286  1.00  0.00     0.202 C 
BRANCH  63  64
ATOM     64  C   UNL A   1      33.774  28.428  24.024  1.00  0.00     0.261 C 
BRANCH  64  65
ATOM     65  O   UNL A   1      33.518  26.821  23.405  1.00  0.00    -0.462 OA
BRANCH  65  66
ATOM     66  C   UNL A   1      33.025  25.841  24.200  1.00  0.00     0.329 C 
ATOM     67  O   UNL A   1      31.910  25.966  24.705  1.00  0.00    -0.250 OA
BRANCH  66  68
ATOM     68  C   UNL A   1      33.876  24.505  24.339  1.00  0.00     0.203 C 
ATOM     69  C   UNL A   1      34.905  24.831  25.457  1.00  0.00     0.093 C 
ATOM     70  N   UNL A   1      33.512  23.034  24.618  1.00  0.00    -0.305 N 
ATOM     71  C   UNL A   1      35.951  23.784  25.454  1.00  0.00     0.042 A 
ATOM     72  C   UNL A   1      34.587  22.062  24.211  1.00  0.00     0.180 C 
ATOM     73  N   UNL A   1      37.179  23.836  26.023  1.00  0.00    -0.348 N 
ATOM     74  C   UNL A   1      35.837  22.532  24.890  1.00  0.00     0.081 A 
ATOM     75  C   UNL A   1      37.797  22.653  25.716  1.00  0.00     0.197 A 
ATOM     76  H   UNL A   1      37.555  24.577  26.551  1.00  0.00     0.167 HD
ATOM     77  N   UNL A   1      37.010  21.842  25.036  1.00  0.00    -0.240 NA
BRANCH  70  78
ATOM     78  C   UNL A   1      32.719  22.545  25.630  1.00  0.00     0.318 C 
ATOM     79  O   UNL A   1      32.511  23.158  26.682  1.00  0.00    -0.249 OA
ATOM     80  N   UNL A   1      32.286  21.275  25.640  1.00  0.00    -0.331 N 
ATOM     81  H   UNL A   1      31.890  21.036  26.510  1.00  0.00     0.165 HD
BRANCH  80  82
ATOM     82  C   UNL A   1      32.247  20.168  24.723  1.00  0.00     0.197 C 
BRANCH  82  83
ATOM     83  C   UNL A   1      32.775  18.803  25.091  1.00  0.00     0.169 A 
ATOM     84  N   UNL A   1      34.491  18.360  24.446  1.00  0.00    -0.218 NA
ATOM     85  N   UNL A   1      32.138  17.229  25.701  1.00  0.00    -0.157 NA
ATOM     86  C   UNL A   1      34.838  16.834  24.588  1.00  0.00     0.216 A 
ATOM     87  N   UNL A   1      33.444  15.960  25.338  1.00  0.00    -0.266 N 
ATOM     88  H   UNL A   1      33.388  14.994  25.519  1.00  0.00     0.191 HD
ENDBRANCH  82  83
ENDBRANCH  80  82
ENDBRANCH  70  78
ENDBRANCH  66  68
ENDBRANCH  65  66
ENDBRANCH  64  65
ENDBRANCH  63  64
ENDBRANCH  62  63
ENDBRANCH  61  62
ENDBRANCH   1  61
TORSDOF 23
ENDMDL
MODEL 3
REMARK VINA RESULT:     -10.6      2.558      7.059
REMARK SMILES O=C(OCCOCCOCCOCCOC(=O)[C@H]1Cc2[nH]cnc2CN1C(=O)NCc1nc[nH]n1)c1ccc(-c2c3nc(c(-c4ccccc4)c4ccc([nH]4)c(-c4ccccc4)c4nc(c(-c5ccccc5)c5ccc2[nH]5)C=C4)C=C3)cc1
REMARK SMILES IDX 10 1 9 2 8 3 7 4 6 5 5 6 4 7 3 8 2 9 1 10 36 11 37 12 83 13
REMARK SMILES IDX 38 14 82 15 39 16 40 17 41 18 76 19 42 20 81 21 75 22 77 23
REMARK SMILES IDX 43 24 80 25 74 26 73 27 44 29 66 30 51 31 65 32 52 33 55 34
REMARK SMILES IDX 64 35 78 36 53 37 54 38 63 40 79 41 56 42 45 43 46 44 50 45
REMARK SMILES IDX 47 46 49 47 48 48 67 49 68 50 72 51 69 52 71 53 70 54 57 55
REMARK SMILES IDX 58 56 62 57 59 58 61 59 60 60 11 61 12 62 13 63 14 64 15 65
REMARK SMILES IDX 16 66 17 67 18 68 19 69 26 70 20 71 25 72 21 73 24 74 22 75
REMARK SMILES IDX 23 77 27 78 28 79 29 80 30 82 31 83 32 84 35 85 33 86 34 87
REMARK H PARENT 77 28 55 39 21 76 29 81 34 88
REMARK Flexibility Score: inf
ROOT
ATOM      1  C   UNL A   1      38.144  20.621  25.352  1.00  0.00     0.188 C 
ENDROOT
BRANCH   1   2
ATOM      2  O   UNL A   1      39.475  20.365  25.675  1.00  0.00    -0.377 OA
BRANCH   2   3
ATOM      3  C   UNL A   1      40.117  21.465  26.257  1.00  0.00     0.188 C 
BRANCH   3   4
ATOM      4  C   UNL A   1      41.638  21.777  26.164  1.00  0.00     0.188 C 
BRANCH   4   5
ATOM      5  O   UNL A   1      42.515  22.716  26.795  1.00  0.00    -0.376 OA
BRANCH   5   6
ATOM      6  C   UNL A   1      42.463  23.469  27.992  1.00  0.00     0.202 C 
BRANCH   6   7
ATOM      7  C   UNL A   1      42.549  24.980  27.926  1.00  0.00     0.261 C 
BRANCH   7   8
ATOM      8  O   UNL A   1      41.724  25.550  26.920  1.00  0.00    -0.460 OA
BRANCH   8   9
ATOM      9  C   UNL A   1      40.406  25.788  27.013  1.00  0.00     0.338 C 
ATOM     10  O   UNL A   1      39.633  25.033  26.422  1.00  0.00    -0.246 OA
BRANCH   9  11
ATOM     11  C   UNL A   1      39.784  26.903  27.784  1.00  0.00     0.060 A 
ATOM     12  C   UNL A   1      39.611  28.225  27.398  1.00  0.00     0.016 A 
ATOM     13  C   UNL A   1      39.372  26.544  29.076  1.00  0.00     0.016 A 
ATOM     14  C   UNL A   1      39.612  29.186  28.384  1.00  0.00     0.010 A 
ATOM     15  C   UNL A   1      39.278  27.497  30.049  1.00  0.00     0.010 A 
ATOM     16  C   UNL A   1      39.667  28.776  29.719  1.00  0.00    -0.014 A 
BRANCH  16  17
ATOM     17  C   UNL A   1      39.806  29.732  30.799  1.00  0.00     0.031 A 
ATOM     18  C   UNL A   1      38.521  30.473  30.884  1.00  0.00     0.074 A 
ATOM     19  C   UNL A   1      40.934  29.860  31.553  1.00  0.00     0.049 A 
ATOM     20  N   UNL A   1      38.295  31.581  30.264  1.00  0.00    -0.248 NA
ATOM     21  C   UNL A   1      37.275  29.799  31.312  1.00  0.00     0.031 C 
ATOM     22  C   UNL A   1      42.179  29.073  31.565  1.00  0.00     0.029 A 
ATOM     23  N   UNL A   1      41.205  30.788  32.531  1.00  0.00    -0.354 N 
ATOM     24  C   UNL A   1      36.990  31.925  30.573  1.00  0.00     0.074 A 
ATOM     25  C   UNL A   1      36.350  30.704  30.970  1.00  0.00     0.031 C 
ATOM     26  C   UNL A   1      42.925  29.378  32.664  1.00  0.00     0.029 A 
ATOM     27  C   UNL A   1      42.317  30.495  33.359  1.00  0.00     0.049 A 
ATOM     28  H   UNL A   1      40.663  31.601  32.649  1.00  0.00     0.167 HD
ATOM     29  C   UNL A   1      36.735  33.228  30.873  1.00  0.00     0.031 A 
ATOM     30  C   UNL A   1      42.706  31.191  34.479  1.00  0.00     0.031 A 
ATOM     31  C   UNL A   1      37.820  34.057  30.388  1.00  0.00     0.049 A 
ATOM     32  C   UNL A   1      42.103  32.546  34.364  1.00  0.00     0.074 A 
ATOM     33  C   UNL A   1      38.379  34.308  29.150  1.00  0.00     0.029 A 
ATOM     34  N   UNL A   1      38.795  34.313  31.321  1.00  0.00    -0.354 N 
ATOM     35  N   UNL A   1      42.480  33.386  33.441  1.00  0.00    -0.248 NA
ATOM     36  C   UNL A   1      40.729  32.670  34.829  1.00  0.00     0.031 C 
ATOM     37  C   UNL A   1      39.790  34.311  29.372  1.00  0.00     0.029 A 
ATOM     38  C   UNL A   1      40.032  34.241  30.743  1.00  0.00     0.049 A 
ATOM     39  H   UNL A   1      38.628  34.518  32.269  1.00  0.00     0.167 HD
ATOM     40  C   UNL A   1      41.291  33.777  32.846  1.00  0.00     0.074 A 
ATOM     41  C   UNL A   1      40.237  33.305  33.760  1.00  0.00     0.031 C 
ATOM     42  C   UNL A   1      41.243  34.105  31.519  1.00  0.00     0.031 A 
BRANCH  29  43
ATOM     43  C   UNL A   1      35.924  33.632  32.086  1.00  0.00    -0.014 A 
ATOM     44  C   UNL A   1      35.223  34.850  32.024  1.00  0.00     0.009 A 
ATOM     45  C   UNL A   1      36.069  33.055  33.364  1.00  0.00     0.009 A 
ATOM     46  C   UNL A   1      34.764  35.491  33.180  1.00  0.00     0.001 A 
ATOM     47  C   UNL A   1      35.584  33.678  34.519  1.00  0.00     0.001 A 
ATOM     48  C   UNL A   1      34.950  34.908  34.428  1.00  0.00     0.000 A 
ENDBRANCH  29  43
BRANCH  30  49
ATOM     49  C   UNL A   1      43.181  30.708  35.817  1.00  0.00    -0.014 A 
ATOM     50  C   UNL A   1      43.711  29.411  36.022  1.00  0.00     0.009 A 
ATOM     51  C   UNL A   1      43.428  31.651  36.827  1.00  0.00     0.009 A 
ATOM     52  C   UNL A   1      44.473  29.094  37.168  1.00  0.00     0.001 A 
ATOM     53  C   UNL A   1      44.198  31.340  37.959  1.00  0.00     0.001 A 
ATOM     54  C   UNL A   1      44.733  30.067  38.127  1.00  0.00     0.000 A 
ENDBRANCH  30  49
BRANCH  42  55
ATOM     55  C   UNL A   1      42.543  34.280  30.772  1.00  0.00    -0.014 A 
ATOM     56  C   UNL A   1      43.179  33.303  29.981  1.00  0.00     0.009 A 
ATOM     57  C   UNL A   1      43.076  35.575  30.780  1.00  0.00     0.009 A 
ATOM     58  C   UNL A   1      44.346  33.621  29.266  1.00  0.00     0.001 A 
ATOM     59  C   UNL A   1      44.220  35.895  30.056  1.00  0.00     0.001 A 
ATOM     60  C   UNL A   1      44.867  34.914  29.311  1.00  0.00     0.000 A 
ENDBRANCH  42  55
ENDBRANCH  16  17
ENDBRANCH   9  11
ENDBRANCH   8   9
ENDBRANCH   7   8
ENDBRANCH   6   7
ENDBRANCH   5   6
ENDBRANCH   4   5
ENDBRANCH   3   4
ENDBRANCH   2   3
ENDBRANCH   1   2
BRANCH   1  61
ATOM     61  C   UNL A   1      37.705  22.109  25.450  1.00  0.00     0.188 C 
BRANCH  61  62
ATOM     62  O   UNL A   1      36.357  22.702  25.277  1.00  0.00    -0.376 OA
BRANCH  62  63
ATOM     63  C   UNL A   1      35.833  24.215  25.844  1.00  0.00     0.202 C 
BRANCH  63  64
ATOM     64  C   UNL A   1      33.930  25.278  25.158  1.00  0.00     0.261 C 
BRANCH  64  65
ATOM     65  O   UNL A   1      33.976  27.002  24.920  1.00  0.00    -0.462 OA
BRANCH  65  66
ATOM     66  C   UNL A   1      33.010  27.800  25.435  1.00  0.00     0.329 C 
ATOM     67  O   UNL A   1      33.246  28.479  26.434  1.00  0.00    -0.250 OA
BRANCH  66  68
ATOM     68  C   UNL A   1      31.639  27.912  24.635  1.00  0.00     0.203 C 
ATOM     69  C   UNL A   1      32.026  28.672  23.336  1.00  0.00     0.093 C 
ATOM     70  N   UNL A   1      30.606  26.881  24.144  1.00  0.00    -0.305 N 
ATOM     71  C   UNL A   1      30.784  29.114  22.663  1.00  0.00     0.042 A 
ATOM     72  C   UNL A   1      29.260  27.480  23.837  1.00  0.00     0.180 C 
ATOM     73  N   UNL A   1      30.652  30.060  21.702  1.00  0.00    -0.348 N 
ATOM     74  C   UNL A   1      29.523  28.602  22.879  1.00  0.00     0.081 A 
ATOM     75  C   UNL A   1      29.313  30.146  21.427  1.00  0.00     0.197 A 
ATOM     76  H   UNL A   1      31.375  30.582  21.284  1.00  0.00     0.167 HD
ATOM     77  N   UNL A   1      28.605  29.274  22.119  1.00  0.00    -0.240 NA
BRANCH  70  78
ATOM     78  C   UNL A   1      30.845  25.733  23.423  1.00  0.00     0.318 C 
ATOM     79  O   UNL A   1      31.104  25.735  22.215  1.00  0.00    -0.249 OA
ATOM     80  N   UNL A   1      30.605  24.515  23.931  1.00  0.00    -0.331 N 
ATOM     81  H   UNL A   1      30.654  23.818  23.235  1.00  0.00     0.165 HD
BRANCH  80  82
ATOM     82  C   UNL A   1      30.295  23.952  25.217  1.00  0.00     0.197 C 
BRANCH  82  83
ATOM     83  C   UNL A   1      31.096  22.817  25.809  1.00  0.00     0.169 A 
ATOM     84  N   UNL A   1      32.055  23.194  27.388  1.00  0.00    -0.218 NA
ATOM     85  N   UNL A   1      31.748  21.215  25.296  1.00  0.00    -0.157 NA
ATOM     86  C   UNL A   1      33.105  22.086  27.762  1.00  0.00     0.216 A 
ATOM     87  N   UNL A   1      33.066  20.768  26.525  1.00  0.00    -0.266 N 
ATOM     88  H   UNL A   1      33.636  19.966  26.506  1.00  0.00     0.191 HD
ENDBRANCH  82  83
ENDBRANCH  80  82
ENDBRANCH  70  78
ENDBRANCH  66  68
ENDBRANCH  65  66
ENDBRANCH  64  65
ENDBRANCH  63  64
ENDBRANCH  62  63
ENDBRANCH  61  62
ENDBRANCH   1  61
TORSDOF 23
ENDMDL
