MODEL 1
REMARK VINA RESULT:      -9.2      0.000      0.000
REMARK SMILES COc1ccc2[nH]cc([C@H](C(=O)OCCOCCOCCOCCOC(=O)c3ccc(-c4c5nc(c(-c6ccccc6)c6ccc([nH]6)c(-c6ccccc6)c6nc(c(-c7ccccc7)c7ccc4[nH]7)C=C6)C=C5)cc3)[NH+]3CC[NH+](Cc4cccc5ccccc45)CC3)c2c1
REMARK SMILES IDX 18 1 17 2 16 3 15 4 14 5 13 6 11 7 12 8 10 9 9 10 3 11 4 12
REMARK SMILES IDX 94 13 5 14 93 15 6 16 7 17 8 18 2 20 1 21 76 22 77 23 92 24
REMARK SMILES IDX 78 26 91 27 79 28 80 30 81 31 82 32 90 33 83 34 85 35 89 36
REMARK SMILES IDX 84 37 86 38 88 39 87 40 19 41 20 42 21 43 22 44 23 45 24 46
REMARK SMILES IDX 25 47 26 48 27 49 28 50 29 51 75 52 30 53 74 54 31 55 32 56
REMARK SMILES IDX 33 57 68 58 34 59 73 60 67 61 69 62 35 63 72 64 66 65 65 66
REMARK SMILES IDX 36 68 58 69 43 70 57 71 44 72 47 73 56 74 70 75 45 76 46 77
REMARK SMILES IDX 55 79 71 80 48 81 37 82 38 83 42 84 39 85 41 86 40 87 59 88
REMARK SMILES IDX 60 89 64 90 61 91 63 92 62 93 49 94 50 95 54 96 51 97 53 98
REMARK SMILES IDX 52 99
REMARK H PARENT 7 19 76 25 79 29 69 67 47 78
REMARK Flexibility Score: inf
ROOT
ATOM      1  C   UNL A   1      33.655  28.474  26.982  1.00  0.00     0.188 C 
ENDROOT
BRANCH   1   2
ATOM      2  C   UNL A   1      33.218  27.461  25.894  1.00  0.00     0.188 C 
BRANCH   2   3
ATOM      3  O   UNL A   1      34.299  26.820  25.256  1.00  0.00    -0.376 OA
BRANCH   3   4
ATOM      4  C   UNL A   1      34.288  25.411  25.187  1.00  0.00     0.202 C 
BRANCH   4   5
ATOM      5  C   UNL A   1      35.173  24.746  24.126  1.00  0.00     0.261 C 
BRANCH   5   6
ATOM      6  O   UNL A   1      36.337  23.980  24.523  1.00  0.00    -0.459 OA
BRANCH   6   7
ATOM      7  C   UNL A   1      36.721  22.891  23.798  1.00  0.00     0.370 C 
ATOM      8  O   UNL A   1      36.758  22.866  22.572  1.00  0.00    -0.245 OA
BRANCH   7   9
ATOM      9  C   UNL A   1      37.046  21.704  24.708  1.00  0.00     0.328 C 
BRANCH   9  10
ATOM     10  C   UNL A   1      38.018  22.119  25.810  1.00  0.00     0.046 A 
ATOM     11  C   UNL A   1      41.229  20.075  26.109  1.00  0.00     0.119 A 
ATOM     12  C   UNL A   1      42.002  21.116  26.597  1.00  0.00     0.048 A 
ATOM     13  C   UNL A   1      39.847  20.212  25.988  1.00  0.00     0.057 A 
ATOM     14  C   UNL A   1      41.405  22.308  27.024  1.00  0.00     0.030 A 
ATOM     15  C   UNL A   1      39.245  21.472  26.222  1.00  0.00     0.013 A 
ATOM     16  C   UNL A   1      40.030  22.464  26.811  1.00  0.00     0.046 A 
ATOM     17  N   UNL A   1      39.212  23.546  27.037  1.00  0.00    -0.361 N 
ATOM     18  C   UNL A   1      37.992  23.348  26.453  1.00  0.00     0.094 A 
ATOM     19  H   UNL A   1      39.468  24.348  27.547  1.00  0.00     0.166 HD
BRANCH  11  20
ATOM     20  O   UNL A   1      41.857  19.005  25.528  1.00  0.00    -0.497 OA
ATOM     21  C   UNL A   1      42.842  18.428  26.374  1.00  0.00     0.278 C 
ENDBRANCH  11  20
ENDBRANCH   9  10
BRANCH   9  22
ATOM     22  N   UNL A   1      35.857  21.120  25.380  1.00  0.00    -0.310 N 
ATOM     23  C   UNL A   1      35.221  21.871  26.463  1.00  0.00     0.325 C 
ATOM     24  C   UNL A   1      34.900  20.340  24.612  1.00  0.00     0.325 C 
ATOM     25  H   UNL A   1      36.420  20.408  25.845  1.00  0.00     0.349 HD
ATOM     26  C   UNL A   1      33.914  22.628  26.124  1.00  0.00     0.324 C 
ATOM     27  C   UNL A   1      33.568  21.048  24.278  1.00  0.00     0.324 C 
ATOM     28  N   UNL A   1      32.959  21.953  25.248  1.00  0.00    -0.322 N 
ATOM     29  H   UNL A   1      32.618  22.706  24.652  1.00  0.00     0.348 HD
BRANCH  28  30
ATOM     30  C   UNL A   1      31.659  21.584  25.819  1.00  0.00     0.300 C 
BRANCH  30  31
ATOM     31  C   UNL A   1      30.645  22.712  25.759  1.00  0.00     0.014 A 
ATOM     32  C   UNL A   1      29.870  22.947  26.911  1.00  0.00     0.010 A 
ATOM     33  C   UNL A   1      30.718  23.688  24.739  1.00  0.00    -0.010 A 
ATOM     34  C   UNL A   1      29.367  24.215  27.162  1.00  0.00     0.001 A 
ATOM     35  C   UNL A   1      30.295  24.998  25.049  1.00  0.00    -0.018 A 
ATOM     36  C   UNL A   1      31.246  23.435  23.454  1.00  0.00     0.009 A 
ATOM     37  C   UNL A   1      29.640  25.248  26.268  1.00  0.00     0.009 A 
ATOM     38  C   UNL A   1      30.576  26.035  24.148  1.00  0.00     0.009 A 
ATOM     39  C   UNL A   1      31.453  24.467  22.541  1.00  0.00     0.001 A 
ATOM     40  C   UNL A   1      31.161  25.773  22.908  1.00  0.00     0.001 A 
ENDBRANCH  30  31
ENDBRANCH  28  30
ENDBRANCH   9  22
ENDBRANCH   7   9
ENDBRANCH   6   7
ENDBRANCH   5   6
ENDBRANCH   4   5
ENDBRANCH   3   4
ENDBRANCH   2   3
ENDBRANCH   1   2
BRANCH   1  41
ATOM     41  O   UNL A   1      34.842  29.236  26.802  1.00  0.00    -0.377 OA
BRANCH  41  42
ATOM     42  C   UNL A   1      35.252  30.036  27.900  1.00  0.00     0.188 C 
BRANCH  42  43
ATOM     43  C   UNL A   1      34.752  31.498  27.969  1.00  0.00     0.188 C 
BRANCH  43  44
ATOM     44  O   UNL A   1      34.583  31.984  29.288  1.00  0.00    -0.376 OA
BRANCH  44  45
ATOM     45  C   UNL A   1      35.676  31.993  30.183  1.00  0.00     0.202 C 
BRANCH  45  46
ATOM     46  C   UNL A   1      35.377  31.494  31.605  1.00  0.00     0.261 C 
BRANCH  46  47
ATOM     47  O   UNL A   1      36.516  31.356  32.456  1.00  0.00    -0.460 OA
BRANCH  47  48
ATOM     48  C   UNL A   1      37.291  30.260  32.262  1.00  0.00     0.338 C 
ATOM     49  O   UNL A   1      36.955  29.104  32.278  1.00  0.00    -0.246 OA
BRANCH  48  50
ATOM     50  C   UNL A   1      38.585  30.780  31.770  1.00  0.00     0.060 A 
ATOM     51  C   UNL A   1      38.985  30.448  30.471  1.00  0.00     0.016 A 
ATOM     52  C   UNL A   1      39.328  31.676  32.543  1.00  0.00     0.016 A 
ATOM     53  C   UNL A   1      40.079  31.086  29.903  1.00  0.00     0.010 A 
ATOM     54  C   UNL A   1      40.475  32.251  32.003  1.00  0.00     0.010 A 
ATOM     55  C   UNL A   1      40.847  31.959  30.682  1.00  0.00    -0.014 A 
BRANCH  55  56
ATOM     56  C   UNL A   1      42.196  32.308  30.208  1.00  0.00     0.031 A 
ATOM     57  C   UNL A   1      42.366  33.689  29.648  1.00  0.00     0.074 A 
ATOM     58  C   UNL A   1      43.223  31.449  30.293  1.00  0.00     0.049 A 
ATOM     59  N   UNL A   1      43.427  34.258  29.148  1.00  0.00    -0.248 NA
ATOM     60  C   UNL A   1      41.168  34.550  29.668  1.00  0.00     0.031 C 
ATOM     61  C   UNL A   1      43.173  30.115  30.890  1.00  0.00     0.029 A 
ATOM     62  N   UNL A   1      44.519  31.583  29.868  1.00  0.00    -0.354 N 
ATOM     63  C   UNL A   1      43.028  35.543  28.806  1.00  0.00     0.074 A 
ATOM     64  C   UNL A   1      41.626  35.666  29.129  1.00  0.00     0.031 C 
ATOM     65  C   UNL A   1      44.388  29.546  30.779  1.00  0.00     0.029 A 
ATOM     66  C   UNL A   1      45.283  30.463  30.076  1.00  0.00     0.049 A 
ATOM     67  H   UNL A   1      44.867  32.405  29.454  1.00  0.00     0.167 HD
ATOM     68  C   UNL A   1      43.765  36.535  28.263  1.00  0.00     0.031 A 
ATOM     69  C   UNL A   1      46.555  30.214  29.710  1.00  0.00     0.031 A 
ATOM     70  C   UNL A   1      45.136  36.374  27.877  1.00  0.00     0.049 A 
ATOM     71  C   UNL A   1      47.315  31.287  28.969  1.00  0.00     0.074 A 
ATOM     72  C   UNL A   1      45.980  37.293  27.284  1.00  0.00     0.029 A 
ATOM     73  N   UNL A   1      45.856  35.198  28.028  1.00  0.00    -0.354 N 
ATOM     74  N   UNL A   1      46.941  32.508  28.664  1.00  0.00    -0.248 NA
ATOM     75  C   UNL A   1      48.671  30.945  28.520  1.00  0.00     0.031 C 
ATOM     76  C   UNL A   1      47.191  36.649  27.014  1.00  0.00     0.029 A 
ATOM     77  C   UNL A   1      47.125  35.352  27.505  1.00  0.00     0.049 A 
ATOM     78  H   UNL A   1      45.513  34.374  28.446  1.00  0.00     0.167 HD
ATOM     79  C   UNL A   1      48.023  33.088  28.013  1.00  0.00     0.074 A 
ATOM     80  C   UNL A   1      49.072  32.089  27.981  1.00  0.00     0.031 C 
ATOM     81  C   UNL A   1      48.144  34.333  27.488  1.00  0.00     0.031 A 
BRANCH  68  82
ATOM     82  C   UNL A   1      43.062  37.835  27.999  1.00  0.00    -0.014 A 
ATOM     83  C   UNL A   1      43.040  38.861  28.958  1.00  0.00     0.009 A 
ATOM     84  C   UNL A   1      42.378  38.020  26.788  1.00  0.00     0.009 A 
ATOM     85  C   UNL A   1      42.313  40.030  28.725  1.00  0.00     0.001 A 
ATOM     86  C   UNL A   1      41.679  39.204  26.546  1.00  0.00     0.001 A 
ATOM     87  C   UNL A   1      41.637  40.202  27.518  1.00  0.00     0.000 A 
ENDBRANCH  68  82
BRANCH  69  88
ATOM     88  C   UNL A   1      47.184  28.897  30.002  1.00  0.00    -0.014 A 
ATOM     89  C   UNL A   1      47.917  28.700  31.182  1.00  0.00     0.009 A 
ATOM     90  C   UNL A   1      47.075  27.835  29.090  1.00  0.00     0.009 A 
ATOM     91  C   UNL A   1      48.548  27.478  31.429  1.00  0.00     0.001 A 
ATOM     92  C   UNL A   1      47.682  26.605  29.354  1.00  0.00     0.001 A 
ATOM     93  C   UNL A   1      48.427  26.429  30.518  1.00  0.00     0.000 A 
ENDBRANCH  69  88
BRANCH  81  94
ATOM     94  C   UNL A   1      49.462  34.692  26.862  1.00  0.00    -0.014 A 
ATOM     95  C   UNL A   1      50.505  35.241  27.623  1.00  0.00     0.009 A 
ATOM     96  C   UNL A   1      49.683  34.409  25.504  1.00  0.00     0.009 A 
ATOM     97  C   UNL A   1      51.736  35.525  27.028  1.00  0.00     0.001 A 
ATOM     98  C   UNL A   1      50.924  34.663  24.922  1.00  0.00     0.001 A 
ATOM     99  C   UNL A   1      51.946  35.228  25.682  1.00  0.00     0.000 A 
ENDBRANCH  81  94
ENDBRANCH  55  56
ENDBRANCH  48  50
ENDBRANCH  47  48
ENDBRANCH  46  47
ENDBRANCH  45  46
ENDBRANCH  44  45
ENDBRANCH  43  44
ENDBRANCH  42  43
ENDBRANCH  41  42
ENDBRANCH   1  41
TORSDOF 25
ENDMDL
MODEL 2
REMARK VINA RESULT:      -9.1      3.631      9.258
REMARK SMILES COc1ccc2[nH]cc([C@H](C(=O)OCCOCCOCCOCCOC(=O)c3ccc(-c4c5nc(c(-c6ccccc6)c6ccc([nH]6)c(-c6ccccc6)c6nc(c(-c7ccccc7)c7ccc4[nH]7)C=C6)C=C5)cc3)[NH+]3CC[NH+](Cc4cccc5ccccc45)CC3)c2c1
REMARK SMILES IDX 18 1 17 2 16 3 15 4 14 5 13 6 11 7 12 8 10 9 9 10 3 11 4 12
REMARK SMILES IDX 94 13 5 14 93 15 6 16 7 17 8 18 2 20 1 21 76 22 77 23 92 24
REMARK SMILES IDX 78 26 91 27 79 28 80 30 81 31 82 32 90 33 83 34 85 35 89 36
REMARK SMILES IDX 84 37 86 38 88 39 87 40 19 41 20 42 21 43 22 44 23 45 24 46
REMARK SMILES IDX 25 47 26 48 27 49 28 50 29 51 75 52 30 53 74 54 31 55 32 56
REMARK SMILES IDX 33 57 68 58 34 59 73 60 67 61 69 62 35 63 72 64 66 65 65 66
REMARK SMILES IDX 36 68 58 69 43 70 57 71 44 72 47 73 56 74 70 75 45 76 46 77
REMARK SMILES IDX 55 79 71 80 48 81 37 82 38 83 42 84 39 85 41 86 40 87 59 88
REMARK SMILES IDX 60 89 64 90 61 91 63 92 62 93 49 94 50 95 54 96 51 97 53 98
REMARK SMILES IDX 52 99
REMARK H PARENT 7 19 76 25 79 29 69 67 47 78
REMARK Flexibility Score: inf
ROOT
ATOM      1  C   UNL A   1      39.472  28.565  30.091  1.00  0.00     0.188 C 
ENDROOT
BRANCH   1   2
ATOM      2  C   UNL A   1      38.822  29.917  30.476  1.00  0.00     0.188 C 
BRANCH   2   3
ATOM      3  O   UNL A   1      38.065  30.494  29.436  1.00  0.00    -0.376 OA
BRANCH   3   4
ATOM      4  C   UNL A   1      36.673  30.271  29.427  1.00  0.00     0.202 C 
BRANCH   4   5
ATOM      5  C   UNL A   1      36.003  30.021  28.070  1.00  0.00     0.261 C 
BRANCH   5   6
ATOM      6  O   UNL A   1      34.812  29.202  27.985  1.00  0.00    -0.459 OA
BRANCH   6   7
ATOM      7  C   UNL A   1      34.367  28.762  26.773  1.00  0.00     0.370 C 
ATOM      8  O   UNL A   1      35.105  28.518  25.824  1.00  0.00    -0.245 OA
BRANCH   7   9
ATOM      9  C   UNL A   1      32.840  28.665  26.743  1.00  0.00     0.328 C 
BRANCH   9  10
ATOM     10  C   UNL A   1      32.228  29.958  26.210  1.00  0.00     0.046 A 
ATOM     11  C   UNL A   1      29.915  29.631  23.190  1.00  0.00     0.119 A 
ATOM     12  C   UNL A   1      29.121  30.719  23.514  1.00  0.00     0.048 A 
ATOM     13  C   UNL A   1      31.096  29.379  23.887  1.00  0.00     0.057 A 
ATOM     14  C   UNL A   1      29.514  31.616  24.514  1.00  0.00     0.030 A 
ATOM     15  C   UNL A   1      31.412  30.152  25.031  1.00  0.00     0.013 A 
ATOM     16  C   UNL A   1      30.654  31.300  25.265  1.00  0.00     0.046 A 
ATOM     17  N   UNL A   1      31.207  31.935  26.352  1.00  0.00    -0.361 N 
ATOM     18  C   UNL A   1      32.166  31.147  26.924  1.00  0.00     0.094 A 
ATOM     19  H   UNL A   1      30.949  32.830  26.672  1.00  0.00     0.166 HD
BRANCH  11  20
ATOM     20  O   UNL A   1      29.411  28.678  22.345  1.00  0.00    -0.497 OA
ATOM     21  C   UNL A   1      29.179  27.438  23.001  1.00  0.00     0.278 C 
ENDBRANCH  11  20
ENDBRANCH   9  10
BRANCH   9  22
ATOM     22  N   UNL A   1      32.326  27.563  25.889  1.00  0.00    -0.310 N 
ATOM     23  C   UNL A   1      33.238  26.921  24.943  1.00  0.00     0.325 C 
ATOM     24  C   UNL A   1      31.336  26.637  26.418  1.00  0.00     0.325 C 
ATOM     25  H   UNL A   1      31.768  28.206  25.327  1.00  0.00     0.349 HD
ATOM     26  C   UNL A   1      33.813  25.541  25.342  1.00  0.00     0.324 C 
ATOM     27  C   UNL A   1      31.863  25.237  26.801  1.00  0.00     0.324 C 
ATOM     28  N   UNL A   1      32.904  24.603  25.998  1.00  0.00    -0.322 N 
ATOM     29  H   UNL A   1      33.491  24.171  26.712  1.00  0.00     0.348 HD
BRANCH  28  30
ATOM     30  C   UNL A   1      32.571  23.367  25.280  1.00  0.00     0.300 C 
BRANCH  30  31
ATOM     31  C   UNL A   1      33.794  22.545  24.919  1.00  0.00     0.014 A 
ATOM     32  C   UNL A   1      35.045  23.023  25.353  1.00  0.00     0.010 A 
ATOM     33  C   UNL A   1      33.656  21.208  24.480  1.00  0.00    -0.010 A 
ATOM     34  C   UNL A   1      36.088  22.136  25.575  1.00  0.00     0.001 A 
ATOM     35  C   UNL A   1      34.683  20.298  24.808  1.00  0.00    -0.018 A 
ATOM     36  C   UNL A   1      32.522  20.727  23.790  1.00  0.00     0.009 A 
ATOM     37  C   UNL A   1      35.881  20.774  25.370  1.00  0.00     0.009 A 
ATOM     38  C   UNL A   1      34.469  18.927  24.602  1.00  0.00     0.009 A 
ATOM     39  C   UNL A   1      32.356  19.369  23.529  1.00  0.00     0.001 A 
ATOM     40  C   UNL A   1      33.310  18.465  23.978  1.00  0.00     0.001 A 
ENDBRANCH  30  31
ENDBRANCH  28  30
ENDBRANCH   9  22
ENDBRANCH   7   9
ENDBRANCH   6   7
ENDBRANCH   5   6
ENDBRANCH   4   5
ENDBRANCH   3   4
ENDBRANCH   2   3
ENDBRANCH   1   2
BRANCH   1  41
ATOM     41  O   UNL A   1      38.657  27.500  29.614  1.00  0.00    -0.377 OA
BRANCH  41  42
ATOM     42  C   UNL A   1      38.944  27.021  28.310  1.00  0.00     0.188 C 
BRANCH  42  43
ATOM     43  C   UNL A   1      39.987  27.785  27.462  1.00  0.00     0.188 C 
BRANCH  43  44
ATOM     44  O   UNL A   1      41.078  26.987  27.038  1.00  0.00    -0.376 OA
BRANCH  44  45
ATOM     45  C   UNL A   1      40.861  25.909  26.151  1.00  0.00     0.202 C 
BRANCH  45  46
ATOM     46  C   UNL A   1      40.768  24.520  26.802  1.00  0.00     0.261 C 
BRANCH  46  47
ATOM     47  O   UNL A   1      41.632  23.527  26.247  1.00  0.00    -0.460 OA
BRANCH  47  48
ATOM     48  C   UNL A   1      42.683  23.140  27.011  1.00  0.00     0.338 C 
ATOM     49  O   UNL A   1      42.870  22.065  27.522  1.00  0.00    -0.246 OA
BRANCH  48  50
ATOM     50  C   UNL A   1      43.683  24.222  26.877  1.00  0.00     0.060 A 
ATOM     51  C   UNL A   1      44.139  24.852  28.039  1.00  0.00     0.016 A 
ATOM     52  C   UNL A   1      44.240  24.520  25.632  1.00  0.00     0.016 A 
ATOM     53  C   UNL A   1      45.224  25.716  27.974  1.00  0.00     0.010 A 
ATOM     54  C   UNL A   1      45.272  25.451  25.554  1.00  0.00     0.010 A 
ATOM     55  C   UNL A   1      45.766  26.045  26.726  1.00  0.00    -0.014 A 
BRANCH  55  56
ATOM     56  C   UNL A   1      46.628  27.235  26.635  1.00  0.00     0.031 A 
ATOM     57  C   UNL A   1      48.102  26.981  26.533  1.00  0.00     0.074 A 
ATOM     58  C   UNL A   1      46.122  28.478  26.622  1.00  0.00     0.049 A 
ATOM     59  N   UNL A   1      49.089  27.830  26.457  1.00  0.00    -0.248 NA
ATOM     60  C   UNL A   1      48.516  25.565  26.501  1.00  0.00     0.031 C 
ATOM     61  C   UNL A   1      44.701  28.822  26.641  1.00  0.00     0.029 A 
ATOM     62  N   UNL A   1      46.765  29.687  26.587  1.00  0.00    -0.354 N 
ATOM     63  C   UNL A   1      50.234  27.053  26.357  1.00  0.00     0.074 A 
ATOM     64  C   UNL A   1      49.830  25.668  26.407  1.00  0.00     0.031 C 
ATOM     65  C   UNL A   1      44.581  30.164  26.632  1.00  0.00     0.029 A 
ATOM     66  C   UNL A   1      45.914  30.763  26.640  1.00  0.00     0.049 A 
ATOM     67  H   UNL A   1      47.744  29.776  26.530  1.00  0.00     0.167 HD
ATOM     68  C   UNL A   1      51.517  27.459  26.239  1.00  0.00     0.031 A 
ATOM     69  C   UNL A   1      46.199  32.077  26.714  1.00  0.00     0.031 A 
ATOM     70  C   UNL A   1      51.910  28.837  26.267  1.00  0.00     0.049 A 
ATOM     71  C   UNL A   1      47.647  32.501  26.731  1.00  0.00     0.074 A 
ATOM     72  C   UNL A   1      53.181  29.374  26.194  1.00  0.00     0.029 A 
ATOM     73  N   UNL A   1      51.027  29.898  26.405  1.00  0.00    -0.354 N 
ATOM     74  N   UNL A   1      48.728  31.766  26.617  1.00  0.00    -0.248 NA
ATOM     75  C   UNL A   1      47.913  33.938  26.891  1.00  0.00     0.031 C 
ATOM     76  C   UNL A   1      53.070  30.758  26.355  1.00  0.00     0.029 A 
ATOM     77  C   UNL A   1      51.725  31.088  26.456  1.00  0.00     0.049 A 
ATOM     78  H   UNL A   1      50.047  29.815  26.458  1.00  0.00     0.167 HD
ATOM     79  C   UNL A   1      49.799  32.650  26.663  1.00  0.00     0.074 A 
ATOM     80  C   UNL A   1      49.235  33.978  26.801  1.00  0.00     0.031 C 
ATOM     81  C   UNL A   1      51.130  32.393  26.597  1.00  0.00     0.031 A 
BRANCH  68  82
ATOM     82  C   UNL A   1      52.561  26.385  26.147  1.00  0.00    -0.014 A 
ATOM     83  C   UNL A   1      53.495  26.184  27.178  1.00  0.00     0.009 A 
ATOM     84  C   UNL A   1      52.637  25.587  24.996  1.00  0.00     0.009 A 
ATOM     85  C   UNL A   1      54.508  25.233  27.037  1.00  0.00     0.001 A 
ATOM     86  C   UNL A   1      53.631  24.615  24.874  1.00  0.00     0.001 A 
ATOM     87  C   UNL A   1      54.572  24.448  25.888  1.00  0.00     0.000 A 
ENDBRANCH  68  82
BRANCH  69  88
ATOM     88  C   UNL A   1      45.107  33.084  26.808  1.00  0.00    -0.014 A 
ATOM     89  C   UNL A   1      44.540  33.636  25.649  1.00  0.00     0.009 A 
ATOM     90  C   UNL A   1      44.642  33.519  28.059  1.00  0.00     0.009 A 
ATOM     91  C   UNL A   1      43.551  34.618  25.742  1.00  0.00     0.001 A 
ATOM     92  C   UNL A   1      43.631  34.480  28.149  1.00  0.00     0.001 A 
ATOM     93  C   UNL A   1      43.093  35.036  26.990  1.00  0.00     0.000 A 
ENDBRANCH  69  88
BRANCH  81  94
ATOM     94  C   UNL A   1      52.062  33.571  26.644  1.00  0.00    -0.014 A 
ATOM     95  C   UNL A   1      52.432  34.254  25.476  1.00  0.00     0.009 A 
ATOM     96  C   UNL A   1      52.518  34.043  27.886  1.00  0.00     0.009 A 
ATOM     97  C   UNL A   1      53.264  35.373  25.551  1.00  0.00     0.001 A 
ATOM     98  C   UNL A   1      53.321  35.180  27.959  1.00  0.00     0.001 A 
ATOM     99  C   UNL A   1      53.701  35.839  26.791  1.00  0.00     0.000 A 
ENDBRANCH  81  94
ENDBRANCH  55  56
ENDBRANCH  48  50
ENDBRANCH  47  48
ENDBRANCH  46  47
ENDBRANCH  45  46
ENDBRANCH  44  45
ENDBRANCH  43  44
ENDBRANCH  42  43
ENDBRANCH  41  42
ENDBRANCH   1  41
TORSDOF 25
ENDMDL
MODEL 3
REMARK VINA RESULT:      -9.1      7.886     15.296
REMARK SMILES COc1ccc2[nH]cc([C@H](C(=O)OCCOCCOCCOCCOC(=O)c3ccc(-c4c5nc(c(-c6ccccc6)c6ccc([nH]6)c(-c6ccccc6)c6nc(c(-c7ccccc7)c7ccc4[nH]7)C=C6)C=C5)cc3)[NH+]3CC[NH+](Cc4cccc5ccccc45)CC3)c2c1
REMARK SMILES IDX 18 1 17 2 16 3 15 4 14 5 13 6 11 7 12 8 10 9 9 10 3 11 4 12
REMARK SMILES IDX 94 13 5 14 93 15 6 16 7 17 8 18 2 20 1 21 76 22 77 23 92 24
REMARK SMILES IDX 78 26 91 27 79 28 80 30 81 31 82 32 90 33 83 34 85 35 89 36
REMARK SMILES IDX 84 37 86 38 88 39 87 40 19 41 20 42 21 43 22 44 23 45 24 46
REMARK SMILES IDX 25 47 26 48 27 49 28 50 29 51 75 52 30 53 74 54 31 55 32 56
REMARK SMILES IDX 33 57 68 58 34 59 73 60 67 61 69 62 35 63 72 64 66 65 65 66
REMARK SMILES IDX 36 68 58 69 43 70 57 71 44 72 47 73 56 74 70 75 45 76 46 77
REMARK SMILES IDX 55 79 71 80 48 81 37 82 38 83 42 84 39 85 41 86 40 87 59 88
REMARK SMILES IDX 60 89 64 90 61 91 63 92 62 93 49 94 50 95 54 96 51 97 53 98
REMARK SMILES IDX 52 99
REMARK H PARENT 7 19 76 25 79 29 69 67 47 78
REMARK Flexibility Score: inf
ROOT
ATOM      1  C   UNL A   1      36.650  33.499  35.766  1.00  0.00     0.188 C 
ENDROOT
BRANCH   1   2
ATOM      2  C   UNL A   1      37.727  33.837  36.826  1.00  0.00     0.188 C 
BRANCH   2   3
ATOM      3  O   UNL A   1      38.261  32.701  37.468  1.00  0.00    -0.376 OA
BRANCH   3   4
ATOM      4  C   UNL A   1      37.921  32.481  38.818  1.00  0.00     0.202 C 
BRANCH   4   5
ATOM      5  C   UNL A   1      36.884  31.392  39.120  1.00  0.00     0.261 C 
BRANCH   5   6
ATOM      6  O   UNL A   1      36.378  31.221  40.466  1.00  0.00    -0.459 OA
BRANCH   6   7
ATOM      7  C   UNL A   1      37.231  30.917  41.486  1.00  0.00     0.370 C 
ATOM      8  O   UNL A   1      38.080  30.033  41.424  1.00  0.00    -0.245 OA
BRANCH   7   9
ATOM      9  C   UNL A   1      36.955  31.781  42.719  1.00  0.00     0.328 C 
BRANCH   9  10
ATOM     10  C   UNL A   1      36.975  30.932  43.988  1.00  0.00     0.046 A 
ATOM     11  C   UNL A   1      33.720  30.763  45.975  1.00  0.00     0.119 A 
ATOM     12  C   UNL A   1      33.938  29.490  46.477  1.00  0.00     0.048 A 
ATOM     13  C   UNL A   1      34.729  31.442  45.295  1.00  0.00     0.057 A 
ATOM     14  C   UNL A   1      35.192  28.881  46.354  1.00  0.00     0.030 A 
ATOM     15  C   UNL A   1      35.936  30.772  44.983  1.00  0.00     0.013 A 
ATOM     16  C   UNL A   1      36.166  29.537  45.590  1.00  0.00     0.046 A 
ATOM     17  N   UNL A   1      37.430  29.135  45.226  1.00  0.00    -0.361 N 
ATOM     18  C   UNL A   1      37.937  29.973  44.272  1.00  0.00     0.094 A 
ATOM     19  H   UNL A   1      37.903  28.356  45.600  1.00  0.00     0.166 HD
BRANCH  11  20
ATOM     20  O   UNL A   1      32.438  31.247  45.945  1.00  0.00    -0.497 OA
ATOM     21  C   UNL A   1      31.844  31.290  47.236  1.00  0.00     0.278 C 
ENDBRANCH  11  20
ENDBRANCH   9  10
BRANCH   9  22
ATOM     22  N   UNL A   1      37.942  32.874  42.917  1.00  0.00    -0.310 N 
ATOM     23  C   UNL A   1      38.004  33.538  44.219  1.00  0.00     0.325 C 
ATOM     24  C   UNL A   1      39.242  32.804  42.268  1.00  0.00     0.325 C 
ATOM     25  H   UNL A   1      37.415  33.511  42.318  1.00  0.00     0.349 HD
ATOM     26  C   UNL A   1      39.162  33.132  45.163  1.00  0.00     0.324 C 
ATOM     27  C   UNL A   1      40.430  32.431  43.181  1.00  0.00     0.324 C 
ATOM     28  N   UNL A   1      40.474  32.918  44.557  1.00  0.00    -0.322 N 
ATOM     29  H   UNL A   1      40.833  32.106  45.059  1.00  0.00     0.348 HD
BRANCH  28  30
ATOM     30  C   UNL A   1      41.553  33.840  44.932  1.00  0.00     0.300 C 
BRANCH  30  31
ATOM     31  C   UNL A   1      42.930  33.325  44.553  1.00  0.00     0.014 A 
ATOM     32  C   UNL A   1      43.430  32.228  45.280  1.00  0.00     0.010 A 
ATOM     33  C   UNL A   1      43.522  33.695  43.324  1.00  0.00    -0.010 A 
ATOM     34  C   UNL A   1      44.345  31.367  44.692  1.00  0.00     0.001 A 
ATOM     35  C   UNL A   1      44.369  32.760  42.694  1.00  0.00    -0.018 A 
ATOM     36  C   UNL A   1      43.260  34.920  42.671  1.00  0.00     0.009 A 
ATOM     37  C   UNL A   1      44.755  31.596  43.381  1.00  0.00     0.009 A 
ATOM     38  C   UNL A   1      44.776  32.994  41.372  1.00  0.00     0.009 A 
ATOM     39  C   UNL A   1      43.733  35.168  41.384  1.00  0.00     0.001 A 
ATOM     40  C   UNL A   1      44.451  34.184  40.718  1.00  0.00     0.001 A 
ENDBRANCH  30  31
ENDBRANCH  28  30
ENDBRANCH   9  22
ENDBRANCH   7   9
ENDBRANCH   6   7
ENDBRANCH   5   6
ENDBRANCH   4   5
ENDBRANCH   3   4
ENDBRANCH   2   3
ENDBRANCH   1   2
BRANCH   1  41
ATOM     41  O   UNL A   1      36.536  34.299  34.594  1.00  0.00    -0.377 OA
BRANCH  41  42
ATOM     42  C   UNL A   1      35.222  34.530  34.113  1.00  0.00     0.188 C 
BRANCH  42  43
ATOM     43  C   UNL A   1      35.021  35.601  33.015  1.00  0.00     0.188 C 
BRANCH  43  44
ATOM     44  O   UNL A   1      33.670  35.779  32.628  1.00  0.00    -0.376 OA
BRANCH  44  45
ATOM     45  C   UNL A   1      33.326  36.805  31.719  1.00  0.00     0.202 C 
BRANCH  45  46
ATOM     46  C   UNL A   1      32.919  36.339  30.314  1.00  0.00     0.261 C 
BRANCH  46  47
ATOM     47  O   UNL A   1      32.673  34.938  30.181  1.00  0.00    -0.460 OA
BRANCH  47  48
ATOM     48  C   UNL A   1      33.117  34.348  29.045  1.00  0.00     0.338 C 
ATOM     49  O   UNL A   1      32.648  34.426  27.938  1.00  0.00    -0.246 OA
BRANCH  48  50
ATOM     50  C   UNL A   1      34.444  33.792  29.386  1.00  0.00     0.060 A 
ATOM     51  C   UNL A   1      34.545  32.945  30.495  1.00  0.00     0.016 A 
ATOM     52  C   UNL A   1      35.541  34.016  28.551  1.00  0.00     0.016 A 
ATOM     53  C   UNL A   1      35.720  32.240  30.718  1.00  0.00     0.010 A 
ATOM     54  C   UNL A   1      36.746  33.374  28.824  1.00  0.00     0.010 A 
ATOM     55  C   UNL A   1      36.833  32.484  29.906  1.00  0.00    -0.014 A 
BRANCH  55  56
ATOM     56  C   UNL A   1      38.153  32.043  30.386  1.00  0.00     0.031 A 
ATOM     57  C   UNL A   1      38.659  30.742  29.838  1.00  0.00     0.074 A 
ATOM     58  C   UNL A   1      38.875  32.776  31.247  1.00  0.00     0.049 A 
ATOM     59  N   UNL A   1      39.770  30.108  30.093  1.00  0.00    -0.248 NA
ATOM     60  C   UNL A   1      37.788  30.070  28.854  1.00  0.00     0.031 C 
ATOM     61  C   UNL A   1      38.502  34.087  31.776  1.00  0.00     0.029 A 
ATOM     62  N   UNL A   1      40.087  32.507  31.829  1.00  0.00    -0.354 N 
ATOM     63  C   UNL A   1      39.735  28.973  29.295  1.00  0.00     0.074 A 
ATOM     64  C   UNL A   1      38.488  28.987  28.567  1.00  0.00     0.031 C 
ATOM     65  C   UNL A   1      39.466  34.503  32.620  1.00  0.00     0.029 A 
ATOM     66  C   UNL A   1      40.498  33.473  32.711  1.00  0.00     0.049 A 
ATOM     67  H   UNL A   1      40.611  31.697  31.632  1.00  0.00     0.167 HD
ATOM     68  C   UNL A   1      40.662  27.997  29.182  1.00  0.00     0.031 A 
ATOM     69  C   UNL A   1      41.578  33.494  33.515  1.00  0.00     0.031 A 
ATOM     70  C   UNL A   1      41.860  27.958  29.968  1.00  0.00     0.049 A 
ATOM     71  C   UNL A   1      42.526  32.321  33.482  1.00  0.00     0.074 A 
ATOM     72  C   UNL A   1      42.859  27.003  29.972  1.00  0.00     0.029 A 
ATOM     73  N   UNL A   1      42.205  28.913  30.913  1.00  0.00    -0.354 N 
ATOM     74  N   UNL A   1      42.502  31.257  32.712  1.00  0.00    -0.248 NA
ATOM     75  C   UNL A   1      43.648  32.349  34.430  1.00  0.00     0.031 C 
ATOM     76  C   UNL A   1      43.776  27.348  30.970  1.00  0.00     0.029 A 
ATOM     77  C   UNL A   1      43.385  28.555  31.536  1.00  0.00     0.049 A 
ATOM     78  H   UNL A   1      41.686  29.727  31.111  1.00  0.00     0.167 HD
ATOM     79  C   UNL A   1      43.616  30.505  33.064  1.00  0.00     0.074 A 
ATOM     80  C   UNL A   1      44.303  31.242  34.105  1.00  0.00     0.031 C 
ATOM     81  C   UNL A   1      44.038  29.313  32.573  1.00  0.00     0.031 A 
BRANCH  68  82
ATOM     82  C   UNL A   1      40.355  26.879  28.230  1.00  0.00    -0.014 A 
ATOM     83  C   UNL A   1      39.567  25.783  28.620  1.00  0.00     0.009 A 
ATOM     84  C   UNL A   1      40.894  26.903  26.934  1.00  0.00     0.009 A 
ATOM     85  C   UNL A   1      39.361  24.715  27.744  1.00  0.00     0.001 A 
ATOM     86  C   UNL A   1      40.657  25.849  26.051  1.00  0.00     0.001 A 
ATOM     87  C   UNL A   1      39.903  24.751  26.460  1.00  0.00     0.000 A 
ENDBRANCH  68  82
BRANCH  69  88
ATOM     88  C   UNL A   1      41.813  34.638  34.439  1.00  0.00    -0.014 A 
ATOM     89  C   UNL A   1      42.522  35.771  34.010  1.00  0.00     0.009 A 
ATOM     90  C   UNL A   1      41.352  34.592  35.764  1.00  0.00     0.009 A 
ATOM     91  C   UNL A   1      42.783  36.821  34.894  1.00  0.00     0.001 A 
ATOM     92  C   UNL A   1      41.589  35.657  36.638  1.00  0.00     0.001 A 
ATOM     93  C   UNL A   1      42.313  36.766  36.206  1.00  0.00     0.000 A 
ENDBRANCH  69  88
BRANCH  81  94
ATOM     94  C   UNL A   1      45.313  28.748  33.134  1.00  0.00    -0.014 A 
ATOM     95  C   UNL A   1      46.564  29.133  32.630  1.00  0.00     0.009 A 
ATOM     96  C   UNL A   1      45.258  27.874  34.232  1.00  0.00     0.009 A 
ATOM     97  C   UNL A   1      47.736  28.629  33.199  1.00  0.00     0.001 A 
ATOM     98  C   UNL A   1      46.430  27.399  34.818  1.00  0.00     0.001 A 
ATOM     99  C   UNL A   1      47.668  27.770  34.296  1.00  0.00     0.000 A 
ENDBRANCH  81  94
ENDBRANCH  55  56
ENDBRANCH  48  50
ENDBRANCH  47  48
ENDBRANCH  46  47
ENDBRANCH  45  46
ENDBRANCH  44  45
ENDBRANCH  43  44
ENDBRANCH  42  43
ENDBRANCH  41  42
ENDBRANCH   1  41
TORSDOF 25
ENDMDL
