MODEL 1
REMARK VINA RESULT:     -10.6      0.000      0.000
REMARK SMILES O=C(Cc1c(C(=O)c2cc3c(cn2)CCCC3)[nH]c2cc(Cl)ccc12)OCCOCCOCCOCCOC(=O)c1ccc(-c2c3nc(c(-c4ccccc4)c4ccc([nH]4)c(-c4ccccc4)c4nc(c(-c5ccccc5)c5ccc2[nH]5)C=C4)C=C3)cc1
REMARK SMILES IDX 31 1 30 2 29 3 28 4 27 5 26 6 2 7 1 8 3 9 4 10 5 11 25 12
REMARK SMILES IDX 18 13 19 14 24 15 20 17 23 18 21 19 22 20 6 21 7 22 8 23
REMARK SMILES IDX 9 24 13 25 10 26 12 27 11 28 17 29 14 30 16 31 15 32 32 33
REMARK SMILES IDX 33 34 34 35 35 36 36 37 37 38 38 39 39 40 40 41 41 42 42 43
REMARK SMILES IDX 88 44 43 45 87 46 44 47 45 48 46 49 81 50 47 51 86 52 80 53
REMARK SMILES IDX 82 54 48 55 85 56 79 57 78 58 49 60 71 61 56 62 70 63 57 64
REMARK SMILES IDX 60 65 69 66 83 67 58 68 59 69 68 71 84 72 61 73 50 74 51 75
REMARK SMILES IDX 55 76 52 77 54 78 53 79 72 80 73 81 77 82 74 83 76 84 75 85
REMARK SMILES IDX 62 86 63 87 67 88 64 89 66 90 65 91
REMARK H PARENT 18 16 82 59 60 70
REMARK Flexibility Score: inf
ROOT
ATOM      1  C   UNL A   1      41.651  20.666  27.453  1.00  0.00     0.188 C 
ENDROOT
BRANCH   1   2
ATOM      2  C   UNL A   1      40.835  21.374  26.377  1.00  0.00     0.188 C 
BRANCH   2   3
ATOM      3  O   UNL A   1      39.765  22.155  26.866  1.00  0.00    -0.376 OA
BRANCH   3   4
ATOM      4  C   UNL A   1      38.728  22.587  25.987  1.00  0.00     0.202 C 
BRANCH   4   5
ATOM      5  C   UNL A   1      37.908  23.872  26.215  1.00  0.00     0.261 C 
BRANCH   5   6
ATOM      6  O   UNL A   1      36.677  23.994  25.499  1.00  0.00    -0.463 OA
BRANCH   6   7
ATOM      7  C   UNL A   1      35.701  23.088  25.726  1.00  0.00     0.310 C 
ATOM      8  O   UNL A   1      35.171  23.000  26.831  1.00  0.00    -0.252 OA
BRANCH   7   9
ATOM      9  C   UNL A   1      35.453  22.092  24.629  1.00  0.00     0.161 C 
BRANCH   9  10
ATOM     10  C   UNL A   1      34.131  21.375  24.650  1.00  0.00     0.000 A 
ATOM     11  C   UNL A   1      32.796  21.761  24.447  1.00  0.00     0.093 A 
ATOM     12  C   UNL A   1      34.113  19.940  24.699  1.00  0.00     0.004 A 
ATOM     13  N   UNL A   1      32.024  20.666  24.787  1.00  0.00    -0.351 N 
ATOM     14  C   UNL A   1      32.794  19.533  24.824  1.00  0.00     0.048 A 
ATOM     15  C   UNL A   1      35.124  18.958  24.600  1.00  0.00     0.012 A 
ATOM     16  H   UNL A   1      31.058  20.696  24.978  1.00  0.00     0.167 HD
ATOM     17  C   UNL A   1      32.425  18.187  24.913  1.00  0.00     0.047 A 
ATOM     18  C   UNL A   1      34.775  17.608  24.638  1.00  0.00     0.021 A 
ATOM     19  C   UNL A   1      33.445  17.237  24.810  1.00  0.00     0.043 A 
ATOM     20  Cl  UNL A   1      33.042  15.564  24.873  1.00  0.00    -0.084 Cl
BRANCH  11  21
ATOM     21  C   UNL A   1      32.175  22.899  23.774  1.00  0.00     0.227 C 
ATOM     22  O   UNL A   1      31.112  22.762  23.173  1.00  0.00    -0.285 OA
BRANCH  21  23
ATOM     23  C   UNL A   1      32.719  24.295  23.894  1.00  0.00     0.113 A 
ATOM     24  C   UNL A   1      32.758  24.988  25.094  1.00  0.00     0.036 A 
ATOM     25  N   UNL A   1      33.161  24.831  22.723  1.00  0.00    -0.252 NA
ATOM     26  C   UNL A   1      33.192  26.324  25.082  1.00  0.00    -0.041 A 
ATOM     27  C   UNL A   1      33.580  26.110  22.733  1.00  0.00     0.115 A 
ATOM     28  C   UNL A   1      33.571  26.912  23.864  1.00  0.00    -0.026 A 
ATOM     29  C   UNL A   1      33.164  27.122  26.362  1.00  0.00     0.036 C 
ATOM     30  C   UNL A   1      33.969  28.358  23.763  1.00  0.00     0.037 C 
ATOM     31  C   UNL A   1      33.757  28.528  26.242  1.00  0.00     0.005 C 
ATOM     32  C   UNL A   1      33.385  29.175  24.912  1.00  0.00     0.005 C 
ENDBRANCH  21  23
ENDBRANCH  11  21
ENDBRANCH   9  10
ENDBRANCH   7   9
ENDBRANCH   6   7
ENDBRANCH   5   6
ENDBRANCH   4   5
ENDBRANCH   3   4
ENDBRANCH   2   3
ENDBRANCH   1   2
BRANCH   1  33
ATOM     33  O   UNL A   1      42.822  21.384  27.790  1.00  0.00    -0.377 OA
BRANCH  33  34
ATOM     34  C   UNL A   1      43.131  22.501  26.978  1.00  0.00     0.188 C 
BRANCH  34  35
ATOM     35  C   UNL A   1      44.408  23.335  27.237  1.00  0.00     0.188 C 
BRANCH  35  36
ATOM     36  O   UNL A   1      44.370  24.747  27.344  1.00  0.00    -0.376 OA
BRANCH  36  37
ATOM     37  C   UNL A   1      44.715  25.590  26.263  1.00  0.00     0.202 C 
BRANCH  37  38
ATOM     38  C   UNL A   1      43.728  25.811  25.109  1.00  0.00     0.261 C 
BRANCH  38  39
ATOM     39  O   UNL A   1      42.780  26.864  25.351  1.00  0.00    -0.460 OA
BRANCH  39  40
ATOM     40  C   UNL A   1      41.513  26.479  25.643  1.00  0.00     0.338 C 
ATOM     41  O   UNL A   1      40.924  25.507  25.200  1.00  0.00    -0.246 OA
BRANCH  40  42
ATOM     42  C   UNL A   1      41.014  27.279  26.792  1.00  0.00     0.060 A 
ATOM     43  C   UNL A   1      40.186  26.727  27.774  1.00  0.00     0.016 A 
ATOM     44  C   UNL A   1      41.324  28.647  26.828  1.00  0.00     0.016 A 
ATOM     45  C   UNL A   1      39.706  27.535  28.811  1.00  0.00     0.010 A 
ATOM     46  C   UNL A   1      40.828  29.459  27.852  1.00  0.00     0.010 A 
ATOM     47  C   UNL A   1      40.043  28.900  28.871  1.00  0.00    -0.014 A 
BRANCH  47  48
ATOM     48  C   UNL A   1      39.806  29.666  30.120  1.00  0.00     0.031 A 
ATOM     49  C   UNL A   1      38.682  30.641  30.284  1.00  0.00     0.074 A 
ATOM     50  C   UNL A   1      40.674  29.457  31.130  1.00  0.00     0.049 A 
ATOM     51  N   UNL A   1      38.337  31.308  31.357  1.00  0.00    -0.248 NA
ATOM     52  C   UNL A   1      37.837  30.910  29.112  1.00  0.00     0.031 C 
ATOM     53  C   UNL A   1      41.823  28.550  31.067  1.00  0.00     0.029 A 
ATOM     54  N   UNL A   1      40.733  29.985  32.394  1.00  0.00    -0.354 N 
ATOM     55  C   UNL A   1      37.222  32.055  31.005  1.00  0.00     0.074 A 
ATOM     56  C   UNL A   1      36.970  31.791  29.603  1.00  0.00     0.031 C 
ATOM     57  C   UNL A   1      42.468  28.578  32.241  1.00  0.00     0.029 A 
ATOM     58  C   UNL A   1      41.795  29.519  33.131  1.00  0.00     0.049 A 
ATOM     59  H   UNL A   1      40.078  30.633  32.741  1.00  0.00     0.167 HD
ATOM     60  C   UNL A   1      36.478  32.871  31.790  1.00  0.00     0.031 A 
ATOM     61  C   UNL A   1      42.193  29.811  34.383  1.00  0.00     0.031 A 
ATOM     62  C   UNL A   1      36.753  33.139  33.181  1.00  0.00     0.049 A 
ATOM     63  C   UNL A   1      41.371  30.752  35.213  1.00  0.00     0.074 A 
ATOM     64  C   UNL A   1      36.010  33.904  34.066  1.00  0.00     0.029 A 
ATOM     65  N   UNL A   1      37.852  32.673  33.884  1.00  0.00    -0.354 N 
ATOM     66  N   UNL A   1      40.261  31.369  34.893  1.00  0.00    -0.248 NA
ATOM     67  C   UNL A   1      41.842  31.026  36.577  1.00  0.00     0.031 C 
ATOM     68  C   UNL A   1      36.696  33.960  35.280  1.00  0.00     0.029 A 
ATOM     69  C   UNL A   1      37.829  33.172  35.176  1.00  0.00     0.049 A 
ATOM     70  H   UNL A   1      38.545  32.077  33.520  1.00  0.00     0.167 HD
ATOM     71  C   UNL A   1      39.891  32.091  36.019  1.00  0.00     0.074 A 
ATOM     72  C   UNL A   1      40.883  31.820  37.037  1.00  0.00     0.031 C 
ATOM     73  C   UNL A   1      38.824  32.908  36.185  1.00  0.00     0.031 A 
BRANCH  60  74
ATOM     74  C   UNL A   1      35.264  33.538  31.202  1.00  0.00    -0.014 A 
ATOM     75  C   UNL A   1      34.742  33.090  29.976  1.00  0.00     0.009 A 
ATOM     76  C   UNL A   1      34.761  34.722  31.760  1.00  0.00     0.009 A 
ATOM     77  C   UNL A   1      33.765  33.830  29.308  1.00  0.00     0.001 A 
ATOM     78  C   UNL A   1      33.767  35.450  31.100  1.00  0.00     0.001 A 
ATOM     79  C   UNL A   1      33.281  35.010  29.869  1.00  0.00     0.000 A 
ENDBRANCH  60  74
BRANCH  61  80
ATOM     80  C   UNL A   1      43.429  29.181  34.915  1.00  0.00    -0.014 A 
ATOM     81  C   UNL A   1      43.350  28.008  35.684  1.00  0.00     0.009 A 
ATOM     82  C   UNL A   1      44.682  29.777  34.712  1.00  0.00     0.009 A 
ATOM     83  C   UNL A   1      44.496  27.454  36.255  1.00  0.00     0.001 A 
ATOM     84  C   UNL A   1      45.832  29.202  35.258  1.00  0.00     0.001 A 
ATOM     85  C   UNL A   1      45.737  28.048  36.037  1.00  0.00     0.000 A 
ENDBRANCH  61  80
BRANCH  73  86
ATOM     86  C   UNL A   1      38.659  33.590  37.514  1.00  0.00    -0.014 A 
ATOM     87  C   UNL A   1      39.413  34.738  37.811  1.00  0.00     0.009 A 
ATOM     88  C   UNL A   1      37.849  33.031  38.513  1.00  0.00     0.009 A 
ATOM     89  C   UNL A   1      39.376  35.298  39.088  1.00  0.00     0.001 A 
ATOM     90  C   UNL A   1      37.792  33.611  39.782  1.00  0.00     0.001 A 
ATOM     91  C   UNL A   1      38.564  34.735  40.072  1.00  0.00     0.000 A 
ENDBRANCH  73  86
ENDBRANCH  47  48
ENDBRANCH  40  42
ENDBRANCH  39  40
ENDBRANCH  38  39
ENDBRANCH  37  38
ENDBRANCH  36  37
ENDBRANCH  35  36
ENDBRANCH  34  35
ENDBRANCH  33  34
ENDBRANCH   1  33
TORSDOF 23
ENDMDL
MODEL 2
REMARK VINA RESULT:     -10.5      1.812      4.201
REMARK SMILES O=C(Cc1c(C(=O)c2cc3c(cn2)CCCC3)[nH]c2cc(Cl)ccc12)OCCOCCOCCOCCOC(=O)c1ccc(-c2c3nc(c(-c4ccccc4)c4ccc([nH]4)c(-c4ccccc4)c4nc(c(-c5ccccc5)c5ccc2[nH]5)C=C4)C=C3)cc1
REMARK SMILES IDX 31 1 30 2 29 3 28 4 27 5 26 6 2 7 1 8 3 9 4 10 5 11 25 12
REMARK SMILES IDX 18 13 19 14 24 15 20 17 23 18 21 19 22 20 6 21 7 22 8 23
REMARK SMILES IDX 9 24 13 25 10 26 12 27 11 28 17 29 14 30 16 31 15 32 32 33
REMARK SMILES IDX 33 34 34 35 35 36 36 37 37 38 38 39 39 40 40 41 41 42 42 43
REMARK SMILES IDX 88 44 43 45 87 46 44 47 45 48 46 49 81 50 47 51 86 52 80 53
REMARK SMILES IDX 82 54 48 55 85 56 79 57 78 58 49 60 71 61 56 62 70 63 57 64
REMARK SMILES IDX 60 65 69 66 83 67 58 68 59 69 68 71 84 72 61 73 50 74 51 75
REMARK SMILES IDX 55 76 52 77 54 78 53 79 72 80 73 81 77 82 74 83 76 84 75 85
REMARK SMILES IDX 62 86 63 87 67 88 64 89 66 90 65 91
REMARK H PARENT 18 16 82 59 60 70
REMARK Flexibility Score: inf
ROOT
ATOM      1  C   UNL A   1      41.365  20.312  27.070  1.00  0.00     0.188 C 
ENDROOT
BRANCH   1   2
ATOM      2  C   UNL A   1      40.495  21.090  26.088  1.00  0.00     0.188 C 
BRANCH   2   3
ATOM      3  O   UNL A   1      39.299  21.604  26.638  1.00  0.00    -0.376 OA
BRANCH   3   4
ATOM      4  C   UNL A   1      38.266  22.091  25.785  1.00  0.00     0.202 C 
BRANCH   4   5
ATOM      5  C   UNL A   1      37.779  23.554  25.798  1.00  0.00     0.261 C 
BRANCH   5   6
ATOM      6  O   UNL A   1      36.852  23.940  24.781  1.00  0.00    -0.463 OA
BRANCH   6   7
ATOM      7  C   UNL A   1      35.533  23.943  25.073  1.00  0.00     0.310 C 
ATOM      8  O   UNL A   1      35.142  23.693  26.211  1.00  0.00    -0.252 OA
BRANCH   7   9
ATOM      9  C   UNL A   1      34.596  24.072  23.906  1.00  0.00     0.161 C 
BRANCH   9  10
ATOM     10  C   UNL A   1      33.191  24.515  24.210  1.00  0.00     0.000 A 
ATOM     11  C   UNL A   1      32.009  23.857  24.587  1.00  0.00     0.093 A 
ATOM     12  C   UNL A   1      32.914  25.916  24.358  1.00  0.00     0.004 A 
ATOM     13  N   UNL A   1      31.007  24.808  24.534  1.00  0.00    -0.351 N 
ATOM     14  C   UNL A   1      31.546  26.068  24.518  1.00  0.00     0.048 A 
ATOM     15  C   UNL A   1      33.739  27.062  24.411  1.00  0.00     0.012 A 
ATOM     16  H   UNL A   1      30.042  24.609  24.511  1.00  0.00     0.167 HD
ATOM     17  C   UNL A   1      30.939  27.317  24.675  1.00  0.00     0.047 A 
ATOM     18  C   UNL A   1      33.160  28.314  24.615  1.00  0.00     0.021 A 
ATOM     19  C   UNL A   1      31.779  28.434  24.727  1.00  0.00     0.043 A 
ATOM     20  Cl  UNL A   1      31.087  29.993  24.959  1.00  0.00    -0.084 Cl
BRANCH  11  21
ATOM     21  C   UNL A   1      31.738  22.558  25.198  1.00  0.00     0.227 C 
ATOM     22  O   UNL A   1      30.754  22.403  25.917  1.00  0.00    -0.285 OA
BRANCH  21  23
ATOM     23  C   UNL A   1      32.551  21.336  24.877  1.00  0.00     0.113 A 
ATOM     24  C   UNL A   1      32.177  20.413  23.912  1.00  0.00     0.036 A 
ATOM     25  N   UNL A   1      33.683  21.200  25.621  1.00  0.00    -0.252 NA
ATOM     26  C   UNL A   1      32.953  19.253  23.757  1.00  0.00    -0.041 A 
ATOM     27  C   UNL A   1      34.419  20.085  25.453  1.00  0.00     0.115 A 
ATOM     28  C   UNL A   1      34.077  19.065  24.579  1.00  0.00    -0.026 A 
ATOM     29  C   UNL A   1      32.518  18.197  22.771  1.00  0.00     0.036 C 
ATOM     30  C   UNL A   1      34.907  17.812  24.525  1.00  0.00     0.037 C 
ATOM     31  C   UNL A   1      33.499  17.033  22.619  1.00  0.00     0.005 C 
ATOM     32  C   UNL A   1      34.106  16.641  23.962  1.00  0.00     0.005 C 
ENDBRANCH  21  23
ENDBRANCH  11  21
ENDBRANCH   9  10
ENDBRANCH   7   9
ENDBRANCH   6   7
ENDBRANCH   5   6
ENDBRANCH   4   5
ENDBRANCH   3   4
ENDBRANCH   2   3
ENDBRANCH   1   2
BRANCH   1  33
ATOM     33  O   UNL A   1      42.466  21.076  27.523  1.00  0.00    -0.377 OA
BRANCH  33  34
ATOM     34  C   UNL A   1      42.757  22.253  26.796  1.00  0.00     0.188 C 
BRANCH  34  35
ATOM     35  C   UNL A   1      43.942  23.160  27.205  1.00  0.00     0.188 C 
BRANCH  35  36
ATOM     36  O   UNL A   1      43.787  24.556  27.392  1.00  0.00    -0.376 OA
BRANCH  36  37
ATOM     37  C   UNL A   1      44.145  25.489  26.393  1.00  0.00     0.202 C 
BRANCH  37  38
ATOM     38  C   UNL A   1      43.338  25.577  25.090  1.00  0.00     0.261 C 
BRANCH  38  39
ATOM     39  O   UNL A   1      42.211  26.464  25.166  1.00  0.00    -0.460 OA
BRANCH  39  40
ATOM     40  C   UNL A   1      41.101  25.979  25.777  1.00  0.00     0.338 C 
ATOM     41  O   UNL A   1      40.594  24.882  25.607  1.00  0.00    -0.246 OA
BRANCH  40  42
ATOM     42  C   UNL A   1      40.721  26.888  26.890  1.00  0.00     0.060 A 
ATOM     43  C   UNL A   1      39.813  26.505  27.882  1.00  0.00     0.016 A 
ATOM     44  C   UNL A   1      41.234  28.194  26.879  1.00  0.00     0.016 A 
ATOM     45  C   UNL A   1      39.455  27.414  28.882  1.00  0.00     0.010 A 
ATOM     46  C   UNL A   1      40.859  29.109  27.868  1.00  0.00     0.010 A 
ATOM     47  C   UNL A   1      39.993  28.714  28.896  1.00  0.00    -0.014 A 
BRANCH  47  48
ATOM     48  C   UNL A   1      39.866  29.554  30.114  1.00  0.00     0.031 A 
ATOM     49  C   UNL A   1      38.842  30.636  30.261  1.00  0.00     0.074 A 
ATOM     50  C   UNL A   1      40.742  29.310  31.109  1.00  0.00     0.049 A 
ATOM     51  N   UNL A   1      38.593  31.380  31.310  1.00  0.00    -0.248 NA
ATOM     52  C   UNL A   1      37.990  30.930  29.100  1.00  0.00     0.031 C 
ATOM     53  C   UNL A   1      41.800  28.297  31.058  1.00  0.00     0.029 A 
ATOM     54  N   UNL A   1      40.889  29.885  32.345  1.00  0.00    -0.354 N 
ATOM     55  C   UNL A   1      37.542  32.212  30.953  1.00  0.00     0.074 A 
ATOM     56  C   UNL A   1      37.223  31.910  29.572  1.00  0.00     0.031 C 
ATOM     57  C   UNL A   1      42.481  28.318  32.212  1.00  0.00     0.029 A 
ATOM     58  C   UNL A   1      41.925  29.356  33.074  1.00  0.00     0.049 A 
ATOM     59  H   UNL A   1      40.307  30.607  32.678  1.00  0.00     0.167 HD
ATOM     60  C   UNL A   1      36.901  33.128  31.718  1.00  0.00     0.031 A 
ATOM     61  C   UNL A   1      42.387  29.665  34.300  1.00  0.00     0.031 A 
ATOM     62  C   UNL A   1      37.243  33.431  33.087  1.00  0.00     0.049 A 
ATOM     63  C   UNL A   1      41.681  30.715  35.106  1.00  0.00     0.074 A 
ATOM     64  C   UNL A   1      36.601  34.301  33.954  1.00  0.00     0.029 A 
ATOM     65  N   UNL A   1      38.315  32.895  33.782  1.00  0.00    -0.354 N 
ATOM     66  N   UNL A   1      40.623  31.418  34.787  1.00  0.00    -0.248 NA
ATOM     67  C   UNL A   1      42.217  31.004  36.443  1.00  0.00     0.031 C 
ATOM     68  C   UNL A   1      37.326  34.346  35.146  1.00  0.00     0.029 A 
ATOM     69  C   UNL A   1      38.378  33.451  35.049  1.00  0.00     0.049 A 
ATOM     70  H   UNL A   1      38.938  32.221  33.428  1.00  0.00     0.167 HD
ATOM     71  C   UNL A   1      40.357  32.222  35.887  1.00  0.00     0.074 A 
ATOM     72  C   UNL A   1      41.351  31.904  36.890  1.00  0.00     0.031 C 
ATOM     73  C   UNL A   1      39.375  33.141  36.042  1.00  0.00     0.031 A 
BRANCH  60  74
ATOM     74  C   UNL A   1      35.737  33.878  31.132  1.00  0.00    -0.014 A 
ATOM     75  C   UNL A   1      35.000  34.767  31.933  1.00  0.00     0.009 A 
ATOM     76  C   UNL A   1      35.254  33.560  29.853  1.00  0.00     0.009 A 
ATOM     77  C   UNL A   1      33.791  35.297  31.478  1.00  0.00     0.001 A 
ATOM     78  C   UNL A   1      34.055  34.109  29.392  1.00  0.00     0.001 A 
ATOM     79  C   UNL A   1      33.318  34.965  30.211  1.00  0.00     0.000 A 
ENDBRANCH  60  74
BRANCH  61  80
ATOM     80  C   UNL A   1      43.575  28.947  34.828  1.00  0.00    -0.014 A 
ATOM     81  C   UNL A   1      44.868  29.438  34.577  1.00  0.00     0.009 A 
ATOM     82  C   UNL A   1      43.432  27.741  35.527  1.00  0.00     0.009 A 
ATOM     83  C   UNL A   1      45.992  28.728  34.998  1.00  0.00     0.001 A 
ATOM     84  C   UNL A   1      44.559  27.048  35.977  1.00  0.00     0.001 A 
ATOM     85  C   UNL A   1      45.837  27.536  35.703  1.00  0.00     0.000 A 
ENDBRANCH  61  80
BRANCH  73  86
ATOM     86  C   UNL A   1      39.315  33.894  37.341  1.00  0.00    -0.014 A 
ATOM     87  C   UNL A   1      38.622  33.350  38.436  1.00  0.00     0.009 A 
ATOM     88  C   UNL A   1      39.840  35.191  37.446  1.00  0.00     0.009 A 
ATOM     89  C   UNL A   1      38.437  34.097  39.599  1.00  0.00     0.001 A 
ATOM     90  C   UNL A   1      39.679  35.926  38.622  1.00  0.00     0.001 A 
ATOM     91  C   UNL A   1      38.967  35.384  39.692  1.00  0.00     0.000 A 
ENDBRANCH  73  86
ENDBRANCH  47  48
ENDBRANCH  40  42
ENDBRANCH  39  40
ENDBRANCH  38  39
ENDBRANCH  37  38
ENDBRANCH  36  37
ENDBRANCH  35  36
ENDBRANCH  34  35
ENDBRANCH  33  34
ENDBRANCH   1  33
TORSDOF 23
ENDMDL
MODEL 3
REMARK VINA RESULT:     -10.1      6.526     11.516
REMARK SMILES O=C(Cc1c(C(=O)c2cc3c(cn2)CCCC3)[nH]c2cc(Cl)ccc12)OCCOCCOCCOCCOC(=O)c1ccc(-c2c3nc(c(-c4ccccc4)c4ccc([nH]4)c(-c4ccccc4)c4nc(c(-c5ccccc5)c5ccc2[nH]5)C=C4)C=C3)cc1
REMARK SMILES IDX 31 1 30 2 29 3 28 4 27 5 26 6 2 7 1 8 3 9 4 10 5 11 25 12
REMARK SMILES IDX 18 13 19 14 24 15 20 17 23 18 21 19 22 20 6 21 7 22 8 23
REMARK SMILES IDX 9 24 13 25 10 26 12 27 11 28 17 29 14 30 16 31 15 32 32 33
REMARK SMILES IDX 33 34 34 35 35 36 36 37 37 38 38 39 39 40 40 41 41 42 42 43
REMARK SMILES IDX 88 44 43 45 87 46 44 47 45 48 46 49 81 50 47 51 86 52 80 53
REMARK SMILES IDX 82 54 48 55 85 56 79 57 78 58 49 60 71 61 56 62 70 63 57 64
REMARK SMILES IDX 60 65 69 66 83 67 58 68 59 69 68 71 84 72 61 73 50 74 51 75
REMARK SMILES IDX 55 76 52 77 54 78 53 79 72 80 73 81 77 82 74 83 76 84 75 85
REMARK SMILES IDX 62 86 63 87 67 88 64 89 66 90 65 91
REMARK H PARENT 18 16 82 59 60 70
REMARK Flexibility Score: inf
ROOT
ATOM      1  C   UNL A   1      35.297  21.832  26.277  1.00  0.00     0.188 C 
ENDROOT
BRANCH   1   2
ATOM      2  C   UNL A   1      34.070  22.094  25.411  1.00  0.00     0.188 C 
BRANCH   2   3
ATOM      3  O   UNL A   1      32.860  21.587  25.934  1.00  0.00    -0.376 OA
BRANCH   3   4
ATOM      4  C   UNL A   1      31.618  22.207  25.608  1.00  0.00     0.202 C 
BRANCH   4   5
ATOM      5  C   UNL A   1      30.747  22.950  26.640  1.00  0.00     0.261 C 
BRANCH   5   6
ATOM      6  O   UNL A   1      31.275  24.161  27.187  1.00  0.00    -0.463 OA
BRANCH   6   7
ATOM      7  C   UNL A   1      30.810  25.341  26.721  1.00  0.00     0.310 C 
ATOM      8  O   UNL A   1      29.654  25.444  26.318  1.00  0.00    -0.252 OA
BRANCH   7   9
ATOM      9  C   UNL A   1      31.827  26.432  26.548  1.00  0.00     0.161 C 
BRANCH   9  10
ATOM     10  C   UNL A   1      31.769  27.216  25.266  1.00  0.00     0.000 A 
ATOM     11  C   UNL A   1      31.684  28.581  24.947  1.00  0.00     0.093 A 
ATOM     12  C   UNL A   1      32.036  26.547  24.023  1.00  0.00     0.004 A 
ATOM     13  N   UNL A   1      31.483  28.644  23.580  1.00  0.00    -0.351 N 
ATOM     14  C   UNL A   1      31.810  27.449  22.995  1.00  0.00     0.048 A 
ATOM     15  C   UNL A   1      32.496  25.250  23.705  1.00  0.00     0.012 A 
ATOM     16  H   UNL A   1      31.150  29.435  23.096  1.00  0.00     0.167 HD
ATOM     17  C   UNL A   1      31.966  27.111  21.648  1.00  0.00     0.047 A 
ATOM     18  C   UNL A   1      32.705  24.905  22.370  1.00  0.00     0.021 A 
ATOM     19  C   UNL A   1      32.425  25.822  21.361  1.00  0.00     0.043 A 
ATOM     20  Cl  UNL A   1      32.673  25.365  19.720  1.00  0.00    -0.084 Cl
BRANCH  11  21
ATOM     21  C   UNL A   1      31.991  29.803  25.687  1.00  0.00     0.227 C 
ATOM     22  O   UNL A   1      31.173  30.718  25.742  1.00  0.00    -0.285 OA
BRANCH  21  23
ATOM     23  C   UNL A   1      33.237  29.946  26.514  1.00  0.00     0.113 A 
ATOM     24  C   UNL A   1      33.446  31.005  27.386  1.00  0.00     0.036 A 
ATOM     25  N   UNL A   1      34.155  28.958  26.329  1.00  0.00    -0.252 NA
ATOM     26  C   UNL A   1      34.686  31.101  28.037  1.00  0.00    -0.041 A 
ATOM     27  C   UNL A   1      35.335  29.064  26.968  1.00  0.00     0.115 A 
ATOM     28  C   UNL A   1      35.670  30.131  27.788  1.00  0.00    -0.026 A 
ATOM     29  C   UNL A   1      34.964  32.289  28.926  1.00  0.00     0.036 C 
ATOM     30  C   UNL A   1      37.046  30.214  28.387  1.00  0.00     0.037 C 
ATOM     31  C   UNL A   1      36.306  32.227  29.659  1.00  0.00     0.005 C 
ATOM     32  C   UNL A   1      37.399  31.650  28.768  1.00  0.00     0.005 C 
ENDBRANCH  21  23
ENDBRANCH  11  21
ENDBRANCH   9  10
ENDBRANCH   7   9
ENDBRANCH   6   7
ENDBRANCH   5   6
ENDBRANCH   4   5
ENDBRANCH   3   4
ENDBRANCH   2   3
ENDBRANCH   1   2
BRANCH   1  33
ATOM     33  O   UNL A   1      36.380  21.325  25.521  1.00  0.00    -0.377 OA
BRANCH  33  34
ATOM     34  C   UNL A   1      37.548  22.122  25.480  1.00  0.00     0.188 C 
BRANCH  34  35
ATOM     35  C   UNL A   1      37.507  23.602  25.929  1.00  0.00     0.188 C 
BRANCH  35  36
ATOM     36  O   UNL A   1      38.684  24.385  26.033  1.00  0.00    -0.376 OA
BRANCH  36  37
ATOM     37  C   UNL A   1      39.189  24.815  27.281  1.00  0.00     0.202 C 
BRANCH  37  38
ATOM     38  C   UNL A   1      40.485  25.633  27.352  1.00  0.00     0.261 C 
BRANCH  38  39
ATOM     39  O   UNL A   1      41.608  24.897  27.865  1.00  0.00    -0.460 OA
BRANCH  39  40
ATOM     40  C   UNL A   1      42.483  24.416  26.947  1.00  0.00     0.338 C 
ATOM     41  O   UNL A   1      42.317  23.455  26.213  1.00  0.00    -0.246 OA
BRANCH  40  42
ATOM     42  C   UNL A   1      43.595  25.387  26.778  1.00  0.00     0.060 A 
ATOM     43  C   UNL A   1      44.054  25.774  25.515  1.00  0.00     0.016 A 
ATOM     44  C   UNL A   1      44.245  25.852  27.931  1.00  0.00     0.016 A 
ATOM     45  C   UNL A   1      45.134  26.658  25.411  1.00  0.00     0.010 A 
ATOM     46  C   UNL A   1      45.338  26.719  27.826  1.00  0.00     0.010 A 
ATOM     47  C   UNL A   1      45.768  27.155  26.565  1.00  0.00    -0.014 A 
BRANCH  47  48
ATOM     48  C   UNL A   1      46.683  28.318  26.462  1.00  0.00     0.031 A 
ATOM     49  C   UNL A   1      48.166  28.185  26.306  1.00  0.00     0.074 A 
ATOM     50  C   UNL A   1      46.117  29.540  26.532  1.00  0.00     0.049 A 
ATOM     51  N   UNL A   1      49.052  29.134  26.131  1.00  0.00    -0.248 NA
ATOM     52  C   UNL A   1      48.736  26.831  26.352  1.00  0.00     0.031 C 
ATOM     53  C   UNL A   1      44.684  29.785  26.711  1.00  0.00     0.029 A 
ATOM     54  N   UNL A   1      46.664  30.795  26.461  1.00  0.00    -0.354 N 
ATOM     55  C   UNL A   1      50.280  28.498  26.019  1.00  0.00     0.074 A 
ATOM     56  C   UNL A   1      50.032  27.080  26.185  1.00  0.00     0.031 C 
ATOM     57  C   UNL A   1      44.464  31.107  26.731  1.00  0.00     0.029 A 
ATOM     58  C   UNL A   1      45.739  31.802  26.586  1.00  0.00     0.049 A 
ATOM     59  H   UNL A   1      47.627  30.959  26.332  1.00  0.00     0.167 HD
ATOM     60  C   UNL A   1      51.493  29.054  25.783  1.00  0.00     0.031 A 
ATOM     61  C   UNL A   1      45.889  33.140  26.588  1.00  0.00     0.031 A 
ATOM     62  C   UNL A   1      51.727  30.471  25.638  1.00  0.00     0.049 A 
ATOM     63  C   UNL A   1      47.252  33.725  26.368  1.00  0.00     0.074 A 
ATOM     64  C   UNL A   1      52.917  31.113  25.334  1.00  0.00     0.029 A 
ATOM     65  N   UNL A   1      50.771  31.461  25.799  1.00  0.00    -0.354 N 
ATOM     66  N   UNL A   1      48.385  33.104  26.160  1.00  0.00    -0.248 NA
ATOM     67  C   UNL A   1      47.357  35.191  26.365  1.00  0.00     0.031 C 
ATOM     68  C   UNL A   1      52.697  32.490  25.383  1.00  0.00     0.029 A 
ATOM     69  C   UNL A   1      51.356  32.708  25.646  1.00  0.00     0.049 A 
ATOM     70  H   UNL A   1      49.820  31.302  25.994  1.00  0.00     0.167 HD
ATOM     71  C   UNL A   1      49.337  34.099  25.987  1.00  0.00     0.074 A 
ATOM     72  C   UNL A   1      48.644  35.366  26.092  1.00  0.00     0.031 C 
ATOM     73  C   UNL A   1      50.666  33.967  25.763  1.00  0.00     0.031 A 
BRANCH  60  74
ATOM     74  C   UNL A   1      52.689  28.155  25.637  1.00  0.00    -0.014 A 
ATOM     75  C   UNL A   1      52.968  27.553  24.397  1.00  0.00     0.009 A 
ATOM     76  C   UNL A   1      53.421  27.753  26.764  1.00  0.00     0.009 A 
ATOM     77  C   UNL A   1      53.932  26.548  24.296  1.00  0.00     0.001 A 
ATOM     78  C   UNL A   1      54.400  26.761  26.656  1.00  0.00     0.001 A 
ATOM     79  C   UNL A   1      54.644  26.151  25.425  1.00  0.00     0.000 A 
ENDBRANCH  60  74
BRANCH  61  80
ATOM     80  C   UNL A   1      44.695  34.001  26.794  1.00  0.00    -0.014 A 
ATOM     81  C   UNL A   1      44.278  34.332  28.095  1.00  0.00     0.009 A 
ATOM     82  C   UNL A   1      43.934  34.444  25.704  1.00  0.00     0.009 A 
ATOM     83  C   UNL A   1      43.113  35.071  28.300  1.00  0.00     0.001 A 
ATOM     84  C   UNL A   1      42.786  35.213  25.911  1.00  0.00     0.001 A 
ATOM     85  C   UNL A   1      42.371  35.516  27.208  1.00  0.00     0.000 A 
ENDBRANCH  61  80
BRANCH  73  86
ATOM     86  C   UNL A   1      51.485  35.220  25.624  1.00  0.00    -0.014 A 
ATOM     87  C   UNL A   1      51.683  35.790  24.355  1.00  0.00     0.009 A 
ATOM     88  C   UNL A   1      52.155  35.766  26.728  1.00  0.00     0.009 A 
ATOM     89  C   UNL A   1      52.555  36.867  24.192  1.00  0.00     0.001 A 
ATOM     90  C   UNL A   1      53.004  36.864  26.566  1.00  0.00     0.001 A 
ATOM     91  C   UNL A   1      53.212  37.405  25.298  1.00  0.00     0.000 A 
ENDBRANCH  73  86
ENDBRANCH  47  48
ENDBRANCH  40  42
ENDBRANCH  39  40
ENDBRANCH  38  39
ENDBRANCH  37  38
ENDBRANCH  36  37
ENDBRANCH  35  36
ENDBRANCH  34  35
ENDBRANCH  33  34
ENDBRANCH   1  33
TORSDOF 23
ENDMDL
