MODEL 1
REMARK VINA RESULT:     -10.1      0.000      0.000
REMARK SMILES Cc1ccc(C(F)(F)F)cc1/C=C/C(=O)OCCOCCOCCOCCOC(=O)c1ccc(-c2c3nc(c(-c4ccccc4)c4ccc([nH]4)c(-c4ccccc4)c4nc(c(-c5ccccc5)c5ccc2[nH]5)C=C4)C=C3)cc1
REMARK SMILES IDX 22 1 21 2 20 3 19 4 18 5 17 6 16 7 14 8 15 9 13 10 12 11
REMARK SMILES IDX 11 12 1 13 2 14 3 15 4 16 10 17 5 18 6 19 7 20 8 21 9 22
REMARK SMILES IDX 23 23 24 24 25 25 26 26 27 27 28 28 29 29 30 30 31 31 32 32
REMARK SMILES IDX 78 33 33 34 77 35 34 36 35 37 36 38 71 39 37 40 76 41 70 42
REMARK SMILES IDX 72 43 38 44 75 45 69 46 68 47 39 49 61 50 46 51 60 52 47 53
REMARK SMILES IDX 50 54 59 55 73 56 48 57 49 58 58 60 74 61 51 62 40 63 41 64
REMARK SMILES IDX 45 65 42 66 44 67 43 68 62 69 63 70 67 71 64 72 66 73 65 74
REMARK SMILES IDX 52 75 53 76 57 77 54 78 56 79 55 80
REMARK H PARENT 72 48 50 59
REMARK Flexibility Score: inf
ROOT
ATOM      1  O   UNL A   1      38.922  21.316  26.170  1.00  0.00    -0.377 OA
ENDROOT
BRANCH   1   2
ATOM      2  C   UNL A   1      38.045  21.294  25.049  1.00  0.00     0.188 C 
BRANCH   2   3
ATOM      3  C   UNL A   1      36.553  21.023  25.287  1.00  0.00     0.188 C 
BRANCH   3   4
ATOM      4  O   UNL A   1      35.618  22.047  24.969  1.00  0.00    -0.376 OA
BRANCH   4   5
ATOM      5  C   UNL A   1      34.370  22.006  25.655  1.00  0.00     0.202 C 
BRANCH   5   6
ATOM      6  C   UNL A   1      33.991  23.213  26.505  1.00  0.00     0.261 C 
BRANCH   6   7
ATOM      7  O   UNL A   1      32.788  22.923  27.222  1.00  0.00    -0.460 OA
BRANCH   7   8
ATOM      8  C   UNL A   1      31.728  23.691  26.931  1.00  0.00     0.330 C 
ATOM      9  O   UNL A   1      30.572  23.512  27.272  1.00  0.00    -0.247 OA
BRANCH   8  10
ATOM     10  C   UNL A   1      32.170  24.964  26.341  1.00  0.00     0.094 C 
ATOM     11  C   UNL A   1      32.132  26.166  26.952  1.00  0.00     0.016 C 
BRANCH  11  12
ATOM     12  C   UNL A   1      32.015  27.343  26.083  1.00  0.00    -0.022 A 
ATOM     13  C   UNL A   1      33.982  28.639  27.067  1.00  0.00     0.045 C 
ATOM     14  C   UNL A   1      32.909  28.417  26.037  1.00  0.00    -0.044 A 
ATOM     15  C   UNL A   1      32.821  29.302  24.947  1.00  0.00     0.004 A 
ATOM     16  C   UNL A   1      31.835  29.150  23.960  1.00  0.00     0.013 A 
ATOM     17  C   UNL A   1      30.928  27.317  25.190  1.00  0.00     0.021 A 
ATOM     18  C   UNL A   1      30.861  28.159  24.085  1.00  0.00     0.056 A 
BRANCH  18  19
ATOM     19  C   UNL A   1      29.818  27.902  23.031  1.00  0.00     0.416 C 
ATOM     20  F   UNL A   1      28.987  28.959  22.832  1.00  0.00    -0.166 F 
ATOM     21  F   UNL A   1      30.370  27.617  21.820  1.00  0.00    -0.166 F 
ATOM     22  F   UNL A   1      29.008  26.841  23.319  1.00  0.00    -0.166 F 
ENDBRANCH  18  19
ENDBRANCH  11  12
ENDBRANCH   8  10
ENDBRANCH   7   8
ENDBRANCH   6   7
ENDBRANCH   5   6
ENDBRANCH   4   5
ENDBRANCH   3   4
ENDBRANCH   2   3
ENDBRANCH   1   2
BRANCH   1  23
ATOM     23  C   UNL A   1      39.839  20.236  26.322  1.00  0.00     0.188 C 
BRANCH  23  24
ATOM     24  C   UNL A   1      41.309  20.524  26.034  1.00  0.00     0.188 C 
BRANCH  24  25
ATOM     25  O   UNL A   1      42.101  19.447  26.533  1.00  0.00    -0.376 OA
BRANCH  25  26
ATOM     26  C   UNL A   1      42.780  18.670  25.549  1.00  0.00     0.202 C 
BRANCH  26  27
ATOM     27  C   UNL A   1      44.305  18.836  25.550  1.00  0.00     0.261 C 
BRANCH  27  28
ATOM     28  O   UNL A   1      44.688  19.847  24.596  1.00  0.00    -0.460 OA
BRANCH  28  29
ATOM     29  C   UNL A   1      45.349  20.915  25.118  1.00  0.00     0.338 C 
ATOM     30  O   UNL A   1      46.499  20.909  25.522  1.00  0.00    -0.246 OA
BRANCH  29  31
ATOM     31  C   UNL A   1      44.378  22.012  25.399  1.00  0.00     0.060 A 
ATOM     32  C   UNL A   1      44.066  22.941  24.393  1.00  0.00     0.016 A 
ATOM     33  C   UNL A   1      44.094  22.311  26.724  1.00  0.00     0.016 A 
ATOM     34  C   UNL A   1      43.661  24.239  24.739  1.00  0.00     0.010 A 
ATOM     35  C   UNL A   1      43.824  23.619  27.055  1.00  0.00     0.010 A 
ATOM     36  C   UNL A   1      43.654  24.612  26.081  1.00  0.00    -0.014 A 
BRANCH  36  37
ATOM     37  C   UNL A   1      43.644  25.995  26.591  1.00  0.00     0.031 A 
ATOM     38  C   UNL A   1      42.333  26.713  26.710  1.00  0.00     0.074 A 
ATOM     39  C   UNL A   1      44.723  26.412  27.308  1.00  0.00     0.049 A 
ATOM     40  N   UNL A   1      42.180  27.886  27.220  1.00  0.00    -0.248 NA
ATOM     41  C   UNL A   1      41.046  26.142  26.303  1.00  0.00     0.031 C 
ATOM     42  C   UNL A   1      44.765  27.456  28.333  1.00  0.00     0.029 A 
ATOM     43  N   UNL A   1      46.044  25.976  27.301  1.00  0.00    -0.354 N 
ATOM     44  C   UNL A   1      40.850  28.054  27.549  1.00  0.00     0.074 A 
ATOM     45  C   UNL A   1      40.171  26.982  26.869  1.00  0.00     0.031 C 
ATOM     46  C   UNL A   1      46.022  27.678  28.747  1.00  0.00     0.029 A 
ATOM     47  C   UNL A   1      46.862  27.004  27.791  1.00  0.00     0.049 A 
ATOM     48  H   UNL A   1      46.354  25.090  27.002  1.00  0.00     0.167 HD
ATOM     49  C   UNL A   1      40.512  28.999  28.479  1.00  0.00     0.031 A 
ATOM     50  C   UNL A   1      47.742  27.674  26.987  1.00  0.00     0.031 A 
ATOM     51  C   UNL A   1      41.671  29.840  28.843  1.00  0.00     0.049 A 
ATOM     52  C   UNL A   1      47.219  29.098  26.775  1.00  0.00     0.074 A 
ATOM     53  C   UNL A   1      42.294  30.181  30.031  1.00  0.00     0.029 A 
ATOM     54  N   UNL A   1      42.509  30.312  27.831  1.00  0.00    -0.354 N 
ATOM     55  N   UNL A   1      45.940  29.410  26.808  1.00  0.00    -0.248 NA
ATOM     56  C   UNL A   1      48.066  30.291  26.758  1.00  0.00     0.031 C 
ATOM     57  C   UNL A   1      43.592  30.689  29.714  1.00  0.00     0.029 A 
ATOM     58  C   UNL A   1      43.719  30.743  28.331  1.00  0.00     0.049 A 
ATOM     59  H   UNL A   1      42.267  30.334  26.877  1.00  0.00     0.167 HD
ATOM     60  C   UNL A   1      45.804  30.756  27.022  1.00  0.00     0.074 A 
ATOM     61  C   UNL A   1      47.156  31.276  26.889  1.00  0.00     0.031 C 
ATOM     62  C   UNL A   1      44.675  31.401  27.449  1.00  0.00     0.031 A 
BRANCH  49  63
ATOM     63  C   UNL A   1      39.187  29.062  29.233  1.00  0.00    -0.014 A 
ATOM     64  C   UNL A   1      38.050  29.604  28.598  1.00  0.00     0.009 A 
ATOM     65  C   UNL A   1      38.999  28.699  30.582  1.00  0.00     0.009 A 
ATOM     66  C   UNL A   1      36.821  29.781  29.259  1.00  0.00     0.001 A 
ATOM     67  C   UNL A   1      37.762  28.838  31.241  1.00  0.00     0.001 A 
ATOM     68  C   UNL A   1      36.673  29.388  30.580  1.00  0.00     0.000 A 
ENDBRANCH  49  63
BRANCH  50  69
ATOM     69  C   UNL A   1      48.479  26.720  26.098  1.00  0.00    -0.014 A 
ATOM     70  C   UNL A   1      48.098  26.802  24.734  1.00  0.00     0.009 A 
ATOM     71  C   UNL A   1      49.805  26.351  26.381  1.00  0.00     0.009 A 
ATOM     72  C   UNL A   1      49.058  26.808  23.714  1.00  0.00     0.001 A 
ATOM     73  C   UNL A   1      50.759  26.321  25.343  1.00  0.00     0.001 A 
ATOM     74  C   UNL A   1      50.398  26.625  24.029  1.00  0.00     0.000 A 
ENDBRANCH  50  69
BRANCH  62  75
ATOM     75  C   UNL A   1      44.320  32.800  27.005  1.00  0.00    -0.014 A 
ATOM     76  C   UNL A   1      44.136  33.140  25.662  1.00  0.00     0.009 A 
ATOM     77  C   UNL A   1      43.896  33.745  27.971  1.00  0.00     0.009 A 
ATOM     78  C   UNL A   1      43.571  34.366  25.300  1.00  0.00     0.001 A 
ATOM     79  C   UNL A   1      43.284  34.946  27.614  1.00  0.00     0.001 A 
ATOM     80  C   UNL A   1      43.129  35.258  26.274  1.00  0.00     0.000 A 
ENDBRANCH  62  75
ENDBRANCH  36  37
ENDBRANCH  29  31
ENDBRANCH  28  29
ENDBRANCH  27  28
ENDBRANCH  26  27
ENDBRANCH  25  26
ENDBRANCH  24  25
ENDBRANCH  23  24
ENDBRANCH   1  23
TORSDOF 22
ENDMDL
MODEL 2
REMARK VINA RESULT:      -9.9      5.436     10.348
REMARK SMILES Cc1ccc(C(F)(F)F)cc1/C=C/C(=O)OCCOCCOCCOCCOC(=O)c1ccc(-c2c3nc(c(-c4ccccc4)c4ccc([nH]4)c(-c4ccccc4)c4nc(c(-c5ccccc5)c5ccc2[nH]5)C=C4)C=C3)cc1
REMARK SMILES IDX 22 1 21 2 20 3 19 4 18 5 17 6 16 7 14 8 15 9 13 10 12 11
REMARK SMILES IDX 11 12 1 13 2 14 3 15 4 16 10 17 5 18 6 19 7 20 8 21 9 22
REMARK SMILES IDX 23 23 24 24 25 25 26 26 27 27 28 28 29 29 30 30 31 31 32 32
REMARK SMILES IDX 78 33 33 34 77 35 34 36 35 37 36 38 71 39 37 40 76 41 70 42
REMARK SMILES IDX 72 43 38 44 75 45 69 46 68 47 39 49 61 50 46 51 60 52 47 53
REMARK SMILES IDX 50 54 59 55 73 56 48 57 49 58 58 60 74 61 51 62 40 63 41 64
REMARK SMILES IDX 45 65 42 66 44 67 43 68 62 69 63 70 67 71 64 72 66 73 65 74
REMARK SMILES IDX 52 75 53 76 57 77 54 78 56 79 55 80
REMARK H PARENT 72 48 50 59
REMARK Flexibility Score: inf
ROOT
ATOM      1  O   UNL A   1      33.428  29.170  24.440  1.00  0.00    -0.377 OA
ENDROOT
BRANCH   1   2
ATOM      2  C   UNL A   1      33.712  27.775  24.450  1.00  0.00     0.188 C 
BRANCH   2   3
ATOM      3  C   UNL A   1      32.635  26.802  23.951  1.00  0.00     0.188 C 
BRANCH   3   4
ATOM      4  O   UNL A   1      31.270  27.113  24.202  1.00  0.00    -0.376 OA
BRANCH   4   5
ATOM      5  C   UNL A   1      30.363  26.015  24.241  1.00  0.00     0.202 C 
BRANCH   5   6
ATOM      6  C   UNL A   1      29.741  25.661  25.587  1.00  0.00     0.261 C 
BRANCH   6   7
ATOM      7  O   UNL A   1      30.783  25.389  26.528  1.00  0.00    -0.460 OA
BRANCH   7   8
ATOM      8  C   UNL A   1      30.962  24.101  26.857  1.00  0.00     0.330 C 
ATOM      9  O   UNL A   1      30.124  23.324  27.279  1.00  0.00    -0.247 OA
BRANCH   8  10
ATOM     10  C   UNL A   1      32.280  23.639  26.394  1.00  0.00     0.094 C 
ATOM     11  C   UNL A   1      32.497  22.809  25.353  1.00  0.00     0.016 C 
BRANCH  11  12
ATOM     12  C   UNL A   1      33.717  21.993  25.404  1.00  0.00    -0.022 A 
ATOM     13  C   UNL A   1      32.595  19.747  24.941  1.00  0.00     0.045 C 
ATOM     14  C   UNL A   1      33.801  20.630  25.105  1.00  0.00    -0.044 A 
ATOM     15  C   UNL A   1      35.080  20.077  24.906  1.00  0.00     0.004 A 
ATOM     16  C   UNL A   1      36.241  20.850  25.054  1.00  0.00     0.013 A 
ATOM     17  C   UNL A   1      34.891  22.699  25.726  1.00  0.00     0.021 A 
ATOM     18  C   UNL A   1      36.156  22.173  25.488  1.00  0.00     0.056 A 
BRANCH  18  19
ATOM     19  C   UNL A   1      37.356  23.074  25.604  1.00  0.00     0.416 C 
ATOM     20  F   UNL A   1      38.395  22.498  26.265  1.00  0.00    -0.166 F 
ATOM     21  F   UNL A   1      37.838  23.448  24.387  1.00  0.00    -0.166 F 
ATOM     22  F   UNL A   1      37.096  24.239  26.265  1.00  0.00    -0.166 F 
ENDBRANCH  18  19
ENDBRANCH  11  12
ENDBRANCH   8  10
ENDBRANCH   7   8
ENDBRANCH   6   7
ENDBRANCH   5   6
ENDBRANCH   4   5
ENDBRANCH   3   4
ENDBRANCH   2   3
ENDBRANCH   1   2
BRANCH   1  23
ATOM     23  C   UNL A   1      32.989  29.771  25.656  1.00  0.00     0.188 C 
BRANCH  23  24
ATOM     24  C   UNL A   1      33.355  29.061  26.956  1.00  0.00     0.188 C 
BRANCH  24  25
ATOM     25  O   UNL A   1      34.554  29.634  27.477  1.00  0.00    -0.376 OA
BRANCH  25  26
ATOM     26  C   UNL A   1      34.656  31.052  27.379  1.00  0.00     0.202 C 
BRANCH  26  27
ATOM     27  C   UNL A   1      33.719  31.824  28.319  1.00  0.00     0.261 C 
BRANCH  27  28
ATOM     28  O   UNL A   1      33.981  33.237  28.219  1.00  0.00    -0.460 OA
BRANCH  28  29
ATOM     29  C   UNL A   1      33.991  33.910  29.401  1.00  0.00     0.338 C 
ATOM     30  O   UNL A   1      33.091  34.615  29.823  1.00  0.00    -0.246 OA
BRANCH  29  31
ATOM     31  C   UNL A   1      35.371  33.900  29.967  1.00  0.00     0.060 A 
ATOM     32  C   UNL A   1      36.479  33.948  29.105  1.00  0.00     0.016 A 
ATOM     33  C   UNL A   1      35.536  33.476  31.278  1.00  0.00     0.016 A 
ATOM     34  C   UNL A   1      37.700  33.382  29.501  1.00  0.00     0.010 A 
ATOM     35  C   UNL A   1      36.695  32.809  31.607  1.00  0.00     0.010 A 
ATOM     36  C   UNL A   1      37.770  32.704  30.716  1.00  0.00    -0.014 A 
BRANCH  36  37
ATOM     37  C   UNL A   1      38.814  31.739  31.105  1.00  0.00     0.031 A 
ATOM     38  C   UNL A   1      38.790  30.365  30.505  1.00  0.00     0.074 A 
ATOM     39  C   UNL A   1      39.962  32.232  31.646  1.00  0.00     0.049 A 
ATOM     40  N   UNL A   1      39.689  29.462  30.695  1.00  0.00    -0.248 NA
ATOM     41  C   UNL A   1      37.757  29.894  29.578  1.00  0.00     0.031 C 
ATOM     42  C   UNL A   1      41.294  31.624  31.621  1.00  0.00     0.029 A 
ATOM     43  N   UNL A   1      40.209  33.418  32.330  1.00  0.00    -0.354 N 
ATOM     44  C   UNL A   1      39.583  28.516  29.696  1.00  0.00     0.074 A 
ATOM     45  C   UNL A   1      38.305  28.776  29.085  1.00  0.00     0.031 C 
ATOM     46  C   UNL A   1      42.164  32.337  32.353  1.00  0.00     0.029 A 
ATOM     47  C   UNL A   1      41.358  33.254  33.117  1.00  0.00     0.049 A 
ATOM     48  H   UNL A   1      39.667  34.238  32.270  1.00  0.00     0.167 HD
ATOM     49  C   UNL A   1      40.661  27.721  29.418  1.00  0.00     0.031 A 
ATOM     50  C   UNL A   1      41.300  33.216  34.483  1.00  0.00     0.031 A 
ATOM     51  C   UNL A   1      41.737  27.902  30.414  1.00  0.00     0.049 A 
ATOM     52  C   UNL A   1      41.592  31.784  34.943  1.00  0.00     0.074 A 
ATOM     53  C   UNL A   1      43.083  28.219  30.350  1.00  0.00     0.029 A 
ATOM     54  N   UNL A   1      41.404  27.955  31.769  1.00  0.00    -0.354 N 
ATOM     55  N   UNL A   1      41.325  30.722  34.212  1.00  0.00    -0.248 NA
ATOM     56  C   UNL A   1      42.408  31.446  36.109  1.00  0.00     0.031 C 
ATOM     57  C   UNL A   1      43.495  28.643  31.651  1.00  0.00     0.029 A 
ATOM     58  C   UNL A   1      42.424  28.493  32.524  1.00  0.00     0.049 A 
ATOM     59  H   UNL A   1      40.546  27.647  32.141  1.00  0.00     0.167 HD
ATOM     60  C   UNL A   1      42.064  29.660  34.661  1.00  0.00     0.074 A 
ATOM     61  C   UNL A   1      42.652  30.137  35.904  1.00  0.00     0.031 C 
ATOM     62  C   UNL A   1      42.322  28.503  33.978  1.00  0.00     0.031 A 
BRANCH  49  63
ATOM     63  C   UNL A   1      40.858  26.915  28.137  1.00  0.00    -0.014 A 
ATOM     64  C   UNL A   1      41.417  27.539  27.002  1.00  0.00     0.009 A 
ATOM     65  C   UNL A   1      40.441  25.584  27.940  1.00  0.00     0.009 A 
ATOM     66  C   UNL A   1      41.541  26.889  25.761  1.00  0.00     0.001 A 
ATOM     67  C   UNL A   1      40.596  24.913  26.712  1.00  0.00     0.001 A 
ATOM     68  C   UNL A   1      41.140  25.570  25.617  1.00  0.00     0.000 A 
ENDBRANCH  49  63
BRANCH  50  69
ATOM     69  C   UNL A   1      40.387  34.284  35.004  1.00  0.00    -0.014 A 
ATOM     70  C   UNL A   1      39.507  33.834  36.021  1.00  0.00     0.009 A 
ATOM     71  C   UNL A   1      40.802  35.626  35.049  1.00  0.00     0.009 A 
ATOM     72  C   UNL A   1      39.293  34.594  37.178  1.00  0.00     0.001 A 
ATOM     73  C   UNL A   1      40.549  36.397  36.202  1.00  0.00     0.001 A 
ATOM     74  C   UNL A   1      39.864  35.854  37.291  1.00  0.00     0.000 A 
ENDBRANCH  50  69
BRANCH  62  75
ATOM     75  C   UNL A   1      42.470  27.168  34.667  1.00  0.00    -0.014 A 
ATOM     76  C   UNL A   1      43.706  26.676  35.096  1.00  0.00     0.009 A 
ATOM     77  C   UNL A   1      41.314  26.502  35.141  1.00  0.00     0.009 A 
ATOM     78  C   UNL A   1      43.785  25.566  35.943  1.00  0.00     0.001 A 
ATOM     79  C   UNL A   1      41.387  25.429  36.027  1.00  0.00     0.001 A 
ATOM     80  C   UNL A   1      42.627  24.956  36.422  1.00  0.00     0.000 A 
ENDBRANCH  62  75
ENDBRANCH  36  37
ENDBRANCH  29  31
ENDBRANCH  28  29
ENDBRANCH  27  28
ENDBRANCH  26  27
ENDBRANCH  25  26
ENDBRANCH  24  25
ENDBRANCH  23  24
ENDBRANCH   1  23
TORSDOF 22
ENDMDL
MODEL 3
REMARK VINA RESULT:      -9.7      1.744      2.262
REMARK SMILES Cc1ccc(C(F)(F)F)cc1/C=C/C(=O)OCCOCCOCCOCCOC(=O)c1ccc(-c2c3nc(c(-c4ccccc4)c4ccc([nH]4)c(-c4ccccc4)c4nc(c(-c5ccccc5)c5ccc2[nH]5)C=C4)C=C3)cc1
REMARK SMILES IDX 22 1 21 2 20 3 19 4 18 5 17 6 16 7 14 8 15 9 13 10 12 11
REMARK SMILES IDX 11 12 1 13 2 14 3 15 4 16 10 17 5 18 6 19 7 20 8 21 9 22
REMARK SMILES IDX 23 23 24 24 25 25 26 26 27 27 28 28 29 29 30 30 31 31 32 32
REMARK SMILES IDX 78 33 33 34 77 35 34 36 35 37 36 38 71 39 37 40 76 41 70 42
REMARK SMILES IDX 72 43 38 44 75 45 69 46 68 47 39 49 61 50 46 51 60 52 47 53
REMARK SMILES IDX 50 54 59 55 73 56 48 57 49 58 58 60 74 61 51 62 40 63 41 64
REMARK SMILES IDX 45 65 42 66 44 67 43 68 62 69 63 70 67 71 64 72 66 73 65 74
REMARK SMILES IDX 52 75 53 76 57 77 54 78 56 79 55 80
REMARK H PARENT 72 48 50 59
REMARK Flexibility Score: inf
ROOT
ATOM      1  O   UNL A   1      37.879  22.972  25.866  1.00  0.00    -0.377 OA
ENDROOT
BRANCH   1   2
ATOM      2  C   UNL A   1      37.002  23.646  24.970  1.00  0.00     0.188 C 
BRANCH   2   3
ATOM      3  C   UNL A   1      36.085  22.810  24.068  1.00  0.00     0.188 C 
BRANCH   3   4
ATOM      4  O   UNL A   1      34.755  22.556  24.501  1.00  0.00    -0.376 OA
BRANCH   4   5
ATOM      5  C   UNL A   1      34.606  21.735  25.656  1.00  0.00     0.202 C 
BRANCH   5   6
ATOM      6  C   UNL A   1      33.228  21.139  25.925  1.00  0.00     0.261 C 
BRANCH   6   7
ATOM      7  O   UNL A   1      32.232  22.141  25.703  1.00  0.00    -0.460 OA
BRANCH   7   8
ATOM      8  C   UNL A   1      31.956  22.940  26.743  1.00  0.00     0.330 C 
ATOM      9  O   UNL A   1      32.194  22.730  27.919  1.00  0.00    -0.247 OA
BRANCH   8  10
ATOM     10  C   UNL A   1      31.542  24.270  26.265  1.00  0.00     0.094 C 
ATOM     11  C   UNL A   1      31.531  24.669  24.976  1.00  0.00     0.016 C 
BRANCH  11  12
ATOM     12  C   UNL A   1      31.694  26.107  24.731  1.00  0.00    -0.022 A 
ATOM     13  C   UNL A   1      31.428  26.012  22.194  1.00  0.00     0.045 C 
ATOM     14  C   UNL A   1      31.534  26.750  23.500  1.00  0.00    -0.044 A 
ATOM     15  C   UNL A   1      31.424  28.153  23.498  1.00  0.00     0.004 A 
ATOM     16  C   UNL A   1      31.523  28.895  24.685  1.00  0.00     0.013 A 
ATOM     17  C   UNL A   1      31.974  26.877  25.876  1.00  0.00     0.021 A 
ATOM     18  C   UNL A   1      31.821  28.259  25.890  1.00  0.00     0.056 A 
BRANCH  18  19
ATOM     19  C   UNL A   1      31.877  28.988  27.206  1.00  0.00     0.416 C 
ATOM     20  F   UNL A   1      31.084  28.431  28.159  1.00  0.00    -0.166 F 
ATOM     21  F   UNL A   1      33.135  29.018  27.725  1.00  0.00    -0.166 F 
ATOM     22  F   UNL A   1      31.489  30.294  27.118  1.00  0.00    -0.166 F 
ENDBRANCH  18  19
ENDBRANCH  11  12
ENDBRANCH   8  10
ENDBRANCH   7   8
ENDBRANCH   6   7
ENDBRANCH   5   6
ENDBRANCH   4   5
ENDBRANCH   3   4
ENDBRANCH   2   3
ENDBRANCH   1   2
BRANCH   1  23
ATOM     23  C   UNL A   1      38.876  23.742  26.533  1.00  0.00     0.188 C 
BRANCH  23  24
ATOM     24  C   UNL A   1      40.036  22.981  27.166  1.00  0.00     0.188 C 
BRANCH  24  25
ATOM     25  O   UNL A   1      40.842  22.417  26.133  1.00  0.00    -0.376 OA
BRANCH  25  26
ATOM     26  C   UNL A   1      41.046  21.008  26.205  1.00  0.00     0.202 C 
BRANCH  26  27
ATOM     27  C   UNL A   1      42.514  20.572  26.102  1.00  0.00     0.261 C 
BRANCH  27  28
ATOM     28  O   UNL A   1      43.186  21.348  25.090  1.00  0.00    -0.460 OA
BRANCH  28  29
ATOM     29  C   UNL A   1      44.527  21.141  24.997  1.00  0.00     0.338 C 
ATOM     30  O   UNL A   1      45.065  20.072  24.772  1.00  0.00    -0.246 OA
BRANCH  29  31
ATOM     31  C   UNL A   1      45.251  22.344  25.499  1.00  0.00     0.060 A 
ATOM     32  C   UNL A   1      45.393  22.546  26.882  1.00  0.00     0.016 A 
ATOM     33  C   UNL A   1      45.440  23.406  24.625  1.00  0.00     0.016 A 
ATOM     34  C   UNL A   1      45.523  23.848  27.391  1.00  0.00     0.010 A 
ATOM     35  C   UNL A   1      45.435  24.683  25.139  1.00  0.00     0.010 A 
ATOM     36  C   UNL A   1      45.425  24.929  26.518  1.00  0.00    -0.014 A 
BRANCH  36  37
ATOM     37  C   UNL A   1      45.146  26.324  26.903  1.00  0.00     0.031 A 
ATOM     38  C   UNL A   1      43.731  26.819  26.858  1.00  0.00     0.074 A 
ATOM     39  C   UNL A   1      46.076  26.970  27.659  1.00  0.00     0.049 A 
ATOM     40  N   UNL A   1      43.346  27.984  27.251  1.00  0.00    -0.248 NA
ATOM     41  C   UNL A   1      42.595  26.011  26.407  1.00  0.00     0.031 C 
ATOM     42  C   UNL A   1      45.857  28.079  28.589  1.00  0.00     0.029 A 
ATOM     43  N   UNL A   1      47.445  26.762  27.790  1.00  0.00    -0.354 N 
ATOM     44  C   UNL A   1      41.983  27.950  27.462  1.00  0.00     0.074 A 
ATOM     45  C   UNL A   1      41.548  26.731  26.830  1.00  0.00     0.031 C 
ATOM     46  C   UNL A   1      47.020  28.539  29.075  1.00  0.00     0.029 A 
ATOM     47  C   UNL A   1      48.039  27.947  28.248  1.00  0.00     0.049 A 
ATOM     48  H   UNL A   1      47.919  25.922  27.595  1.00  0.00     0.167 HD
ATOM     49  C   UNL A   1      41.415  28.891  28.278  1.00  0.00     0.031 A 
ATOM     50  C   UNL A   1      48.867  28.695  27.457  1.00  0.00     0.031 A 
ATOM     51  C   UNL A   1      42.386  29.939  28.652  1.00  0.00     0.049 A 
ATOM     52  C   UNL A   1      48.142  29.991  27.082  1.00  0.00     0.074 A 
ATOM     53  C   UNL A   1      42.837  30.468  29.849  1.00  0.00     0.029 A 
ATOM     54  N   UNL A   1      43.223  30.469  27.668  1.00  0.00    -0.354 N 
ATOM     55  N   UNL A   1      46.832  30.084  26.991  1.00  0.00    -0.248 NA
ATOM     56  C   UNL A   1      48.784  31.304  27.024  1.00  0.00     0.031 C 
ATOM     57  C   UNL A   1      44.059  31.162  29.587  1.00  0.00     0.029 A 
ATOM     58  C   UNL A   1      44.298  31.134  28.219  1.00  0.00     0.049 A 
ATOM     59  H   UNL A   1      43.066  30.379  26.700  1.00  0.00     0.167 HD
ATOM     60  C   UNL A   1      46.461  31.400  27.074  1.00  0.00     0.074 A 
ATOM     61  C   UNL A   1      47.719  32.129  26.998  1.00  0.00     0.031 C 
ATOM     62  C   UNL A   1      45.210  31.876  27.356  1.00  0.00     0.031 A 
BRANCH  49  63
ATOM     63  C   UNL A   1      40.035  28.785  28.921  1.00  0.00    -0.014 A 
ATOM     64  C   UNL A   1      38.980  29.589  28.440  1.00  0.00     0.009 A 
ATOM     65  C   UNL A   1      39.720  28.000  30.048  1.00  0.00     0.009 A 
ATOM     66  C   UNL A   1      37.709  29.616  29.042  1.00  0.00     0.001 A 
ATOM     67  C   UNL A   1      38.439  27.992  30.634  1.00  0.00     0.001 A 
ATOM     68  C   UNL A   1      37.434  28.808  30.135  1.00  0.00     0.000 A 
ENDBRANCH  49  63
BRANCH  50  69
ATOM     69  C   UNL A   1      49.825  27.814  26.713  1.00  0.00    -0.014 A 
ATOM     70  C   UNL A   1      49.686  27.885  25.304  1.00  0.00     0.009 A 
ATOM     71  C   UNL A   1      51.106  27.549  27.228  1.00  0.00     0.009 A 
ATOM     72  C   UNL A   1      50.808  27.981  24.471  1.00  0.00     0.001 A 
ATOM     73  C   UNL A   1      52.228  27.609  26.376  1.00  0.00     0.001 A 
ATOM     74  C   UNL A   1      52.082  27.901  25.018  1.00  0.00     0.000 A 
ENDBRANCH  50  69
BRANCH  62  75
ATOM     75  C   UNL A   1      44.675  33.158  26.766  1.00  0.00    -0.014 A 
ATOM     76  C   UNL A   1      44.103  33.219  25.492  1.00  0.00     0.009 A 
ATOM     77  C   UNL A   1      44.492  34.284  27.606  1.00  0.00     0.009 A 
ATOM     78  C   UNL A   1      43.398  34.351  25.072  1.00  0.00     0.001 A 
ATOM     79  C   UNL A   1      43.745  35.391  27.210  1.00  0.00     0.001 A 
ATOM     80  C   UNL A   1      43.203  35.426  25.936  1.00  0.00     0.000 A 
ENDBRANCH  62  75
ENDBRANCH  36  37
ENDBRANCH  29  31
ENDBRANCH  28  29
ENDBRANCH  27  28
ENDBRANCH  26  27
ENDBRANCH  25  26
ENDBRANCH  24  25
ENDBRANCH  23  24
ENDBRANCH   1  23
TORSDOF 22
ENDMDL
