MODEL 1
REMARK VINA RESULT:     -11.2      0.000      0.000
REMARK SMILES O=C(OCCOCCOCCOCCOC(=O)c1ccc(-c2c3nc(c(-c4ccccc4)c4ccc([nH]4)c(-c4ccccc4)c4nc(c(-c5ccccc5)c5ccc2[nH]5)C=C4)C=C3)cc1)C1=Cc2cc(Cl)c(Cl)cc2O[C@@H]1C(F)(F)F
REMARK SMILES IDX 10 1 9 2 8 3 7 4 6 5 5 6 4 7 3 8 2 9 1 10 66 11 67 12 77 13
REMARK SMILES IDX 68 14 76 15 69 16 75 17 70 18 74 19 71 20 72 21 73 22 78 23
REMARK SMILES IDX 79 24 80 25 81 26 11 27 12 28 13 29 14 30 15 31 16 32 17 33
REMARK SMILES IDX 18 34 19 35 65 36 20 37 64 38 21 39 22 40 23 41 58 42 24 43
REMARK SMILES IDX 63 44 57 45 59 46 25 47 62 48 56 49 55 50 26 52 48 53 33 54
REMARK SMILES IDX 47 55 34 56 37 57 46 58 60 59 35 60 36 61 45 63 61 64 38 65
REMARK SMILES IDX 27 66 28 67 32 68 29 69 31 70 30 71 49 72 50 73 54 74 51 75
REMARK SMILES IDX 53 76 52 77 39 78 40 79 44 80 41 81 43 82 42 83
REMARK H PARENT 59 51 37 62
REMARK Flexibility Score: inf
ROOT
ATOM      1  C   UNL A   1      44.229  18.872  24.952  1.00  0.00     0.188 C 
ENDROOT
BRANCH   1   2
ATOM      2  O   UNL A   1      42.838  19.058  25.038  1.00  0.00    -0.377 OA
BRANCH   2   3
ATOM      3  C   UNL A   1      42.420  19.327  26.357  1.00  0.00     0.188 C 
BRANCH   3   4
ATOM      4  C   UNL A   1      41.004  19.913  26.500  1.00  0.00     0.188 C 
BRANCH   4   5
ATOM      5  O   UNL A   1      40.639  21.295  26.148  1.00  0.00    -0.376 OA
BRANCH   5   6
ATOM      6  C   UNL A   1      39.254  22.194  26.362  1.00  0.00     0.202 C 
BRANCH   6   7
ATOM      7  C   UNL A   1      37.571  22.358  25.003  1.00  0.00     0.261 C 
BRANCH   7   8
ATOM      8  O   UNL A   1      36.607  23.522  24.891  1.00  0.00    -0.460 OA
BRANCH   8   9
ATOM      9  C   UNL A   1      35.685  23.321  23.941  1.00  0.00     0.338 C 
ATOM     10  O   UNL A   1      35.799  23.466  22.750  1.00  0.00    -0.246 OA
BRANCH   9  11
ATOM     11  C   UNL A   1      34.517  23.382  24.807  1.00  0.00     0.087 C 
ATOM     12  C   UNL A   1      34.270  24.712  25.390  1.00  0.00     0.027 C 
ATOM     13  C   UNL A   1      33.384  22.532  23.506  1.00  0.00     0.316 C 
ATOM     14  C   UNL A   1      33.004  25.858  24.812  1.00  0.00     0.019 A 
ATOM     15  O   UNL A   1      32.092  23.790  22.770  1.00  0.00    -0.475 OA
ATOM     16  C   UNL A   1      32.905  27.104  25.370  1.00  0.00     0.034 A 
ATOM     17  C   UNL A   1      31.976  25.483  23.474  1.00  0.00     0.129 A 
ATOM     18  C   UNL A   1      31.933  27.956  24.799  1.00  0.00     0.060 A 
ATOM     19  C   UNL A   1      31.063  26.371  22.965  1.00  0.00     0.069 A 
ATOM     20  Cl  UNL A   1      31.842  29.536  25.535  1.00  0.00    -0.083 Cl
ATOM     21  C   UNL A   1      31.057  27.607  23.669  1.00  0.00     0.063 A 
ATOM     22  Cl  UNL A   1      29.883  28.776  23.119  1.00  0.00    -0.083 Cl
BRANCH  13  23
ATOM     23  C   UNL A   1      33.196  21.147  24.407  1.00  0.00     0.430 C 
ATOM     24  F   UNL A   1      32.546  21.238  25.580  1.00  0.00    -0.167 F 
ATOM     25  F   UNL A   1      32.417  20.304  23.661  1.00  0.00    -0.167 F 
ATOM     26  F   UNL A   1      34.336  20.444  24.621  1.00  0.00    -0.167 F 
ENDBRANCH  13  23
ENDBRANCH   9  11
ENDBRANCH   8   9
ENDBRANCH   7   8
ENDBRANCH   6   7
ENDBRANCH   5   6
ENDBRANCH   4   5
ENDBRANCH   3   4
ENDBRANCH   2   3
ENDBRANCH   1   2
BRANCH   1  27
ATOM     27  C   UNL A   1      45.066  20.110  24.611  1.00  0.00     0.188 C 
BRANCH  27  28
ATOM     28  O   UNL A   1      44.678  21.061  23.637  1.00  0.00    -0.376 OA
BRANCH  28  29
ATOM     29  C   UNL A   1      44.534  22.434  23.948  1.00  0.00     0.202 C 
BRANCH  29  30
ATOM     30  C   UNL A   1      43.461  22.945  24.922  1.00  0.00     0.261 C 
BRANCH  30  31
ATOM     31  O   UNL A   1      43.346  24.366  25.051  1.00  0.00    -0.460 OA
BRANCH  31  32
ATOM     32  C   UNL A   1      44.103  24.926  26.019  1.00  0.00     0.338 C 
ATOM     33  O   UNL A   1      45.318  24.909  26.108  1.00  0.00    -0.246 OA
BRANCH  32  34
ATOM     34  C   UNL A   1      43.241  25.745  26.899  1.00  0.00     0.060 A 
ATOM     35  C   UNL A   1      43.440  27.136  26.927  1.00  0.00     0.016 A 
ATOM     36  C   UNL A   1      42.269  25.155  27.707  1.00  0.00     0.016 A 
ATOM     37  C   UNL A   1      42.709  27.939  27.798  1.00  0.00     0.010 A 
ATOM     38  C   UNL A   1      41.575  25.949  28.619  1.00  0.00     0.010 A 
ATOM     39  C   UNL A   1      41.835  27.331  28.700  1.00  0.00    -0.014 A 
BRANCH  39  40
ATOM     40  C   UNL A   1      41.433  28.060  29.922  1.00  0.00     0.031 A 
ATOM     41  C   UNL A   1      40.242  28.972  29.820  1.00  0.00     0.074 A 
ATOM     42  C   UNL A   1      42.102  27.932  31.078  1.00  0.00     0.049 A 
ATOM     43  N   UNL A   1      39.782  29.840  30.681  1.00  0.00    -0.248 NA
ATOM     44  C   UNL A   1      39.479  28.905  28.562  1.00  0.00     0.031 C 
ATOM     45  C   UNL A   1      43.216  27.019  31.319  1.00  0.00     0.029 A 
ATOM     46  N   UNL A   1      41.945  28.604  32.263  1.00  0.00    -0.354 N 
ATOM     47  C   UNL A   1      38.700  30.445  30.056  1.00  0.00     0.074 A 
ATOM     48  C   UNL A   1      38.588  29.867  28.736  1.00  0.00     0.031 C 
ATOM     49  C   UNL A   1      43.666  27.211  32.571  1.00  0.00     0.029 A 
ATOM     50  C   UNL A   1      42.903  28.291  33.194  1.00  0.00     0.049 A 
ATOM     51  H   UNL A   1      41.219  29.247  32.428  1.00  0.00     0.167 HD
ATOM     52  C   UNL A   1      37.875  31.404  30.536  1.00  0.00     0.031 A 
ATOM     53  C   UNL A   1      43.155  28.850  34.393  1.00  0.00     0.031 A 
ATOM     54  C   UNL A   1      38.014  31.989  31.843  1.00  0.00     0.049 A 
ATOM     55  C   UNL A   1      42.290  29.984  34.875  1.00  0.00     0.074 A 
ATOM     56  C   UNL A   1      37.230  32.959  32.440  1.00  0.00     0.029 A 
ATOM     57  N   UNL A   1      39.014  31.665  32.747  1.00  0.00    -0.354 N 
ATOM     58  N   UNL A   1      41.266  30.555  34.285  1.00  0.00    -0.248 NA
ATOM     59  C   UNL A   1      42.611  30.549  36.193  1.00  0.00     0.031 C 
ATOM     60  C   UNL A   1      37.806  33.281  33.672  1.00  0.00     0.029 A 
ATOM     61  C   UNL A   1      38.889  32.443  33.884  1.00  0.00     0.049 A 
ATOM     62  H   UNL A   1      39.710  30.985  32.601  1.00  0.00     0.167 HD
ATOM     63  C   UNL A   1      40.794  31.511  35.176  1.00  0.00     0.074 A 
ATOM     64  C   UNL A   1      41.644  31.443  36.347  1.00  0.00     0.031 C 
ATOM     65  C   UNL A   1      39.743  32.359  35.044  1.00  0.00     0.031 A 
BRANCH  52  66
ATOM     66  C   UNL A   1      36.802  31.920  29.616  1.00  0.00    -0.014 A 
ATOM     67  C   UNL A   1      36.998  33.051  28.808  1.00  0.00     0.009 A 
ATOM     68  C   UNL A   1      35.565  31.259  29.562  1.00  0.00     0.009 A 
ATOM     69  C   UNL A   1      35.962  33.539  28.008  1.00  0.00     0.001 A 
ATOM     70  C   UNL A   1      34.545  31.723  28.731  1.00  0.00     0.001 A 
ATOM     71  C   UNL A   1      34.739  32.872  27.966  1.00  0.00     0.000 A 
ENDBRANCH  52  66
BRANCH  53  72
ATOM     72  C   UNL A   1      44.296  28.355  35.210  1.00  0.00    -0.014 A 
ATOM     73  C   UNL A   1      44.119  27.308  36.125  1.00  0.00     0.009 A 
ATOM     74  C   UNL A   1      45.572  28.926  35.072  1.00  0.00     0.009 A 
ATOM     75  C   UNL A   1      45.190  26.856  36.900  1.00  0.00     0.001 A 
ATOM     76  C   UNL A   1      46.648  28.449  35.822  1.00  0.00     0.001 A 
ATOM     77  C   UNL A   1      46.454  27.421  36.742  1.00  0.00     0.000 A 
ENDBRANCH  53  72
BRANCH  65  78
ATOM     78  C   UNL A   1      39.400  33.239  36.217  1.00  0.00    -0.014 A 
ATOM     79  C   UNL A   1      38.658  32.766  37.310  1.00  0.00     0.009 A 
ATOM     80  C   UNL A   1      39.898  34.553  36.253  1.00  0.00     0.009 A 
ATOM     81  C   UNL A   1      38.397  33.602  38.398  1.00  0.00     0.001 A 
ATOM     82  C   UNL A   1      39.669  35.371  37.358  1.00  0.00     0.001 A 
ATOM     83  C   UNL A   1      38.909  34.899  38.426  1.00  0.00     0.000 A 
ENDBRANCH  65  78
ENDBRANCH  39  40
ENDBRANCH  32  34
ENDBRANCH  31  32
ENDBRANCH  30  31
ENDBRANCH  29  30
ENDBRANCH  28  29
ENDBRANCH  27  28
ENDBRANCH   1  27
TORSDOF 21
ENDMDL
MODEL 2
REMARK VINA RESULT:     -10.8      1.371      5.919
REMARK SMILES O=C(OCCOCCOCCOCCOC(=O)c1ccc(-c2c3nc(c(-c4ccccc4)c4ccc([nH]4)c(-c4ccccc4)c4nc(c(-c5ccccc5)c5ccc2[nH]5)C=C4)C=C3)cc1)C1=Cc2cc(Cl)c(Cl)cc2O[C@@H]1C(F)(F)F
REMARK SMILES IDX 10 1 9 2 8 3 7 4 6 5 5 6 4 7 3 8 2 9 1 10 66 11 67 12 77 13
REMARK SMILES IDX 68 14 76 15 69 16 75 17 70 18 74 19 71 20 72 21 73 22 78 23
REMARK SMILES IDX 79 24 80 25 81 26 11 27 12 28 13 29 14 30 15 31 16 32 17 33
REMARK SMILES IDX 18 34 19 35 65 36 20 37 64 38 21 39 22 40 23 41 58 42 24 43
REMARK SMILES IDX 63 44 57 45 59 46 25 47 62 48 56 49 55 50 26 52 48 53 33 54
REMARK SMILES IDX 47 55 34 56 37 57 46 58 60 59 35 60 36 61 45 63 61 64 38 65
REMARK SMILES IDX 27 66 28 67 32 68 29 69 31 70 30 71 49 72 50 73 54 74 51 75
REMARK SMILES IDX 53 76 52 77 39 78 40 79 44 80 41 81 43 82 42 83
REMARK H PARENT 59 51 37 62
REMARK Flexibility Score: inf
ROOT
ATOM      1  C   UNL A   1      43.462  18.517  25.484  1.00  0.00     0.188 C 
ENDROOT
BRANCH   1   2
ATOM      2  O   UNL A   1      42.269  19.244  25.322  1.00  0.00    -0.377 OA
BRANCH   2   3
ATOM      3  C   UNL A   1      41.695  19.602  26.559  1.00  0.00     0.188 C 
BRANCH   3   4
ATOM      4  C   UNL A   1      40.379  20.396  26.477  1.00  0.00     0.188 C 
BRANCH   4   5
ATOM      5  O   UNL A   1      40.301  21.858  26.328  1.00  0.00    -0.376 OA
BRANCH   5   6
ATOM      6  C   UNL A   1      39.025  22.918  26.176  1.00  0.00     0.202 C 
BRANCH   6   7
ATOM      7  C   UNL A   1      37.183  22.608  25.072  1.00  0.00     0.261 C 
BRANCH   7   8
ATOM      8  O   UNL A   1      36.409  23.649  24.291  1.00  0.00    -0.460 OA
BRANCH   8   9
ATOM      9  C   UNL A   1      35.131  23.293  24.109  1.00  0.00     0.338 C 
ATOM     10  O   UNL A   1      34.619  22.834  23.119  1.00  0.00    -0.246 OA
BRANCH   9  11
ATOM     11  C   UNL A   1      34.569  24.064  25.209  1.00  0.00     0.087 C 
ATOM     12  C   UNL A   1      34.235  25.455  24.858  1.00  0.00     0.027 C 
ATOM     13  C   UNL A   1      33.278  22.705  25.635  1.00  0.00     0.316 C 
ATOM     14  C   UNL A   1      32.563  26.051  24.540  1.00  0.00     0.019 A 
ATOM     15  O   UNL A   1      31.475  23.278  25.176  1.00  0.00    -0.475 OA
ATOM     16  C   UNL A   1      32.364  27.347  24.145  1.00  0.00     0.034 A 
ATOM     17  C   UNL A   1      31.193  24.999  24.597  1.00  0.00     0.129 A 
ATOM     18  C   UNL A   1      31.028  27.698  23.846  1.00  0.00     0.060 A 
ATOM     19  C   UNL A   1      29.924  25.411  24.278  1.00  0.00     0.069 A 
ATOM     20  Cl  UNL A   1      30.817  29.355  23.341  1.00  0.00    -0.083 Cl
ATOM     21  C   UNL A   1      29.875  26.786  23.918  1.00  0.00     0.063 A 
ATOM     22  Cl  UNL A   1      28.285  27.407  23.550  1.00  0.00    -0.083 Cl
BRANCH  13  23
ATOM     23  C   UNL A   1      33.986  22.329  27.093  1.00  0.00     0.430 C 
ATOM     24  F   UNL A   1      34.513  23.331  27.817  1.00  0.00    -0.167 F 
ATOM     25  F   UNL A   1      32.990  21.832  27.889  1.00  0.00    -0.167 F 
ATOM     26  F   UNL A   1      34.901  21.329  27.043  1.00  0.00    -0.167 F 
ENDBRANCH  13  23
ENDBRANCH   9  11
ENDBRANCH   8   9
ENDBRANCH   7   8
ENDBRANCH   6   7
ENDBRANCH   5   6
ENDBRANCH   4   5
ENDBRANCH   3   4
ENDBRANCH   2   3
ENDBRANCH   1   2
BRANCH   1  27
ATOM     27  C   UNL A   1      44.727  19.132  24.875  1.00  0.00     0.188 C 
BRANCH  27  28
ATOM     28  O   UNL A   1      44.701  20.016  23.769  1.00  0.00    -0.376 OA
BRANCH  28  29
ATOM     29  C   UNL A   1      44.612  21.419  23.934  1.00  0.00     0.202 C 
BRANCH  29  30
ATOM     30  C   UNL A   1      44.358  22.067  25.303  1.00  0.00     0.261 C 
BRANCH  30  31
ATOM     31  O   UNL A   1      43.385  23.117  25.337  1.00  0.00    -0.460 OA
BRANCH  31  32
ATOM     32  C   UNL A   1      43.882  24.372  25.327  1.00  0.00     0.338 C 
ATOM     33  O   UNL A   1      44.811  24.792  24.661  1.00  0.00    -0.246 OA
BRANCH  32  34
ATOM     34  C   UNL A   1      43.005  25.250  26.133  1.00  0.00     0.060 A 
ATOM     35  C   UNL A   1      43.124  26.642  25.978  1.00  0.00     0.016 A 
ATOM     36  C   UNL A   1      42.098  24.717  27.048  1.00  0.00     0.016 A 
ATOM     37  C   UNL A   1      42.379  27.509  26.771  1.00  0.00     0.010 A 
ATOM     38  C   UNL A   1      41.391  25.583  27.882  1.00  0.00     0.010 A 
ATOM     39  C   UNL A   1      41.573  26.976  27.778  1.00  0.00    -0.014 A 
BRANCH  39  40
ATOM     40  C   UNL A   1      41.172  27.832  28.915  1.00  0.00     0.031 A 
ATOM     41  C   UNL A   1      41.966  27.707  30.185  1.00  0.00     0.074 A 
ATOM     42  C   UNL A   1      40.136  28.680  28.835  1.00  0.00     0.049 A 
ATOM     43  N   UNL A   1      41.732  28.212  31.367  1.00  0.00    -0.248 NA
ATOM     44  C   UNL A   1      43.184  26.881  30.111  1.00  0.00     0.031 C 
ATOM     45  C   UNL A   1      39.347  28.947  27.636  1.00  0.00     0.029 A 
ATOM     46  N   UNL A   1      39.558  29.456  29.806  1.00  0.00    -0.354 N 
ATOM     47  C   UNL A   1      42.751  27.736  32.182  1.00  0.00     0.074 A 
ATOM     48  C   UNL A   1      43.588  26.884  31.370  1.00  0.00     0.031 C 
ATOM     49  C   UNL A   1      38.363  29.806  27.951  1.00  0.00     0.029 A 
ATOM     50  C   UNL A   1      38.428  30.106  29.380  1.00  0.00     0.049 A 
ATOM     51  H   UNL A   1      39.919  29.538  30.719  1.00  0.00     0.167 HD
ATOM     52  C   UNL A   1      42.965  27.983  33.496  1.00  0.00     0.031 A 
ATOM     53  C   UNL A   1      37.528  30.822  30.081  1.00  0.00     0.031 A 
ATOM     54  C   UNL A   1      42.109  28.814  34.298  1.00  0.00     0.049 A 
ATOM     55  C   UNL A   1      37.727  31.007  31.563  1.00  0.00     0.074 A 
ATOM     56  C   UNL A   1      42.235  29.144  35.634  1.00  0.00     0.029 A 
ATOM     57  N   UNL A   1      40.956  29.432  33.837  1.00  0.00    -0.354 N 
ATOM     58  N   UNL A   1      38.691  30.560  32.333  1.00  0.00    -0.248 NA
ATOM     59  C   UNL A   1      36.715  31.804  32.272  1.00  0.00     0.031 C 
ATOM     60  C   UNL A   1      41.114  29.894  36.002  1.00  0.00     0.029 A 
ATOM     61  C   UNL A   1      40.342  30.114  34.872  1.00  0.00     0.049 A 
ATOM     62  H   UNL A   1      40.625  29.392  32.911  1.00  0.00     0.167 HD
ATOM     63  C   UNL A   1      38.427  31.057  33.604  1.00  0.00     0.074 A 
ATOM     64  C   UNL A   1      37.212  31.839  33.501  1.00  0.00     0.031 C 
ATOM     65  C   UNL A   1      39.134  30.892  34.750  1.00  0.00     0.031 A 
BRANCH  52  66
ATOM     66  C   UNL A   1      44.131  27.290  34.149  1.00  0.00    -0.014 A 
ATOM     67  C   UNL A   1      44.007  26.019  34.732  1.00  0.00     0.009 A 
ATOM     68  C   UNL A   1      45.380  27.930  34.184  1.00  0.00     0.009 A 
ATOM     69  C   UNL A   1      45.093  25.429  35.382  1.00  0.00     0.001 A 
ATOM     70  C   UNL A   1      46.475  27.320  34.796  1.00  0.00     0.001 A 
ATOM     71  C   UNL A   1      46.327  26.077  35.409  1.00  0.00     0.000 A 
ENDBRANCH  52  66
BRANCH  53  72
ATOM     72  C   UNL A   1      36.344  31.397  29.388  1.00  0.00    -0.014 A 
ATOM     73  C   UNL A   1      35.883  32.682  29.708  1.00  0.00     0.009 A 
ATOM     74  C   UNL A   1      35.672  30.663  28.397  1.00  0.00     0.009 A 
ATOM     75  C   UNL A   1      34.762  33.213  29.065  1.00  0.00     0.001 A 
ATOM     76  C   UNL A   1      34.574  31.210  27.731  1.00  0.00     0.001 A 
ATOM     77  C   UNL A   1      34.114  32.480  28.072  1.00  0.00     0.000 A 
ENDBRANCH  53  72
BRANCH  65  78
ATOM     78  C   UNL A   1      38.660  31.624  35.978  1.00  0.00    -0.014 A 
ATOM     79  C   UNL A   1      39.013  32.959  36.231  1.00  0.00     0.009 A 
ATOM     80  C   UNL A   1      37.779  30.977  36.861  1.00  0.00     0.009 A 
ATOM     81  C   UNL A   1      38.518  33.616  37.360  1.00  0.00     0.001 A 
ATOM     82  C   UNL A   1      37.256  31.649  37.966  1.00  0.00     0.001 A 
ATOM     83  C   UNL A   1      37.634  32.965  38.220  1.00  0.00     0.000 A 
ENDBRANCH  65  78
ENDBRANCH  39  40
ENDBRANCH  32  34
ENDBRANCH  31  32
ENDBRANCH  30  31
ENDBRANCH  29  30
ENDBRANCH  28  29
ENDBRANCH  27  28
ENDBRANCH   1  27
TORSDOF 21
ENDMDL
MODEL 3
REMARK VINA RESULT:     -10.5      4.815     10.470
REMARK SMILES O=C(OCCOCCOCCOCCOC(=O)c1ccc(-c2c3nc(c(-c4ccccc4)c4ccc([nH]4)c(-c4ccccc4)c4nc(c(-c5ccccc5)c5ccc2[nH]5)C=C4)C=C3)cc1)C1=Cc2cc(Cl)c(Cl)cc2O[C@@H]1C(F)(F)F
REMARK SMILES IDX 10 1 9 2 8 3 7 4 6 5 5 6 4 7 3 8 2 9 1 10 66 11 67 12 77 13
REMARK SMILES IDX 68 14 76 15 69 16 75 17 70 18 74 19 71 20 72 21 73 22 78 23
REMARK SMILES IDX 79 24 80 25 81 26 11 27 12 28 13 29 14 30 15 31 16 32 17 33
REMARK SMILES IDX 18 34 19 35 65 36 20 37 64 38 21 39 22 40 23 41 58 42 24 43
REMARK SMILES IDX 63 44 57 45 59 46 25 47 62 48 56 49 55 50 26 52 48 53 33 54
REMARK SMILES IDX 47 55 34 56 37 57 46 58 60 59 35 60 36 61 45 63 61 64 38 65
REMARK SMILES IDX 27 66 28 67 32 68 29 69 31 70 30 71 49 72 50 73 54 74 51 75
REMARK SMILES IDX 53 76 52 77 39 78 40 79 44 80 41 81 43 82 42 83
REMARK H PARENT 59 51 37 62
REMARK Flexibility Score: inf
ROOT
ATOM      1  C   UNL A   1      33.875  31.422  27.658  1.00  0.00     0.188 C 
ENDROOT
BRANCH   1   2
ATOM      2  O   UNL A   1      33.581  30.598  26.557  1.00  0.00    -0.377 OA
BRANCH   2   3
ATOM      3  C   UNL A   1      32.278  30.065  26.628  1.00  0.00     0.188 C 
BRANCH   3   4
ATOM      4  C   UNL A   1      31.504  30.020  25.299  1.00  0.00     0.188 C 
BRANCH   4   5
ATOM      5  O   UNL A   1      32.104  29.668  24.002  1.00  0.00    -0.376 OA
BRANCH   5   6
ATOM      6  C   UNL A   1      31.888  28.386  22.962  1.00  0.00     0.202 C 
BRANCH   6   7
ATOM      7  C   UNL A   1      30.281  26.929  22.987  1.00  0.00     0.261 C 
BRANCH   7   8
ATOM      8  O   UNL A   1      30.345  25.517  23.533  1.00  0.00    -0.460 OA
BRANCH   8   9
ATOM      9  C   UNL A   1      31.537  24.947  23.313  1.00  0.00     0.338 C 
ATOM     10  O   UNL A   1      32.080  24.740  22.258  1.00  0.00    -0.246 OA
BRANCH   9  11
ATOM     11  C   UNL A   1      31.661  24.282  24.602  1.00  0.00     0.087 C 
ATOM     12  C   UNL A   1      31.767  22.816  24.513  1.00  0.00     0.027 C 
ATOM     13  C   UNL A   1      33.077  25.447  25.181  1.00  0.00     0.316 C 
ATOM     14  C   UNL A   1      33.304  21.893  24.702  1.00  0.00     0.019 A 
ATOM     15  O   UNL A   1      34.777  24.500  25.265  1.00  0.00    -0.475 OA
ATOM     16  C   UNL A   1      33.312  20.535  24.525  1.00  0.00     0.034 A 
ATOM     17  C   UNL A   1      34.815  22.685  24.982  1.00  0.00     0.129 A 
ATOM     18  C   UNL A   1      34.577  19.912  24.619  1.00  0.00     0.060 A 
ATOM     19  C   UNL A   1      36.008  22.011  25.047  1.00  0.00     0.069 A 
ATOM     20  Cl  UNL A   1      34.545  18.183  24.382  1.00  0.00    -0.083 Cl
ATOM     21  C   UNL A   1      35.849  20.608  24.875  1.00  0.00     0.063 A 
ATOM     22  Cl  UNL A   1      37.314  19.668  24.998  1.00  0.00    -0.083 Cl
BRANCH  13  23
ATOM     23  C   UNL A   1      32.152  26.175  26.356  1.00  0.00     0.430 C 
ATOM     24  F   UNL A   1      31.075  26.879  25.967  1.00  0.00    -0.167 F 
ATOM     25  F   UNL A   1      31.632  25.165  27.118  1.00  0.00    -0.167 F 
ATOM     26  F   UNL A   1      32.845  26.936  27.239  1.00  0.00    -0.167 F 
ENDBRANCH  13  23
ENDBRANCH   9  11
ENDBRANCH   8   9
ENDBRANCH   7   8
ENDBRANCH   6   7
ENDBRANCH   5   6
ENDBRANCH   4   5
ENDBRANCH   3   4
ENDBRANCH   2   3
ENDBRANCH   1   2
BRANCH   1  27
ATOM     27  C   UNL A   1      33.025  32.688  27.813  1.00  0.00     0.188 C 
BRANCH  27  28
ATOM     28  O   UNL A   1      33.582  33.980  27.967  1.00  0.00    -0.376 OA
BRANCH  28  29
ATOM     29  C   UNL A   1      34.467  34.292  29.027  1.00  0.00     0.202 C 
BRANCH  29  30
ATOM     30  C   UNL A   1      34.277  33.731  30.444  1.00  0.00     0.261 C 
BRANCH  30  31
ATOM     31  O   UNL A   1      34.827  32.432  30.692  1.00  0.00    -0.460 OA
BRANCH  31  32
ATOM     32  C   UNL A   1      35.619  32.334  31.780  1.00  0.00     0.338 C 
ATOM     33  O   UNL A   1      35.270  32.289  32.946  1.00  0.00    -0.246 OA
BRANCH  32  34
ATOM     34  C   UNL A   1      37.015  32.101  31.347  1.00  0.00     0.060 A 
ATOM     35  C   UNL A   1      37.359  32.378  30.012  1.00  0.00     0.016 A 
ATOM     36  C   UNL A   1      37.967  31.590  32.229  1.00  0.00     0.016 A 
ATOM     37  C   UNL A   1      38.636  32.099  29.538  1.00  0.00     0.010 A 
ATOM     38  C   UNL A   1      39.230  31.259  31.742  1.00  0.00     0.010 A 
ATOM     39  C   UNL A   1      39.546  31.464  30.385  1.00  0.00    -0.014 A 
BRANCH  39  40
ATOM     40  C   UNL A   1      40.688  30.730  29.801  1.00  0.00     0.031 A 
ATOM     41  C   UNL A   1      41.981  31.481  29.642  1.00  0.00     0.074 A 
ATOM     42  C   UNL A   1      40.587  29.450  29.413  1.00  0.00     0.049 A 
ATOM     43  N   UNL A   1      43.075  31.133  29.019  1.00  0.00    -0.248 NA
ATOM     44  C   UNL A   1      42.034  32.819  30.258  1.00  0.00     0.031 C 
ATOM     45  C   UNL A   1      39.416  28.597  29.593  1.00  0.00     0.029 A 
ATOM     46  N   UNL A   1      41.493  28.656  28.758  1.00  0.00    -0.354 N 
ATOM     47  C   UNL A   1      43.931  32.221  29.138  1.00  0.00     0.074 A 
ATOM     48  C   UNL A   1      43.223  33.247  29.866  1.00  0.00     0.031 C 
ATOM     49  C   UNL A   1      39.664  27.402  29.031  1.00  0.00     0.029 A 
ATOM     50  C   UNL A   1      40.988  27.428  28.412  1.00  0.00     0.049 A 
ATOM     51  H   UNL A   1      42.415  28.939  28.556  1.00  0.00     0.167 HD
ATOM     52  C   UNL A   1      45.195  32.354  28.673  1.00  0.00     0.031 A 
ATOM     53  C   UNL A   1      41.524  26.460  27.645  1.00  0.00     0.031 A 
ATOM     54  C   UNL A   1      45.879  31.333  27.926  1.00  0.00     0.049 A 
ATOM     55  C   UNL A   1      42.893  26.662  27.052  1.00  0.00     0.074 A 
ATOM     56  C   UNL A   1      47.164  31.353  27.416  1.00  0.00     0.029 A 
ATOM     57  N   UNL A   1      45.323  30.113  27.571  1.00  0.00    -0.354 N 
ATOM     58  N   UNL A   1      43.703  27.688  27.166  1.00  0.00    -0.248 NA
ATOM     59  C   UNL A   1      43.427  25.567  26.229  1.00  0.00     0.031 C 
ATOM     60  C   UNL A   1      47.355  30.180  26.682  1.00  0.00     0.029 A 
ATOM     61  C   UNL A   1      46.227  29.386  26.817  1.00  0.00     0.049 A 
ATOM     62  H   UNL A   1      44.420  29.810  27.818  1.00  0.00     0.167 HD
ATOM     63  C   UNL A   1      44.856  27.346  26.469  1.00  0.00     0.074 A 
ATOM     64  C   UNL A   1      44.640  26.016  25.936  1.00  0.00     0.031 C 
ATOM     65  C   UNL A   1      45.996  28.061  26.298  1.00  0.00     0.031 A 
BRANCH  52  66
ATOM     66  C   UNL A   1      45.882  33.673  28.903  1.00  0.00    -0.014 A 
ATOM     67  C   UNL A   1      45.777  34.734  27.989  1.00  0.00     0.009 A 
ATOM     68  C   UNL A   1      46.655  33.854  30.061  1.00  0.00     0.009 A 
ATOM     69  C   UNL A   1      46.475  35.926  28.204  1.00  0.00     0.001 A 
ATOM     70  C   UNL A   1      47.316  35.060  30.294  1.00  0.00     0.001 A 
ATOM     71  C   UNL A   1      47.239  36.089  29.358  1.00  0.00     0.000 A 
ENDBRANCH  52  66
BRANCH  53  72
ATOM     72  C   UNL A   1      40.747  25.220  27.376  1.00  0.00    -0.014 A 
ATOM     73  C   UNL A   1      41.138  23.995  27.938  1.00  0.00     0.009 A 
ATOM     74  C   UNL A   1      39.604  25.256  26.561  1.00  0.00     0.009 A 
ATOM     75  C   UNL A   1      40.414  22.831  27.671  1.00  0.00     0.001 A 
ATOM     76  C   UNL A   1      38.863  24.098  26.325  1.00  0.00     0.001 A 
ATOM     77  C   UNL A   1      39.273  22.885  26.873  1.00  0.00     0.000 A 
ENDBRANCH  53  72
BRANCH  65  78
ATOM     78  C   UNL A   1      47.133  27.402  25.562  1.00  0.00    -0.014 A 
ATOM     79  C   UNL A   1      47.312  27.555  24.178  1.00  0.00     0.009 A 
ATOM     80  C   UNL A   1      48.087  26.671  26.292  1.00  0.00     0.009 A 
ATOM     81  C   UNL A   1      48.404  26.963  23.540  1.00  0.00     0.001 A 
ATOM     82  C   UNL A   1      49.196  26.114  25.657  1.00  0.00     0.001 A 
ATOM     83  C   UNL A   1      49.349  26.252  24.279  1.00  0.00     0.000 A 
ENDBRANCH  65  78
ENDBRANCH  39  40
ENDBRANCH  32  34
ENDBRANCH  31  32
ENDBRANCH  30  31
ENDBRANCH  29  30
ENDBRANCH  28  29
ENDBRANCH  27  28
ENDBRANCH   1  27
TORSDOF 21
ENDMDL
