MODEL 1
REMARK VINA RESULT:      -9.1      0.000      0.000
REMARK SMILES CCC(CC)NC(=O)NC[C@H]1CC[C@H](C(=O)OCCOCCOCCOCCOC(=O)c2ccc(-c3c4nc(c(-c5ccccc5)c5ccc([nH]5)c(-c5ccccc5)c5nc(c(-c6ccccc6)c6ccc3[nH]6)C=C5)C=C4)cc2)O1
REMARK SMILES IDX 22 1 21 2 20 3 19 4 18 5 17 6 15 7 16 8 14 9 11 10 12 11
REMARK SMILES IDX 80 12 13 13 10 14 9 15 6 16 7 17 8 19 3 21 2 22 1 23 4 24
REMARK SMILES IDX 5 25 23 26 24 27 25 28 26 29 27 30 28 31 29 32 30 33 31 34
REMARK SMILES IDX 32 35 33 36 79 37 34 38 78 39 35 40 36 41 37 42 72 43 38 44
REMARK SMILES IDX 77 45 71 46 73 47 39 48 76 49 70 50 69 51 40 53 62 54 47 55
REMARK SMILES IDX 61 56 48 57 51 58 60 59 74 60 49 61 50 62 59 64 75 65 52 66
REMARK SMILES IDX 41 67 42 68 46 69 43 70 45 71 44 72 63 73 64 74 68 75 65 76
REMARK SMILES IDX 67 77 66 78 53 79 54 80 58 81 55 82 57 83 56 84
REMARK H PARENT 6 18 9 20 73 52 51 63
REMARK Flexibility Score: inf
ROOT
ATOM      1  C   UNL A   1      40.279  21.701  26.729  1.00  0.00     0.188 C 
ENDROOT
BRANCH   1   2
ATOM      2  C   UNL A   1      38.891  21.958  26.127  1.00  0.00     0.188 C 
BRANCH   2   3
ATOM      3  O   UNL A   1      38.283  20.997  25.281  1.00  0.00    -0.376 OA
BRANCH   3   4
ATOM      4  C   UNL A   1      36.888  20.730  25.318  1.00  0.00     0.202 C 
BRANCH   4   5
ATOM      5  C   UNL A   1      35.798  21.807  25.195  1.00  0.00     0.261 C 
BRANCH   5   6
ATOM      6  O   UNL A   1      34.880  21.672  24.104  1.00  0.00    -0.461 OA
BRANCH   6   7
ATOM      7  C   UNL A   1      33.569  21.786  24.429  1.00  0.00     0.335 C 
ATOM      8  O   UNL A   1      32.917  20.900  24.974  1.00  0.00    -0.249 OA
BRANCH   7   9
ATOM      9  C   UNL A   1      32.956  23.135  24.051  1.00  0.00     0.228 C 
ATOM     10  C   UNL A   1      33.856  24.902  22.805  1.00  0.00     0.138 C 
ATOM     11  C   UNL A   1      34.071  25.243  24.262  1.00  0.00     0.037 C 
ATOM     12  O   UNL A   1      33.483  23.517  22.768  1.00  0.00    -0.361 OA
ATOM     13  C   UNL A   1      33.126  24.327  24.982  1.00  0.00     0.047 C 
BRANCH  10  14
ATOM     14  C   UNL A   1      32.803  25.772  22.083  1.00  0.00     0.149 C 
BRANCH  14  15
ATOM     15  N   UNL A   1      33.162  27.182  22.014  1.00  0.00    -0.336 N 
ATOM     16  N   UNL A   1      32.129  28.373  23.771  1.00  0.00    -0.335 N 
ATOM     17  C   UNL A   1      32.983  28.277  22.750  1.00  0.00     0.315 C 
ATOM     18  H   UNL A   1      32.225  29.213  24.274  1.00  0.00     0.165 HD
ATOM     19  O   UNL A   1      33.639  29.280  22.461  1.00  0.00    -0.249 OA
ATOM     20  H   UNL A   1      33.680  27.379  21.200  1.00  0.00     0.165 HD
BRANCH  16  21
ATOM     21  C   UNL A   1      31.086  27.510  24.303  1.00  0.00     0.083 C 
BRANCH  21  22
ATOM     22  C   UNL A   1      31.037  27.641  25.831  1.00  0.00     0.021 C 
ATOM     23  C   UNL A   1      32.422  27.711  26.455  1.00  0.00     0.006 C 
ENDBRANCH  21  22
BRANCH  21  24
ATOM     24  C   UNL A   1      29.750  27.776  23.578  1.00  0.00     0.021 C 
ATOM     25  C   UNL A   1      29.686  29.052  22.750  1.00  0.00     0.006 C 
ENDBRANCH  21  24
ENDBRANCH  16  21
ENDBRANCH  14  15
ENDBRANCH  10  14
ENDBRANCH   7   9
ENDBRANCH   6   7
ENDBRANCH   5   6
ENDBRANCH   4   5
ENDBRANCH   3   4
ENDBRANCH   2   3
ENDBRANCH   1   2
BRANCH   1  26
ATOM     26  O   UNL A   1      40.486  20.372  27.164  1.00  0.00    -0.377 OA
BRANCH  26  27
ATOM     27  C   UNL A   1      41.028  19.432  26.246  1.00  0.00     0.188 C 
BRANCH  27  28
ATOM     28  C   UNL A   1      42.558  19.294  26.121  1.00  0.00     0.188 C 
BRANCH  28  29
ATOM     29  O   UNL A   1      43.112  19.991  25.016  1.00  0.00    -0.376 OA
BRANCH  29  30
ATOM     30  C   UNL A   1      44.522  20.147  24.947  1.00  0.00     0.202 C 
BRANCH  30  31
ATOM     31  C   UNL A   1      45.116  21.503  25.364  1.00  0.00     0.261 C 
BRANCH  31  32
ATOM     32  O   UNL A   1      44.185  22.566  25.633  1.00  0.00    -0.460 OA
BRANCH  32  33
ATOM     33  C   UNL A   1      44.544  23.828  25.310  1.00  0.00     0.338 C 
ATOM     34  O   UNL A   1      45.253  24.182  24.394  1.00  0.00    -0.246 OA
BRANCH  33  35
ATOM     35  C   UNL A   1      43.759  24.747  26.166  1.00  0.00     0.060 A 
ATOM     36  C   UNL A   1      44.111  26.103  26.208  1.00  0.00     0.016 A 
ATOM     37  C   UNL A   1      42.693  24.269  26.933  1.00  0.00     0.016 A 
ATOM     38  C   UNL A   1      43.424  26.978  27.052  1.00  0.00     0.010 A 
ATOM     39  C   UNL A   1      42.021  25.143  27.792  1.00  0.00     0.010 A 
ATOM     40  C   UNL A   1      42.407  26.493  27.883  1.00  0.00    -0.014 A 
BRANCH  40  41
ATOM     41  C   UNL A   1      41.884  27.339  28.985  1.00  0.00     0.031 A 
ATOM     42  C   UNL A   1      42.611  27.328  30.303  1.00  0.00     0.074 A 
ATOM     43  C   UNL A   1      40.799  28.116  28.822  1.00  0.00     0.049 A 
ATOM     44  N   UNL A   1      42.311  27.932  31.424  1.00  0.00    -0.248 NA
ATOM     45  C   UNL A   1      43.842  26.522  30.362  1.00  0.00     0.031 C 
ATOM     46  C   UNL A   1      40.039  28.266  27.582  1.00  0.00     0.029 A 
ATOM     47  N   UNL A   1      40.147  28.925  29.719  1.00  0.00    -0.354 N 
ATOM     48  C   UNL A   1      43.308  27.572  32.322  1.00  0.00     0.074 A 
ATOM     49  C   UNL A   1      44.202  26.672  31.627  1.00  0.00     0.031 C 
ATOM     50  C   UNL A   1      39.017  29.113  27.800  1.00  0.00     0.029 A 
ATOM     51  C   UNL A   1      39.028  29.531  29.201  1.00  0.00     0.049 A 
ATOM     52  H   UNL A   1      40.451  29.060  30.645  1.00  0.00     0.167 HD
ATOM     53  C   UNL A   1      43.470  27.959  33.610  1.00  0.00     0.031 A 
ATOM     54  C   UNL A   1      38.105  30.312  29.797  1.00  0.00     0.031 A 
ATOM     55  C   UNL A   1      42.571  28.838  34.309  1.00  0.00     0.049 A 
ATOM     56  C   UNL A   1      38.250  30.646  31.261  1.00  0.00     0.074 A 
ATOM     57  C   UNL A   1      42.651  29.292  35.614  1.00  0.00     0.029 A 
ATOM     58  N   UNL A   1      41.421  29.387  33.763  1.00  0.00    -0.354 N 
ATOM     59  N   UNL A   1      39.204  30.313  32.097  1.00  0.00    -0.248 NA
ATOM     60  C   UNL A   1      37.189  31.471  31.859  1.00  0.00     0.031 C 
ATOM     61  C   UNL A   1      41.514  30.062  35.878  1.00  0.00     0.029 A 
ATOM     62  C   UNL A   1      40.766  30.150  34.715  1.00  0.00     0.049 A 
ATOM     63  H   UNL A   1      41.116  29.254  32.836  1.00  0.00     0.167 HD
ATOM     64  C   UNL A   1      38.877  30.915  33.306  1.00  0.00     0.074 A 
ATOM     65  C   UNL A   1      37.645  31.645  33.092  1.00  0.00     0.031 C 
ATOM     66  C   UNL A   1      39.540  30.872  34.489  1.00  0.00     0.031 A 
BRANCH  53  67
ATOM     67  C   UNL A   1      44.647  27.396  34.358  1.00  0.00    -0.014 A 
ATOM     68  C   UNL A   1      45.894  28.043  34.359  1.00  0.00     0.009 A 
ATOM     69  C   UNL A   1      44.498  26.213  35.098  1.00  0.00     0.009 A 
ATOM     70  C   UNL A   1      46.974  27.495  35.053  1.00  0.00     0.001 A 
ATOM     71  C   UNL A   1      45.570  25.685  35.819  1.00  0.00     0.001 A 
ATOM     72  C   UNL A   1      46.811  26.321  35.787  1.00  0.00     0.000 A 
ENDBRANCH  53  67
BRANCH  54  73
ATOM     73  C   UNL A   1      36.941  30.821  29.022  1.00  0.00    -0.014 A 
ATOM     74  C   UNL A   1      36.852  32.177  28.670  1.00  0.00     0.009 A 
ATOM     75  C   UNL A   1      35.897  29.957  28.655  1.00  0.00     0.009 A 
ATOM     76  C   UNL A   1      35.730  32.660  27.992  1.00  0.00     0.001 A 
ATOM     77  C   UNL A   1      34.792  30.437  27.948  1.00  0.00     0.001 A 
ATOM     78  C   UNL A   1      34.704  31.789  27.627  1.00  0.00     0.000 A 
ENDBRANCH  54  73
BRANCH  66  79
ATOM     79  C   UNL A   1      38.977  31.672  35.633  1.00  0.00    -0.014 A 
ATOM     80  C   UNL A   1      39.217  33.050  35.757  1.00  0.00     0.009 A 
ATOM     81  C   UNL A   1      38.150  31.041  36.577  1.00  0.00     0.009 A 
ATOM     82  C   UNL A   1      38.670  33.769  36.823  1.00  0.00     0.001 A 
ATOM     83  C   UNL A   1      37.577  31.770  37.621  1.00  0.00     0.001 A 
ATOM     84  C   UNL A   1      37.847  33.131  37.749  1.00  0.00     0.000 A 
ENDBRANCH  66  79
ENDBRANCH  40  41
ENDBRANCH  33  35
ENDBRANCH  32  33
ENDBRANCH  31  32
ENDBRANCH  30  31
ENDBRANCH  29  30
ENDBRANCH  28  29
ENDBRANCH  27  28
ENDBRANCH  26  27
ENDBRANCH   1  26
TORSDOF 25
ENDMDL
MODEL 2
REMARK VINA RESULT:      -9.1      1.386      2.086
REMARK SMILES CCC(CC)NC(=O)NC[C@H]1CC[C@H](C(=O)OCCOCCOCCOCCOC(=O)c2ccc(-c3c4nc(c(-c5ccccc5)c5ccc([nH]5)c(-c5ccccc5)c5nc(c(-c6ccccc6)c6ccc3[nH]6)C=C5)C=C4)cc2)O1
REMARK SMILES IDX 22 1 21 2 20 3 19 4 18 5 17 6 15 7 16 8 14 9 11 10 12 11
REMARK SMILES IDX 80 12 13 13 10 14 9 15 6 16 7 17 8 19 3 21 2 22 1 23 4 24
REMARK SMILES IDX 5 25 23 26 24 27 25 28 26 29 27 30 28 31 29 32 30 33 31 34
REMARK SMILES IDX 32 35 33 36 79 37 34 38 78 39 35 40 36 41 37 42 72 43 38 44
REMARK SMILES IDX 77 45 71 46 73 47 39 48 76 49 70 50 69 51 40 53 62 54 47 55
REMARK SMILES IDX 61 56 48 57 51 58 60 59 74 60 49 61 50 62 59 64 75 65 52 66
REMARK SMILES IDX 41 67 42 68 46 69 43 70 45 71 44 72 63 73 64 74 68 75 65 76
REMARK SMILES IDX 67 77 66 78 53 79 54 80 58 81 55 82 57 83 56 84
REMARK H PARENT 6 18 9 20 73 52 51 63
REMARK Flexibility Score: inf
ROOT
ATOM      1  C   UNL A   1      41.134  21.355  26.396  1.00  0.00     0.188 C 
ENDROOT
BRANCH   1   2
ATOM      2  C   UNL A   1      39.601  21.380  26.323  1.00  0.00     0.188 C 
BRANCH   2   3
ATOM      3  O   UNL A   1      38.904  20.473  25.487  1.00  0.00    -0.376 OA
BRANCH   3   4
ATOM      4  C   UNL A   1      37.738  20.850  24.768  1.00  0.00     0.202 C 
BRANCH   4   5
ATOM      5  C   UNL A   1      36.331  20.931  25.383  1.00  0.00     0.261 C 
BRANCH   5   6
ATOM      6  O   UNL A   1      35.390  21.789  24.727  1.00  0.00    -0.461 OA
BRANCH   6   7
ATOM      7  C   UNL A   1      35.293  23.042  25.235  1.00  0.00     0.335 C 
ATOM      8  O   UNL A   1      36.175  23.586  25.893  1.00  0.00    -0.249 OA
BRANCH   7   9
ATOM      9  C   UNL A   1      33.966  23.733  24.919  1.00  0.00     0.228 C 
ATOM     10  C   UNL A   1      32.271  23.126  23.421  1.00  0.00     0.138 C 
ATOM     11  C   UNL A   1      33.137  24.140  22.710  1.00  0.00     0.037 C 
ATOM     12  O   UNL A   1      33.005  22.716  24.584  1.00  0.00    -0.361 OA
ATOM     13  C   UNL A   1      33.909  24.786  23.822  1.00  0.00     0.047 C 
BRANCH  10  14
ATOM     14  C   UNL A   1      30.865  23.634  23.813  1.00  0.00     0.149 C 
BRANCH  14  15
ATOM     15  N   UNL A   1      30.529  23.398  25.210  1.00  0.00    -0.336 N 
ATOM     16  N   UNL A   1      30.614  25.423  26.421  1.00  0.00    -0.335 N 
ATOM     17  C   UNL A   1      30.319  24.127  26.304  1.00  0.00     0.315 C 
ATOM     18  H   UNL A   1      30.272  25.821  27.253  1.00  0.00     0.165 HD
ATOM     19  O   UNL A   1      29.832  23.563  27.287  1.00  0.00    -0.249 OA
ATOM     20  H   UNL A   1      30.430  22.436  25.396  1.00  0.00     0.165 HD
BRANCH  16  21
ATOM     21  C   UNL A   1      31.331  26.377  25.589  1.00  0.00     0.083 C 
BRANCH  21  22
ATOM     22  C   UNL A   1      30.349  27.073  24.639  1.00  0.00     0.021 C 
ATOM     23  C   UNL A   1      30.942  27.312  23.259  1.00  0.00     0.006 C 
ENDBRANCH  21  22
BRANCH  21  24
ATOM     24  C   UNL A   1      32.176  27.322  26.469  1.00  0.00     0.021 C 
ATOM     25  C   UNL A   1      33.558  27.671  25.933  1.00  0.00     0.006 C 
ENDBRANCH  21  24
ENDBRANCH  16  21
ENDBRANCH  14  15
ENDBRANCH  10  14
ENDBRANCH   7   9
ENDBRANCH   6   7
ENDBRANCH   5   6
ENDBRANCH   4   5
ENDBRANCH   3   4
ENDBRANCH   2   3
ENDBRANCH   1   2
BRANCH   1  26
ATOM     26  O   UNL A   1      41.668  20.183  26.979  1.00  0.00    -0.377 OA
BRANCH  26  27
ATOM     27  C   UNL A   1      42.201  19.180  26.125  1.00  0.00     0.188 C 
BRANCH  27  28
ATOM     28  C   UNL A   1      43.531  19.440  25.392  1.00  0.00     0.188 C 
BRANCH  28  29
ATOM     29  O   UNL A   1      43.711  20.786  24.980  1.00  0.00    -0.376 OA
BRANCH  29  30
ATOM     30  C   UNL A   1      44.905  21.136  24.296  1.00  0.00     0.202 C 
BRANCH  30  31
ATOM     31  C   UNL A   1      45.069  22.595  23.839  1.00  0.00     0.261 C 
BRANCH  31  32
ATOM     32  O   UNL A   1      44.388  23.600  24.611  1.00  0.00    -0.460 OA
BRANCH  32  33
ATOM     33  C   UNL A   1      45.082  24.695  24.992  1.00  0.00     0.338 C 
ATOM     34  O   UNL A   1      46.150  25.075  24.568  1.00  0.00    -0.246 OA
BRANCH  33  35
ATOM     35  C   UNL A   1      44.214  25.477  25.903  1.00  0.00     0.060 A 
ATOM     36  C   UNL A   1      44.310  26.875  25.897  1.00  0.00     0.016 A 
ATOM     37  C   UNL A   1      43.325  24.833  26.766  1.00  0.00     0.016 A 
ATOM     38  C   UNL A   1      43.545  27.633  26.786  1.00  0.00     0.010 A 
ATOM     39  C   UNL A   1      42.577  25.592  27.670  1.00  0.00     0.010 A 
ATOM     40  C   UNL A   1      42.711  26.992  27.710  1.00  0.00    -0.014 A 
BRANCH  40  41
ATOM     41  C   UNL A   1      42.133  27.758  28.843  1.00  0.00     0.031 A 
ATOM     42  C   UNL A   1      42.876  27.767  30.153  1.00  0.00     0.074 A 
ATOM     43  C   UNL A   1      40.986  28.447  28.716  1.00  0.00     0.049 A 
ATOM     44  N   UNL A   1      42.541  28.310  31.295  1.00  0.00    -0.248 NA
ATOM     45  C   UNL A   1      44.170  27.066  30.174  1.00  0.00     0.031 C 
ATOM     46  C   UNL A   1      40.201  28.571  27.489  1.00  0.00     0.029 A 
ATOM     47  N   UNL A   1      40.281  29.172  29.644  1.00  0.00    -0.354 N 
ATOM     48  C   UNL A   1      43.576  28.008  32.171  1.00  0.00     0.074 A 
ATOM     49  C   UNL A   1      44.533  27.207  31.439  1.00  0.00     0.031 C 
ATOM     50  C   UNL A   1      39.115  29.324  27.744  1.00  0.00     0.029 A 
ATOM     51  C   UNL A   1      39.109  29.698  29.157  1.00  0.00     0.049 A 
ATOM     52  H   UNL A   1      40.585  29.303  30.571  1.00  0.00     0.167 HD
ATOM     53  C   UNL A   1      43.722  28.368  33.468  1.00  0.00     0.031 A 
ATOM     54  C   UNL A   1      38.132  30.382  29.787  1.00  0.00     0.031 A 
ATOM     55  C   UNL A   1      42.763  29.147  34.204  1.00  0.00     0.049 A 
ATOM     56  C   UNL A   1      38.268  30.682  31.258  1.00  0.00     0.074 A 
ATOM     57  C   UNL A   1      42.822  29.567  35.521  1.00  0.00     0.029 A 
ATOM     58  N   UNL A   1      41.564  29.615  33.687  1.00  0.00    -0.354 N 
ATOM     59  N   UNL A   1      39.257  30.404  32.074  1.00  0.00    -0.248 NA
ATOM     60  C   UNL A   1      37.151  31.398  31.893  1.00  0.00     0.031 C 
ATOM     61  C   UNL A   1      41.628  30.232  35.821  1.00  0.00     0.029 A 
ATOM     62  C   UNL A   1      40.861  30.292  34.669  1.00  0.00     0.049 A 
ATOM     63  H   UNL A   1      41.259  29.485  32.760  1.00  0.00     0.167 HD
ATOM     64  C   UNL A   1      38.897  30.940  33.305  1.00  0.00     0.074 A 
ATOM     65  C   UNL A   1      37.606  31.571  33.126  1.00  0.00     0.031 C 
ATOM     66  C   UNL A   1      39.576  30.917  34.478  1.00  0.00     0.031 A 
BRANCH  53  67
ATOM     67  C   UNL A   1      44.952  27.882  34.186  1.00  0.00    -0.014 A 
ATOM     68  C   UNL A   1      44.981  26.635  34.831  1.00  0.00     0.009 A 
ATOM     69  C   UNL A   1      46.111  28.674  34.192  1.00  0.00     0.009 A 
ATOM     70  C   UNL A   1      46.131  26.211  35.499  1.00  0.00     0.001 A 
ATOM     71  C   UNL A   1      47.270  28.233  34.831  1.00  0.00     0.001 A 
ATOM     72  C   UNL A   1      47.276  27.006  35.493  1.00  0.00     0.000 A 
ENDBRANCH  53  67
BRANCH  54  73
ATOM     73  C   UNL A   1      36.920  30.815  29.039  1.00  0.00    -0.014 A 
ATOM     74  C   UNL A   1      35.933  29.886  28.677  1.00  0.00     0.009 A 
ATOM     75  C   UNL A   1      36.760  32.156  28.658  1.00  0.00     0.009 A 
ATOM     76  C   UNL A   1      34.825  30.288  27.926  1.00  0.00     0.001 A 
ATOM     77  C   UNL A   1      35.635  32.561  27.936  1.00  0.00     0.001 A 
ATOM     78  C   UNL A   1      34.674  31.625  27.562  1.00  0.00     0.000 A 
ENDBRANCH  54  73
BRANCH  66  79
ATOM     79  C   UNL A   1      38.964  31.632  35.653  1.00  0.00    -0.014 A 
ATOM     80  C   UNL A   1      39.121  33.015  35.836  1.00  0.00     0.009 A 
ATOM     81  C   UNL A   1      38.175  30.914  36.566  1.00  0.00     0.009 A 
ATOM     82  C   UNL A   1      38.530  33.655  36.928  1.00  0.00     0.001 A 
ATOM     83  C   UNL A   1      37.557  31.562  37.636  1.00  0.00     0.001 A 
ATOM     84  C   UNL A   1      37.745  32.930  37.823  1.00  0.00     0.000 A 
ENDBRANCH  66  79
ENDBRANCH  40  41
ENDBRANCH  33  35
ENDBRANCH  32  33
ENDBRANCH  31  32
ENDBRANCH  30  31
ENDBRANCH  29  30
ENDBRANCH  28  29
ENDBRANCH  27  28
ENDBRANCH  26  27
ENDBRANCH   1  26
TORSDOF 25
ENDMDL
MODEL 3
REMARK VINA RESULT:      -8.7      3.331      8.662
REMARK SMILES CCC(CC)NC(=O)NC[C@H]1CC[C@H](C(=O)OCCOCCOCCOCCOC(=O)c2ccc(-c3c4nc(c(-c5ccccc5)c5ccc([nH]5)c(-c5ccccc5)c5nc(c(-c6ccccc6)c6ccc3[nH]6)C=C5)C=C4)cc2)O1
REMARK SMILES IDX 22 1 21 2 20 3 19 4 18 5 17 6 15 7 16 8 14 9 11 10 12 11
REMARK SMILES IDX 80 12 13 13 10 14 9 15 6 16 7 17 8 19 3 21 2 22 1 23 4 24
REMARK SMILES IDX 5 25 23 26 24 27 25 28 26 29 27 30 28 31 29 32 30 33 31 34
REMARK SMILES IDX 32 35 33 36 79 37 34 38 78 39 35 40 36 41 37 42 72 43 38 44
REMARK SMILES IDX 77 45 71 46 73 47 39 48 76 49 70 50 69 51 40 53 62 54 47 55
REMARK SMILES IDX 61 56 48 57 51 58 60 59 74 60 49 61 50 62 59 64 75 65 52 66
REMARK SMILES IDX 41 67 42 68 46 69 43 70 45 71 44 72 63 73 64 74 68 75 65 76
REMARK SMILES IDX 67 77 66 78 53 79 54 80 58 81 55 82 57 83 56 84
REMARK H PARENT 6 18 9 20 73 52 51 63
REMARK Flexibility Score: inf
ROOT
ATOM      1  C   UNL A   1      33.805  27.698  24.699  1.00  0.00     0.188 C 
ENDROOT
BRANCH   1   2
ATOM      2  C   UNL A   1      33.052  28.942  24.209  1.00  0.00     0.188 C 
BRANCH   2   3
ATOM      3  O   UNL A   1      32.645  29.053  22.856  1.00  0.00    -0.376 OA
BRANCH   3   4
ATOM      4  C   UNL A   1      31.293  29.297  22.490  1.00  0.00     0.202 C 
BRANCH   4   5
ATOM      5  C   UNL A   1      30.079  28.857  23.324  1.00  0.00     0.261 C 
BRANCH   5   6
ATOM      6  O   UNL A   1      29.385  27.684  22.883  1.00  0.00    -0.461 OA
BRANCH   6   7
ATOM      7  C   UNL A   1      29.109  26.775  23.848  1.00  0.00     0.335 C 
ATOM      8  O   UNL A   1      27.989  26.316  24.059  1.00  0.00    -0.249 OA
BRANCH   7   9
ATOM      9  C   UNL A   1      30.328  26.362  24.673  1.00  0.00     0.228 C 
ATOM     10  C   UNL A   1      31.373  24.276  24.876  1.00  0.00     0.138 C 
ATOM     11  C   UNL A   1      30.438  24.411  26.055  1.00  0.00     0.037 C 
ATOM     12  O   UNL A   1      31.014  25.319  23.958  1.00  0.00    -0.361 OA
ATOM     13  C   UNL A   1      30.141  25.880  26.104  1.00  0.00     0.047 C 
BRANCH  10  14
ATOM     14  C   UNL A   1      32.876  24.349  25.227  1.00  0.00     0.149 C 
BRANCH  14  15
ATOM     15  N   UNL A   1      33.220  23.656  26.461  1.00  0.00    -0.336 N 
ATOM     16  N   UNL A   1      35.005  22.158  26.083  1.00  0.00    -0.335 N 
ATOM     17  C   UNL A   1      34.159  22.811  26.881  1.00  0.00     0.315 C 
ATOM     18  H   UNL A   1      35.708  21.679  26.577  1.00  0.00     0.165 HD
ATOM     19  O   UNL A   1      34.245  22.603  28.094  1.00  0.00    -0.249 OA
ATOM     20  H   UNL A   1      32.584  23.872  27.181  1.00  0.00     0.165 HD
BRANCH  16  21
ATOM     21  C   UNL A   1      35.116  21.996  24.642  1.00  0.00     0.083 C 
BRANCH  21  22
ATOM     22  C   UNL A   1      36.583  21.762  24.260  1.00  0.00     0.021 C 
ATOM     23  C   UNL A   1      37.499  21.705  25.473  1.00  0.00     0.006 C 
ENDBRANCH  21  22
BRANCH  21  24
ATOM     24  C   UNL A   1      34.129  20.918  24.148  1.00  0.00     0.021 C 
ATOM     25  C   UNL A   1      34.248  19.552  24.810  1.00  0.00     0.006 C 
ENDBRANCH  21  24
ENDBRANCH  16  21
ENDBRANCH  14  15
ENDBRANCH  10  14
ENDBRANCH   7   9
ENDBRANCH   6   7
ENDBRANCH   5   6
ENDBRANCH   4   5
ENDBRANCH   3   4
ENDBRANCH   2   3
ENDBRANCH   1   2
BRANCH   1  26
ATOM     26  O   UNL A   1      33.954  27.626  26.102  1.00  0.00    -0.377 OA
BRANCH  26  27
ATOM     27  C   UNL A   1      33.628  28.768  26.882  1.00  0.00     0.188 C 
BRANCH  27  28
ATOM     28  C   UNL A   1      34.745  29.747  27.295  1.00  0.00     0.188 C 
BRANCH  28  29
ATOM     29  O   UNL A   1      34.321  31.097  27.397  1.00  0.00    -0.376 OA
BRANCH  29  30
ATOM     30  C   UNL A   1      32.929  31.378  27.378  1.00  0.00     0.202 C 
BRANCH  30  31
ATOM     31  C   UNL A   1      32.494  32.853  27.389  1.00  0.00     0.261 C 
BRANCH  31  32
ATOM     32  O   UNL A   1      33.497  33.825  27.732  1.00  0.00    -0.460 OA
BRANCH  32  33
ATOM     33  C   UNL A   1      33.528  34.293  29.000  1.00  0.00     0.338 C 
ATOM     34  O   UNL A   1      32.664  34.913  29.578  1.00  0.00    -0.246 OA
BRANCH  33  35
ATOM     35  C   UNL A   1      34.745  33.748  29.646  1.00  0.00     0.060 A 
ATOM     36  C   UNL A   1      36.001  34.113  29.143  1.00  0.00     0.016 A 
ATOM     37  C   UNL A   1      34.644  32.872  30.728  1.00  0.00     0.016 A 
ATOM     38  C   UNL A   1      37.161  33.568  29.696  1.00  0.00     0.010 A 
ATOM     39  C   UNL A   1      35.806  32.310  31.267  1.00  0.00     0.010 A 
ATOM     40  C   UNL A   1      37.067  32.627  30.729  1.00  0.00    -0.014 A 
BRANCH  40  41
ATOM     41  C   UNL A   1      38.257  31.827  31.114  1.00  0.00     0.031 A 
ATOM     42  C   UNL A   1      39.061  32.269  32.308  1.00  0.00     0.074 A 
ATOM     43  C   UNL A   1      38.612  30.722  30.436  1.00  0.00     0.049 A 
ATOM     44  N   UNL A   1      40.167  31.771  32.797  1.00  0.00    -0.248 NA
ATOM     45  C   UNL A   1      38.544  33.433  33.047  1.00  0.00     0.031 C 
ATOM     46  C   UNL A   1      37.888  30.151  29.302  1.00  0.00     0.029 A 
ATOM     47  N   UNL A   1      39.686  29.884  30.609  1.00  0.00    -0.354 N 
ATOM     48  C   UNL A   1      40.484  32.565  33.892  1.00  0.00     0.074 A 
ATOM     49  C   UNL A   1      39.473  33.597  33.976  1.00  0.00     0.031 C 
ATOM     50  C   UNL A   1      38.545  29.057  28.875  1.00  0.00     0.029 A 
ATOM     51  C   UNL A   1      39.753  28.876  29.679  1.00  0.00     0.049 A 
ATOM     52  H   UNL A   1      40.346  29.994  31.331  1.00  0.00     0.167 HD
ATOM     53  C   UNL A   1      41.520  32.446  34.755  1.00  0.00     0.031 A 
ATOM     54  C   UNL A   1      40.694  27.932  29.483  1.00  0.00     0.031 A 
ATOM     55  C   UNL A   1      42.538  31.433  34.662  1.00  0.00     0.049 A 
ATOM     56  C   UNL A   1      41.895  27.882  30.394  1.00  0.00     0.074 A 
ATOM     57  C   UNL A   1      43.626  31.227  35.490  1.00  0.00     0.029 A 
ATOM     58  N   UNL A   1      42.597  30.464  33.672  1.00  0.00    -0.354 N 
ATOM     59  N   UNL A   1      42.178  28.628  31.435  1.00  0.00    -0.248 NA
ATOM     60  C   UNL A   1      42.904  26.851  30.103  1.00  0.00     0.031 C 
ATOM     61  C   UNL A   1      44.381  30.174  34.963  1.00  0.00     0.029 A 
ATOM     62  C   UNL A   1      43.721  29.676  33.851  1.00  0.00     0.049 A 
ATOM     63  H   UNL A   1      41.937  30.352  32.949  1.00  0.00     0.167 HD
ATOM     64  C   UNL A   1      43.375  28.136  31.942  1.00  0.00     0.074 A 
ATOM     65  C   UNL A   1      43.758  27.019  31.104  1.00  0.00     0.031 C 
ATOM     66  C   UNL A   1      44.092  28.566  33.010  1.00  0.00     0.031 A 
BRANCH  53  67
ATOM     67  C   UNL A   1      41.625  33.467  35.854  1.00  0.00    -0.014 A 
ATOM     68  C   UNL A   1      42.301  34.683  35.665  1.00  0.00     0.009 A 
ATOM     69  C   UNL A   1      41.011  33.220  37.092  1.00  0.00     0.009 A 
ATOM     70  C   UNL A   1      42.393  35.611  36.704  1.00  0.00     0.001 A 
ATOM     71  C   UNL A   1      41.075  34.164  38.118  1.00  0.00     0.001 A 
ATOM     72  C   UNL A   1      41.775  35.354  37.927  1.00  0.00     0.000 A 
ENDBRANCH  53  67
BRANCH  54  73
ATOM     73  C   UNL A   1      40.561  26.962  28.362  1.00  0.00    -0.014 A 
ATOM     74  C   UNL A   1      41.136  27.230  27.110  1.00  0.00     0.009 A 
ATOM     75  C   UNL A   1      39.830  25.775  28.530  1.00  0.00     0.009 A 
ATOM     76  C   UNL A   1      40.959  26.344  26.045  1.00  0.00     0.001 A 
ATOM     77  C   UNL A   1      39.684  24.874  27.472  1.00  0.00     0.001 A 
ATOM     78  C   UNL A   1      40.239  25.164  26.228  1.00  0.00     0.000 A 
ENDBRANCH  54  73
BRANCH  66  79
ATOM     79  C   UNL A   1      45.339  27.803  33.366  1.00  0.00    -0.014 A 
ATOM     80  C   UNL A   1      46.608  28.225  32.938  1.00  0.00     0.009 A 
ATOM     81  C   UNL A   1      45.244  26.667  34.186  1.00  0.00     0.009 A 
ATOM     82  C   UNL A   1      47.750  27.503  33.295  1.00  0.00     0.001 A 
ATOM     83  C   UNL A   1      46.390  25.969  34.569  1.00  0.00     0.001 A 
ATOM     84  C   UNL A   1      47.641  26.381  34.114  1.00  0.00     0.000 A 
ENDBRANCH  66  79
ENDBRANCH  40  41
ENDBRANCH  33  35
ENDBRANCH  32  33
ENDBRANCH  31  32
ENDBRANCH  30  31
ENDBRANCH  29  30
ENDBRANCH  28  29
ENDBRANCH  27  28
ENDBRANCH  26  27
ENDBRANCH   1  26
TORSDOF 25
ENDMDL
