MODEL 1
REMARK VINA RESULT:      -8.7      0.000      0.000
REMARK SMILES CC[C@@H](C(=O)OCCOCCOCCOCCOC(=O)c1ccc(-c2c3nc(c(-c4ccccc4)c4ccc([nH]4)c(-c4ccccc4)c4nc(c(-c5ccccc5)c5ccc2[nH]5)C=C4)C=C3)cc1)N(C)C(=O)N(C)C[C@@H]1CCC[N@H+]1C
REMARK SMILES IDX 10 1 9 2 8 3 7 4 6 5 4 6 5 7 3 8 2 9 1 10 69 11 70 12 71 13
REMARK SMILES IDX 72 14 73 15 74 16 75 17 76 18 77 19 80 20 78 21 79 22 81 23
REMARK SMILES IDX 11 25 12 26 13 27 14 28 15 29 16 30 17 31 18 32 19 33 20 34
REMARK SMILES IDX 21 35 22 36 68 37 23 38 67 39 24 40 25 41 26 42 61 43 27 44
REMARK SMILES IDX 66 45 60 46 62 47 28 48 65 49 59 50 58 51 29 53 51 54 36 55
REMARK SMILES IDX 50 56 37 57 40 58 49 59 63 60 38 61 39 62 48 64 64 65 41 66
REMARK SMILES IDX 30 67 31 68 35 69 32 70 34 71 33 72 52 73 53 74 57 75 54 76
REMARK SMILES IDX 56 77 55 78 42 79 43 80 47 81 44 82 46 83 45 84
REMARK H PARENT 80 24 62 52 40 63
REMARK Flexibility Score: inf
ROOT
ATOM      1  C   UNL A   1      33.868  29.508  27.195  1.00  0.00     0.188 C 
ENDROOT
BRANCH   1   2
ATOM      2  O   UNL A   1      34.003  28.890  25.926  1.00  0.00    -0.376 OA
BRANCH   2   3
ATOM      3  C   UNL A   1      33.098  29.288  24.914  1.00  0.00     0.202 C 
BRANCH   3   4
ATOM      4  C   UNL A   1      33.406  28.809  23.489  1.00  0.00     0.261 C 
BRANCH   4   5
ATOM      5  O   UNL A   1      32.323  28.173  22.787  1.00  0.00    -0.462 OA
BRANCH   5   6
ATOM      6  C   UNL A   1      32.294  26.822  22.754  1.00  0.00     0.328 C 
ATOM      7  O   UNL A   1      33.116  26.157  22.128  1.00  0.00    -0.250 OA
BRANCH   6   8
ATOM      8  C   UNL A   1      31.092  26.189  23.514  1.00  0.00     0.196 C 
BRANCH   8   9
ATOM      9  C   UNL A   1      29.915  27.018  24.104  1.00  0.00     0.034 C 
ATOM     10  C   UNL A   1      28.510  26.429  23.993  1.00  0.00     0.007 C 
ENDBRANCH   8   9
BRANCH   8  11
ATOM     11  N   UNL A   1      31.643  25.130  24.450  1.00  0.00    -0.314 N 
ATOM     12  C   UNL A   1      32.551  25.651  25.451  1.00  0.00     0.149 C 
BRANCH  11  13
ATOM     13  C   UNL A   1      31.099  23.858  24.414  1.00  0.00     0.320 C 
ATOM     14  O   UNL A   1      30.699  23.433  23.328  1.00  0.00    -0.248 OA
BRANCH  13  15
ATOM     15  N   UNL A   1      30.951  23.026  25.511  1.00  0.00    -0.322 N 
ATOM     16  C   UNL A   1      30.232  23.224  26.760  1.00  0.00     0.149 C 
BRANCH  15  17
ATOM     17  C   UNL A   1      31.706  21.740  25.479  1.00  0.00     0.185 C 
BRANCH  17  18
ATOM     18  C   UNL A   1      33.260  21.763  25.364  1.00  0.00     0.203 C 
ATOM     19  C   UNL A   1      33.852  20.695  24.446  1.00  0.00     0.073 C 
ATOM     20  N   UNL A   1      34.076  21.617  26.587  1.00  0.00    -0.333 N 
ATOM     21  C   UNL A   1      35.302  20.531  24.899  1.00  0.00     0.068 C 
ATOM     22  C   UNL A   1      35.452  21.458  26.093  1.00  0.00     0.262 C 
ATOM     23  C   UNL A   1      33.975  22.760  27.486  1.00  0.00     0.333 C 
ATOM     24  H   UNL A   1      33.755  20.825  27.146  1.00  0.00     0.348 HD
ENDBRANCH  17  18
ENDBRANCH  15  17
ENDBRANCH  13  15
ENDBRANCH  11  13
ENDBRANCH   8  11
ENDBRANCH   6   8
ENDBRANCH   5   6
ENDBRANCH   4   5
ENDBRANCH   3   4
ENDBRANCH   2   3
ENDBRANCH   1   2
BRANCH   1  25
ATOM     25  C   UNL A   1      35.024  30.457  27.589  1.00  0.00     0.188 C 
BRANCH  25  26
ATOM     26  O   UNL A   1      34.945  31.876  27.532  1.00  0.00    -0.377 OA
BRANCH  26  27
ATOM     27  C   UNL A   1      35.782  32.622  28.384  1.00  0.00     0.188 C 
BRANCH  27  28
ATOM     28  C   UNL A   1      35.383  34.097  28.567  1.00  0.00     0.188 C 
BRANCH  28  29
ATOM     29  O   UNL A   1      34.191  34.467  27.885  1.00  0.00    -0.376 OA
BRANCH  29  30
ATOM     30  C   UNL A   1      32.996  34.585  28.643  1.00  0.00     0.202 C 
BRANCH  30  31
ATOM     31  C   UNL A   1      32.937  35.633  29.768  1.00  0.00     0.261 C 
BRANCH  31  32
ATOM     32  O   UNL A   1      32.449  35.187  31.040  1.00  0.00    -0.460 OA
BRANCH  32  33
ATOM     33  C   UNL A   1      32.892  35.801  32.153  1.00  0.00     0.338 C 
ATOM     34  O   UNL A   1      32.356  36.701  32.775  1.00  0.00    -0.246 OA
BRANCH  33  35
ATOM     35  C   UNL A   1      34.074  35.041  32.613  1.00  0.00     0.060 A 
ATOM     36  C   UNL A   1      35.352  35.588  32.428  1.00  0.00     0.016 A 
ATOM     37  C   UNL A   1      33.910  33.826  33.279  1.00  0.00     0.016 A 
ATOM     38  C   UNL A   1      36.473  34.919  32.915  1.00  0.00     0.010 A 
ATOM     39  C   UNL A   1      35.035  33.134  33.726  1.00  0.00     0.010 A 
ATOM     40  C   UNL A   1      36.321  33.668  33.525  1.00  0.00    -0.014 A 
BRANCH  40  41
ATOM     41  C   UNL A   1      37.505  32.805  33.731  1.00  0.00     0.031 A 
ATOM     42  C   UNL A   1      38.301  33.009  34.989  1.00  0.00     0.074 A 
ATOM     43  C   UNL A   1      37.866  31.869  32.837  1.00  0.00     0.049 A 
ATOM     44  N   UNL A   1      39.415  32.442  35.369  1.00  0.00    -0.248 NA
ATOM     45  C   UNL A   1      37.765  33.993  35.946  1.00  0.00     0.031 C 
ATOM     46  C   UNL A   1      37.143  31.538  31.611  1.00  0.00     0.029 A 
ATOM     47  N   UNL A   1      38.953  31.031  32.828  1.00  0.00    -0.354 N 
ATOM     48  C   UNL A   1      39.718  33.008  36.601  1.00  0.00     0.074 A 
ATOM     49  C   UNL A   1      38.687  33.977  36.894  1.00  0.00     0.031 C 
ATOM     50  C   UNL A   1      37.817  30.574  30.958  1.00  0.00     0.029 A 
ATOM     51  C   UNL A   1      39.035  30.251  31.700  1.00  0.00     0.049 A 
ATOM     52  H   UNL A   1      39.610  30.992  33.560  1.00  0.00     0.167 HD
ATOM     53  C   UNL A   1      40.763  32.742  37.417  1.00  0.00     0.031 A 
ATOM     54  C   UNL A   1      40.002  29.400  31.304  1.00  0.00     0.031 A 
ATOM     55  C   UNL A   1      41.802  31.799  37.109  1.00  0.00     0.049 A 
ATOM     56  C   UNL A   1      41.210  29.196  32.183  1.00  0.00     0.074 A 
ATOM     57  C   UNL A   1      42.904  31.454  37.870  1.00  0.00     0.029 A 
ATOM     58  N   UNL A   1      41.871  31.060  35.938  1.00  0.00    -0.354 N 
ATOM     59  N   UNL A   1      41.479  29.716  33.358  1.00  0.00    -0.248 NA
ATOM     60  C   UNL A   1      42.249  28.284  31.682  1.00  0.00     0.031 C 
ATOM     61  C   UNL A   1      43.676  30.554  37.130  1.00  0.00     0.029 A 
ATOM     62  C   UNL A   1      43.016  30.283  35.941  1.00  0.00     0.049 A 
ATOM     63  H   UNL A   1      41.206  31.085  35.213  1.00  0.00     0.167 HD
ATOM     64  C   UNL A   1      42.696  29.169  33.749  1.00  0.00     0.074 A 
ATOM     65  C   UNL A   1      43.107  28.269  32.693  1.00  0.00     0.031 C 
ATOM     66  C   UNL A   1      43.407  29.387  34.883  1.00  0.00     0.031 A 
BRANCH  53  67
ATOM     67  C   UNL A   1      40.854  33.525  38.696  1.00  0.00    -0.014 A 
ATOM     68  C   UNL A   1      40.226  33.083  39.872  1.00  0.00     0.009 A 
ATOM     69  C   UNL A   1      41.594  34.717  38.727  1.00  0.00     0.009 A 
ATOM     70  C   UNL A   1      40.312  33.837  41.044  1.00  0.00     0.001 A 
ATOM     71  C   UNL A   1      41.704  35.452  39.907  1.00  0.00     0.001 A 
ATOM     72  C   UNL A   1      41.054  35.017  41.062  1.00  0.00     0.000 A 
ENDBRANCH  53  67
BRANCH  54  73
ATOM     73  C   UNL A   1      39.892  28.694  29.999  1.00  0.00    -0.014 A 
ATOM     74  C   UNL A   1      39.465  27.358  29.938  1.00  0.00     0.009 A 
ATOM     75  C   UNL A   1      40.249  29.344  28.806  1.00  0.00     0.009 A 
ATOM     76  C   UNL A   1      39.424  26.682  28.716  1.00  0.00     0.001 A 
ATOM     77  C   UNL A   1      40.177  28.676  27.582  1.00  0.00     0.001 A 
ATOM     78  C   UNL A   1      39.775  27.342  27.539  1.00  0.00     0.000 A 
ENDBRANCH  54  73
BRANCH  66  79
ATOM     79  C   UNL A   1      44.679  28.608  35.069  1.00  0.00    -0.014 A 
ATOM     80  C   UNL A   1      45.922  29.126  34.676  1.00  0.00     0.009 A 
ATOM     81  C   UNL A   1      44.634  27.359  35.710  1.00  0.00     0.009 A 
ATOM     82  C   UNL A   1      47.092  28.395  34.897  1.00  0.00     0.001 A 
ATOM     83  C   UNL A   1      45.807  26.647  35.961  1.00  0.00     0.001 A 
ATOM     84  C   UNL A   1      47.035  27.160  35.546  1.00  0.00     0.000 A 
ENDBRANCH  66  79
ENDBRANCH  40  41
ENDBRANCH  33  35
ENDBRANCH  32  33
ENDBRANCH  31  32
ENDBRANCH  30  31
ENDBRANCH  29  30
ENDBRANCH  28  29
ENDBRANCH  27  28
ENDBRANCH  26  27
ENDBRANCH  25  26
ENDBRANCH   1  25
TORSDOF 26
ENDMDL
MODEL 2
REMARK VINA RESULT:      -8.4      1.917      6.915
REMARK SMILES CC[C@@H](C(=O)OCCOCCOCCOCCOC(=O)c1ccc(-c2c3nc(c(-c4ccccc4)c4ccc([nH]4)c(-c4ccccc4)c4nc(c(-c5ccccc5)c5ccc2[nH]5)C=C4)C=C3)cc1)N(C)C(=O)N(C)C[C@@H]1CCC[N@H+]1C
REMARK SMILES IDX 10 1 9 2 8 3 7 4 6 5 4 6 5 7 3 8 2 9 1 10 69 11 70 12 71 13
REMARK SMILES IDX 72 14 73 15 74 16 75 17 76 18 77 19 80 20 78 21 79 22 81 23
REMARK SMILES IDX 11 25 12 26 13 27 14 28 15 29 16 30 17 31 18 32 19 33 20 34
REMARK SMILES IDX 21 35 22 36 68 37 23 38 67 39 24 40 25 41 26 42 61 43 27 44
REMARK SMILES IDX 66 45 60 46 62 47 28 48 65 49 59 50 58 51 29 53 51 54 36 55
REMARK SMILES IDX 50 56 37 57 40 58 49 59 63 60 38 61 39 62 48 64 64 65 41 66
REMARK SMILES IDX 30 67 31 68 35 69 32 70 34 71 33 72 52 73 53 74 57 75 54 76
REMARK SMILES IDX 56 77 55 78 42 79 43 80 47 81 44 82 46 83 45 84
REMARK H PARENT 80 24 62 52 40 63
REMARK Flexibility Score: inf
ROOT
ATOM      1  C   UNL A   1      31.270  25.394  26.220  1.00  0.00     0.188 C 
ENDROOT
BRANCH   1   2
ATOM      2  O   UNL A   1      31.153  24.384  27.208  1.00  0.00    -0.376 OA
BRANCH   2   3
ATOM      3  C   UNL A   1      31.544  23.074  26.843  1.00  0.00     0.202 C 
BRANCH   3   4
ATOM      4  C   UNL A   1      32.969  22.651  27.224  1.00  0.00     0.261 C 
BRANCH   4   5
ATOM      5  O   UNL A   1      33.517  21.538  26.494  1.00  0.00    -0.462 OA
BRANCH   5   6
ATOM      6  C   UNL A   1      33.315  21.495  25.159  1.00  0.00     0.328 C 
ATOM      7  O   UNL A   1      32.358  20.914  24.651  1.00  0.00    -0.250 OA
BRANCH   6   8
ATOM      8  C   UNL A   1      34.435  22.178  24.321  1.00  0.00     0.196 C 
BRANCH   8   9
ATOM      9  C   UNL A   1      35.944  22.127  24.698  1.00  0.00     0.034 C 
ATOM     10  C   UNL A   1      36.516  20.785  25.149  1.00  0.00     0.007 C 
ENDBRANCH   8   9
BRANCH   8  11
ATOM     11  N   UNL A   1      33.937  23.553  23.916  1.00  0.00    -0.314 N 
ATOM     12  C   UNL A   1      34.463  24.627  24.733  1.00  0.00     0.149 C 
BRANCH  11  13
ATOM     13  C   UNL A   1      33.232  23.687  22.733  1.00  0.00     0.320 C 
ATOM     14  O   UNL A   1      33.731  23.215  21.708  1.00  0.00    -0.248 OA
BRANCH  13  15
ATOM     15  N   UNL A   1      32.012  24.329  22.604  1.00  0.00    -0.322 N 
ATOM     16  C   UNL A   1      30.754  24.120  23.303  1.00  0.00     0.149 C 
BRANCH  15  17
ATOM     17  C   UNL A   1      31.909  25.355  21.526  1.00  0.00     0.185 C 
BRANCH  17  18
ATOM     18  C   UNL A   1      32.276  26.836  21.838  1.00  0.00     0.203 C 
ATOM     19  C   UNL A   1      33.764  27.094  22.073  1.00  0.00     0.073 C 
ATOM     20  N   UNL A   1      31.652  27.506  22.998  1.00  0.00    -0.333 N 
ATOM     21  C   UNL A   1      33.828  28.392  22.877  1.00  0.00     0.068 C 
ATOM     22  C   UNL A   1      32.379  28.778  23.122  1.00  0.00     0.262 C 
ATOM     23  C   UNL A   1      30.223  27.739  22.828  1.00  0.00     0.333 C 
ATOM     24  H   UNL A   1      31.718  26.923  23.833  1.00  0.00     0.348 HD
ENDBRANCH  17  18
ENDBRANCH  15  17
ENDBRANCH  13  15
ENDBRANCH  11  13
ENDBRANCH   8  11
ENDBRANCH   6   8
ENDBRANCH   5   6
ENDBRANCH   4   5
ENDBRANCH   3   4
ENDBRANCH   2   3
ENDBRANCH   1   2
BRANCH   1  25
ATOM     25  C   UNL A   1      31.781  26.760  26.735  1.00  0.00     0.188 C 
BRANCH  25  26
ATOM     26  O   UNL A   1      31.353  28.015  26.222  1.00  0.00    -0.377 OA
BRANCH  26  27
ATOM     27  C   UNL A   1      31.889  29.184  26.797  1.00  0.00     0.188 C 
BRANCH  27  28
ATOM     28  C   UNL A   1      31.588  30.486  26.034  1.00  0.00     0.188 C 
BRANCH  28  29
ATOM     29  O   UNL A   1      31.463  31.633  26.865  1.00  0.00    -0.376 OA
BRANCH  29  30
ATOM     30  C   UNL A   1      32.639  32.151  27.470  1.00  0.00     0.202 C 
BRANCH  30  31
ATOM     31  C   UNL A   1      32.917  33.660  27.369  1.00  0.00     0.261 C 
BRANCH  31  32
ATOM     32  O   UNL A   1      32.385  34.486  28.413  1.00  0.00    -0.460 OA
BRANCH  32  33
ATOM     33  C   UNL A   1      33.196  35.387  29.000  1.00  0.00     0.338 C 
ATOM     34  O   UNL A   1      32.962  36.558  29.243  1.00  0.00    -0.246 OA
BRANCH  33  35
ATOM     35  C   UNL A   1      34.374  34.640  29.490  1.00  0.00     0.060 A 
ATOM     36  C   UNL A   1      34.220  33.749  30.562  1.00  0.00     0.016 A 
ATOM     37  C   UNL A   1      35.606  34.776  28.848  1.00  0.00     0.016 A 
ATOM     38  C   UNL A   1      35.303  32.986  30.993  1.00  0.00     0.010 A 
ATOM     39  C   UNL A   1      36.701  34.046  29.310  1.00  0.00     0.010 A 
ATOM     40  C   UNL A   1      36.558  33.166  30.399  1.00  0.00    -0.014 A 
BRANCH  40  41
ATOM     41  C   UNL A   1      37.767  32.630  31.061  1.00  0.00     0.031 A 
ATOM     42  C   UNL A   1      38.418  31.424  30.444  1.00  0.00     0.074 A 
ATOM     43  C   UNL A   1      38.275  33.189  32.172  1.00  0.00     0.049 A 
ATOM     44  N   UNL A   1      39.433  30.720  30.869  1.00  0.00    -0.248 NA
ATOM     45  C   UNL A   1      37.838  30.948  29.176  1.00  0.00     0.031 C 
ATOM     46  C   UNL A   1      37.768  34.391  32.830  1.00  0.00     0.029 A 
ATOM     47  N   UNL A   1      39.336  32.798  32.950  1.00  0.00    -0.354 N 
ATOM     48  C   UNL A   1      39.606  29.713  29.927  1.00  0.00     0.074 A 
ATOM     49  C   UNL A   1      38.579  29.882  28.924  1.00  0.00     0.031 C 
ATOM     50  C   UNL A   1      38.512  34.633  33.925  1.00  0.00     0.029 A 
ATOM     51  C   UNL A   1      39.518  33.581  34.064  1.00  0.00     0.049 A 
ATOM     52  H   UNL A   1      39.912  32.031  32.730  1.00  0.00     0.167 HD
ATOM     53  C   UNL A   1      40.538  28.734  29.899  1.00  0.00     0.031 A 
ATOM     54  C   UNL A   1      40.379  33.440  35.091  1.00  0.00     0.031 A 
ATOM     55  C   UNL A   1      41.540  28.552  30.913  1.00  0.00     0.049 A 
ATOM     56  C   UNL A   1      41.344  32.280  35.091  1.00  0.00     0.074 A 
ATOM     57  C   UNL A   1      42.534  27.592  30.978  1.00  0.00     0.029 A 
ATOM     58  N   UNL A   1      41.663  29.340  32.047  1.00  0.00    -0.354 N 
ATOM     59  N   UNL A   1      41.517  31.346  34.185  1.00  0.00    -0.248 NA
ATOM     60  C   UNL A   1      42.234  32.157  36.255  1.00  0.00     0.031 C 
ATOM     61  C   UNL A   1      43.218  27.759  32.185  1.00  0.00     0.029 A 
ATOM     62  C   UNL A   1      42.699  28.869  32.835  1.00  0.00     0.049 A 
ATOM     63  H   UNL A   1      41.099  30.118  32.260  1.00  0.00     0.167 HD
ATOM     64  C   UNL A   1      42.556  30.549  34.654  1.00  0.00     0.074 A 
ATOM     65  C   UNL A   1      42.980  31.115  35.916  1.00  0.00     0.031 C 
ATOM     66  C   UNL A   1      43.112  29.449  34.087  1.00  0.00     0.031 A 
BRANCH  53  67
ATOM     67  C   UNL A   1      40.479  27.759  28.759  1.00  0.00    -0.014 A 
ATOM     68  C   UNL A   1      39.761  26.557  28.858  1.00  0.00     0.009 A 
ATOM     69  C   UNL A   1      41.141  28.059  27.557  1.00  0.00     0.009 A 
ATOM     70  C   UNL A   1      39.735  25.659  27.788  1.00  0.00     0.001 A 
ATOM     71  C   UNL A   1      41.087  27.175  26.480  1.00  0.00     0.001 A 
ATOM     72  C   UNL A   1      40.393  25.971  26.599  1.00  0.00     0.000 A 
ENDBRANCH  53  67
BRANCH  54  73
ATOM     73  C   UNL A   1      40.356  34.400  36.227  1.00  0.00    -0.014 A 
ATOM     74  C   UNL A   1      39.608  34.128  37.383  1.00  0.00     0.009 A 
ATOM     75  C   UNL A   1      41.056  35.615  36.147  1.00  0.00     0.009 A 
ATOM     76  C   UNL A   1      39.540  35.061  38.420  1.00  0.00     0.001 A 
ATOM     77  C   UNL A   1      41.012  36.533  37.199  1.00  0.00     0.001 A 
ATOM     78  C   UNL A   1      40.245  36.260  38.330  1.00  0.00     0.000 A 
ENDBRANCH  54  73
BRANCH  66  79
ATOM     79  C   UNL A   1      44.272  28.810  34.798  1.00  0.00    -0.014 A 
ATOM     80  C   UNL A   1      44.088  27.759  35.708  1.00  0.00     0.009 A 
ATOM     81  C   UNL A   1      45.579  29.228  34.497  1.00  0.00     0.009 A 
ATOM     82  C   UNL A   1      45.189  27.158  36.324  1.00  0.00     0.001 A 
ATOM     83  C   UNL A   1      46.678  28.604  35.088  1.00  0.00     0.001 A 
ATOM     84  C   UNL A   1      46.482  27.576  36.009  1.00  0.00     0.000 A 
ENDBRANCH  66  79
ENDBRANCH  40  41
ENDBRANCH  33  35
ENDBRANCH  32  33
ENDBRANCH  31  32
ENDBRANCH  30  31
ENDBRANCH  29  30
ENDBRANCH  28  29
ENDBRANCH  27  28
ENDBRANCH  26  27
ENDBRANCH  25  26
ENDBRANCH   1  25
TORSDOF 26
ENDMDL
MODEL 3
REMARK VINA RESULT:      -8.4      4.119      9.376
REMARK SMILES CC[C@@H](C(=O)OCCOCCOCCOCCOC(=O)c1ccc(-c2c3nc(c(-c4ccccc4)c4ccc([nH]4)c(-c4ccccc4)c4nc(c(-c5ccccc5)c5ccc2[nH]5)C=C4)C=C3)cc1)N(C)C(=O)N(C)C[C@@H]1CCC[N@H+]1C
REMARK SMILES IDX 10 1 9 2 8 3 7 4 6 5 4 6 5 7 3 8 2 9 1 10 69 11 70 12 71 13
REMARK SMILES IDX 72 14 73 15 74 16 75 17 76 18 77 19 80 20 78 21 79 22 81 23
REMARK SMILES IDX 11 25 12 26 13 27 14 28 15 29 16 30 17 31 18 32 19 33 20 34
REMARK SMILES IDX 21 35 22 36 68 37 23 38 67 39 24 40 25 41 26 42 61 43 27 44
REMARK SMILES IDX 66 45 60 46 62 47 28 48 65 49 59 50 58 51 29 53 51 54 36 55
REMARK SMILES IDX 50 56 37 57 40 58 49 59 63 60 38 61 39 62 48 64 64 65 41 66
REMARK SMILES IDX 30 67 31 68 35 69 32 70 34 71 33 72 52 73 53 74 57 75 54 76
REMARK SMILES IDX 56 77 55 78 42 79 43 80 47 81 44 82 46 83 45 84
REMARK H PARENT 80 24 62 52 40 63
REMARK Flexibility Score: inf
ROOT
ATOM      1  C   UNL A   1      39.603  21.186  26.034  1.00  0.00     0.188 C 
ENDROOT
BRANCH   1   2
ATOM      2  O   UNL A   1      39.360  22.388  26.746  1.00  0.00    -0.376 OA
BRANCH   2   3
ATOM      3  C   UNL A   1      38.435  23.298  26.182  1.00  0.00     0.202 C 
BRANCH   3   4
ATOM      4  C   UNL A   1      37.245  22.689  25.428  1.00  0.00     0.261 C 
BRANCH   4   5
ATOM      5  O   UNL A   1      35.968  23.313  25.650  1.00  0.00    -0.462 OA
BRANCH   5   6
ATOM      6  C   UNL A   1      34.909  22.516  25.915  1.00  0.00     0.328 C 
ATOM      7  O   UNL A   1      35.009  21.475  26.561  1.00  0.00    -0.250 OA
BRANCH   6   8
ATOM      8  C   UNL A   1      33.575  22.991  25.270  1.00  0.00     0.196 C 
BRANCH   8   9
ATOM      9  C   UNL A   1      32.178  22.768  25.920  1.00  0.00     0.034 C 
ATOM     10  C   UNL A   1      31.743  23.742  27.014  1.00  0.00     0.007 C 
ENDBRANCH   8   9
BRANCH   8  11
ATOM     11  N   UNL A   1      33.634  22.665  23.790  1.00  0.00    -0.314 N 
ATOM     12  C   UNL A   1      33.547  21.248  23.500  1.00  0.00     0.149 C 
BRANCH  11  13
ATOM     13  C   UNL A   1      33.554  23.699  22.873  1.00  0.00     0.320 C 
ATOM     14  O   UNL A   1      33.650  23.416  21.677  1.00  0.00    -0.248 OA
BRANCH  13  15
ATOM     15  N   UNL A   1      33.390  25.035  23.197  1.00  0.00    -0.322 N 
ATOM     16  C   UNL A   1      34.023  25.844  24.227  1.00  0.00     0.149 C 
BRANCH  15  17
ATOM     17  C   UNL A   1      32.344  25.781  22.439  1.00  0.00     0.185 C 
BRANCH  17  18
ATOM     18  C   UNL A   1      31.192  26.487  23.214  1.00  0.00     0.203 C 
ATOM     19  C   UNL A   1      30.050  25.568  23.646  1.00  0.00     0.073 C 
ATOM     20  N   UNL A   1      30.470  27.606  22.572  1.00  0.00    -0.333 N 
ATOM     21  C   UNL A   1      28.848  26.487  23.855  1.00  0.00     0.068 C 
ATOM     22  C   UNL A   1      29.336  27.873  23.468  1.00  0.00     0.262 C 
ATOM     23  C   UNL A   1      31.292  28.799  22.405  1.00  0.00     0.333 C 
ATOM     24  H   UNL A   1      30.185  27.359  21.624  1.00  0.00     0.348 HD
ENDBRANCH  17  18
ENDBRANCH  15  17
ENDBRANCH  13  15
ENDBRANCH  11  13
ENDBRANCH   8  11
ENDBRANCH   6   8
ENDBRANCH   5   6
ENDBRANCH   4   5
ENDBRANCH   3   4
ENDBRANCH   2   3
ENDBRANCH   1   2
BRANCH   1  25
ATOM     25  C   UNL A   1      40.941  20.484  26.367  1.00  0.00     0.188 C 
BRANCH  25  26
ATOM     26  O   UNL A   1      41.773  19.855  25.401  1.00  0.00    -0.377 OA
BRANCH  26  27
ATOM     27  C   UNL A   1      42.941  19.210  25.850  1.00  0.00     0.188 C 
BRANCH  27  28
ATOM     28  C   UNL A   1      44.195  19.457  24.994  1.00  0.00     0.188 C 
BRANCH  28  29
ATOM     29  O   UNL A   1      45.268  20.073  25.695  1.00  0.00    -0.376 OA
BRANCH  29  30
ATOM     30  C   UNL A   1      46.122  20.949  24.973  1.00  0.00     0.202 C 
BRANCH  30  31
ATOM     31  C   UNL A   1      45.966  22.466  25.178  1.00  0.00     0.261 C 
BRANCH  31  32
ATOM     32  O   UNL A   1      44.868  22.897  25.994  1.00  0.00    -0.460 OA
BRANCH  32  33
ATOM     33  C   UNL A   1      43.749  23.339  25.389  1.00  0.00     0.338 C 
ATOM     34  O   UNL A   1      43.217  22.897  24.386  1.00  0.00    -0.246 OA
BRANCH  33  35
ATOM     35  C   UNL A   1      43.154  24.351  26.287  1.00  0.00     0.060 A 
ATOM     36  C   UNL A   1      43.531  25.695  26.147  1.00  0.00     0.016 A 
ATOM     37  C   UNL A   1      42.183  23.978  27.218  1.00  0.00     0.016 A 
ATOM     38  C   UNL A   1      42.932  26.672  26.939  1.00  0.00     0.010 A 
ATOM     39  C   UNL A   1      41.617  24.950  28.042  1.00  0.00     0.010 A 
ATOM     40  C   UNL A   1      42.006  26.297  27.920  1.00  0.00    -0.014 A 
BRANCH  40  41
ATOM     41  C   UNL A   1      41.628  27.259  28.977  1.00  0.00     0.031 A 
ATOM     42  C   UNL A   1      42.426  27.239  30.250  1.00  0.00     0.074 A 
ATOM     43  C   UNL A   1      40.613  28.125  28.820  1.00  0.00     0.049 A 
ATOM     44  N   UNL A   1      42.252  27.921  31.351  1.00  0.00    -0.248 NA
ATOM     45  C   UNL A   1      43.577  26.319  30.283  1.00  0.00     0.031 C 
ATOM     46  C   UNL A   1      39.804  28.280  27.613  1.00  0.00     0.029 A 
ATOM     47  N   UNL A   1      40.085  29.035  29.702  1.00  0.00    -0.354 N 
ATOM     48  C   UNL A   1      43.262  27.504  32.209  1.00  0.00     0.074 A 
ATOM     49  C   UNL A   1      44.029  26.496  31.513  1.00  0.00     0.031 C 
ATOM     50  C   UNL A   1      38.868  29.221  27.835  1.00  0.00     0.029 A 
ATOM     51  C   UNL A   1      38.990  29.704  29.211  1.00  0.00     0.049 A 
ATOM     52  H   UNL A   1      40.457  29.195  30.599  1.00  0.00     0.167 HD
ATOM     53  C   UNL A   1      43.528  27.924  33.467  1.00  0.00     0.031 A 
ATOM     54  C   UNL A   1      38.165  30.579  29.819  1.00  0.00     0.031 A 
ATOM     55  C   UNL A   1      42.746  28.905  34.167  1.00  0.00     0.049 A 
ATOM     56  C   UNL A   1      38.420  30.957  31.256  1.00  0.00     0.074 A 
ATOM     57  C   UNL A   1      42.933  29.403  35.444  1.00  0.00     0.029 A 
ATOM     58  N   UNL A   1      41.620  29.527  33.650  1.00  0.00    -0.354 N 
ATOM     59  N   UNL A   1      39.391  30.577  32.054  1.00  0.00    -0.248 NA
ATOM     60  C   UNL A   1      37.466  31.887  31.878  1.00  0.00     0.031 C 
ATOM     61  C   UNL A   1      41.880  30.279  35.724  1.00  0.00     0.029 A 
ATOM     62  C   UNL A   1      41.081  30.382  34.596  1.00  0.00     0.049 A 
ATOM     63  H   UNL A   1      41.257  29.382  32.747  1.00  0.00     0.167 HD
ATOM     64  C   UNL A   1      39.183  31.247  33.254  1.00  0.00     0.074 A 
ATOM     65  C   UNL A   1      38.003  32.065  33.077  1.00  0.00     0.031 C 
ATOM     66  C   UNL A   1      39.908  31.194  34.400  1.00  0.00     0.031 A 
BRANCH  53  67
ATOM     67  C   UNL A   1      44.684  27.281  34.177  1.00  0.00    -0.014 A 
ATOM     68  C   UNL A   1      44.496  26.211  35.067  1.00  0.00     0.009 A 
ATOM     69  C   UNL A   1      45.988  27.745  33.938  1.00  0.00     0.009 A 
ATOM     70  C   UNL A   1      45.586  25.641  35.727  1.00  0.00     0.001 A 
ATOM     71  C   UNL A   1      47.078  27.153  34.576  1.00  0.00     0.001 A 
ATOM     72  C   UNL A   1      46.876  26.108  35.477  1.00  0.00     0.000 A 
ENDBRANCH  53  67
BRANCH  54  73
ATOM     73  C   UNL A   1      36.997  31.142  29.088  1.00  0.00    -0.014 A 
ATOM     74  C   UNL A   1      35.920  30.322  28.715  1.00  0.00     0.009 A 
ATOM     75  C   UNL A   1      36.970  32.498  28.726  1.00  0.00     0.009 A 
ATOM     76  C   UNL A   1      34.856  30.843  27.975  1.00  0.00     0.001 A 
ATOM     77  C   UNL A   1      35.889  33.024  28.014  1.00  0.00     0.001 A 
ATOM     78  C   UNL A   1      34.839  32.193  27.628  1.00  0.00     0.000 A 
ENDBRANCH  54  73
BRANCH  66  79
ATOM     79  C   UNL A   1      39.479  32.078  35.537  1.00  0.00    -0.014 A 
ATOM     80  C   UNL A   1      40.003  33.370  35.702  1.00  0.00     0.009 A 
ATOM     81  C   UNL A   1      38.483  31.631  36.420  1.00  0.00     0.009 A 
ATOM     82  C   UNL A   1      39.557  34.183  36.746  1.00  0.00     0.001 A 
ATOM     83  C   UNL A   1      38.015  32.459  37.442  1.00  0.00     0.001 A 
ATOM     84  C   UNL A   1      38.559  33.731  37.610  1.00  0.00     0.000 A 
ENDBRANCH  66  79
ENDBRANCH  40  41
ENDBRANCH  33  35
ENDBRANCH  32  33
ENDBRANCH  31  32
ENDBRANCH  30  31
ENDBRANCH  29  30
ENDBRANCH  28  29
ENDBRANCH  27  28
ENDBRANCH  26  27
ENDBRANCH  25  26
ENDBRANCH   1  25
TORSDOF 26
ENDMDL
