MODEL 1
REMARK VINA RESULT:      -9.5      0.000      0.000
REMARK SMILES O=C(OCCOCCOCCOCCOC(=O)c1cc(Cl)cc(Cl)c1O)c1ccc(-c2c3nc(c(-c4ccccc4)c4ccc([nH]4)c(-c4ccccc4)c4nc(c(-c5ccccc5)c5ccc2[nH]5)C=C4)C=C3)cc1
REMARK SMILES IDX 8 1 7 2 6 3 5 4 4 5 3 6 2 7 1 8 27 9 28 10 74 11 29 12 73 13
REMARK SMILES IDX 30 14 31 15 32 16 67 17 33 18 72 19 66 20 68 21 34 22 71 23
REMARK SMILES IDX 65 24 64 25 35 27 57 28 42 29 56 30 43 31 46 32 55 33 69 34
REMARK SMILES IDX 44 35 45 36 54 38 70 39 47 40 36 41 37 42 41 43 38 44 40 45
REMARK SMILES IDX 39 46 58 47 59 48 63 49 60 50 62 51 61 52 48 53 49 54 53 55
REMARK SMILES IDX 50 56 52 57 51 58 9 59 10 60 11 61 12 62 13 63 14 64 15 65
REMARK SMILES IDX 16 66 17 67 18 68 19 69 25 70 20 71 23 72 21 73 22 74 24 75
REMARK SMILES IDX 26 76
REMARK H PARENT 68 26 46 37 26 77
REMARK Flexibility Score: inf
ROOT
ATOM      1  C   UNL A   1      44.279  19.161  25.307  1.00  0.00     0.188 C 
ENDROOT
BRANCH   1   2
ATOM      2  C   UNL A   1      44.836  20.347  24.522  1.00  0.00     0.188 C 
BRANCH   2   3
ATOM      3  O   UNL A   1      45.865  21.013  25.261  1.00  0.00    -0.376 OA
BRANCH   3   4
ATOM      4  C   UNL A   1      46.053  22.390  24.925  1.00  0.00     0.202 C 
BRANCH   4   5
ATOM      5  C   UNL A   1      44.985  22.956  23.984  1.00  0.00     0.261 C 
BRANCH   5   6
ATOM      6  O   UNL A   1      44.184  23.973  24.605  1.00  0.00    -0.460 OA
BRANCH   6   7
ATOM      7  C   UNL A   1      43.087  23.812  25.389  1.00  0.00     0.338 C 
ATOM      8  O   UNL A   1      42.483  22.742  25.332  1.00  0.00    -0.246 OA
BRANCH   7   9
ATOM      9  C   UNL A   1      42.571  24.850  26.338  1.00  0.00     0.060 A 
ATOM     10  C   UNL A   1      43.086  26.137  26.484  1.00  0.00     0.016 A 
ATOM     11  C   UNL A   1      41.440  24.513  27.106  1.00  0.00     0.016 A 
ATOM     12  C   UNL A   1      42.572  27.031  27.407  1.00  0.00     0.010 A 
ATOM     13  C   UNL A   1      40.889  25.418  28.020  1.00  0.00     0.010 A 
ATOM     14  C   UNL A   1      41.483  26.671  28.191  1.00  0.00    -0.014 A 
BRANCH  14  15
ATOM     15  C   UNL A   1      41.141  27.584  29.294  1.00  0.00     0.031 A 
ATOM     16  C   UNL A   1      42.073  27.637  30.467  1.00  0.00     0.074 A 
ATOM     17  C   UNL A   1      40.159  28.489  29.126  1.00  0.00     0.049 A 
ATOM     18  N   UNL A   1      42.013  28.380  31.538  1.00  0.00    -0.248 NA
ATOM     19  C   UNL A   1      43.252  26.752  30.411  1.00  0.00     0.031 C 
ATOM     20  C   UNL A   1      39.320  28.613  27.929  1.00  0.00     0.029 A 
ATOM     21  N   UNL A   1      39.740  29.510  29.933  1.00  0.00    -0.354 N 
ATOM     22  C   UNL A   1      43.130  28.037  32.289  1.00  0.00     0.074 A 
ATOM     23  C   UNL A   1      43.848  27.018  31.561  1.00  0.00     0.031 C 
ATOM     24  C   UNL A   1      38.507  29.672  28.072  1.00  0.00     0.029 A 
ATOM     25  C   UNL A   1      38.716  30.251  29.394  1.00  0.00     0.049 A 
ATOM     26  H   UNL A   1      40.134  29.696  30.816  1.00  0.00     0.167 HD
ATOM     27  C   UNL A   1      43.515  28.533  33.486  1.00  0.00     0.031 A 
ATOM     28  C   UNL A   1      38.009  31.259  29.935  1.00  0.00     0.031 A 
ATOM     29  C   UNL A   1      42.767  29.534  34.193  1.00  0.00     0.049 A 
ATOM     30  C   UNL A   1      38.372  31.690  31.331  1.00  0.00     0.074 A 
ATOM     31  C   UNL A   1      42.978  30.044  35.458  1.00  0.00     0.029 A 
ATOM     32  N   UNL A   1      41.654  30.182  33.673  1.00  0.00    -0.354 N 
ATOM     33  N   UNL A   1      39.368  31.291  32.085  1.00  0.00    -0.248 NA
ATOM     34  C   UNL A   1      37.507  32.698  31.955  1.00  0.00     0.031 C 
ATOM     35  C   UNL A   1      41.961  30.969  35.723  1.00  0.00     0.029 A 
ATOM     36  C   UNL A   1      41.154  31.076  34.599  1.00  0.00     0.049 A 
ATOM     37  H   UNL A   1      41.277  30.027  32.776  1.00  0.00     0.167 HD
ATOM     38  C   UNL A   1      39.258  32.003  33.270  1.00  0.00     0.074 A 
ATOM     39  C   UNL A   1      38.117  32.886  33.116  1.00  0.00     0.031 C 
ATOM     40  C   UNL A   1      40.014  31.933  34.393  1.00  0.00     0.031 A 
BRANCH  27  41
ATOM     41  C   UNL A   1      44.735  27.928  34.115  1.00  0.00    -0.014 A 
ATOM     42  C   UNL A   1      46.015  28.467  33.910  1.00  0.00     0.009 A 
ATOM     43  C   UNL A   1      44.604  26.770  34.897  1.00  0.00     0.009 A 
ATOM     44  C   UNL A   1      47.141  27.840  34.448  1.00  0.00     0.001 A 
ATOM     45  C   UNL A   1      45.729  26.159  35.454  1.00  0.00     0.001 A 
ATOM     46  C   UNL A   1      46.997  26.688  35.221  1.00  0.00     0.000 A 
ENDBRANCH  27  41
BRANCH  28  47
ATOM     47  C   UNL A   1      36.846  31.851  29.218  1.00  0.00    -0.014 A 
ATOM     48  C   UNL A   1      36.932  33.103  28.591  1.00  0.00     0.009 A 
ATOM     49  C   UNL A   1      35.612  31.178  29.203  1.00  0.00     0.009 A 
ATOM     50  C   UNL A   1      35.802  33.682  28.003  1.00  0.00     0.001 A 
ATOM     51  C   UNL A   1      34.495  31.741  28.583  1.00  0.00     0.001 A 
ATOM     52  C   UNL A   1      34.587  33.000  27.997  1.00  0.00     0.000 A 
ENDBRANCH  28  47
BRANCH  40  53
ATOM     53  C   UNL A   1      39.637  32.857  35.514  1.00  0.00    -0.014 A 
ATOM     54  C   UNL A   1      38.744  32.453  36.518  1.00  0.00     0.009 A 
ATOM     55  C   UNL A   1      40.209  34.136  35.576  1.00  0.00     0.009 A 
ATOM     56  C   UNL A   1      38.401  33.333  37.544  1.00  0.00     0.001 A 
ATOM     57  C   UNL A   1      39.889  35.000  36.621  1.00  0.00     0.001 A 
ATOM     58  C   UNL A   1      38.977  34.601  37.598  1.00  0.00     0.000 A 
ENDBRANCH  40  53
ENDBRANCH  14  15
ENDBRANCH   7   9
ENDBRANCH   6   7
ENDBRANCH   5   6
ENDBRANCH   4   5
ENDBRANCH   3   4
ENDBRANCH   2   3
ENDBRANCH   1   2
BRANCH   1  59
ATOM     59  O   UNL A   1      42.863  18.998  25.226  1.00  0.00    -0.377 OA
BRANCH  59  60
ATOM     60  C   UNL A   1      42.101  19.480  26.330  1.00  0.00     0.188 C 
BRANCH  60  61
ATOM     61  C   UNL A   1      40.594  19.730  26.117  1.00  0.00     0.188 C 
BRANCH  61  62
ATOM     62  O   UNL A   1      40.096  20.806  26.892  1.00  0.00    -0.376 OA
BRANCH  62  63
ATOM     63  C   UNL A   1      39.252  21.733  26.233  1.00  0.00     0.202 C 
BRANCH  63  64
ATOM     64  C   UNL A   1      38.169  21.213  25.271  1.00  0.00     0.261 C 
BRANCH  64  65
ATOM     65  O   UNL A   1      36.835  21.739  25.391  1.00  0.00    -0.460 OA
BRANCH  65  66
ATOM     66  C   UNL A   1      36.156  22.118  24.289  1.00  0.00     0.342 C 
ATOM     67  O   UNL A   1      36.613  22.549  23.242  1.00  0.00    -0.246 OA
BRANCH  66  68
ATOM     68  C   UNL A   1      34.754  21.663  24.449  1.00  0.00     0.104 A 
ATOM     69  C   UNL A   1      33.710  22.594  24.385  1.00  0.00     0.040 A 
ATOM     70  C   UNL A   1      34.498  20.340  24.847  1.00  0.00     0.148 A 
ATOM     71  C   UNL A   1      32.419  22.205  24.739  1.00  0.00     0.043 A 
ATOM     72  C   UNL A   1      33.202  19.981  25.243  1.00  0.00     0.085 A 
ATOM     73  Cl  UNL A   1      31.135  23.348  24.664  1.00  0.00    -0.084 Cl
ATOM     74  C   UNL A   1      32.161  20.911  25.184  1.00  0.00     0.045 A 
ATOM     75  Cl  UNL A   1      32.857  18.410  25.874  1.00  0.00    -0.080 Cl
BRANCH  70  76
ATOM     76  O   UNL A   1      35.502  19.411  24.945  1.00  0.00    -0.505 OA
ATOM     77  H   UNL A   1      36.315  19.640  25.347  1.00  0.00     0.293 HD
ENDBRANCH  70  76
ENDBRANCH  66  68
ENDBRANCH  65  66
ENDBRANCH  64  65
ENDBRANCH  63  64
ENDBRANCH  62  63
ENDBRANCH  61  62
ENDBRANCH  60  61
ENDBRANCH  59  60
ENDBRANCH   1  59
TORSDOF 21
ENDMDL
MODEL 2
REMARK VINA RESULT:      -9.4      3.971      6.300
REMARK SMILES O=C(OCCOCCOCCOCCOC(=O)c1cc(Cl)cc(Cl)c1O)c1ccc(-c2c3nc(c(-c4ccccc4)c4ccc([nH]4)c(-c4ccccc4)c4nc(c(-c5ccccc5)c5ccc2[nH]5)C=C4)C=C3)cc1
REMARK SMILES IDX 8 1 7 2 6 3 5 4 4 5 3 6 2 7 1 8 27 9 28 10 74 11 29 12 73 13
REMARK SMILES IDX 30 14 31 15 32 16 67 17 33 18 72 19 66 20 68 21 34 22 71 23
REMARK SMILES IDX 65 24 64 25 35 27 57 28 42 29 56 30 43 31 46 32 55 33 69 34
REMARK SMILES IDX 44 35 45 36 54 38 70 39 47 40 36 41 37 42 41 43 38 44 40 45
REMARK SMILES IDX 39 46 58 47 59 48 63 49 60 50 62 51 61 52 48 53 49 54 53 55
REMARK SMILES IDX 50 56 52 57 51 58 9 59 10 60 11 61 12 62 13 63 14 64 15 65
REMARK SMILES IDX 16 66 17 67 18 68 19 69 25 70 20 71 23 72 21 73 22 74 24 75
REMARK SMILES IDX 26 76
REMARK H PARENT 68 26 46 37 26 77
REMARK Flexibility Score: inf
ROOT
ATOM      1  C   UNL A   1      36.179  23.680  24.695  1.00  0.00     0.188 C 
ENDROOT
BRANCH   1   2
ATOM      2  C   UNL A   1      36.094  22.219  24.254  1.00  0.00     0.188 C 
BRANCH   2   3
ATOM      3  O   UNL A   1      37.392  21.618  24.218  1.00  0.00    -0.376 OA
BRANCH   3   4
ATOM      4  C   UNL A   1      37.697  20.775  25.332  1.00  0.00     0.202 C 
BRANCH   4   5
ATOM      5  C   UNL A   1      38.638  19.614  24.999  1.00  0.00     0.261 C 
BRANCH   5   6
ATOM      6  O   UNL A   1      39.551  19.318  26.067  1.00  0.00    -0.460 OA
BRANCH   6   7
ATOM      7  C   UNL A   1      40.884  19.568  26.122  1.00  0.00     0.338 C 
ATOM      8  O   UNL A   1      41.659  18.686  25.753  1.00  0.00    -0.246 OA
BRANCH   7   9
ATOM      9  C   UNL A   1      41.480  20.861  26.588  1.00  0.00     0.060 A 
ATOM     10  C   UNL A   1      41.802  21.172  27.908  1.00  0.00     0.016 A 
ATOM     11  C   UNL A   1      41.788  21.819  25.603  1.00  0.00     0.016 A 
ATOM     12  C   UNL A   1      42.324  22.403  28.265  1.00  0.00     0.010 A 
ATOM     13  C   UNL A   1      42.347  23.056  25.945  1.00  0.00     0.010 A 
ATOM     14  C   UNL A   1      42.583  23.357  27.289  1.00  0.00    -0.014 A 
BRANCH  14  15
ATOM     15  C   UNL A   1      42.921  24.707  27.767  1.00  0.00     0.031 A 
ATOM     16  C   UNL A   1      44.361  25.122  27.714  1.00  0.00     0.074 A 
ATOM     17  C   UNL A   1      41.937  25.590  28.014  1.00  0.00     0.049 A 
ATOM     18  N   UNL A   1      44.906  26.262  28.040  1.00  0.00    -0.248 NA
ATOM     19  C   UNL A   1      45.315  24.125  27.192  1.00  0.00     0.031 C 
ATOM     20  C   UNL A   1      40.501  25.306  27.914  1.00  0.00     0.029 A 
ATOM     21  N   UNL A   1      41.990  26.917  28.341  1.00  0.00    -0.354 N 
ATOM     22  C   UNL A   1      46.263  26.111  27.782  1.00  0.00     0.074 A 
ATOM     23  C   UNL A   1      46.464  24.772  27.281  1.00  0.00     0.031 C 
ATOM     24  C   UNL A   1      39.813  26.435  28.147  1.00  0.00     0.029 A 
ATOM     25  C   UNL A   1      40.753  27.498  28.482  1.00  0.00     0.049 A 
ATOM     26  H   UNL A   1      42.834  27.409  28.464  1.00  0.00     0.167 HD
ATOM     27  C   UNL A   1      47.251  27.017  27.956  1.00  0.00     0.031 A 
ATOM     28  C   UNL A   1      40.430  28.742  28.878  1.00  0.00     0.031 A 
ATOM     29  C   UNL A   1      47.019  28.335  28.475  1.00  0.00     0.049 A 
ATOM     30  C   UNL A   1      41.559  29.683  29.203  1.00  0.00     0.074 A 
ATOM     31  C   UNL A   1      47.936  29.312  28.807  1.00  0.00     0.029 A 
ATOM     32  N   UNL A   1      45.757  28.857  28.730  1.00  0.00    -0.354 N 
ATOM     33  N   UNL A   1      42.850  29.503  29.059  1.00  0.00    -0.248 NA
ATOM     34  C   UNL A   1      41.188  30.989  29.759  1.00  0.00     0.031 C 
ATOM     35  C   UNL A   1      47.228  30.411  29.309  1.00  0.00     0.029 A 
ATOM     36  C   UNL A   1      45.870  30.138  29.233  1.00  0.00     0.049 A 
ATOM     37  H   UNL A   1      44.907  28.384  28.575  1.00  0.00     0.167 HD
ATOM     38  C   UNL A   1      43.449  30.675  29.497  1.00  0.00     0.074 A 
ATOM     39  C   UNL A   1      42.372  31.571  29.876  1.00  0.00     0.031 C 
ATOM     40  C   UNL A   1      44.765  30.988  29.594  1.00  0.00     0.031 A 
BRANCH  27  41
ATOM     41  C   UNL A   1      48.651  26.563  27.666  1.00  0.00    -0.014 A 
ATOM     42  C   UNL A   1      49.228  26.722  26.396  1.00  0.00     0.009 A 
ATOM     43  C   UNL A   1      49.392  25.928  28.674  1.00  0.00     0.009 A 
ATOM     44  C   UNL A   1      50.507  26.224  26.134  1.00  0.00     0.001 A 
ATOM     45  C   UNL A   1      50.679  25.453  28.416  1.00  0.00     0.001 A 
ATOM     46  C   UNL A   1      51.232  25.592  27.145  1.00  0.00     0.000 A 
ENDBRANCH  27  41
BRANCH  28  47
ATOM     47  C   UNL A   1      39.008  29.135  29.083  1.00  0.00    -0.014 A 
ATOM     48  C   UNL A   1      38.377  28.979  30.327  1.00  0.00     0.009 A 
ATOM     49  C   UNL A   1      38.251  29.626  28.005  1.00  0.00     0.009 A 
ATOM     50  C   UNL A   1      37.015  29.267  30.473  1.00  0.00     0.001 A 
ATOM     51  C   UNL A   1      36.902  29.948  28.163  1.00  0.00     0.001 A 
ATOM     52  C   UNL A   1      36.281  29.754  29.393  1.00  0.00     0.000 A 
ENDBRANCH  28  47
BRANCH  40  53
ATOM     53  C   UNL A   1      45.090  32.362  30.102  1.00  0.00    -0.014 A 
ATOM     54  C   UNL A   1      45.289  32.601  31.471  1.00  0.00     0.009 A 
ATOM     55  C   UNL A   1      45.228  33.420  29.192  1.00  0.00     0.009 A 
ATOM     56  C   UNL A   1      45.581  33.888  31.921  1.00  0.00     0.001 A 
ATOM     57  C   UNL A   1      45.553  34.698  29.643  1.00  0.00     0.001 A 
ATOM     58  C   UNL A   1      45.718  34.932  31.008  1.00  0.00     0.000 A 
ENDBRANCH  40  53
ENDBRANCH  14  15
ENDBRANCH   7   9
ENDBRANCH   6   7
ENDBRANCH   5   6
ENDBRANCH   4   5
ENDBRANCH   3   4
ENDBRANCH   2   3
ENDBRANCH   1   2
BRANCH   1  59
ATOM     59  O   UNL A   1      34.950  24.240  25.159  1.00  0.00    -0.377 OA
BRANCH  59  60
ATOM     60  C   UNL A   1      34.271  25.116  24.264  1.00  0.00     0.188 C 
BRANCH  60  61
ATOM     61  C   UNL A   1      32.964  24.618  23.614  1.00  0.00     0.188 C 
BRANCH  61  62
ATOM     62  O   UNL A   1      31.802  25.099  24.266  1.00  0.00    -0.376 OA
BRANCH  62  63
ATOM     63  C   UNL A   1      30.840  24.135  24.654  1.00  0.00     0.202 C 
BRANCH  63  64
ATOM     64  C   UNL A   1      31.192  23.121  25.758  1.00  0.00     0.261 C 
BRANCH  64  65
ATOM     65  O   UNL A   1      31.433  21.754  25.382  1.00  0.00    -0.460 OA
BRANCH  65  66
ATOM     66  C   UNL A   1      32.631  21.186  25.630  1.00  0.00     0.342 C 
ATOM     67  O   UNL A   1      33.436  21.489  26.497  1.00  0.00    -0.246 OA
BRANCH  66  68
ATOM     68  C   UNL A   1      32.702  19.932  24.843  1.00  0.00     0.104 A 
ATOM     69  C   UNL A   1      32.523  19.971  23.455  1.00  0.00     0.040 A 
ATOM     70  C   UNL A   1      32.764  18.699  25.513  1.00  0.00     0.148 A 
ATOM     71  C   UNL A   1      32.384  18.779  22.745  1.00  0.00     0.043 A 
ATOM     72  C   UNL A   1      32.575  17.514  24.789  1.00  0.00     0.085 A 
ATOM     73  Cl  UNL A   1      32.161  18.825  21.040  1.00  0.00    -0.084 Cl
ATOM     74  C   UNL A   1      32.392  17.552  23.405  1.00  0.00     0.045 A 
ATOM     75  Cl  UNL A   1      32.500  15.979  25.578  1.00  0.00    -0.080 Cl
BRANCH  70  76
ATOM     76  O   UNL A   1      32.912  18.626  26.875  1.00  0.00    -0.505 OA
ATOM     77  H   UNL A   1      32.870  19.404  27.393  1.00  0.00     0.293 HD
ENDBRANCH  70  76
ENDBRANCH  66  68
ENDBRANCH  65  66
ENDBRANCH  64  65
ENDBRANCH  63  64
ENDBRANCH  62  63
ENDBRANCH  61  62
ENDBRANCH  60  61
ENDBRANCH  59  60
ENDBRANCH   1  59
TORSDOF 21
ENDMDL
MODEL 3
REMARK VINA RESULT:      -9.3      4.239      6.914
REMARK SMILES O=C(OCCOCCOCCOCCOC(=O)c1cc(Cl)cc(Cl)c1O)c1ccc(-c2c3nc(c(-c4ccccc4)c4ccc([nH]4)c(-c4ccccc4)c4nc(c(-c5ccccc5)c5ccc2[nH]5)C=C4)C=C3)cc1
REMARK SMILES IDX 8 1 7 2 6 3 5 4 4 5 3 6 2 7 1 8 27 9 28 10 74 11 29 12 73 13
REMARK SMILES IDX 30 14 31 15 32 16 67 17 33 18 72 19 66 20 68 21 34 22 71 23
REMARK SMILES IDX 65 24 64 25 35 27 57 28 42 29 56 30 43 31 46 32 55 33 69 34
REMARK SMILES IDX 44 35 45 36 54 38 70 39 47 40 36 41 37 42 41 43 38 44 40 45
REMARK SMILES IDX 39 46 58 47 59 48 63 49 60 50 62 51 61 52 48 53 49 54 53 55
REMARK SMILES IDX 50 56 52 57 51 58 9 59 10 60 11 61 12 62 13 63 14 64 15 65
REMARK SMILES IDX 16 66 17 67 18 68 19 69 25 70 20 71 23 72 21 73 22 74 24 75
REMARK SMILES IDX 26 76
REMARK H PARENT 68 26 46 37 26 77
REMARK Flexibility Score: inf
ROOT
ATOM      1  C   UNL A   1      35.862  22.205  26.051  1.00  0.00     0.188 C 
ENDROOT
BRANCH   1   2
ATOM      2  C   UNL A   1      36.984  22.140  25.016  1.00  0.00     0.188 C 
BRANCH   2   3
ATOM      3  O   UNL A   1      36.950  20.901  24.300  1.00  0.00    -0.376 OA
BRANCH   3   4
ATOM      4  C   UNL A   1      37.641  19.821  24.932  1.00  0.00     0.202 C 
BRANCH   4   5
ATOM      5  C   UNL A   1      38.871  20.250  25.737  1.00  0.00     0.261 C 
BRANCH   5   6
ATOM      6  O   UNL A   1      39.922  19.272  25.705  1.00  0.00    -0.460 OA
BRANCH   6   7
ATOM      7  C   UNL A   1      41.237  19.448  25.993  1.00  0.00     0.338 C 
ATOM      8  O   UNL A   1      42.002  18.498  25.828  1.00  0.00    -0.246 OA
BRANCH   7   9
ATOM      9  C   UNL A   1      41.828  20.734  26.482  1.00  0.00     0.060 A 
ATOM     10  C   UNL A   1      42.002  21.083  27.821  1.00  0.00     0.016 A 
ATOM     11  C   UNL A   1      42.291  21.641  25.511  1.00  0.00     0.016 A 
ATOM     12  C   UNL A   1      42.529  22.307  28.196  1.00  0.00     0.010 A 
ATOM     13  C   UNL A   1      42.856  22.868  25.876  1.00  0.00     0.010 A 
ATOM     14  C   UNL A   1      42.943  23.212  27.227  1.00  0.00    -0.014 A 
BRANCH  14  15
ATOM     15  C   UNL A   1      43.279  24.565  27.697  1.00  0.00     0.031 A 
ATOM     16  C   UNL A   1      44.719  24.980  27.647  1.00  0.00     0.074 A 
ATOM     17  C   UNL A   1      42.293  25.450  27.932  1.00  0.00     0.049 A 
ATOM     18  N   UNL A   1      45.262  26.123  27.967  1.00  0.00    -0.248 NA
ATOM     19  C   UNL A   1      45.675  23.979  27.137  1.00  0.00     0.031 C 
ATOM     20  C   UNL A   1      40.858  25.164  27.827  1.00  0.00     0.029 A 
ATOM     21  N   UNL A   1      42.344  26.779  28.249  1.00  0.00    -0.354 N 
ATOM     22  C   UNL A   1      46.620  25.971  27.717  1.00  0.00     0.074 A 
ATOM     23  C   UNL A   1      46.824  24.628  27.227  1.00  0.00     0.031 C 
ATOM     24  C   UNL A   1      40.168  26.295  28.047  1.00  0.00     0.029 A 
ATOM     25  C   UNL A   1      41.107  27.361  28.380  1.00  0.00     0.049 A 
ATOM     26  H   UNL A   1      43.188  27.273  28.372  1.00  0.00     0.167 HD
ATOM     27  C   UNL A   1      47.606  26.878  27.889  1.00  0.00     0.031 A 
ATOM     28  C   UNL A   1      40.781  28.608  28.764  1.00  0.00     0.031 A 
ATOM     29  C   UNL A   1      47.372  28.200  28.396  1.00  0.00     0.049 A 
ATOM     30  C   UNL A   1      41.908  29.552  29.087  1.00  0.00     0.074 A 
ATOM     31  C   UNL A   1      48.287  29.179  28.726  1.00  0.00     0.029 A 
ATOM     32  N   UNL A   1      46.109  28.723  28.641  1.00  0.00    -0.354 N 
ATOM     33  N   UNL A   1      43.200  29.371  28.952  1.00  0.00    -0.248 NA
ATOM     34  C   UNL A   1      41.534  30.862  29.631  1.00  0.00     0.031 C 
ATOM     35  C   UNL A   1      47.577  30.282  29.216  1.00  0.00     0.029 A 
ATOM     36  C   UNL A   1      46.219  30.008  29.135  1.00  0.00     0.049 A 
ATOM     37  H   UNL A   1      45.260  28.249  28.486  1.00  0.00     0.167 HD
ATOM     38  C   UNL A   1      43.797  30.547  29.383  1.00  0.00     0.074 A 
ATOM     39  C   UNL A   1      42.718  31.445  29.750  1.00  0.00     0.031 C 
ATOM     40  C   UNL A   1      45.112  30.861  29.484  1.00  0.00     0.031 A 
BRANCH  27  41
ATOM     41  C   UNL A   1      49.008  26.422  27.609  1.00  0.00    -0.014 A 
ATOM     42  C   UNL A   1      49.861  25.987  28.636  1.00  0.00     0.009 A 
ATOM     43  C   UNL A   1      49.497  26.467  26.295  1.00  0.00     0.009 A 
ATOM     44  C   UNL A   1      51.184  25.638  28.355  1.00  0.00     0.001 A 
ATOM     45  C   UNL A   1      50.813  26.095  26.013  1.00  0.00     0.001 A 
ATOM     46  C   UNL A   1      51.658  25.690  27.044  1.00  0.00     0.000 A 
ENDBRANCH  27  41
BRANCH  28  47
ATOM     47  C   UNL A   1      39.358  29.002  28.959  1.00  0.00    -0.014 A 
ATOM     48  C   UNL A   1      38.684  28.742  30.162  1.00  0.00     0.009 A 
ATOM     49  C   UNL A   1      38.644  29.602  27.908  1.00  0.00     0.009 A 
ATOM     50  C   UNL A   1      37.322  29.036  30.291  1.00  0.00     0.001 A 
ATOM     51  C   UNL A   1      37.294  29.929  28.051  1.00  0.00     0.001 A 
ATOM     52  C   UNL A   1      36.630  29.631  29.238  1.00  0.00     0.000 A 
ENDBRANCH  28  47
BRANCH  40  53
ATOM     53  C   UNL A   1      45.434  32.239  29.984  1.00  0.00    -0.014 A 
ATOM     54  C   UNL A   1      45.534  33.325  29.102  1.00  0.00     0.009 A 
ATOM     55  C   UNL A   1      45.608  32.451  31.359  1.00  0.00     0.009 A 
ATOM     56  C   UNL A   1      45.843  34.595  29.587  1.00  0.00     0.001 A 
ATOM     57  C   UNL A   1      45.884  33.728  31.844  1.00  0.00     0.001 A 
ATOM     58  C   UNL A   1      46.013  34.796  30.957  1.00  0.00     0.000 A 
ENDBRANCH  40  53
ENDBRANCH  14  15
ENDBRANCH   7   9
ENDBRANCH   6   7
ENDBRANCH   5   6
ENDBRANCH   4   5
ENDBRANCH   3   4
ENDBRANCH   2   3
ENDBRANCH   1   2
BRANCH   1  59
ATOM     59  O   UNL A   1      35.180  23.458  26.120  1.00  0.00    -0.377 OA
BRANCH  59  60
ATOM     60  C   UNL A   1      33.841  23.482  25.634  1.00  0.00     0.188 C 
BRANCH  60  61
ATOM     61  C   UNL A   1      33.205  22.149  25.192  1.00  0.00     0.188 C 
BRANCH  61  62
ATOM     62  O   UNL A   1      33.069  22.039  23.786  1.00  0.00    -0.376 OA
BRANCH  62  63
ATOM     63  C   UNL A   1      33.651  23.066  23.003  1.00  0.00     0.202 C 
BRANCH  63  64
ATOM     64  C   UNL A   1      32.739  23.997  22.184  1.00  0.00     0.261 C 
BRANCH  64  65
ATOM     65  O   UNL A   1      32.414  25.290  22.724  1.00  0.00    -0.460 OA
BRANCH  65  66
ATOM     66  C   UNL A   1      33.158  26.366  22.397  1.00  0.00     0.342 C 
ATOM     67  O   UNL A   1      33.905  26.493  21.439  1.00  0.00    -0.246 OA
BRANCH  66  68
ATOM     68  C   UNL A   1      32.709  27.495  23.246  1.00  0.00     0.104 A 
ATOM     69  C   UNL A   1      33.397  27.791  24.429  1.00  0.00     0.040 A 
ATOM     70  C   UNL A   1      31.494  28.138  22.955  1.00  0.00     0.148 A 
ATOM     71  C   UNL A   1      32.857  28.711  25.327  1.00  0.00     0.043 A 
ATOM     72  C   UNL A   1      30.945  29.025  23.892  1.00  0.00     0.085 A 
ATOM     73  Cl  UNL A   1      33.700  29.074  26.782  1.00  0.00    -0.084 Cl
ATOM     74  C   UNL A   1      31.629  29.317  25.074  1.00  0.00     0.045 A 
ATOM     75  Cl  UNL A   1      29.389  29.736  23.653  1.00  0.00    -0.080 Cl
BRANCH  70  76
ATOM     76  O   UNL A   1      30.782  27.852  21.818  1.00  0.00    -0.505 OA
ATOM     77  H   UNL A   1      31.189  27.927  20.979  1.00  0.00     0.293 HD
ENDBRANCH  70  76
ENDBRANCH  66  68
ENDBRANCH  65  66
ENDBRANCH  64  65
ENDBRANCH  63  64
ENDBRANCH  62  63
ENDBRANCH  61  62
ENDBRANCH  60  61
ENDBRANCH  59  60
ENDBRANCH   1  59
TORSDOF 21
ENDMDL
