MODEL 1
REMARK VINA RESULT:      -7.6      0.000      0.000
REMARK SMILES CC1=C(CC(=O)OCCOCCOCCOCCOC(=O)c2ccc(-c3c4nc(c(-c5ccccc5)c5ccc([nH]5)c(-c5ccccc5)c5nc(c(-c6ccccc6)c6ccc3[nH]6)C=C5)C=C4)cc2)c2cc(F)ccc2/C1=C\c1ccc([S@@+](C)[O-])cc1
REMARK SMILES IDX 12 1 11 2 10 3 9 4 8 5 7 6 5 7 6 8 4 9 3 10 1 11 2 12 77 13
REMARK SMILES IDX 70 14 76 15 78 16 71 17 75 18 72 19 74 20 73 21 79 22 80 23
REMARK SMILES IDX 87 24 81 25 86 26 82 27 83 28 84 29 85 30 13 31 14 32 15 33
REMARK SMILES IDX 16 34 17 35 18 36 19 37 20 38 21 39 22 40 23 41 69 42 24 43
REMARK SMILES IDX 68 44 25 45 26 46 27 47 62 48 28 49 67 50 61 51 63 52 29 53
REMARK SMILES IDX 66 54 60 55 59 56 30 58 52 59 37 60 51 61 38 62 41 63 50 64
REMARK SMILES IDX 64 65 39 66 40 67 49 69 65 70 42 71 31 72 32 73 36 74 33 75
REMARK SMILES IDX 35 76 34 77 53 78 54 79 58 80 55 81 57 82 56 83 43 84 44 85
REMARK SMILES IDX 48 86 45 87 47 88 46 89
REMARK H PARENT 63 57 41 68
REMARK Flexibility Score: inf
ROOT
ATOM      1  C   UNL A   1      38.363  33.207  33.567  1.00  0.00     0.188 C 
ENDROOT
BRANCH   1   2
ATOM      2  C   UNL A   1      38.384  31.793  34.181  1.00  0.00     0.188 C 
BRANCH   2   3
ATOM      3  O   UNL A   1      39.595  31.105  33.959  1.00  0.00    -0.376 OA
BRANCH   3   4
ATOM      4  C   UNL A   1      39.589  29.693  33.971  1.00  0.00     0.202 C 
BRANCH   4   5
ATOM      5  C   UNL A   1      40.889  28.880  34.131  1.00  0.00     0.261 C 
BRANCH   5   6
ATOM      6  O   UNL A   1      40.842  27.464  33.862  1.00  0.00    -0.463 OA
BRANCH   6   7
ATOM      7  C   UNL A   1      41.646  26.646  34.577  1.00  0.00     0.310 C 
ATOM      8  O   UNL A   1      41.248  25.966  35.520  1.00  0.00    -0.252 OA
BRANCH   7   9
ATOM      9  C   UNL A   1      43.116  26.601  34.110  1.00  0.00     0.159 C 
BRANCH   9  10
ATOM     10  C   UNL A   1      44.064  25.499  34.513  1.00  0.00    -0.025 C 
ATOM     11  C   UNL A   1      43.529  23.704  32.781  1.00  0.00     0.045 C 
ATOM     12  C   UNL A   1      44.248  24.275  33.957  1.00  0.00    -0.039 C 
ATOM     13  C   UNL A   1      45.315  23.540  34.670  1.00  0.00    -0.014 C 
ATOM     14  C   UNL A   1      45.093  25.648  35.571  1.00  0.00    -0.011 A 
ATOM     15  C   UNL A   1      45.838  24.457  35.699  1.00  0.00    -0.010 A 
ATOM     16  C   UNL A   1      45.699  22.273  34.405  1.00  0.00     0.017 C 
ATOM     17  C   UNL A   1      45.356  26.726  36.409  1.00  0.00     0.048 A 
ATOM     18  C   UNL A   1      46.835  24.340  36.662  1.00  0.00     0.012 A 
ATOM     19  C   UNL A   1      46.338  26.583  37.389  1.00  0.00     0.123 A 
ATOM     20  C   UNL A   1      47.076  25.409  37.523  1.00  0.00     0.040 A 
ATOM     21  F   UNL A   1      46.561  27.589  38.246  1.00  0.00    -0.207 F 
BRANCH  16  22
ATOM     22  C   UNL A   1      46.725  21.518  35.141  1.00  0.00    -0.025 A 
ATOM     23  C   UNL A   1      46.376  20.806  36.297  1.00  0.00     0.013 A 
ATOM     24  C   UNL A   1      48.070  21.603  34.773  1.00  0.00     0.013 A 
ATOM     25  C   UNL A   1      47.370  20.274  37.129  1.00  0.00     0.061 A 
ATOM     26  C   UNL A   1      49.063  21.060  35.599  1.00  0.00     0.061 A 
ATOM     27  C   UNL A   1      48.723  20.422  36.799  1.00  0.00     0.152 A 
BRANCH  27  28
ATOM     28  S   UNL A   1      50.022  19.988  37.987  1.00  0.00    -0.018 S 
ATOM     29  C   UNL A   1      49.026  19.221  39.280  1.00  0.00     0.346 C 
ATOM     30  O   UNL A   1      50.899  18.865  37.325  1.00  0.00    -0.612 OA
ENDBRANCH  27  28
ENDBRANCH  16  22
ENDBRANCH   9  10
ENDBRANCH   7   9
ENDBRANCH   6   7
ENDBRANCH   5   6
ENDBRANCH   4   5
ENDBRANCH   3   4
ENDBRANCH   2   3
ENDBRANCH   1   2
BRANCH   1  31
ATOM     31  O   UNL A   1      37.518  33.584  32.488  1.00  0.00    -0.377 OA
BRANCH  31  32
ATOM     32  C   UNL A   1      36.157  33.850  32.746  1.00  0.00     0.188 C 
BRANCH  32  33
ATOM     33  C   UNL A   1      35.156  32.726  32.437  1.00  0.00     0.188 C 
BRANCH  33  34
ATOM     34  O   UNL A   1      34.266  33.014  31.365  1.00  0.00    -0.376 OA
BRANCH  34  35
ATOM     35  C   UNL A   1      34.857  33.294  30.102  1.00  0.00     0.202 C 
BRANCH  35  36
ATOM     36  C   UNL A   1      34.022  32.937  28.864  1.00  0.00     0.261 C 
BRANCH  36  37
ATOM     37  O   UNL A   1      34.703  32.199  27.842  1.00  0.00    -0.460 OA
BRANCH  37  38
ATOM     38  C   UNL A   1      34.548  30.861  27.816  1.00  0.00     0.338 C 
ATOM     39  O   UNL A   1      33.572  30.232  27.448  1.00  0.00    -0.246 OA
BRANCH  38  40
ATOM     40  C   UNL A   1      35.865  30.278  28.140  1.00  0.00     0.060 A 
ATOM     41  C   UNL A   1      36.866  30.218  27.167  1.00  0.00     0.016 A 
ATOM     42  C   UNL A   1      36.071  29.728  29.412  1.00  0.00     0.016 A 
ATOM     43  C   UNL A   1      38.091  29.627  27.477  1.00  0.00     0.010 A 
ATOM     44  C   UNL A   1      37.287  29.117  29.714  1.00  0.00     0.010 A 
ATOM     45  C   UNL A   1      38.315  29.096  28.760  1.00  0.00    -0.014 A 
BRANCH  45  46
ATOM     46  C   UNL A   1      39.699  28.788  29.182  1.00  0.00     0.031 A 
ATOM     47  C   UNL A   1      40.530  29.721  30.001  1.00  0.00     0.074 A 
ATOM     48  C   UNL A   1      40.198  27.607  28.768  1.00  0.00     0.049 A 
ATOM     49  N   UNL A   1      41.716  29.513  30.514  1.00  0.00    -0.248 NA
ATOM     50  C   UNL A   1      39.977  31.055  30.274  1.00  0.00     0.031 C 
ATOM     51  C   UNL A   1      39.473  26.648  27.929  1.00  0.00     0.029 A 
ATOM     52  N   UNL A   1      41.406  27.007  28.997  1.00  0.00    -0.354 N 
ATOM     53  C   UNL A   1      42.050  30.680  31.188  1.00  0.00     0.074 A 
ATOM     54  C   UNL A   1      40.957  31.608  30.982  1.00  0.00     0.031 C 
ATOM     55  C   UNL A   1      40.238  25.566  27.742  1.00  0.00     0.029 A 
ATOM     56  C   UNL A   1      41.513  25.765  28.422  1.00  0.00     0.049 A 
ATOM     57  H   UNL A   1      42.127  27.424  29.522  1.00  0.00     0.167 HD
ATOM     58  C   UNL A   1      43.165  30.934  31.915  1.00  0.00     0.031 A 
ATOM     59  C   UNL A   1      42.518  24.873  28.446  1.00  0.00     0.031 A 
ATOM     60  C   UNL A   1      44.254  30.001  32.079  1.00  0.00     0.049 A 
ATOM     61  C   UNL A   1      43.746  25.190  29.245  1.00  0.00     0.074 A 
ATOM     62  C   UNL A   1      45.399  30.144  32.845  1.00  0.00     0.029 A 
ATOM     63  N   UNL A   1      44.347  28.764  31.455  1.00  0.00    -0.354 N 
ATOM     64  N   UNL A   1      44.005  26.255  29.963  1.00  0.00    -0.248 NA
ATOM     65  C   UNL A   1      44.810  24.178  29.254  1.00  0.00     0.031 C 
ATOM     66  C   UNL A   1      46.217  29.032  32.624  1.00  0.00     0.029 A 
ATOM     67  C   UNL A   1      45.548  28.156  31.785  1.00  0.00     0.049 A 
ATOM     68  H   UNL A   1      43.661  28.376  30.865  1.00  0.00     0.167 HD
ATOM     69  C   UNL A   1      45.257  26.041  30.519  1.00  0.00     0.074 A 
ATOM     70  C   UNL A   1      45.691  24.729  30.079  1.00  0.00     0.031 C 
ATOM     71  C   UNL A   1      45.983  26.862  31.317  1.00  0.00     0.031 A 
BRANCH  58  72
ATOM     72  C   UNL A   1      43.283  32.268  32.605  1.00  0.00    -0.014 A 
ATOM     73  C   UNL A   1      44.074  33.283  32.043  1.00  0.00     0.009 A 
ATOM     74  C   UNL A   1      42.724  32.475  33.876  1.00  0.00     0.009 A 
ATOM     75  C   UNL A   1      44.318  34.467  32.742  1.00  0.00     0.001 A 
ATOM     76  C   UNL A   1      42.946  33.671  34.563  1.00  0.00     0.001 A 
ATOM     77  C   UNL A   1      43.752  34.662  34.001  1.00  0.00     0.000 A 
ENDBRANCH  58  72
BRANCH  59  78
ATOM     78  C   UNL A   1      42.350  23.583  27.730  1.00  0.00    -0.014 A 
ATOM     79  C   UNL A   1      42.747  23.453  26.388  1.00  0.00     0.009 A 
ATOM     80  C   UNL A   1      41.702  22.506  28.351  1.00  0.00     0.009 A 
ATOM     81  C   UNL A   1      42.468  22.286  25.675  1.00  0.00     0.001 A 
ATOM     82  C   UNL A   1      41.455  21.328  27.645  1.00  0.00     0.001 A 
ATOM     83  C   UNL A   1      41.825  21.223  26.305  1.00  0.00     0.000 A 
ENDBRANCH  59  78
BRANCH  71  84
ATOM     84  C   UNL A   1      47.338  26.377  31.757  1.00  0.00    -0.014 A 
ATOM     85  C   UNL A   1      48.473  26.669  30.984  1.00  0.00     0.009 A 
ATOM     86  C   UNL A   1      47.482  25.566  32.894  1.00  0.00     0.009 A 
ATOM     87  C   UNL A   1      49.721  26.149  31.333  1.00  0.00     0.001 A 
ATOM     88  C   UNL A   1      48.736  25.078  33.261  1.00  0.00     0.001 A 
ATOM     89  C   UNL A   1      49.853  25.360  32.474  1.00  0.00     0.000 A 
ENDBRANCH  71  84
ENDBRANCH  45  46
ENDBRANCH  38  40
ENDBRANCH  37  38
ENDBRANCH  36  37
ENDBRANCH  35  36
ENDBRANCH  34  35
ENDBRANCH  33  34
ENDBRANCH  32  33
ENDBRANCH  31  32
ENDBRANCH   1  31
TORSDOF 23
ENDMDL
MODEL 2
REMARK VINA RESULT:      -7.1      4.880     11.455
REMARK SMILES CC1=C(CC(=O)OCCOCCOCCOCCOC(=O)c2ccc(-c3c4nc(c(-c5ccccc5)c5ccc([nH]5)c(-c5ccccc5)c5nc(c(-c6ccccc6)c6ccc3[nH]6)C=C5)C=C4)cc2)c2cc(F)ccc2/C1=C\c1ccc([S@@+](C)[O-])cc1
REMARK SMILES IDX 12 1 11 2 10 3 9 4 8 5 7 6 5 7 6 8 4 9 3 10 1 11 2 12 77 13
REMARK SMILES IDX 70 14 76 15 78 16 71 17 75 18 72 19 74 20 73 21 79 22 80 23
REMARK SMILES IDX 87 24 81 25 86 26 82 27 83 28 84 29 85 30 13 31 14 32 15 33
REMARK SMILES IDX 16 34 17 35 18 36 19 37 20 38 21 39 22 40 23 41 69 42 24 43
REMARK SMILES IDX 68 44 25 45 26 46 27 47 62 48 28 49 67 50 61 51 63 52 29 53
REMARK SMILES IDX 66 54 60 55 59 56 30 58 52 59 37 60 51 61 38 62 41 63 50 64
REMARK SMILES IDX 64 65 39 66 40 67 49 69 65 70 42 71 31 72 32 73 36 74 33 75
REMARK SMILES IDX 35 76 34 77 53 78 54 79 58 80 55 81 57 82 56 83 43 84 44 85
REMARK SMILES IDX 48 86 45 87 47 88 46 89
REMARK H PARENT 63 57 41 68
REMARK Flexibility Score: inf
ROOT
ATOM      1  C   UNL A   1      46.375  22.021  24.354  1.00  0.00     0.188 C 
ENDROOT
BRANCH   1   2
ATOM      2  C   UNL A   1      46.239  20.556  24.816  1.00  0.00     0.188 C 
BRANCH   2   3
ATOM      3  O   UNL A   1      45.508  19.752  23.918  1.00  0.00    -0.376 OA
BRANCH   3   4
ATOM      4  C   UNL A   1      44.755  18.672  24.428  1.00  0.00     0.202 C 
BRANCH   4   5
ATOM      5  C   UNL A   1      43.690  18.875  25.524  1.00  0.00     0.261 C 
BRANCH   5   6
ATOM      6  O   UNL A   1      42.523  19.658  25.200  1.00  0.00    -0.463 OA
BRANCH   6   7
ATOM      7  C   UNL A   1      42.482  20.948  25.601  1.00  0.00     0.310 C 
ATOM      8  O   UNL A   1      43.044  21.859  24.998  1.00  0.00    -0.252 OA
BRANCH   7   9
ATOM      9  C   UNL A   1      41.649  21.211  26.874  1.00  0.00     0.159 C 
BRANCH   9  10
ATOM     10  C   UNL A   1      41.271  22.599  27.326  1.00  0.00    -0.025 C 
ATOM     11  C   UNL A   1      38.820  22.715  26.628  1.00  0.00     0.045 C 
ATOM     12  C   UNL A   1      40.080  23.242  27.229  1.00  0.00    -0.039 C 
ATOM     13  C   UNL A   1      40.167  24.585  27.842  1.00  0.00    -0.014 C 
ATOM     14  C   UNL A   1      42.171  23.482  28.107  1.00  0.00    -0.011 A 
ATOM     15  C   UNL A   1      41.526  24.702  28.400  1.00  0.00    -0.010 A 
ATOM     16  C   UNL A   1      39.174  25.500  27.858  1.00  0.00     0.017 C 
ATOM     17  C   UNL A   1      43.485  23.275  28.514  1.00  0.00     0.048 A 
ATOM     18  C   UNL A   1      42.190  25.712  29.089  1.00  0.00     0.012 A 
ATOM     19  C   UNL A   1      44.148  24.308  29.177  1.00  0.00     0.123 A 
ATOM     20  C   UNL A   1      43.517  25.516  29.467  1.00  0.00     0.040 A 
ATOM     21  F   UNL A   1      45.433  24.150  29.520  1.00  0.00    -0.207 F 
BRANCH  16  22
ATOM     22  C   UNL A   1      39.269  26.855  28.421  1.00  0.00    -0.025 A 
ATOM     23  C   UNL A   1      38.966  27.076  29.772  1.00  0.00     0.013 A 
ATOM     24  C   UNL A   1      39.538  27.951  27.596  1.00  0.00     0.013 A 
ATOM     25  C   UNL A   1      38.832  28.380  30.265  1.00  0.00     0.061 A 
ATOM     26  C   UNL A   1      39.417  29.255  28.093  1.00  0.00     0.061 A 
ATOM     27  C   UNL A   1      39.030  29.480  29.420  1.00  0.00     0.152 A 
BRANCH  27  28
ATOM     28  S   UNL A   1      38.598  31.156  29.960  1.00  0.00    -0.018 S 
ATOM     29  C   UNL A   1      38.492  30.898  31.741  1.00  0.00     0.346 C 
ATOM     30  O   UNL A   1      39.844  32.070  29.678  1.00  0.00    -0.612 OA
ENDBRANCH  27  28
ENDBRANCH  16  22
ENDBRANCH   9  10
ENDBRANCH   7   9
ENDBRANCH   6   7
ENDBRANCH   5   6
ENDBRANCH   4   5
ENDBRANCH   3   4
ENDBRANCH   2   3
ENDBRANCH   1   2
BRANCH   1  31
ATOM     31  O   UNL A   1      46.462  23.124  25.247  1.00  0.00    -0.377 OA
BRANCH  31  32
ATOM     32  C   UNL A   1      45.575  24.208  25.083  1.00  0.00     0.188 C 
BRANCH  32  33
ATOM     33  C   UNL A   1      46.125  25.611  25.381  1.00  0.00     0.188 C 
BRANCH  33  34
ATOM     34  O   UNL A   1      46.879  26.182  24.318  1.00  0.00    -0.376 OA
BRANCH  34  35
ATOM     35  C   UNL A   1      48.269  25.885  24.289  1.00  0.00     0.202 C 
BRANCH  35  36
ATOM     36  C   UNL A   1      49.224  27.087  24.337  1.00  0.00     0.261 C 
BRANCH  36  37
ATOM     37  O   UNL A   1      48.744  28.238  25.044  1.00  0.00    -0.460 OA
BRANCH  37  38
ATOM     38  C   UNL A   1      49.419  28.637  26.139  1.00  0.00     0.338 C 
ATOM     39  O   UNL A   1      50.598  28.936  26.218  1.00  0.00    -0.246 OA
BRANCH  38  40
ATOM     40  C   UNL A   1      48.417  28.836  27.203  1.00  0.00     0.060 A 
ATOM     41  C   UNL A   1      48.781  29.439  28.410  1.00  0.00     0.016 A 
ATOM     42  C   UNL A   1      47.117  28.351  27.011  1.00  0.00     0.016 A 
ATOM     43  C   UNL A   1      47.832  29.581  29.421  1.00  0.00     0.010 A 
ATOM     44  C   UNL A   1      46.173  28.474  28.030  1.00  0.00     0.010 A 
ATOM     45  C   UNL A   1      46.517  29.122  29.226  1.00  0.00    -0.014 A 
BRANCH  45  46
ATOM     46  C   UNL A   1      45.450  29.574  30.146  1.00  0.00     0.031 A 
ATOM     47  C   UNL A   1      44.965  28.757  31.298  1.00  0.00     0.074 A 
ATOM     48  C   UNL A   1      44.909  30.779  29.882  1.00  0.00     0.049 A 
ATOM     49  N   UNL A   1      44.109  29.095  32.229  1.00  0.00    -0.248 NA
ATOM     50  C   UNL A   1      45.488  27.389  31.425  1.00  0.00     0.031 C 
ATOM     51  C   UNL A   1      45.292  31.631  28.752  1.00  0.00     0.029 A 
ATOM     52  N   UNL A   1      43.944  31.498  30.533  1.00  0.00    -0.354 N 
ATOM     53  C   UNL A   1      44.000  27.993  33.066  1.00  0.00     0.074 A 
ATOM     54  C   UNL A   1      44.847  26.959  32.507  1.00  0.00     0.031 C 
ATOM     55  C   UNL A   1      44.593  32.771  28.808  1.00  0.00     0.029 A 
ATOM     56  C   UNL A   1      43.697  32.720  29.957  1.00  0.00     0.049 A 
ATOM     57  H   UNL A   1      43.474  31.172  31.334  1.00  0.00     0.167 HD
ATOM     58  C   UNL A   1      43.264  27.874  34.198  1.00  0.00     0.031 A 
ATOM     59  C   UNL A   1      42.853  33.702  30.318  1.00  0.00     0.031 A 
ATOM     60  C   UNL A   1      42.404  28.911  34.717  1.00  0.00     0.049 A 
ATOM     61  C   UNL A   1      42.040  33.534  31.566  1.00  0.00     0.074 A 
ATOM     62  C   UNL A   1      41.665  28.907  35.888  1.00  0.00     0.029 A 
ATOM     63  N   UNL A   1      42.150  30.124  34.092  1.00  0.00    -0.354 N 
ATOM     64  N   UNL A   1      42.024  32.527  32.405  1.00  0.00    -0.248 NA
ATOM     65  C   UNL A   1      41.145  34.641  31.927  1.00  0.00     0.031 C 
ATOM     66  C   UNL A   1      40.906  30.080  35.933  1.00  0.00     0.029 A 
ATOM     67  C   UNL A   1      41.233  30.855  34.832  1.00  0.00     0.049 A 
ATOM     68  H   UNL A   1      42.560  30.422  33.248  1.00  0.00     0.167 HD
ATOM     69  C   UNL A   1      41.126  32.881  33.401  1.00  0.00     0.074 A 
ATOM     70  C   UNL A   1      40.642  34.208  33.076  1.00  0.00     0.031 C 
ATOM     71  C   UNL A   1      40.735  32.164  34.483  1.00  0.00     0.031 A 
BRANCH  58  72
ATOM     72  C   UNL A   1      43.347  26.587  34.975  1.00  0.00    -0.014 A 
ATOM     73  C   UNL A   1      42.396  25.575  34.763  1.00  0.00     0.009 A 
ATOM     74  C   UNL A   1      44.281  26.427  36.011  1.00  0.00     0.009 A 
ATOM     75  C   UNL A   1      42.365  24.442  35.580  1.00  0.00     0.001 A 
ATOM     76  C   UNL A   1      44.266  25.280  36.810  1.00  0.00     0.001 A 
ATOM     77  C   UNL A   1      43.302  24.294  36.601  1.00  0.00     0.000 A 
ENDBRANCH  58  72
BRANCH  59  78
ATOM     78  C   UNL A   1      42.803  34.941  29.500  1.00  0.00    -0.014 A 
ATOM     79  C   UNL A   1      41.865  35.073  28.462  1.00  0.00     0.009 A 
ATOM     80  C   UNL A   1      43.754  35.954  29.688  1.00  0.00     0.009 A 
ATOM     81  C   UNL A   1      41.903  36.177  27.608  1.00  0.00     0.001 A 
ATOM     82  C   UNL A   1      43.768  37.072  28.853  1.00  0.00     0.001 A 
ATOM     83  C   UNL A   1      42.853  37.177  27.807  1.00  0.00     0.000 A 
ENDBRANCH  59  78
BRANCH  71  84
ATOM     84  C   UNL A   1      39.714  32.790  35.395  1.00  0.00    -0.014 A 
ATOM     85  C   UNL A   1      40.130  33.506  36.529  1.00  0.00     0.009 A 
ATOM     86  C   UNL A   1      38.340  32.606  35.176  1.00  0.00     0.009 A 
ATOM     87  C   UNL A   1      39.193  34.014  37.431  1.00  0.00     0.001 A 
ATOM     88  C   UNL A   1      37.404  33.145  36.060  1.00  0.00     0.001 A 
ATOM     89  C   UNL A   1      37.831  33.839  37.192  1.00  0.00     0.000 A 
ENDBRANCH  71  84
ENDBRANCH  45  46
ENDBRANCH  38  40
ENDBRANCH  37  38
ENDBRANCH  36  37
ENDBRANCH  35  36
ENDBRANCH  34  35
ENDBRANCH  33  34
ENDBRANCH  32  33
ENDBRANCH  31  32
ENDBRANCH   1  31
TORSDOF 23
ENDMDL
MODEL 3
REMARK VINA RESULT:      -7.0      4.536      6.790
REMARK SMILES CC1=C(CC(=O)OCCOCCOCCOCCOC(=O)c2ccc(-c3c4nc(c(-c5ccccc5)c5ccc([nH]5)c(-c5ccccc5)c5nc(c(-c6ccccc6)c6ccc3[nH]6)C=C5)C=C4)cc2)c2cc(F)ccc2/C1=C\c1ccc([S@@+](C)[O-])cc1
REMARK SMILES IDX 12 1 11 2 10 3 9 4 8 5 7 6 5 7 6 8 4 9 3 10 1 11 2 12 77 13
REMARK SMILES IDX 70 14 76 15 78 16 71 17 75 18 72 19 74 20 73 21 79 22 80 23
REMARK SMILES IDX 87 24 81 25 86 26 82 27 83 28 84 29 85 30 13 31 14 32 15 33
REMARK SMILES IDX 16 34 17 35 18 36 19 37 20 38 21 39 22 40 23 41 69 42 24 43
REMARK SMILES IDX 68 44 25 45 26 46 27 47 62 48 28 49 67 50 61 51 63 52 29 53
REMARK SMILES IDX 66 54 60 55 59 56 30 58 52 59 37 60 51 61 38 62 41 63 50 64
REMARK SMILES IDX 64 65 39 66 40 67 49 69 65 70 42 71 31 72 32 73 36 74 33 75
REMARK SMILES IDX 35 76 34 77 53 78 54 79 58 80 55 81 57 82 56 83 43 84 44 85
REMARK SMILES IDX 48 86 45 87 47 88 46 89
REMARK H PARENT 63 57 41 68
REMARK Flexibility Score: inf
ROOT
ATOM      1  C   UNL A   1      41.932  34.509  29.852  1.00  0.00     0.188 C 
ENDROOT
BRANCH   1   2
ATOM      2  C   UNL A   1      42.906  34.985  28.755  1.00  0.00     0.188 C 
BRANCH   2   3
ATOM      3  O   UNL A   1      43.943  34.067  28.491  1.00  0.00    -0.376 OA
BRANCH   3   4
ATOM      4  C   UNL A   1      44.154  33.640  27.162  1.00  0.00     0.202 C 
BRANCH   4   5
ATOM      5  C   UNL A   1      45.276  32.646  26.800  1.00  0.00     0.261 C 
BRANCH   5   6
ATOM      6  O   UNL A   1      44.941  31.516  25.971  1.00  0.00    -0.463 OA
BRANCH   6   7
ATOM      7  C   UNL A   1      44.224  30.507  26.515  1.00  0.00     0.310 C 
ATOM      8  O   UNL A   1      43.011  30.384  26.361  1.00  0.00    -0.252 OA
BRANCH   7   9
ATOM      9  C   UNL A   1      45.044  29.490  27.336  1.00  0.00     0.159 C 
BRANCH   9  10
ATOM     10  C   UNL A   1      46.383  28.967  26.878  1.00  0.00    -0.025 C 
ATOM     11  C   UNL A   1      45.693  27.311  25.065  1.00  0.00     0.045 C 
ATOM     12  C   UNL A   1      46.667  28.050  25.919  1.00  0.00    -0.039 C 
ATOM     13  C   UNL A   1      48.129  27.875  25.790  1.00  0.00    -0.014 C 
ATOM     14  C   UNL A   1      47.681  29.505  27.354  1.00  0.00    -0.011 A 
ATOM     15  C   UNL A   1      48.749  28.830  26.726  1.00  0.00    -0.010 A 
ATOM     16  C   UNL A   1      48.739  26.992  24.969  1.00  0.00     0.017 C 
ATOM     17  C   UNL A   1      47.941  30.489  28.300  1.00  0.00     0.048 A 
ATOM     18  C   UNL A   1      50.069  29.131  27.046  1.00  0.00     0.012 A 
ATOM     19  C   UNL A   1      49.269  30.760  28.633  1.00  0.00     0.123 A 
ATOM     20  C   UNL A   1      50.328  30.095  28.019  1.00  0.00     0.040 A 
ATOM     21  F   UNL A   1      49.535  31.660  29.589  1.00  0.00    -0.207 F 
BRANCH  16  22
ATOM     22  C   UNL A   1      50.191  26.777  24.872  1.00  0.00    -0.025 A 
ATOM     23  C   UNL A   1      50.839  25.943  25.792  1.00  0.00     0.013 A 
ATOM     24  C   UNL A   1      50.955  27.493  23.946  1.00  0.00     0.013 A 
ATOM     25  C   UNL A   1      52.238  25.905  25.853  1.00  0.00     0.061 A 
ATOM     26  C   UNL A   1      52.354  27.446  24.000  1.00  0.00     0.061 A 
ATOM     27  C   UNL A   1      53.006  26.680  24.975  1.00  0.00     0.152 A 
BRANCH  27  28
ATOM     28  S   UNL A   1      54.794  26.859  25.212  1.00  0.00    -0.018 S 
ATOM     29  C   UNL A   1      55.321  27.080  23.502  1.00  0.00     0.346 C 
ATOM     30  O   UNL A   1      55.029  28.216  25.968  1.00  0.00    -0.612 OA
ENDBRANCH  27  28
ENDBRANCH  16  22
ENDBRANCH   9  10
ENDBRANCH   7   9
ENDBRANCH   6   7
ENDBRANCH   5   6
ENDBRANCH   4   5
ENDBRANCH   3   4
ENDBRANCH   2   3
ENDBRANCH   1   2
BRANCH   1  31
ATOM     31  O   UNL A   1      40.754  33.758  29.587  1.00  0.00    -0.377 OA
BRANCH  31  32
ATOM     32  C   UNL A   1      39.548  34.135  30.214  1.00  0.00     0.188 C 
BRANCH  32  33
ATOM     33  C   UNL A   1      38.301  34.240  29.323  1.00  0.00     0.188 C 
BRANCH  33  34
ATOM     34  O   UNL A   1      37.226  33.398  29.723  1.00  0.00    -0.376 OA
BRANCH  34  35
ATOM     35  C   UNL A   1      35.961  33.649  29.121  1.00  0.00     0.202 C 
BRANCH  35  36
ATOM     36  C   UNL A   1      35.020  32.443  28.987  1.00  0.00     0.261 C 
BRANCH  36  37
ATOM     37  O   UNL A   1      35.538  31.191  29.453  1.00  0.00    -0.460 OA
BRANCH  37  38
ATOM     38  C   UNL A   1      35.622  30.173  28.575  1.00  0.00     0.338 C 
ATOM     39  O   UNL A   1      34.785  29.820  27.762  1.00  0.00    -0.246 OA
BRANCH  38  40
ATOM     40  C   UNL A   1      37.008  29.672  28.642  1.00  0.00     0.060 A 
ATOM     41  C   UNL A   1      37.874  29.847  27.559  1.00  0.00     0.016 A 
ATOM     42  C   UNL A   1      37.419  28.961  29.777  1.00  0.00     0.016 A 
ATOM     43  C   UNL A   1      39.168  29.331  27.623  1.00  0.00     0.010 A 
ATOM     44  C   UNL A   1      38.706  28.426  29.832  1.00  0.00     0.010 A 
ATOM     45  C   UNL A   1      39.598  28.639  28.770  1.00  0.00    -0.014 A 
BRANCH  45  46
ATOM     46  C   UNL A   1      41.043  28.401  28.969  1.00  0.00     0.031 A 
ATOM     47  C   UNL A   1      41.903  29.268  29.830  1.00  0.00     0.074 A 
ATOM     48  C   UNL A   1      41.569  27.352  28.308  1.00  0.00     0.049 A 
ATOM     49  N   UNL A   1      43.158  29.094  30.159  1.00  0.00    -0.248 NA
ATOM     50  C   UNL A   1      41.294  30.484  30.386  1.00  0.00     0.031 C 
ATOM     51  C   UNL A   1      40.814  26.473  27.411  1.00  0.00     0.029 A 
ATOM     52  N   UNL A   1      42.838  26.839  28.290  1.00  0.00    -0.354 N 
ATOM     53  C   UNL A   1      43.491  30.166  30.975  1.00  0.00     0.074 A 
ATOM     54  C   UNL A   1      42.315  31.009  31.057  1.00  0.00     0.031 C 
ATOM     55  C   UNL A   1      41.625  25.511  26.956  1.00  0.00     0.029 A 
ATOM     56  C   UNL A   1      42.960  25.719  27.506  1.00  0.00     0.049 A 
ATOM     57  H   UNL A   1      43.589  27.234  28.790  1.00  0.00     0.167 HD
ATOM     58  C   UNL A   1      44.670  30.406  31.599  1.00  0.00     0.031 A 
ATOM     59  C   UNL A   1      44.022  24.933  27.262  1.00  0.00     0.031 A 
ATOM     60  C   UNL A   1      45.837  29.566  31.475  1.00  0.00     0.049 A 
ATOM     61  C   UNL A   1      45.318  25.234  27.954  1.00  0.00     0.074 A 
ATOM     62  C   UNL A   1      47.058  29.693  32.116  1.00  0.00     0.029 A 
ATOM     63  N   UNL A   1      45.938  28.457  30.647  1.00  0.00    -0.354 N 
ATOM     64  N   UNL A   1      45.589  26.193  28.805  1.00  0.00    -0.248 NA
ATOM     65  C   UNL A   1      46.445  24.338  27.668  1.00  0.00     0.031 C 
ATOM     66  C   UNL A   1      47.920  28.712  31.617  1.00  0.00     0.029 A 
ATOM     67  C   UNL A   1      47.214  27.920  30.727  1.00  0.00     0.049 A 
ATOM     68  H   UNL A   1      45.211  28.104  30.084  1.00  0.00     0.167 HD
ATOM     69  C   UNL A   1      46.916  26.012  29.166  1.00  0.00     0.074 A 
ATOM     70  C   UNL A   1      47.383  24.833  28.465  1.00  0.00     0.031 C 
ATOM     71  C   UNL A   1      47.677  26.762  30.001  1.00  0.00     0.031 A 
BRANCH  58  72
ATOM     72  C   UNL A   1      44.778  31.620  32.485  1.00  0.00    -0.014 A 
ATOM     73  C   UNL A   1      45.272  32.828  31.964  1.00  0.00     0.009 A 
ATOM     74  C   UNL A   1      44.522  31.534  33.862  1.00  0.00     0.009 A 
ATOM     75  C   UNL A   1      45.523  33.916  32.803  1.00  0.00     0.001 A 
ATOM     76  C   UNL A   1      44.749  32.633  34.696  1.00  0.00     0.001 A 
ATOM     77  C   UNL A   1      45.260  33.819  34.169  1.00  0.00     0.000 A 
ENDBRANCH  58  72
BRANCH  59  78
ATOM     78  C   UNL A   1      43.857  23.761  26.364  1.00  0.00    -0.014 A 
ATOM     79  C   UNL A   1      43.414  22.528  26.872  1.00  0.00     0.009 A 
ATOM     80  C   UNL A   1      44.235  23.842  25.017  1.00  0.00     0.009 A 
ATOM     81  C   UNL A   1      43.387  21.394  26.059  1.00  0.00     0.001 A 
ATOM     82  C   UNL A   1      44.175  22.714  24.197  1.00  0.00     0.001 A 
ATOM     83  C   UNL A   1      43.764  21.489  24.721  1.00  0.00     0.000 A 
ENDBRANCH  59  78
BRANCH  71  84
ATOM     84  C   UNL A   1      49.111  26.344  30.192  1.00  0.00    -0.014 A 
ATOM     85  C   UNL A   1      49.449  25.438  31.209  1.00  0.00     0.009 A 
ATOM     86  C   UNL A   1      50.137  26.907  29.416  1.00  0.00     0.009 A 
ATOM     87  C   UNL A   1      50.784  25.113  31.455  1.00  0.00     0.001 A 
ATOM     88  C   UNL A   1      51.468  26.553  29.640  1.00  0.00     0.001 A 
ATOM     89  C   UNL A   1      51.791  25.665  30.666  1.00  0.00     0.000 A 
ENDBRANCH  71  84
ENDBRANCH  45  46
ENDBRANCH  38  40
ENDBRANCH  37  38
ENDBRANCH  36  37
ENDBRANCH  35  36
ENDBRANCH  34  35
ENDBRANCH  33  34
ENDBRANCH  32  33
ENDBRANCH  31  32
ENDBRANCH   1  31
TORSDOF 23
ENDMDL
