MODEL 1
REMARK VINA RESULT:     -10.3      0.000      0.000
REMARK SMILES Cc1cc(C(=O)OCCOCCOCCOCCOC(=O)c2ccc(-c3c4nc(c(-c5ccccc5)c5ccc([nH]5)c(-c5ccccc5)c5nc(c(-c6ccccc6)c6ccc3[nH]6)C=C5)C=C4)cc2)ccc1NC(=O)N1C[C@@H](C)[C@H](C)C1
REMARK SMILES IDX 14 1 13 2 12 3 11 4 10 5 9 6 8 7 7 8 5 9 6 10 4 11 1 12 2 13
REMARK SMILES IDX 3 14 72 15 71 16 70 17 73 18 74 19 75 21 76 22 77 23 82 24
REMARK SMILES IDX 78 25 80 26 79 27 81 28 15 29 16 30 17 31 18 32 19 33 20 34
REMARK SMILES IDX 21 35 22 36 23 37 69 38 24 39 68 40 25 41 26 42 27 43 62 44
REMARK SMILES IDX 28 45 67 46 61 47 63 48 29 49 66 50 60 51 59 52 30 54 52 55
REMARK SMILES IDX 37 56 51 57 38 58 41 59 50 60 64 61 39 62 40 63 49 65 65 66
REMARK SMILES IDX 42 67 31 68 32 69 36 70 33 71 35 72 34 73 53 74 54 75 58 76
REMARK SMILES IDX 55 77 57 78 56 79 43 80 44 81 48 82 45 83 47 84 46 85
REMARK H PARENT 73 20 63 53 41 64
REMARK Flexibility Score: inf
ROOT
ATOM      1  C   UNL A   1      32.798  22.147  25.060  1.00  0.00     0.188 C 
ENDROOT
BRANCH   1   2
ATOM      2  O   UNL A   1      33.218  20.857  24.611  1.00  0.00    -0.377 OA
BRANCH   2   3
ATOM      3  C   UNL A   1      34.513  20.404  24.993  1.00  0.00     0.188 C 
BRANCH   3   4
ATOM      4  C   UNL A   1      35.503  21.446  25.529  1.00  0.00     0.188 C 
BRANCH   4   5
ATOM      5  O   UNL A   1      36.234  22.224  24.589  1.00  0.00    -0.376 OA
BRANCH   5   6
ATOM      6  C   UNL A   1      37.658  22.119  24.660  1.00  0.00     0.202 C 
BRANCH   6   7
ATOM      7  C   UNL A   1      38.295  22.128  26.051  1.00  0.00     0.261 C 
BRANCH   7   8
ATOM      8  O   UNL A   1      39.713  22.041  25.898  1.00  0.00    -0.460 OA
BRANCH   8   9
ATOM      9  C   UNL A   1      40.321  21.095  26.638  1.00  0.00     0.338 C 
ATOM     10  O   UNL A   1      39.962  19.948  26.816  1.00  0.00    -0.246 OA
BRANCH   9  11
ATOM     11  C   UNL A   1      41.685  21.598  26.904  1.00  0.00     0.060 A 
ATOM     12  C   UNL A   1      44.478  22.657  24.618  1.00  0.00     0.046 C 
ATOM     13  C   UNL A   1      43.775  22.337  25.910  1.00  0.00    -0.027 A 
ATOM     14  C   UNL A   1      42.527  21.709  25.799  1.00  0.00     0.021 A 
ATOM     15  C   UNL A   1      44.205  22.775  27.178  1.00  0.00     0.045 A 
ATOM     16  C   UNL A   1      43.272  22.846  28.210  1.00  0.00     0.027 A 
ATOM     17  C   UNL A   1      42.038  22.214  28.103  1.00  0.00     0.018 A 
BRANCH  15  18
ATOM     18  N   UNL A   1      45.550  23.117  27.372  1.00  0.00    -0.308 N 
ATOM     19  C   UNL A   1      46.338  24.129  26.935  1.00  0.00     0.321 C 
ATOM     20  H   UNL A   1      46.029  22.482  27.952  1.00  0.00     0.171 HD
ATOM     21  O   UNL A   1      47.555  23.982  27.086  1.00  0.00    -0.248 OA
ATOM     22  N   UNL A   1      45.823  25.252  26.353  1.00  0.00    -0.324 N 
ATOM     23  C   UNL A   1      46.658  26.007  25.433  1.00  0.00     0.125 C 
ATOM     24  C   UNL A   1      44.785  26.119  26.920  1.00  0.00     0.125 C 
ATOM     25  C   UNL A   1      46.289  27.469  25.659  1.00  0.00     0.010 C 
ATOM     26  C   UNL A   1      44.806  27.378  26.044  1.00  0.00     0.010 C 
ATOM     27  C   UNL A   1      46.571  28.326  24.437  1.00  0.00     0.010 C 
ATOM     28  C   UNL A   1      44.268  28.614  26.752  1.00  0.00     0.010 C 
ENDBRANCH  15  18
ENDBRANCH   9  11
ENDBRANCH   8   9
ENDBRANCH   7   8
ENDBRANCH   6   7
ENDBRANCH   5   6
ENDBRANCH   4   5
ENDBRANCH   3   4
ENDBRANCH   2   3
ENDBRANCH   1   2
BRANCH   1  29
ATOM     29  C   UNL A   1      31.770  22.179  26.190  1.00  0.00     0.188 C 
BRANCH  29  30
ATOM     30  O   UNL A   1      30.585  22.818  25.709  1.00  0.00    -0.376 OA
BRANCH  30  31
ATOM     31  C   UNL A   1      30.793  23.968  24.893  1.00  0.00     0.202 C 
BRANCH  31  32
ATOM     32  C   UNL A   1      30.817  25.288  25.672  1.00  0.00     0.261 C 
BRANCH  32  33
ATOM     33  O   UNL A   1      31.808  26.163  25.102  1.00  0.00    -0.460 OA
BRANCH  33  34
ATOM     34  C   UNL A   1      32.996  26.184  25.759  1.00  0.00     0.338 C 
ATOM     35  O   UNL A   1      33.578  25.209  26.204  1.00  0.00    -0.246 OA
BRANCH  34  36
ATOM     36  C   UNL A   1      33.354  27.591  26.093  1.00  0.00     0.060 A 
ATOM     37  C   UNL A   1      34.418  28.213  25.420  1.00  0.00     0.016 A 
ATOM     38  C   UNL A   1      32.852  28.157  27.260  1.00  0.00     0.016 A 
ATOM     39  C   UNL A   1      35.085  29.294  26.013  1.00  0.00     0.010 A 
ATOM     40  C   UNL A   1      33.574  29.157  27.880  1.00  0.00     0.010 A 
ATOM     41  C   UNL A   1      34.731  29.695  27.302  1.00  0.00    -0.014 A 
BRANCH  41  42
ATOM     42  C   UNL A   1      35.605  30.461  28.215  1.00  0.00     0.031 A 
ATOM     43  C   UNL A   1      35.302  31.885  28.569  1.00  0.00     0.074 A 
ATOM     44  C   UNL A   1      36.436  29.749  29.024  1.00  0.00     0.049 A 
ATOM     45  N   UNL A   1      36.042  32.615  29.339  1.00  0.00    -0.248 NA
ATOM     46  C   UNL A   1      34.130  32.627  28.096  1.00  0.00     0.031 C 
ATOM     47  C   UNL A   1      36.939  30.150  30.339  1.00  0.00     0.029 A 
ATOM     48  N   UNL A   1      37.027  28.498  28.849  1.00  0.00    -0.354 N 
ATOM     49  C   UNL A   1      35.277  33.673  29.780  1.00  0.00     0.074 A 
ATOM     50  C   UNL A   1      34.163  33.720  28.868  1.00  0.00     0.031 C 
ATOM     51  C   UNL A   1      37.854  29.277  30.777  1.00  0.00     0.029 A 
ATOM     52  C   UNL A   1      38.176  28.437  29.649  1.00  0.00     0.049 A 
ATOM     53  H   UNL A   1      36.693  27.779  28.264  1.00  0.00     0.167 HD
ATOM     54  C   UNL A   1      35.573  34.269  30.975  1.00  0.00     0.031 A 
ATOM     55  C   UNL A   1      39.438  28.313  29.146  1.00  0.00     0.031 A 
ATOM     56  C   UNL A   1      36.849  33.797  31.545  1.00  0.00     0.049 A 
ATOM     57  C   UNL A   1      40.245  29.567  29.441  1.00  0.00     0.074 A 
ATOM     58  C   UNL A   1      37.233  33.308  32.781  1.00  0.00     0.029 A 
ATOM     59  N   UNL A   1      37.958  33.637  30.714  1.00  0.00    -0.354 N 
ATOM     60  N   UNL A   1      39.674  30.717  29.707  1.00  0.00    -0.248 NA
ATOM     61  C   UNL A   1      41.697  29.644  29.574  1.00  0.00     0.031 C 
ATOM     62  C   UNL A   1      38.527  32.729  32.645  1.00  0.00     0.029 A 
ATOM     63  C   UNL A   1      38.968  32.950  31.349  1.00  0.00     0.049 A 
ATOM     64  H   UNL A   1      38.012  33.973  29.790  1.00  0.00     0.167 HD
ATOM     65  C   UNL A   1      40.601  31.603  30.167  1.00  0.00     0.074 A 
ATOM     66  C   UNL A   1      41.868  30.917  29.987  1.00  0.00     0.031 C 
ATOM     67  C   UNL A   1      40.272  32.807  30.715  1.00  0.00     0.031 A 
BRANCH  54  68
ATOM     68  C   UNL A   1      34.597  35.132  31.770  1.00  0.00    -0.014 A 
ATOM     69  C   UNL A   1      33.352  35.483  31.207  1.00  0.00     0.009 A 
ATOM     70  C   UNL A   1      34.878  35.722  33.018  1.00  0.00     0.009 A 
ATOM     71  C   UNL A   1      32.456  36.359  31.843  1.00  0.00     0.001 A 
ATOM     72  C   UNL A   1      33.967  36.562  33.682  1.00  0.00     0.001 A 
ATOM     73  C   UNL A   1      32.757  36.889  33.090  1.00  0.00     0.000 A 
ENDBRANCH  54  68
BRANCH  55  74
ATOM     74  C   UNL A   1      39.502  27.353  28.009  1.00  0.00    -0.014 A 
ATOM     75  C   UNL A   1      40.258  27.805  26.903  1.00  0.00     0.009 A 
ATOM     76  C   UNL A   1      39.419  25.968  28.233  1.00  0.00     0.009 A 
ATOM     77  C   UNL A   1      41.084  26.929  26.193  1.00  0.00     0.001 A 
ATOM     78  C   UNL A   1      40.246  25.093  27.506  1.00  0.00     0.001 A 
ATOM     79  C   UNL A   1      41.116  25.581  26.530  1.00  0.00     0.000 A 
ENDBRANCH  55  74
BRANCH  67  80
ATOM     80  C   UNL A   1      41.170  34.015  30.723  1.00  0.00    -0.014 A 
ATOM     81  C   UNL A   1      41.813  34.471  31.879  1.00  0.00     0.009 A 
ATOM     82  C   UNL A   1      41.605  34.555  29.490  1.00  0.00     0.009 A 
ATOM     83  C   UNL A   1      42.838  35.419  31.806  1.00  0.00     0.001 A 
ATOM     84  C   UNL A   1      42.656  35.468  29.411  1.00  0.00     0.001 A 
ATOM     85  C   UNL A   1      43.272  35.901  30.574  1.00  0.00     0.000 A 
ENDBRANCH  67  80
ENDBRANCH  41  42
ENDBRANCH  34  36
ENDBRANCH  33  34
ENDBRANCH  32  33
ENDBRANCH  31  32
ENDBRANCH  30  31
ENDBRANCH  29  30
ENDBRANCH   1  29
TORSDOF 21
ENDMDL
MODEL 2
REMARK VINA RESULT:      -9.8      4.054      9.597
REMARK SMILES Cc1cc(C(=O)OCCOCCOCCOCCOC(=O)c2ccc(-c3c4nc(c(-c5ccccc5)c5ccc([nH]5)c(-c5ccccc5)c5nc(c(-c6ccccc6)c6ccc3[nH]6)C=C5)C=C4)cc2)ccc1NC(=O)N1C[C@@H](C)[C@H](C)C1
REMARK SMILES IDX 14 1 13 2 12 3 11 4 10 5 9 6 8 7 7 8 5 9 6 10 4 11 1 12 2 13
REMARK SMILES IDX 3 14 72 15 71 16 70 17 73 18 74 19 75 21 76 22 77 23 82 24
REMARK SMILES IDX 78 25 80 26 79 27 81 28 15 29 16 30 17 31 18 32 19 33 20 34
REMARK SMILES IDX 21 35 22 36 23 37 69 38 24 39 68 40 25 41 26 42 27 43 62 44
REMARK SMILES IDX 28 45 67 46 61 47 63 48 29 49 66 50 60 51 59 52 30 54 52 55
REMARK SMILES IDX 37 56 51 57 38 58 41 59 50 60 64 61 39 62 40 63 49 65 65 66
REMARK SMILES IDX 42 67 31 68 32 69 36 70 33 71 35 72 34 73 53 74 54 75 58 76
REMARK SMILES IDX 55 77 57 78 56 79 43 80 44 81 48 82 45 83 47 84 46 85
REMARK H PARENT 73 20 63 53 41 64
REMARK Flexibility Score: inf
ROOT
ATOM      1  C   UNL A   1      44.331  22.920  25.861  1.00  0.00     0.188 C 
ENDROOT
BRANCH   1   2
ATOM      2  O   UNL A   1      43.554  21.955  26.575  1.00  0.00    -0.377 OA
BRANCH   2   3
ATOM      3  C   UNL A   1      42.175  21.828  26.243  1.00  0.00     0.188 C 
BRANCH   3   4
ATOM      4  C   UNL A   1      41.256  21.149  27.265  1.00  0.00     0.188 C 
BRANCH   4   5
ATOM      5  O   UNL A   1      39.938  21.659  27.428  1.00  0.00    -0.376 OA
BRANCH   5   6
ATOM      6  C   UNL A   1      39.355  22.271  26.276  1.00  0.00     0.202 C 
BRANCH   6   7
ATOM      7  C   UNL A   1      38.399  21.421  25.437  1.00  0.00     0.261 C 
BRANCH   7   8
ATOM      8  O   UNL A   1      37.059  21.739  25.819  1.00  0.00    -0.460 OA
BRANCH   8   9
ATOM      9  C   UNL A   1      36.099  20.979  25.261  1.00  0.00     0.338 C 
ATOM     10  O   UNL A   1      36.183  19.821  24.905  1.00  0.00    -0.246 OA
BRANCH   9  11
ATOM     11  C   UNL A   1      34.827  21.697  25.487  1.00  0.00     0.060 A 
ATOM     12  C   UNL A   1      31.948  22.513  23.208  1.00  0.00     0.046 C 
ATOM     13  C   UNL A   1      32.775  22.504  24.466  1.00  0.00    -0.027 A 
ATOM     14  C   UNL A   1      34.072  21.986  24.352  1.00  0.00     0.021 A 
ATOM     15  C   UNL A   1      32.278  22.815  25.747  1.00  0.00     0.045 A 
ATOM     16  C   UNL A   1      32.955  22.325  26.861  1.00  0.00     0.027 A 
ATOM     17  C   UNL A   1      34.246  21.820  26.749  1.00  0.00     0.018 A 
BRANCH  15  18
ATOM     18  N   UNL A   1      31.130  23.608  25.869  1.00  0.00    -0.308 N 
ATOM     19  C   UNL A   1      30.914  24.922  26.125  1.00  0.00     0.321 C 
ATOM     20  H   UNL A   1      30.296  23.101  25.742  1.00  0.00     0.171 HD
ATOM     21  O   UNL A   1      29.760  25.240  26.425  1.00  0.00    -0.248 OA
ATOM     22  N   UNL A   1      31.916  25.848  26.062  1.00  0.00    -0.324 N 
ATOM     23  C   UNL A   1      31.792  27.063  26.851  1.00  0.00     0.125 C 
ATOM     24  C   UNL A   1      32.812  26.074  24.924  1.00  0.00     0.125 C 
ATOM     25  C   UNL A   1      32.421  28.162  26.002  1.00  0.00     0.010 C 
ATOM     26  C   UNL A   1      33.513  27.402  25.237  1.00  0.00     0.010 C 
ATOM     27  C   UNL A   1      32.930  29.318  26.845  1.00  0.00     0.010 C 
ATOM     28  C   UNL A   1      34.021  28.122  23.995  1.00  0.00     0.010 C 
ENDBRANCH  15  18
ENDBRANCH   9  11
ENDBRANCH   8   9
ENDBRANCH   7   8
ENDBRANCH   6   7
ENDBRANCH   5   6
ENDBRANCH   4   5
ENDBRANCH   3   4
ENDBRANCH   2   3
ENDBRANCH   1   2
BRANCH   1  29
ATOM     29  C   UNL A   1      43.621  23.675  24.737  1.00  0.00     0.188 C 
BRANCH  29  30
ATOM     30  O   UNL A   1      43.650  25.072  25.040  1.00  0.00    -0.376 OA
BRANCH  30  31
ATOM     31  C   UNL A   1      42.808  25.489  26.112  1.00  0.00     0.202 C 
BRANCH  31  32
ATOM     32  C   UNL A   1      41.383  25.851  25.680  1.00  0.00     0.261 C 
BRANCH  32  33
ATOM     33  O   UNL A   1      40.533  25.920  26.839  1.00  0.00    -0.460 OA
BRANCH  33  34
ATOM     34  C   UNL A   1      40.293  27.176  27.297  1.00  0.00     0.338 C 
ATOM     35  O   UNL A   1      40.236  28.182  26.610  1.00  0.00    -0.246 OA
BRANCH  34  36
ATOM     36  C   UNL A   1      40.377  27.188  28.784  1.00  0.00     0.060 A 
ATOM     37  C   UNL A   1      39.201  27.086  29.544  1.00  0.00     0.016 A 
ATOM     38  C   UNL A   1      41.555  27.608  29.391  1.00  0.00     0.016 A 
ATOM     39  C   UNL A   1      39.171  27.573  30.858  1.00  0.00     0.010 A 
ATOM     40  C   UNL A   1      41.492  28.172  30.649  1.00  0.00     0.010 A 
ATOM     41  C   UNL A   1      40.294  28.223  31.374  1.00  0.00    -0.014 A 
BRANCH  41  42
ATOM     42  C   UNL A   1      40.272  29.170  32.507  1.00  0.00     0.031 A 
ATOM     43  C   UNL A   1      40.981  28.865  33.791  1.00  0.00     0.074 A 
ATOM     44  C   UNL A   1      39.949  30.463  32.232  1.00  0.00     0.049 A 
ATOM     45  N   UNL A   1      40.976  29.639  34.827  1.00  0.00    -0.248 NA
ATOM     46  C   UNL A   1      41.775  27.656  34.034  1.00  0.00     0.031 C 
ATOM     47  C   UNL A   1      40.386  31.654  32.963  1.00  0.00     0.029 A 
ATOM     48  N   UNL A   1      39.147  31.009  31.229  1.00  0.00    -0.354 N 
ATOM     49  C   UNL A   1      42.034  29.277  35.631  1.00  0.00     0.074 A 
ATOM     50  C   UNL A   1      42.398  27.958  35.179  1.00  0.00     0.031 C 
ATOM     51  C   UNL A   1      39.752  32.742  32.509  1.00  0.00     0.029 A 
ATOM     52  C   UNL A   1      38.687  32.259  31.664  1.00  0.00     0.049 A 
ATOM     53  H   UNL A   1      38.939  30.587  30.363  1.00  0.00     0.167 HD
ATOM     54  C   UNL A   1      42.602  30.206  36.459  1.00  0.00     0.031 A 
ATOM     55  C   UNL A   1      37.371  32.543  31.884  1.00  0.00     0.031 A 
ATOM     56  C   UNL A   1      41.832  31.462  36.517  1.00  0.00     0.049 A 
ATOM     57  C   UNL A   1      37.134  32.811  33.362  1.00  0.00     0.074 A 
ATOM     58  C   UNL A   1      42.153  32.800  36.367  1.00  0.00     0.029 A 
ATOM     59  N   UNL A   1      40.440  31.415  36.607  1.00  0.00    -0.354 N 
ATOM     60  N   UNL A   1      37.954  32.380  34.289  1.00  0.00    -0.248 NA
ATOM     61  C   UNL A   1      36.072  33.641  33.925  1.00  0.00     0.031 C 
ATOM     62  C   UNL A   1      40.940  33.533  36.227  1.00  0.00     0.029 A 
ATOM     63  C   UNL A   1      39.880  32.653  36.386  1.00  0.00     0.049 A 
ATOM     64  H   UNL A   1      39.924  30.600  36.802  1.00  0.00     0.167 HD
ATOM     65  C   UNL A   1      37.649  32.956  35.486  1.00  0.00     0.074 A 
ATOM     66  C   UNL A   1      36.412  33.672  35.231  1.00  0.00     0.031 C 
ATOM     67  C   UNL A   1      38.451  32.859  36.584  1.00  0.00     0.031 A 
BRANCH  54  68
ATOM     68  C   UNL A   1      43.997  30.078  37.064  1.00  0.00    -0.014 A 
ATOM     69  C   UNL A   1      44.497  28.805  37.412  1.00  0.00     0.009 A 
ATOM     70  C   UNL A   1      44.821  31.163  37.422  1.00  0.00     0.009 A 
ATOM     71  C   UNL A   1      45.728  28.631  38.068  1.00  0.00     0.001 A 
ATOM     72  C   UNL A   1      46.074  30.995  38.036  1.00  0.00     0.001 A 
ATOM     73  C   UNL A   1      46.526  29.727  38.368  1.00  0.00     0.000 A 
ENDBRANCH  54  68
BRANCH  55  74
ATOM     74  C   UNL A   1      36.483  31.957  30.841  1.00  0.00    -0.014 A 
ATOM     75  C   UNL A   1      36.417  32.704  29.643  1.00  0.00     0.009 A 
ATOM     76  C   UNL A   1      36.280  30.569  30.769  1.00  0.00     0.009 A 
ATOM     77  C   UNL A   1      36.383  32.065  28.400  1.00  0.00     0.001 A 
ATOM     78  C   UNL A   1      36.237  29.934  29.514  1.00  0.00     0.001 A 
ATOM     79  C   UNL A   1      36.346  30.676  28.337  1.00  0.00     0.000 A 
ENDBRANCH  55  74
BRANCH  67  80
ATOM     80  C   UNL A   1      37.967  32.958  38.006  1.00  0.00    -0.014 A 
ATOM     81  C   UNL A   1      37.275  31.921  38.642  1.00  0.00     0.009 A 
ATOM     82  C   UNL A   1      38.452  34.005  38.824  1.00  0.00     0.009 A 
ATOM     83  C   UNL A   1      37.076  31.932  40.026  1.00  0.00     0.001 A 
ATOM     84  C   UNL A   1      38.292  33.997  40.209  1.00  0.00     0.001 A 
ATOM     85  C   UNL A   1      37.600  32.957  40.810  1.00  0.00     0.000 A 
ENDBRANCH  67  80
ENDBRANCH  41  42
ENDBRANCH  34  36
ENDBRANCH  33  34
ENDBRANCH  32  33
ENDBRANCH  31  32
ENDBRANCH  30  31
ENDBRANCH  29  30
ENDBRANCH   1  29
TORSDOF 21
ENDMDL
MODEL 3
REMARK VINA RESULT:      -9.7      3.458      9.870
REMARK SMILES Cc1cc(C(=O)OCCOCCOCCOCCOC(=O)c2ccc(-c3c4nc(c(-c5ccccc5)c5ccc([nH]5)c(-c5ccccc5)c5nc(c(-c6ccccc6)c6ccc3[nH]6)C=C5)C=C4)cc2)ccc1NC(=O)N1C[C@@H](C)[C@H](C)C1
REMARK SMILES IDX 14 1 13 2 12 3 11 4 10 5 9 6 8 7 7 8 5 9 6 10 4 11 1 12 2 13
REMARK SMILES IDX 3 14 72 15 71 16 70 17 73 18 74 19 75 21 76 22 77 23 82 24
REMARK SMILES IDX 78 25 80 26 79 27 81 28 15 29 16 30 17 31 18 32 19 33 20 34
REMARK SMILES IDX 21 35 22 36 23 37 69 38 24 39 68 40 25 41 26 42 27 43 62 44
REMARK SMILES IDX 28 45 67 46 61 47 63 48 29 49 66 50 60 51 59 52 30 54 52 55
REMARK SMILES IDX 37 56 51 57 38 58 41 59 50 60 64 61 39 62 40 63 49 65 65 66
REMARK SMILES IDX 42 67 31 68 32 69 36 70 33 71 35 72 34 73 53 74 54 75 58 76
REMARK SMILES IDX 55 77 57 78 56 79 43 80 44 81 48 82 45 83 47 84 46 85
REMARK H PARENT 73 20 63 53 41 64
REMARK Flexibility Score: inf
ROOT
ATOM      1  C   UNL A   1      38.687  23.266  26.147  1.00  0.00     0.188 C 
ENDROOT
BRANCH   1   2
ATOM      2  O   UNL A   1      37.898  22.522  25.216  1.00  0.00    -0.377 OA
BRANCH   2   3
ATOM      3  C   UNL A   1      36.485  22.507  25.397  1.00  0.00     0.188 C 
BRANCH   3   4
ATOM      4  C   UNL A   1      35.820  21.159  25.703  1.00  0.00     0.188 C 
BRANCH   4   5
ATOM      5  O   UNL A   1      35.223  20.444  24.627  1.00  0.00    -0.376 OA
BRANCH   5   6
ATOM      6  C   UNL A   1      33.944  19.863  24.893  1.00  0.00     0.202 C 
BRANCH   6   7
ATOM      7  C   UNL A   1      32.724  20.529  24.253  1.00  0.00     0.261 C 
BRANCH   7   8
ATOM      8  O   UNL A   1      31.823  20.912  25.294  1.00  0.00    -0.460 OA
BRANCH   8   9
ATOM      9  C   UNL A   1      32.206  21.966  26.038  1.00  0.00     0.338 C 
ATOM     10  O   UNL A   1      32.876  21.955  27.051  1.00  0.00    -0.246 OA
BRANCH   9  11
ATOM     11  C   UNL A   1      31.964  23.163  25.205  1.00  0.00     0.060 A 
ATOM     12  C   UNL A   1      34.157  25.058  22.807  1.00  0.00     0.046 C 
ATOM     13  C   UNL A   1      32.938  24.735  23.628  1.00  0.00    -0.027 A 
ATOM     14  C   UNL A   1      33.080  23.711  24.575  1.00  0.00     0.021 A 
ATOM     15  C   UNL A   1      31.655  25.265  23.389  1.00  0.00     0.045 A 
ATOM     16  C   UNL A   1      30.546  24.567  23.863  1.00  0.00     0.027 A 
ATOM     17  C   UNL A   1      30.687  23.559  24.810  1.00  0.00     0.018 A 
BRANCH  15  18
ATOM     18  N   UNL A   1      31.525  26.475  22.694  1.00  0.00    -0.308 N 
ATOM     19  C   UNL A   1      31.471  27.777  23.068  1.00  0.00     0.321 C 
ATOM     20  H   UNL A   1      31.458  26.354  21.719  1.00  0.00     0.171 HD
ATOM     21  O   UNL A   1      31.086  28.578  22.211  1.00  0.00    -0.248 OA
ATOM     22  N   UNL A   1      31.815  28.187  24.324  1.00  0.00    -0.324 N 
ATOM     23  C   UNL A   1      31.235  29.415  24.841  1.00  0.00     0.125 C 
ATOM     24  C   UNL A   1      33.079  27.898  25.010  1.00  0.00     0.125 C 
ATOM     25  C   UNL A   1      32.331  30.056  25.685  1.00  0.00     0.010 C 
ATOM     26  C   UNL A   1      33.087  28.834  26.225  1.00  0.00     0.010 C 
ATOM     27  C   UNL A   1      31.767  30.972  26.757  1.00  0.00     0.010 C 
ATOM     28  C   UNL A   1      34.487  29.143  26.738  1.00  0.00     0.010 C 
ENDBRANCH  15  18
ENDBRANCH   9  11
ENDBRANCH   8   9
ENDBRANCH   7   8
ENDBRANCH   6   7
ENDBRANCH   5   6
ENDBRANCH   4   5
ENDBRANCH   3   4
ENDBRANCH   2   3
ENDBRANCH   1   2
BRANCH   1  29
ATOM     29  C   UNL A   1      39.856  22.527  26.798  1.00  0.00     0.188 C 
BRANCH  29  30
ATOM     30  O   UNL A   1      39.639  21.121  26.658  1.00  0.00    -0.376 OA
BRANCH  30  31
ATOM     31  C   UNL A   1      40.801  20.341  26.389  1.00  0.00     0.202 C 
BRANCH  31  32
ATOM     32  C   UNL A   1      42.118  21.105  26.565  1.00  0.00     0.261 C 
BRANCH  32  33
ATOM     33  O   UNL A   1      42.753  21.268  25.284  1.00  0.00    -0.460 OA
BRANCH  33  34
ATOM     34  C   UNL A   1      44.097  21.071  25.284  1.00  0.00     0.338 C 
ATOM     35  O   UNL A   1      44.653  19.986  25.275  1.00  0.00    -0.246 OA
BRANCH  34  36
ATOM     36  C   UNL A   1      44.789  22.359  25.564  1.00  0.00     0.060 A 
ATOM     37  C   UNL A   1      45.258  22.625  26.861  1.00  0.00     0.016 A 
ATOM     38  C   UNL A   1      44.687  23.396  24.644  1.00  0.00     0.016 A 
ATOM     39  C   UNL A   1      45.451  23.949  27.278  1.00  0.00     0.010 A 
ATOM     40  C   UNL A   1      44.786  24.698  25.091  1.00  0.00     0.010 A 
ATOM     41  C   UNL A   1      45.104  24.996  26.422  1.00  0.00    -0.014 A 
BRANCH  41  42
ATOM     42  C   UNL A   1      44.807  26.376  26.858  1.00  0.00     0.031 A 
ATOM     43  C   UNL A   1      43.411  26.918  26.827  1.00  0.00     0.074 A 
ATOM     44  C   UNL A   1      45.730  26.992  27.646  1.00  0.00     0.049 A 
ATOM     45  N   UNL A   1      43.091  28.123  27.169  1.00  0.00    -0.248 NA
ATOM     46  C   UNL A   1      42.232  26.151  26.414  1.00  0.00     0.031 C 
ATOM     47  C   UNL A   1      45.479  28.034  28.643  1.00  0.00     0.029 A 
ATOM     48  N   UNL A   1      47.112  26.827  27.731  1.00  0.00    -0.354 N 
ATOM     49  C   UNL A   1      41.738  28.145  27.426  1.00  0.00     0.074 A 
ATOM     50  C   UNL A   1      41.230  26.951  26.800  1.00  0.00     0.031 C 
ATOM     51  C   UNL A   1      46.633  28.517  29.117  1.00  0.00     0.029 A 
ATOM     52  C   UNL A   1      47.666  28.005  28.250  1.00  0.00     0.049 A 
ATOM     53  H   UNL A   1      47.614  26.020  27.471  1.00  0.00     0.167 HD
ATOM     54  C   UNL A   1      41.231  29.070  28.297  1.00  0.00     0.031 A 
ATOM     55  C   UNL A   1      48.520  28.807  27.550  1.00  0.00     0.031 A 
ATOM     56  C   UNL A   1      42.227  30.081  28.697  1.00  0.00     0.049 A 
ATOM     57  C   UNL A   1      47.870  30.154  27.279  1.00  0.00     0.074 A 
ATOM     58  C   UNL A   1      42.663  30.581  29.912  1.00  0.00     0.029 A 
ATOM     59  N   UNL A   1      43.077  30.631  27.736  1.00  0.00    -0.354 N 
ATOM     60  N   UNL A   1      46.569  30.318  27.305  1.00  0.00    -0.248 NA
ATOM     61  C   UNL A   1      48.569  31.420  27.071  1.00  0.00     0.031 C 
ATOM     62  C   UNL A   1      43.860  31.318  29.683  1.00  0.00     0.029 A 
ATOM     63  C   UNL A   1      44.099  31.345  28.318  1.00  0.00     0.049 A 
ATOM     64  H   UNL A   1      42.959  30.521  26.765  1.00  0.00     0.167 HD
ATOM     65  C   UNL A   1      46.266  31.646  27.272  1.00  0.00     0.074 A 
ATOM     66  C   UNL A   1      47.543  32.297  27.040  1.00  0.00     0.031 C 
ATOM     67  C   UNL A   1      45.010  32.128  27.493  1.00  0.00     0.031 A 
BRANCH  54  68
ATOM     68  C   UNL A   1      39.876  28.947  28.987  1.00  0.00    -0.014 A 
ATOM     69  C   UNL A   1      38.707  29.372  28.320  1.00  0.00     0.009 A 
ATOM     70  C   UNL A   1      39.686  28.533  30.321  1.00  0.00     0.009 A 
ATOM     71  C   UNL A   1      37.445  29.383  28.939  1.00  0.00     0.001 A 
ATOM     72  C   UNL A   1      38.421  28.497  30.932  1.00  0.00     0.001 A 
ATOM     73  C   UNL A   1      37.299  28.931  30.243  1.00  0.00     0.000 A 
ENDBRANCH  54  68
BRANCH  55  74
ATOM     74  C   UNL A   1      49.515  28.025  26.765  1.00  0.00    -0.014 A 
ATOM     75  C   UNL A   1      50.460  27.325  27.550  1.00  0.00     0.009 A 
ATOM     76  C   UNL A   1      49.183  27.501  25.504  1.00  0.00     0.009 A 
ATOM     77  C   UNL A   1      50.877  26.039  27.193  1.00  0.00     0.001 A 
ATOM     78  C   UNL A   1      49.615  26.210  25.149  1.00  0.00     0.001 A 
ATOM     79  C   UNL A   1      50.412  25.462  26.017  1.00  0.00     0.000 A 
ENDBRANCH  55  74
BRANCH  67  80
ATOM     80  C   UNL A   1      44.488  33.431  26.950  1.00  0.00    -0.014 A 
ATOM     81  C   UNL A   1      43.913  33.543  25.679  1.00  0.00     0.009 A 
ATOM     82  C   UNL A   1      44.315  34.523  27.832  1.00  0.00     0.009 A 
ATOM     83  C   UNL A   1      43.202  34.689  25.309  1.00  0.00     0.001 A 
ATOM     84  C   UNL A   1      43.571  35.648  27.481  1.00  0.00     0.001 A 
ATOM     85  C   UNL A   1      43.014  35.731  26.214  1.00  0.00     0.000 A 
ENDBRANCH  67  80
ENDBRANCH  41  42
ENDBRANCH  34  36
ENDBRANCH  33  34
ENDBRANCH  32  33
ENDBRANCH  31  32
ENDBRANCH  30  31
ENDBRANCH  29  30
ENDBRANCH   1  29
TORSDOF 21
ENDMDL
