MODEL 1
REMARK VINA RESULT:      -9.4      0.000      0.000
REMARK SMILES COc1ccc(NC(=O)N2CC[C@@H](C(=O)OCCOCCOCCOCCOC(=O)c3ccc(-c4c5nc(c(-c6ccccc6)c6ccc([nH]6)c(-c6ccccc6)c6nc(c(-c7ccccc7)c7ccc4[nH]7)C=C6)C=C5)cc3)[C@H]2C)cc1F
REMARK SMILES IDX 21 1 20 2 19 3 18 4 17 5 16 6 14 7 15 8 13 9 10 10 11 11
REMARK SMILES IDX 79 12 12 13 80 14 8 15 7 16 9 18 6 19 3 20 4 21 82 22 5 23
REMARK SMILES IDX 81 24 83 25 2 26 1 27 22 28 23 29 24 30 25 31 26 32 27 33
REMARK SMILES IDX 28 34 29 35 30 36 31 37 32 38 78 39 33 40 77 41 34 42 35 43
REMARK SMILES IDX 36 44 71 45 37 46 76 47 70 48 72 49 38 50 75 51 69 52 68 53
REMARK SMILES IDX 39 55 61 56 46 57 60 58 47 59 50 60 59 61 73 62 48 63 49 64
REMARK SMILES IDX 58 66 74 67 51 68 40 69 41 70 45 71 42 72 44 73 43 74 62 75
REMARK SMILES IDX 63 76 67 77 64 78 66 79 65 80 52 81 53 82 57 83 54 84 56 85
REMARK SMILES IDX 55 86
REMARK H PARENT 7 17 72 54 50 65
REMARK Flexibility Score: inf
ROOT
ATOM      1  C   UNL A   1      34.458  32.616  28.705  1.00  0.00     0.188 C 
ENDROOT
BRANCH   1   2
ATOM      2  C   UNL A   1      35.170  31.587  27.812  1.00  0.00     0.188 C 
BRANCH   2   3
ATOM      3  O   UNL A   1      34.261  30.745  27.124  1.00  0.00    -0.376 OA
BRANCH   3   4
ATOM      4  C   UNL A   1      33.852  29.561  27.784  1.00  0.00     0.202 C 
BRANCH   4   5
ATOM      5  C   UNL A   1      33.018  28.598  26.925  1.00  0.00     0.261 C 
BRANCH   5   6
ATOM      6  O   UNL A   1      31.785  29.152  26.438  1.00  0.00    -0.463 OA
BRANCH   6   7
ATOM      7  C   UNL A   1      31.613  29.301  25.113  1.00  0.00     0.311 C 
ATOM      8  O   UNL A   1      30.913  30.177  24.616  1.00  0.00    -0.252 OA
BRANCH   7   9
ATOM      9  C   UNL A   1      32.369  28.285  24.266  1.00  0.00     0.123 C 
ATOM     10  N   UNL A   1      32.702  26.982  22.275  1.00  0.00    -0.321 N 
ATOM     11  C   UNL A   1      33.811  27.906  22.433  1.00  0.00     0.122 C 
ATOM     12  C   UNL A   1      31.713  27.184  23.381  1.00  0.00     0.098 C 
ATOM     13  C   UNL A   1      33.261  29.032  23.278  1.00  0.00     0.039 C 
ATOM     14  C   UNL A   1      30.309  27.481  22.886  1.00  0.00     0.032 C 
BRANCH  10  15
ATOM     15  C   UNL A   1      33.004  25.766  21.700  1.00  0.00     0.322 C 
ATOM     16  N   UNL A   1      33.458  24.735  22.459  1.00  0.00    -0.308 N 
ATOM     17  H   UNL A   1      34.032  24.097  21.976  1.00  0.00     0.171 HD
ATOM     18  O   UNL A   1      32.903  25.578  20.485  1.00  0.00    -0.248 OA
BRANCH  16  19
ATOM     19  C   UNL A   1      33.252  24.422  23.808  1.00  0.00     0.046 A 
ATOM     20  C   UNL A   1      33.077  23.267  26.321  1.00  0.00     0.154 A 
ATOM     21  C   UNL A   1      34.036  24.246  26.089  1.00  0.00     0.052 A 
ATOM     22  C   UNL A   1      32.086  23.025  25.369  1.00  0.00     0.167 A 
ATOM     23  C   UNL A   1      34.113  24.839  24.829  1.00  0.00     0.030 A 
ATOM     24  C   UNL A   1      32.163  23.605  24.112  1.00  0.00     0.069 A 
ATOM     25  F   UNL A   1      31.103  22.145  25.614  1.00  0.00    -0.203 F 
BRANCH  20  26
ATOM     26  O   UNL A   1      33.222  22.535  27.464  1.00  0.00    -0.494 OA
ATOM     27  C   UNL A   1      33.918  21.316  27.205  1.00  0.00     0.278 C 
ENDBRANCH  20  26
ENDBRANCH  16  19
ENDBRANCH  10  15
ENDBRANCH   7   9
ENDBRANCH   6   7
ENDBRANCH   5   6
ENDBRANCH   4   5
ENDBRANCH   3   4
ENDBRANCH   2   3
ENDBRANCH   1   2
BRANCH   1  28
ATOM     28  O   UNL A   1      33.785  33.714  28.093  1.00  0.00    -0.377 OA
BRANCH  28  29
ATOM     29  C   UNL A   1      33.304  34.779  28.915  1.00  0.00     0.188 C 
BRANCH  29  30
ATOM     30  C   UNL A   1      33.989  35.037  30.275  1.00  0.00     0.188 C 
BRANCH  30  31
ATOM     31  O   UNL A   1      33.268  34.567  31.404  1.00  0.00    -0.376 OA
BRANCH  31  32
ATOM     32  C   UNL A   1      34.028  34.276  32.571  1.00  0.00     0.202 C 
BRANCH  32  33
ATOM     33  C   UNL A   1      35.531  34.055  32.363  1.00  0.00     0.261 C 
BRANCH  33  34
ATOM     34  O   UNL A   1      35.924  32.696  32.098  1.00  0.00    -0.460 OA
BRANCH  34  35
ATOM     35  C   UNL A   1      36.777  32.097  32.962  1.00  0.00     0.338 C 
ATOM     36  O   UNL A   1      36.669  31.961  34.153  1.00  0.00    -0.246 OA
BRANCH  35  37
ATOM     37  C   UNL A   1      37.872  31.546  32.143  1.00  0.00     0.060 A 
ATOM     38  C   UNL A   1      38.956  30.893  32.746  1.00  0.00     0.016 A 
ATOM     39  C   UNL A   1      37.803  31.693  30.763  1.00  0.00     0.016 A 
ATOM     40  C   UNL A   1      39.988  30.375  31.953  1.00  0.00     0.010 A 
ATOM     41  C   UNL A   1      38.837  31.189  29.980  1.00  0.00     0.010 A 
ATOM     42  C   UNL A   1      39.941  30.532  30.564  1.00  0.00    -0.014 A 
BRANCH  42  43
ATOM     43  C   UNL A   1      41.093  30.208  29.682  1.00  0.00     0.031 A 
ATOM     44  C   UNL A   1      41.133  28.819  29.109  1.00  0.00     0.074 A 
ATOM     45  C   UNL A   1      42.115  31.056  29.457  1.00  0.00     0.049 A 
ATOM     46  N   UNL A   1      42.128  28.163  28.573  1.00  0.00    -0.248 NA
ATOM     47  C   UNL A   1      39.878  28.052  29.196  1.00  0.00     0.031 C 
ATOM     48  C   UNL A   1      42.197  32.448  29.892  1.00  0.00     0.029 A 
ATOM     49  N   UNL A   1      43.315  30.837  28.821  1.00  0.00    -0.354 N 
ATOM     50  C   UNL A   1      41.632  26.894  28.310  1.00  0.00     0.074 A 
ATOM     51  C   UNL A   1      40.266  26.858  28.782  1.00  0.00     0.031 C 
ATOM     52  C   UNL A   1      43.398  32.949  29.545  1.00  0.00     0.029 A 
ATOM     53  C   UNL A   1      44.178  31.907  28.883  1.00  0.00     0.049 A 
ATOM     54  H   UNL A   1      43.536  29.994  28.364  1.00  0.00     0.167 HD
ATOM     55  C   UNL A   1      42.248  25.851  27.710  1.00  0.00     0.031 A 
ATOM     56  C   UNL A   1      45.458  32.019  28.473  1.00  0.00     0.031 A 
ATOM     57  C   UNL A   1      43.589  25.893  27.205  1.00  0.00     0.049 A 
ATOM     58  C   UNL A   1      46.139  30.831  27.837  1.00  0.00     0.074 A 
ATOM     59  C   UNL A   1      44.306  24.893  26.576  1.00  0.00     0.029 A 
ATOM     60  N   UNL A   1      44.405  27.011  27.251  1.00  0.00    -0.354 N 
ATOM     61  N   UNL A   1      45.664  29.633  27.597  1.00  0.00    -0.248 NA
ATOM     62  C   UNL A   1      47.535  31.017  27.408  1.00  0.00     0.031 C 
ATOM     63  C   UNL A   1      45.567  25.402  26.252  1.00  0.00     0.029 A 
ATOM     64  C   UNL A   1      45.615  26.730  26.645  1.00  0.00     0.049 A 
ATOM     65  H   UNL A   1      44.161  27.875  27.654  1.00  0.00     0.167 HD
ATOM     66  C   UNL A   1      46.681  28.945  26.945  1.00  0.00     0.074 A 
ATOM     67  C   UNL A   1      47.799  29.856  26.824  1.00  0.00     0.031 C 
ATOM     68  C   UNL A   1      46.690  27.670  26.485  1.00  0.00     0.031 A 
BRANCH  55  69
ATOM     69  C   UNL A   1      41.460  24.583  27.577  1.00  0.00    -0.014 A 
ATOM     70  C   UNL A   1      41.817  23.431  28.298  1.00  0.00     0.009 A 
ATOM     71  C   UNL A   1      40.358  24.531  26.711  1.00  0.00     0.009 A 
ATOM     72  C   UNL A   1      41.116  22.239  28.117  1.00  0.00     0.001 A 
ATOM     73  C   UNL A   1      39.637  23.346  26.557  1.00  0.00     0.001 A 
ATOM     74  C   UNL A   1      40.024  22.199  27.249  1.00  0.00     0.000 A 
ENDBRANCH  55  69
BRANCH  56  75
ATOM     75  C   UNL A   1      46.210  33.293  28.639  1.00  0.00    -0.014 A 
ATOM     76  C   UNL A   1      46.238  34.238  27.599  1.00  0.00     0.009 A 
ATOM     77  C   UNL A   1      46.975  33.534  29.790  1.00  0.00     0.009 A 
ATOM     78  C   UNL A   1      47.054  35.369  27.687  1.00  0.00     0.001 A 
ATOM     79  C   UNL A   1      47.768  34.682  29.888  1.00  0.00     0.001 A 
ATOM     80  C   UNL A   1      47.820  35.589  28.830  1.00  0.00     0.000 A 
ENDBRANCH  56  75
BRANCH  68  81
ATOM     81  C   UNL A   1      47.898  27.205  25.723  1.00  0.00    -0.014 A 
ATOM     82  C   UNL A   1      48.013  27.402  24.340  1.00  0.00     0.009 A 
ATOM     83  C   UNL A   1      48.979  26.651  26.427  1.00  0.00     0.009 A 
ATOM     84  C   UNL A   1      49.185  27.040  23.674  1.00  0.00     0.001 A 
ATOM     85  C   UNL A   1      50.158  26.315  25.764  1.00  0.00     0.001 A 
ATOM     86  C   UNL A   1      50.260  26.506  24.388  1.00  0.00     0.000 A 
ENDBRANCH  68  81
ENDBRANCH  42  43
ENDBRANCH  35  37
ENDBRANCH  34  35
ENDBRANCH  33  34
ENDBRANCH  32  33
ENDBRANCH  31  32
ENDBRANCH  30  31
ENDBRANCH  29  30
ENDBRANCH  28  29
ENDBRANCH   1  28
TORSDOF 23
ENDMDL
MODEL 2
REMARK VINA RESULT:      -8.9      0.968      5.720
REMARK SMILES COc1ccc(NC(=O)N2CC[C@@H](C(=O)OCCOCCOCCOCCOC(=O)c3ccc(-c4c5nc(c(-c6ccccc6)c6ccc([nH]6)c(-c6ccccc6)c6nc(c(-c7ccccc7)c7ccc4[nH]7)C=C6)C=C5)cc3)[C@H]2C)cc1F
REMARK SMILES IDX 21 1 20 2 19 3 18 4 17 5 16 6 14 7 15 8 13 9 10 10 11 11
REMARK SMILES IDX 79 12 12 13 80 14 8 15 7 16 9 18 6 19 3 20 4 21 82 22 5 23
REMARK SMILES IDX 81 24 83 25 2 26 1 27 22 28 23 29 24 30 25 31 26 32 27 33
REMARK SMILES IDX 28 34 29 35 30 36 31 37 32 38 78 39 33 40 77 41 34 42 35 43
REMARK SMILES IDX 36 44 71 45 37 46 76 47 70 48 72 49 38 50 75 51 69 52 68 53
REMARK SMILES IDX 39 55 61 56 46 57 60 58 47 59 50 60 59 61 73 62 48 63 49 64
REMARK SMILES IDX 58 66 74 67 51 68 40 69 41 70 45 71 42 72 44 73 43 74 62 75
REMARK SMILES IDX 63 76 67 77 64 78 66 79 65 80 52 81 53 82 57 83 54 84 56 85
REMARK SMILES IDX 55 86
REMARK H PARENT 7 17 72 54 50 65
REMARK Flexibility Score: inf
ROOT
ATOM      1  C   UNL A   1      35.006  31.815  28.346  1.00  0.00     0.188 C 
ENDROOT
BRANCH   1   2
ATOM      2  C   UNL A   1      35.837  30.749  27.614  1.00  0.00     0.188 C 
BRANCH   2   3
ATOM      3  O   UNL A   1      35.032  29.851  26.868  1.00  0.00    -0.376 OA
BRANCH   3   4
ATOM      4  C   UNL A   1      34.057  29.113  27.582  1.00  0.00     0.202 C 
BRANCH   4   5
ATOM      5  C   UNL A   1      33.333  28.037  26.760  1.00  0.00     0.261 C 
BRANCH   5   6
ATOM      6  O   UNL A   1      31.966  28.349  26.444  1.00  0.00    -0.463 OA
BRANCH   6   7
ATOM      7  C   UNL A   1      31.633  28.611  25.169  1.00  0.00     0.311 C 
ATOM      8  O   UNL A   1      30.935  29.562  24.833  1.00  0.00    -0.252 OA
BRANCH   7   9
ATOM      9  C   UNL A   1      32.203  27.623  24.158  1.00  0.00     0.123 C 
ATOM     10  N   UNL A   1      32.395  26.686  21.953  1.00  0.00    -0.321 N 
ATOM     11  C   UNL A   1      33.670  27.262  22.342  1.00  0.00     0.122 C 
ATOM     12  C   UNL A   1      31.387  26.909  23.040  1.00  0.00     0.098 C 
ATOM     13  C   UNL A   1      33.326  28.303  23.381  1.00  0.00     0.039 C 
ATOM     14  C   UNL A   1      30.139  27.631  22.564  1.00  0.00     0.032 C 
BRANCH  10  15
ATOM     15  C   UNL A   1      32.454  25.567  21.150  1.00  0.00     0.322 C 
ATOM     16  N   UNL A   1      32.784  24.358  21.672  1.00  0.00    -0.308 N 
ATOM     17  H   UNL A   1      33.211  23.742  21.033  1.00  0.00     0.171 HD
ATOM     18  O   UNL A   1      32.241  25.626  19.937  1.00  0.00    -0.248 OA
BRANCH  16  19
ATOM     19  C   UNL A   1      32.622  23.833  22.960  1.00  0.00     0.046 A 
ATOM     20  C   UNL A   1      32.355  23.368  25.678  1.00  0.00     0.154 A 
ATOM     21  C   UNL A   1      31.238  23.258  24.859  1.00  0.00     0.052 A 
ATOM     22  C   UNL A   1      33.624  23.501  25.113  1.00  0.00     0.167 A 
ATOM     23  C   UNL A   1      31.376  23.476  23.488  1.00  0.00     0.030 A 
ATOM     24  C   UNL A   1      33.765  23.725  23.752  1.00  0.00     0.069 A 
ATOM     25  F   UNL A   1      34.719  23.521  25.887  1.00  0.00    -0.203 F 
BRANCH  20  26
ATOM     26  O   UNL A   1      32.118  23.419  27.023  1.00  0.00    -0.494 OA
ATOM     27  C   UNL A   1      32.875  22.425  27.712  1.00  0.00     0.278 C 
ENDBRANCH  20  26
ENDBRANCH  16  19
ENDBRANCH  10  15
ENDBRANCH   7   9
ENDBRANCH   6   7
ENDBRANCH   5   6
ENDBRANCH   4   5
ENDBRANCH   3   4
ENDBRANCH   2   3
ENDBRANCH   1   2
BRANCH   1  28
ATOM     28  O   UNL A   1      34.270  32.766  27.580  1.00  0.00    -0.377 OA
BRANCH  28  29
ATOM     29  C   UNL A   1      33.629  33.852  28.252  1.00  0.00     0.188 C 
BRANCH  29  30
ATOM     30  C   UNL A   1      34.226  34.362  29.581  1.00  0.00     0.188 C 
BRANCH  30  31
ATOM     31  O   UNL A   1      33.274  34.625  30.601  1.00  0.00    -0.376 OA
BRANCH  31  32
ATOM     32  C   UNL A   1      33.784  34.830  31.913  1.00  0.00     0.202 C 
BRANCH  32  33
ATOM     33  C   UNL A   1      35.226  34.371  32.159  1.00  0.00     0.261 C 
BRANCH  33  34
ATOM     34  O   UNL A   1      35.407  32.949  32.283  1.00  0.00    -0.460 OA
BRANCH  34  35
ATOM     35  C   UNL A   1      36.338  32.496  33.156  1.00  0.00     0.338 C 
ATOM     36  O   UNL A   1      36.282  32.446  34.357  1.00  0.00    -0.246 OA
BRANCH  35  37
ATOM     37  C   UNL A   1      37.452  31.981  32.340  1.00  0.00     0.060 A 
ATOM     38  C   UNL A   1      37.204  31.317  31.130  1.00  0.00     0.016 A 
ATOM     39  C   UNL A   1      38.750  32.169  32.799  1.00  0.00     0.016 A 
ATOM     40  C   UNL A   1      38.274  30.834  30.366  1.00  0.00     0.010 A 
ATOM     41  C   UNL A   1      39.809  31.676  32.043  1.00  0.00     0.010 A 
ATOM     42  C   UNL A   1      39.585  30.999  30.826  1.00  0.00    -0.014 A 
BRANCH  42  43
ATOM     43  C   UNL A   1      40.748  30.328  30.188  1.00  0.00     0.031 A 
ATOM     44  C   UNL A   1      41.937  31.194  29.875  1.00  0.00     0.074 A 
ATOM     45  C   UNL A   1      40.741  29.036  29.810  1.00  0.00     0.049 A 
ATOM     46  N   UNL A   1      42.943  30.973  29.072  1.00  0.00    -0.248 NA
ATOM     47  C   UNL A   1      41.962  32.512  30.534  1.00  0.00     0.031 C 
ATOM     48  C   UNL A   1      39.694  28.056  30.090  1.00  0.00     0.029 A 
ATOM     49  N   UNL A   1      41.658  28.334  29.061  1.00  0.00    -0.354 N 
ATOM     50  C   UNL A   1      43.690  32.144  29.091  1.00  0.00     0.074 A 
ATOM     51  C   UNL A   1      43.000  33.082  29.948  1.00  0.00     0.031 C 
ATOM     52  C   UNL A   1      40.007  26.893  29.490  1.00  0.00     0.029 A 
ATOM     53  C   UNL A   1      41.264  27.049  28.765  1.00  0.00     0.049 A 
ATOM     54  H   UNL A   1      42.516  28.715  28.766  1.00  0.00     0.167 HD
ATOM     55  C   UNL A   1      44.859  32.413  28.467  1.00  0.00     0.031 A 
ATOM     56  C   UNL A   1      41.844  26.120  27.979  1.00  0.00     0.031 A 
ATOM     57  C   UNL A   1      45.568  31.473  27.649  1.00  0.00     0.049 A 
ATOM     58  C   UNL A   1      43.132  26.453  27.264  1.00  0.00     0.074 A 
ATOM     59  C   UNL A   1      46.763  31.644  26.975  1.00  0.00     0.029 A 
ATOM     60  N   UNL A   1      45.152  30.173  27.416  1.00  0.00    -0.354 N 
ATOM     61  N   UNL A   1      43.828  27.563  27.282  1.00  0.00    -0.248 NA
ATOM     62  C   UNL A   1      43.717  25.395  26.422  1.00  0.00     0.031 C 
ATOM     63  C   UNL A   1      47.065  30.447  26.320  1.00  0.00     0.029 A 
ATOM     64  C   UNL A   1      46.077  29.523  26.621  1.00  0.00     0.049 A 
ATOM     65  H   UNL A   1      44.323  29.772  27.764  1.00  0.00     0.167 HD
ATOM     66  C   UNL A   1      44.953  27.319  26.503  1.00  0.00     0.074 A 
ATOM     67  C   UNL A   1      44.850  25.957  26.026  1.00  0.00     0.031 C 
ATOM     68  C   UNL A   1      45.983  28.149  26.207  1.00  0.00     0.031 A 
BRANCH  55  69
ATOM     69  C   UNL A   1      45.430  33.786  28.660  1.00  0.00    -0.014 A 
ATOM     70  C   UNL A   1      46.386  34.037  29.658  1.00  0.00     0.009 A 
ATOM     71  C   UNL A   1      44.998  34.844  27.847  1.00  0.00     0.009 A 
ATOM     72  C   UNL A   1      46.862  35.331  29.870  1.00  0.00     0.001 A 
ATOM     73  C   UNL A   1      45.501  36.131  28.039  1.00  0.00     0.001 A 
ATOM     74  C   UNL A   1      46.421  36.376  29.058  1.00  0.00     0.000 A 
ENDBRANCH  55  69
BRANCH  56  75
ATOM     75  C   UNL A   1      41.235  24.773  27.803  1.00  0.00    -0.014 A 
ATOM     76  C   UNL A   1      41.810  23.650  28.423  1.00  0.00     0.009 A 
ATOM     77  C   UNL A   1      40.138  24.583  26.949  1.00  0.00     0.009 A 
ATOM     78  C   UNL A   1      41.334  22.365  28.151  1.00  0.00     0.001 A 
ATOM     79  C   UNL A   1      39.645  23.298  26.701  1.00  0.00     0.001 A 
ATOM     80  C   UNL A   1      40.253  22.190  27.289  1.00  0.00     0.000 A 
ENDBRANCH  56  75
BRANCH  68  81
ATOM     81  C   UNL A   1      47.130  27.594  25.415  1.00  0.00    -0.014 A 
ATOM     82  C   UNL A   1      47.151  27.653  24.014  1.00  0.00     0.009 A 
ATOM     83  C   UNL A   1      48.253  27.094  26.095  1.00  0.00     0.009 A 
ATOM     84  C   UNL A   1      48.272  27.210  23.310  1.00  0.00     0.001 A 
ATOM     85  C   UNL A   1      49.380  26.676  25.391  1.00  0.00     0.001 A 
ATOM     86  C   UNL A   1      49.388  26.731  23.998  1.00  0.00     0.000 A 
ENDBRANCH  68  81
ENDBRANCH  42  43
ENDBRANCH  35  37
ENDBRANCH  34  35
ENDBRANCH  33  34
ENDBRANCH  32  33
ENDBRANCH  31  32
ENDBRANCH  30  31
ENDBRANCH  29  30
ENDBRANCH  28  29
ENDBRANCH   1  28
TORSDOF 23
ENDMDL
MODEL 3
REMARK VINA RESULT:      -8.6      4.592      6.893
REMARK SMILES COc1ccc(NC(=O)N2CC[C@@H](C(=O)OCCOCCOCCOCCOC(=O)c3ccc(-c4c5nc(c(-c6ccccc6)c6ccc([nH]6)c(-c6ccccc6)c6nc(c(-c7ccccc7)c7ccc4[nH]7)C=C6)C=C5)cc3)[C@H]2C)cc1F
REMARK SMILES IDX 21 1 20 2 19 3 18 4 17 5 16 6 14 7 15 8 13 9 10 10 11 11
REMARK SMILES IDX 79 12 12 13 80 14 8 15 7 16 9 18 6 19 3 20 4 21 82 22 5 23
REMARK SMILES IDX 81 24 83 25 2 26 1 27 22 28 23 29 24 30 25 31 26 32 27 33
REMARK SMILES IDX 28 34 29 35 30 36 31 37 32 38 78 39 33 40 77 41 34 42 35 43
REMARK SMILES IDX 36 44 71 45 37 46 76 47 70 48 72 49 38 50 75 51 69 52 68 53
REMARK SMILES IDX 39 55 61 56 46 57 60 58 47 59 50 60 59 61 73 62 48 63 49 64
REMARK SMILES IDX 58 66 74 67 51 68 40 69 41 70 45 71 42 72 44 73 43 74 62 75
REMARK SMILES IDX 63 76 67 77 64 78 66 79 65 80 52 81 53 82 57 83 54 84 56 85
REMARK SMILES IDX 55 86
REMARK H PARENT 7 17 72 54 50 65
REMARK Flexibility Score: inf
ROOT
ATOM      1  C   UNL A   1      38.331  31.168  29.216  1.00  0.00     0.188 C 
ENDROOT
BRANCH   1   2
ATOM      2  C   UNL A   1      38.024  29.796  28.593  1.00  0.00     0.188 C 
BRANCH   2   3
ATOM      3  O   UNL A   1      38.304  28.723  29.476  1.00  0.00    -0.376 OA
BRANCH   3   4
ATOM      4  C   UNL A   1      39.220  27.741  29.027  1.00  0.00     0.202 C 
BRANCH   4   5
ATOM      5  C   UNL A   1      40.263  28.245  28.018  1.00  0.00     0.261 C 
BRANCH   5   6
ATOM      6  O   UNL A   1      41.225  27.257  27.615  1.00  0.00    -0.463 OA
BRANCH   6   7
ATOM      7  C   UNL A   1      42.286  27.017  28.404  1.00  0.00     0.311 C 
ATOM      8  O   UNL A   1      42.667  27.787  29.279  1.00  0.00    -0.252 OA
BRANCH   7   9
ATOM      9  C   UNL A   1      42.987  25.693  28.125  1.00  0.00     0.123 C 
ATOM     10  N   UNL A   1      44.930  24.348  27.689  1.00  0.00    -0.321 N 
ATOM     11  C   UNL A   1      44.347  23.950  28.958  1.00  0.00     0.122 C 
ATOM     12  C   UNL A   1      44.147  25.485  27.107  1.00  0.00     0.098 C 
ATOM     13  C   UNL A   1      43.576  25.160  29.429  1.00  0.00     0.039 C 
ATOM     14  C   UNL A   1      44.994  26.708  26.808  1.00  0.00     0.032 C 
BRANCH  10  15
ATOM     15  C   UNL A   1      45.528  23.345  26.956  1.00  0.00     0.322 C 
ATOM     16  N   UNL A   1      44.839  22.222  26.630  1.00  0.00    -0.308 N 
ATOM     17  H   UNL A   1      45.401  21.422  26.507  1.00  0.00     0.171 HD
ATOM     18  O   UNL A   1      46.706  23.417  26.597  1.00  0.00    -0.248 OA
BRANCH  16  19
ATOM     19  C   UNL A   1      43.471  22.001  26.436  1.00  0.00     0.046 A 
ATOM     20  C   UNL A   1      40.709  21.833  26.589  1.00  0.00     0.154 A 
ATOM     21  C   UNL A   1      41.286  22.735  25.702  1.00  0.00     0.052 A 
ATOM     22  C   UNL A   1      41.504  20.884  27.233  1.00  0.00     0.167 A 
ATOM     23  C   UNL A   1      42.676  22.807  25.614  1.00  0.00     0.030 A 
ATOM     24  C   UNL A   1      42.887  20.957  27.154  1.00  0.00     0.069 A 
ATOM     25  F   UNL A   1      40.952  19.953  28.025  1.00  0.00    -0.203 F 
BRANCH  20  26
ATOM     26  O   UNL A   1      39.375  21.994  26.836  1.00  0.00    -0.494 OA
ATOM     27  C   UNL A   1      38.919  23.264  26.370  1.00  0.00     0.278 C 
ENDBRANCH  20  26
ENDBRANCH  16  19
ENDBRANCH  10  15
ENDBRANCH   7   9
ENDBRANCH   6   7
ENDBRANCH   5   6
ENDBRANCH   4   5
ENDBRANCH   3   4
ENDBRANCH   2   3
ENDBRANCH   1   2
BRANCH   1  28
ATOM     28  O   UNL A   1      37.426  31.711  30.174  1.00  0.00    -0.377 OA
BRANCH  28  29
ATOM     29  C   UNL A   1      37.381  33.126  30.363  1.00  0.00     0.188 C 
BRANCH  29  30
ATOM     30  C   UNL A   1      38.325  33.768  31.404  1.00  0.00     0.188 C 
BRANCH  30  31
ATOM     31  O   UNL A   1      37.679  34.583  32.371  1.00  0.00    -0.376 OA
BRANCH  31  32
ATOM     32  C   UNL A   1      36.301  34.324  32.606  1.00  0.00     0.202 C 
BRANCH  32  33
ATOM     33  C   UNL A   1      35.945  33.751  33.984  1.00  0.00     0.261 C 
BRANCH  33  34
ATOM     34  O   UNL A   1      36.438  32.425  34.246  1.00  0.00    -0.460 OA
BRANCH  34  35
ATOM     35  C   UNL A   1      37.401  32.275  35.186  1.00  0.00     0.338 C 
ATOM     36  O   UNL A   1      37.347  32.521  36.364  1.00  0.00    -0.246 OA
BRANCH  35  37
ATOM     37  C   UNL A   1      38.551  31.657  34.503  1.00  0.00     0.060 A 
ATOM     38  C   UNL A   1      39.863  31.985  34.873  1.00  0.00     0.016 A 
ATOM     39  C   UNL A   1      38.303  30.746  33.483  1.00  0.00     0.016 A 
ATOM     40  C   UNL A   1      40.945  31.389  34.213  1.00  0.00     0.010 A 
ATOM     41  C   UNL A   1      39.380  30.166  32.821  1.00  0.00     0.010 A 
ATOM     42  C   UNL A   1      40.710  30.485  33.172  1.00  0.00    -0.014 A 
BRANCH  42  43
ATOM     43  C   UNL A   1      41.793  29.983  32.287  1.00  0.00     0.031 A 
ATOM     44  C   UNL A   1      42.463  28.701  32.701  1.00  0.00     0.074 A 
ATOM     45  C   UNL A   1      42.243  30.658  31.212  1.00  0.00     0.049 A 
ATOM     46  N   UNL A   1      43.602  28.192  32.316  1.00  0.00    -0.248 NA
ATOM     47  C   UNL A   1      41.759  27.912  33.727  1.00  0.00     0.031 C 
ATOM     48  C   UNL A   1      41.666  31.877  30.651  1.00  0.00     0.029 A 
ATOM     49  N   UNL A   1      43.337  30.413  30.414  1.00  0.00    -0.354 N 
ATOM     50  C   UNL A   1      43.774  27.053  33.091  1.00  0.00     0.074 A 
ATOM     51  C   UNL A   1      42.648  26.970  33.993  1.00  0.00     0.031 C 
ATOM     52  C   UNL A   1      42.431  32.295  29.625  1.00  0.00     0.029 A 
ATOM     53  C   UNL A   1      43.564  31.388  29.470  1.00  0.00     0.049 A 
ATOM     54  H   UNL A   1      43.905  29.614  30.510  1.00  0.00     0.167 HD
ATOM     55  C   UNL A   1      44.771  26.140  33.047  1.00  0.00     0.031 A 
ATOM     56  C   UNL A   1      44.583  31.538  28.601  1.00  0.00     0.031 A 
ATOM     57  C   UNL A   1      45.870  26.196  32.127  1.00  0.00     0.049 A 
ATOM     58  C   UNL A   1      45.704  30.526  28.592  1.00  0.00     0.074 A 
ATOM     59  C   UNL A   1      46.931  25.319  31.996  1.00  0.00     0.029 A 
ATOM     60  N   UNL A   1      46.031  27.176  31.163  1.00  0.00    -0.354 N 
ATOM     61  N   UNL A   1      45.862  29.455  29.331  1.00  0.00    -0.248 NA
ATOM     62  C   UNL A   1      46.787  30.744  27.617  1.00  0.00     0.031 C 
ATOM     63  C   UNL A   1      47.745  25.778  30.958  1.00  0.00     0.029 A 
ATOM     64  C   UNL A   1      47.167  26.916  30.420  1.00  0.00     0.049 A 
ATOM     65  H   UNL A   1      45.428  27.942  31.027  1.00  0.00     0.167 HD
ATOM     66  C   UNL A   1      47.027  28.848  28.876  1.00  0.00     0.074 A 
ATOM     67  C   UNL A   1      47.538  29.665  27.797  1.00  0.00     0.031 C 
ATOM     68  C   UNL A   1      47.623  27.712  29.313  1.00  0.00     0.031 A 
BRANCH  55  69
ATOM     69  C   UNL A   1      44.700  25.010  34.029  1.00  0.00    -0.014 A 
ATOM     70  C   UNL A   1      45.269  25.129  35.308  1.00  0.00     0.009 A 
ATOM     71  C   UNL A   1      44.072  23.808  33.670  1.00  0.00     0.009 A 
ATOM     72  C   UNL A   1      45.254  24.048  36.190  1.00  0.00     0.001 A 
ATOM     73  C   UNL A   1      44.029  22.740  34.567  1.00  0.00     0.001 A 
ATOM     74  C   UNL A   1      44.631  22.857  35.819  1.00  0.00     0.000 A 
ENDBRANCH  55  69
BRANCH  56  75
ATOM     75  C   UNL A   1      44.623  32.684  27.652  1.00  0.00    -0.014 A 
ATOM     76  C   UNL A   1      45.186  33.910  28.049  1.00  0.00     0.009 A 
ATOM     77  C   UNL A   1      44.024  32.596  26.387  1.00  0.00     0.009 A 
ATOM     78  C   UNL A   1      45.102  35.032  27.221  1.00  0.00     0.001 A 
ATOM     79  C   UNL A   1      43.967  33.713  25.548  1.00  0.00     0.001 A 
ATOM     80  C   UNL A   1      44.491  34.934  25.973  1.00  0.00     0.000 A 
ENDBRANCH  56  75
BRANCH  68  81
ATOM     81  C   UNL A   1      48.834  27.222  28.572  1.00  0.00    -0.014 A 
ATOM     82  C   UNL A   1      50.131  27.574  28.972  1.00  0.00     0.009 A 
ATOM     83  C   UNL A   1      48.668  26.311  27.516  1.00  0.00     0.009 A 
ATOM     84  C   UNL A   1      51.239  27.031  28.319  1.00  0.00     0.001 A 
ATOM     85  C   UNL A   1      49.775  25.751  26.883  1.00  0.00     0.001 A 
ATOM     86  C   UNL A   1      51.061  26.114  27.282  1.00  0.00     0.000 A 
ENDBRANCH  68  81
ENDBRANCH  42  43
ENDBRANCH  35  37
ENDBRANCH  34  35
ENDBRANCH  33  34
ENDBRANCH  32  33
ENDBRANCH  31  32
ENDBRANCH  30  31
ENDBRANCH  29  30
ENDBRANCH  28  29
ENDBRANCH   1  28
TORSDOF 23
ENDMDL
