MODEL 1
REMARK VINA RESULT:     -12.3      0.000      0.000
REMARK SMILES Cc1cccc(O[C@H](C)C(=O)NNC(=O)[C@H]2[C@@H]3CC[C@@H](C3)[C@@H]2C(=O)OCCOCCOCCOCCOC(=O)c2ccc(-c3c4nc(c(-c5ccccc5)c5ccc([nH]5)c(-c5ccccc5)c5nc(c(-c6ccccc6)c6ccc3[nH]6)C=C5)C=C4)cc2)c1
REMARK SMILES IDX 29 1 28 2 27 3 26 4 25 5 23 6 24 7 22 8 16 9 17 10 18 11
REMARK SMILES IDX 21 12 20 13 19 14 14 15 13 16 15 18 12 19 10 20 11 21 8 23
REMARK SMILES IDX 9 24 7 25 6 26 1 27 2 28 3 29 88 30 4 31 5 32 30 33 31 34
REMARK SMILES IDX 32 35 33 36 34 37 35 38 36 39 37 40 38 41 39 42 40 43 41 44
REMARK SMILES IDX 87 45 42 46 86 47 43 48 44 49 45 50 80 51 46 52 85 53 79 54
REMARK SMILES IDX 81 55 47 56 84 57 78 58 77 59 48 61 70 62 55 63 69 64 56 65
REMARK SMILES IDX 59 66 68 67 82 68 57 69 58 70 67 72 83 73 60 74 49 75 50 76
REMARK SMILES IDX 54 77 51 78 53 79 52 80 71 81 72 82 76 83 73 84 75 85 74 86
REMARK SMILES IDX 61 87 62 88 66 89 63 90 65 91 64 92
REMARK H PARENT 13 17 12 22 81 60 59 71
REMARK Flexibility Score: inf
ROOT
ATOM      1  C   UNL A   1      41.887  20.084  27.215  1.00  0.00     0.188 C 
ENDROOT
BRANCH   1   2
ATOM      2  O   UNL A   1      40.451  21.049  27.260  1.00  0.00    -0.376 OA
BRANCH   2   3
ATOM      3  C   UNL A   1      39.226  21.582  26.125  1.00  0.00     0.202 C 
BRANCH   3   4
ATOM      4  C   UNL A   1      37.805  20.666  25.240  1.00  0.00     0.261 C 
BRANCH   4   5
ATOM      5  O   UNL A   1      36.052  20.731  25.594  1.00  0.00    -0.463 OA
BRANCH   5   6
ATOM      6  C   UNL A   1      35.018  21.509  26.200  1.00  0.00     0.310 C 
ATOM      7  O   UNL A   1      34.657  21.503  27.378  1.00  0.00    -0.252 OA
BRANCH   6   8
ATOM      8  C   UNL A   1      34.349  22.726  25.468  1.00  0.00     0.115 C 
ATOM      9  C   UNL A   1      33.959  22.394  23.967  1.00  0.00     0.098 C 
ATOM     10  C   UNL A   1      34.613  23.548  23.162  1.00  0.00     0.003 C 
ATOM     11  C   UNL A   1      36.137  23.315  23.116  1.00  0.00     0.005 C 
ATOM     12  C   UNL A   1      34.530  24.723  24.130  1.00  0.00     0.009 C 
ATOM     13  C   UNL A   1      35.259  23.978  25.261  1.00  0.00     0.004 C 
ATOM     14  C   UNL A   1      36.578  23.688  24.537  1.00  0.00     0.005 C 
BRANCH   9  15
ATOM     15  C   UNL A   1      32.525  22.127  23.460  1.00  0.00     0.242 C 
ATOM     16  N   UNL A   1      31.374  22.127  24.198  1.00  0.00    -0.267 N 
ATOM     17  H   UNL A   1      30.543  21.948  23.700  1.00  0.00     0.191 HD
ATOM     18  O   UNL A   1      32.362  21.958  22.239  1.00  0.00    -0.273 OA
BRANCH  16  19
ATOM     19  N   UNL A   1      31.228  22.344  25.547  1.00  0.00    -0.264 N 
ATOM     20  C   UNL A   1      30.787  23.483  26.154  1.00  0.00     0.279 C 
ATOM     21  O   UNL A   1      30.320  23.327  27.294  1.00  0.00    -0.269 OA
ATOM     22  H   UNL A   1      31.468  21.596  26.141  1.00  0.00     0.191 HD
BRANCH  20  23
ATOM     23  C   UNL A   1      30.944  24.929  25.596  1.00  0.00     0.260 C 
ATOM     24  C   UNL A   1      31.887  25.755  26.482  1.00  0.00     0.064 C 
BRANCH  23  25
ATOM     25  O   UNL A   1      30.880  25.322  24.241  1.00  0.00    -0.481 OA
BRANCH  25  26
ATOM     26  C   UNL A   1      30.690  26.583  23.781  1.00  0.00     0.120 A 
ATOM     27  C   UNL A   1      27.499  28.586  23.124  1.00  0.00     0.044 C 
ATOM     28  C   UNL A   1      28.945  28.198  23.197  1.00  0.00    -0.047 A 
ATOM     29  C   UNL A   1      29.915  29.009  22.609  1.00  0.00     0.003 A 
ATOM     30  C   UNL A   1      29.351  26.999  23.795  1.00  0.00     0.049 A 
ATOM     31  C   UNL A   1      31.259  28.643  22.661  1.00  0.00     0.004 A 
ATOM     32  C   UNL A   1      31.647  27.439  23.254  1.00  0.00     0.046 A 
ENDBRANCH  25  26
ENDBRANCH  23  25
ENDBRANCH  20  23
ENDBRANCH  16  19
ENDBRANCH   9  15
ENDBRANCH   6   8
ENDBRANCH   5   6
ENDBRANCH   4   5
ENDBRANCH   3   4
ENDBRANCH   2   3
ENDBRANCH   1   2
BRANCH   1  33
ATOM     33  C   UNL A   1      42.355  18.640  26.427  1.00  0.00     0.188 C 
BRANCH  33  34
ATOM     34  O   UNL A   1      43.519  18.261  25.649  1.00  0.00    -0.377 OA
BRANCH  34  35
ATOM     35  C   UNL A   1      44.224  19.003  24.653  1.00  0.00     0.188 C 
BRANCH  35  36
ATOM     36  C   UNL A   1      44.595  20.424  24.968  1.00  0.00     0.188 C 
BRANCH  36  37
ATOM     37  O   UNL A   1      44.517  21.129  23.749  1.00  0.00    -0.376 OA
BRANCH  37  38
ATOM     38  C   UNL A   1      44.713  22.521  23.868  1.00  0.00     0.202 C 
BRANCH  38  39
ATOM     39  C   UNL A   1      46.024  22.824  24.583  1.00  0.00     0.261 C 
BRANCH  39  40
ATOM     40  O   UNL A   1      46.400  24.187  24.278  1.00  0.00    -0.460 OA
BRANCH  40  41
ATOM     41  C   UNL A   1      46.202  25.073  25.301  1.00  0.00     0.338 C 
ATOM     42  O   UNL A   1      45.193  25.726  25.476  1.00  0.00    -0.246 OA
BRANCH  41  43
ATOM     43  C   UNL A   1      47.508  25.373  25.962  1.00  0.00     0.060 A 
ATOM     44  C   UNL A   1      48.086  24.456  26.818  1.00  0.00     0.016 A 
ATOM     45  C   UNL A   1      48.077  26.619  25.958  1.00  0.00     0.016 A 
ATOM     46  C   UNL A   1      48.864  24.909  27.918  1.00  0.00     0.010 A 
ATOM     47  C   UNL A   1      48.923  26.989  27.037  1.00  0.00     0.010 A 
ATOM     48  C   UNL A   1      49.010  26.264  28.279  1.00  0.00    -0.014 A 
BRANCH  48  49
ATOM     49  C   UNL A   1      49.014  26.842  30.025  1.00  0.00     0.031 A 
ATOM     50  C   UNL A   1      50.352  26.653  31.442  1.00  0.00     0.074 A 
ATOM     51  C   UNL A   1      47.722  27.233  30.284  1.00  0.00     0.049 A 
ATOM     52  N   UNL A   1      50.335  25.589  32.292  1.00  0.00    -0.248 NA
ATOM     53  C   UNL A   1      51.845  27.043  31.671  1.00  0.00     0.031 C 
ATOM     54  C   UNL A   1      47.211  28.112  31.287  1.00  0.00     0.029 A 
ATOM     55  N   UNL A   1      46.530  26.643  29.857  1.00  0.00    -0.354 N 
ATOM     56  C   UNL A   1      51.432  25.225  33.016  1.00  0.00     0.074 A 
ATOM     57  C   UNL A   1      52.420  26.085  32.449  1.00  0.00     0.031 C 
ATOM     58  C   UNL A   1      46.023  27.681  31.753  1.00  0.00     0.029 A 
ATOM     59  C   UNL A   1      45.666  26.556  30.946  1.00  0.00     0.049 A 
ATOM     60  H   UNL A   1      46.335  26.341  28.941  1.00  0.00     0.167 HD
ATOM     61  C   UNL A   1      51.420  24.300  34.046  1.00  0.00     0.031 A 
ATOM     62  C   UNL A   1      44.575  25.789  31.105  1.00  0.00     0.031 A 
ATOM     63  C   UNL A   1      50.108  24.026  34.697  1.00  0.00     0.049 A 
ATOM     64  C   UNL A   1      44.751  24.827  32.258  1.00  0.00     0.074 A 
ATOM     65  C   UNL A   1      49.580  24.579  35.862  1.00  0.00     0.029 A 
ATOM     66  N   UNL A   1      49.064  23.264  34.174  1.00  0.00    -0.354 N 
ATOM     67  N   UNL A   1      45.864  24.563  32.903  1.00  0.00    -0.248 NA
ATOM     68  C   UNL A   1      43.605  24.093  32.785  1.00  0.00     0.031 C 
ATOM     69  C   UNL A   1      48.177  24.433  35.848  1.00  0.00     0.029 A 
ATOM     70  C   UNL A   1      47.852  23.597  34.797  1.00  0.00     0.049 A 
ATOM     71  H   UNL A   1      49.163  22.589  33.466  1.00  0.00     0.167 HD
ATOM     72  C   UNL A   1      45.621  23.555  33.826  1.00  0.00     0.074 A 
ATOM     73  C   UNL A   1      44.179  23.368  33.756  1.00  0.00     0.031 C 
ATOM     74  C   UNL A   1      46.577  22.912  34.579  1.00  0.00     0.031 A 
BRANCH  61  75
ATOM     75  C   UNL A   1      52.715  23.974  34.774  1.00  0.00    -0.014 A 
ATOM     76  C   UNL A   1      53.686  23.123  34.206  1.00  0.00     0.009 A 
ATOM     77  C   UNL A   1      53.007  24.484  36.049  1.00  0.00     0.009 A 
ATOM     78  C   UNL A   1      54.810  22.687  34.919  1.00  0.00     0.001 A 
ATOM     79  C   UNL A   1      54.130  24.046  36.772  1.00  0.00     0.001 A 
ATOM     80  C   UNL A   1      55.014  23.123  36.218  1.00  0.00     0.000 A 
ENDBRANCH  61  75
BRANCH  62  81
ATOM     81  C   UNL A   1      43.890  25.617  29.795  1.00  0.00    -0.014 A 
ATOM     82  C   UNL A   1      43.802  24.259  29.389  1.00  0.00     0.009 A 
ATOM     83  C   UNL A   1      42.907  26.508  29.348  1.00  0.00     0.009 A 
ATOM     84  C   UNL A   1      42.659  23.770  28.755  1.00  0.00     0.001 A 
ATOM     85  C   UNL A   1      41.775  26.014  28.677  1.00  0.00     0.001 A 
ATOM     86  C   UNL A   1      41.628  24.644  28.432  1.00  0.00     0.000 A 
ENDBRANCH  62  81
BRANCH  74  87
ATOM     87  C   UNL A   1      46.373  21.644  35.420  1.00  0.00    -0.014 A 
ATOM     88  C   UNL A   1      46.217  21.591  36.808  1.00  0.00     0.009 A 
ATOM     89  C   UNL A   1      46.254  20.398  34.751  1.00  0.00     0.009 A 
ATOM     90  C   UNL A   1      46.016  20.375  37.487  1.00  0.00     0.001 A 
ATOM     91  C   UNL A   1      46.016  19.190  35.411  1.00  0.00     0.001 A 
ATOM     92  C   UNL A   1      45.909  19.178  36.789  1.00  0.00     0.000 A 
ENDBRANCH  74  87
ENDBRANCH  48  49
ENDBRANCH  41  43
ENDBRANCH  40  41
ENDBRANCH  39  40
ENDBRANCH  38  39
ENDBRANCH  37  38
ENDBRANCH  36  37
ENDBRANCH  35  36
ENDBRANCH  34  35
ENDBRANCH  33  34
ENDBRANCH   1  33
TORSDOF 25
ENDMDL
MODEL 2
REMARK VINA RESULT:     -12.1      4.110      8.565
REMARK SMILES Cc1cccc(O[C@H](C)C(=O)NNC(=O)[C@H]2[C@@H]3CC[C@@H](C3)[C@@H]2C(=O)OCCOCCOCCOCCOC(=O)c2ccc(-c3c4nc(c(-c5ccccc5)c5ccc([nH]5)c(-c5ccccc5)c5nc(c(-c6ccccc6)c6ccc3[nH]6)C=C5)C=C4)cc2)c1
REMARK SMILES IDX 29 1 28 2 27 3 26 4 25 5 23 6 24 7 22 8 16 9 17 10 18 11
REMARK SMILES IDX 21 12 20 13 19 14 14 15 13 16 15 18 12 19 10 20 11 21 8 23
REMARK SMILES IDX 9 24 7 25 6 26 1 27 2 28 3 29 88 30 4 31 5 32 30 33 31 34
REMARK SMILES IDX 32 35 33 36 34 37 35 38 36 39 37 40 38 41 39 42 40 43 41 44
REMARK SMILES IDX 87 45 42 46 86 47 43 48 44 49 45 50 80 51 46 52 85 53 79 54
REMARK SMILES IDX 81 55 47 56 84 57 78 58 77 59 48 61 70 62 55 63 69 64 56 65
REMARK SMILES IDX 59 66 68 67 82 68 57 69 58 70 67 72 83 73 60 74 49 75 50 76
REMARK SMILES IDX 54 77 51 78 53 79 52 80 71 81 72 82 76 83 73 84 75 85 74 86
REMARK SMILES IDX 61 87 62 88 66 89 63 90 65 91 64 92
REMARK H PARENT 13 17 12 22 81 60 59 71
REMARK Flexibility Score: inf
ROOT
ATOM      1  C   UNL A   1      40.900  21.647  26.383  1.00  0.00     0.188 C 
ENDROOT
BRANCH   1   2
ATOM      2  O   UNL A   1      39.490  22.639  26.529  1.00  0.00    -0.376 OA
BRANCH   2   3
ATOM      3  C   UNL A   1      37.944  22.801  25.716  1.00  0.00     0.202 C 
BRANCH   3   4
ATOM      4  C   UNL A   1      36.973  21.639  24.555  1.00  0.00     0.261 C 
BRANCH   4   5
ATOM      5  O   UNL A   1      35.307  21.831  23.931  1.00  0.00    -0.463 OA
BRANCH   5   6
ATOM      6  C   UNL A   1      34.355  22.775  23.435  1.00  0.00     0.310 C 
ATOM      7  O   UNL A   1      34.365  23.365  22.354  1.00  0.00    -0.252 OA
BRANCH   6   8
ATOM      8  C   UNL A   1      32.964  23.000  24.126  1.00  0.00     0.115 C 
ATOM      9  C   UNL A   1      32.399  24.464  23.897  1.00  0.00     0.098 C 
ATOM     10  C   UNL A   1      32.073  24.953  25.332  1.00  0.00     0.003 C 
ATOM     11  C   UNL A   1      33.397  25.271  26.057  1.00  0.00     0.005 C 
ATOM     12  C   UNL A   1      31.660  23.667  26.041  1.00  0.00     0.009 C 
ATOM     13  C   UNL A   1      32.962  22.929  25.686  1.00  0.00     0.004 C 
ATOM     14  C   UNL A   1      33.959  23.877  26.363  1.00  0.00     0.005 C 
BRANCH   9  15
ATOM     15  C   UNL A   1      31.254  24.832  22.928  1.00  0.00     0.242 C 
ATOM     16  N   UNL A   1      31.324  25.661  21.843  1.00  0.00    -0.267 N 
ATOM     17  H   UNL A   1      30.490  25.768  21.329  1.00  0.00     0.191 HD
ATOM     18  O   UNL A   1      30.155  24.274  23.089  1.00  0.00    -0.273 OA
BRANCH  16  19
ATOM     19  N   UNL A   1      32.408  26.363  21.377  1.00  0.00    -0.264 N 
ATOM     20  C   UNL A   1      33.118  27.318  22.043  1.00  0.00     0.279 C 
ATOM     21  O   UNL A   1      34.278  27.493  21.636  1.00  0.00    -0.269 OA
ATOM     22  H   UNL A   1      32.707  26.153  20.462  1.00  0.00     0.191 HD
BRANCH  20  23
ATOM     23  C   UNL A   1      32.557  28.263  23.147  1.00  0.00     0.260 C 
ATOM     24  C   UNL A   1      33.579  28.446  24.278  1.00  0.00     0.064 C 
BRANCH  23  25
ATOM     25  O   UNL A   1      31.653  29.333  22.962  1.00  0.00    -0.481 OA
BRANCH  25  26
ATOM     26  C   UNL A   1      30.321  29.225  22.736  1.00  0.00     0.120 A 
ATOM     27  C   UNL A   1      27.903  31.424  20.751  1.00  0.00     0.044 C 
ATOM     28  C   UNL A   1      28.441  30.333  21.626  1.00  0.00    -0.047 A 
ATOM     29  C   UNL A   1      27.564  29.478  22.294  1.00  0.00     0.003 A 
ATOM     30  C   UNL A   1      29.816  30.181  21.843  1.00  0.00     0.049 A 
ATOM     31  C   UNL A   1      28.061  28.472  23.121  1.00  0.00     0.004 A 
ATOM     32  C   UNL A   1      29.436  28.339  23.334  1.00  0.00     0.046 A 
ENDBRANCH  25  26
ENDBRANCH  23  25
ENDBRANCH  20  23
ENDBRANCH  16  19
ENDBRANCH   9  15
ENDBRANCH   6   8
ENDBRANCH   5   6
ENDBRANCH   4   5
ENDBRANCH   3   4
ENDBRANCH   2   3
ENDBRANCH   1   2
BRANCH   1  33
ATOM     33  C   UNL A   1      41.281  20.019  26.739  1.00  0.00     0.188 C 
BRANCH  33  34
ATOM     34  O   UNL A   1      41.678  18.886  25.924  1.00  0.00    -0.377 OA
BRANCH  34  35
ATOM     35  C   UNL A   1      42.932  18.204  25.872  1.00  0.00     0.188 C 
BRANCH  35  36
ATOM     36  C   UNL A   1      44.019  18.797  25.020  1.00  0.00     0.188 C 
BRANCH  36  37
ATOM     37  O   UNL A   1      45.223  18.202  25.450  1.00  0.00    -0.376 OA
BRANCH  37  38
ATOM     38  C   UNL A   1      46.308  19.097  25.560  1.00  0.00     0.202 C 
BRANCH  38  39
ATOM     39  C   UNL A   1      46.361  20.033  24.360  1.00  0.00     0.261 C 
BRANCH  39  40
ATOM     40  O   UNL A   1      46.377  21.394  24.849  1.00  0.00    -0.460 OA
BRANCH  40  41
ATOM     41  C   UNL A   1      45.281  22.135  24.504  1.00  0.00     0.338 C 
ATOM     42  O   UNL A   1      44.612  21.971  23.503  1.00  0.00    -0.246 OA
BRANCH  41  43
ATOM     43  C   UNL A   1      45.231  23.372  25.340  1.00  0.00     0.060 A 
ATOM     44  C   UNL A   1      44.370  24.402  25.013  1.00  0.00     0.016 A 
ATOM     45  C   UNL A   1      46.163  23.663  26.300  1.00  0.00     0.016 A 
ATOM     46  C   UNL A   1      44.739  25.747  25.293  1.00  0.00     0.010 A 
ATOM     47  C   UNL A   1      46.427  25.024  26.608  1.00  0.00     0.010 A 
ATOM     48  C   UNL A   1      45.997  26.133  25.796  1.00  0.00    -0.014 A 
BRANCH  48  49
ATOM     49  C   UNL A   1      46.889  27.635  25.221  1.00  0.00     0.031 A 
ATOM     50  C   UNL A   1      47.732  28.055  23.505  1.00  0.00     0.074 A 
ATOM     51  C   UNL A   1      47.121  28.379  26.353  1.00  0.00     0.049 A 
ATOM     52  N   UNL A   1      49.043  27.765  23.273  1.00  0.00    -0.248 NA
ATOM     53  C   UNL A   1      47.302  28.158  22.008  1.00  0.00     0.031 C 
ATOM     54  C   UNL A   1      47.398  29.773  26.497  1.00  0.00     0.029 A 
ATOM     55  N   UNL A   1      47.468  27.936  27.632  1.00  0.00    -0.354 N 
ATOM     56  C   UNL A   1      49.552  27.685  22.010  1.00  0.00     0.074 A 
ATOM     57  C   UNL A   1      48.355  27.773  21.236  1.00  0.00     0.031 C 
ATOM     58  C   UNL A   1      48.289  29.994  27.483  1.00  0.00     0.029 A 
ATOM     59  C   UNL A   1      48.514  28.724  28.105  1.00  0.00     0.049 A 
ATOM     60  H   UNL A   1      47.043  27.192  28.116  1.00  0.00     0.167 HD
ATOM     61  C   UNL A   1      50.902  27.610  21.712  1.00  0.00     0.031 A 
ATOM     62  C   UNL A   1      49.378  28.481  29.104  1.00  0.00     0.031 A 
ATOM     63  C   UNL A   1      51.854  28.089  22.752  1.00  0.00     0.049 A 
ATOM     64  C   UNL A   1      50.797  28.410  28.589  1.00  0.00     0.074 A 
ATOM     65  C   UNL A   1      52.463  29.337  22.867  1.00  0.00     0.029 A 
ATOM     66  N   UNL A   1      52.208  27.424  23.925  1.00  0.00    -0.354 N 
ATOM     67  N   UNL A   1      51.181  28.354  27.334  1.00  0.00    -0.248 NA
ATOM     68  C   UNL A   1      51.919  28.428  29.522  1.00  0.00     0.031 C 
ATOM     69  C   UNL A   1      52.871  29.531  24.204  1.00  0.00     0.029 A 
ATOM     70  C   UNL A   1      52.724  28.327  24.866  1.00  0.00     0.049 A 
ATOM     71  H   UNL A   1      52.109  26.457  24.073  1.00  0.00     0.167 HD
ATOM     72  C   UNL A   1      52.559  28.202  27.291  1.00  0.00     0.074 A 
ATOM     73  C   UNL A   1      52.962  28.340  28.684  1.00  0.00     0.031 C 
ATOM     74  C   UNL A   1      53.303  27.957  26.159  1.00  0.00     0.031 A 
BRANCH  61  75
ATOM     75  C   UNL A   1      51.343  27.515  20.259  1.00  0.00    -0.014 A 
ATOM     76  C   UNL A   1      51.670  28.665  19.511  1.00  0.00     0.009 A 
ATOM     77  C   UNL A   1      51.432  26.289  19.582  1.00  0.00     0.009 A 
ATOM     78  C   UNL A   1      51.928  28.617  18.136  1.00  0.00     0.001 A 
ATOM     79  C   UNL A   1      51.684  26.234  18.200  1.00  0.00     0.001 A 
ATOM     80  C   UNL A   1      51.901  27.401  17.472  1.00  0.00     0.000 A 
ENDBRANCH  61  75
BRANCH  62  81
ATOM     81  C   UNL A   1      48.695  27.706  30.175  1.00  0.00    -0.014 A 
ATOM     82  C   UNL A   1      47.782  28.488  30.931  1.00  0.00     0.009 A 
ATOM     83  C   UNL A   1      48.454  26.331  30.059  1.00  0.00     0.009 A 
ATOM     84  C   UNL A   1      46.562  27.959  31.356  1.00  0.00     0.001 A 
ATOM     85  C   UNL A   1      47.239  25.798  30.523  1.00  0.00     0.001 A 
ATOM     86  C   UNL A   1      46.276  26.620  31.118  1.00  0.00     0.000 A 
ENDBRANCH  62  81
BRANCH  74  87
ATOM     87  C   UNL A   1      54.782  27.549  26.111  1.00  0.00    -0.014 A 
ATOM     88  C   UNL A   1      55.363  26.655  25.206  1.00  0.00     0.009 A 
ATOM     89  C   UNL A   1      55.688  28.174  27.008  1.00  0.00     0.009 A 
ATOM     90  C   UNL A   1      56.738  26.360  25.232  1.00  0.00     0.001 A 
ATOM     91  C   UNL A   1      57.061  27.917  27.017  1.00  0.00     0.001 A 
ATOM     92  C   UNL A   1      57.586  26.995  26.131  1.00  0.00     0.000 A 
ENDBRANCH  74  87
ENDBRANCH  48  49
ENDBRANCH  41  43
ENDBRANCH  40  41
ENDBRANCH  39  40
ENDBRANCH  38  39
ENDBRANCH  37  38
ENDBRANCH  36  37
ENDBRANCH  35  36
ENDBRANCH  34  35
ENDBRANCH  33  34
ENDBRANCH   1  33
TORSDOF 25
ENDMDL
MODEL 3
REMARK VINA RESULT:     -11.8      3.433      8.462
REMARK SMILES Cc1cccc(O[C@H](C)C(=O)NNC(=O)[C@H]2[C@@H]3CC[C@@H](C3)[C@@H]2C(=O)OCCOCCOCCOCCOC(=O)c2ccc(-c3c4nc(c(-c5ccccc5)c5ccc([nH]5)c(-c5ccccc5)c5nc(c(-c6ccccc6)c6ccc3[nH]6)C=C5)C=C4)cc2)c1
REMARK SMILES IDX 29 1 28 2 27 3 26 4 25 5 23 6 24 7 22 8 16 9 17 10 18 11
REMARK SMILES IDX 21 12 20 13 19 14 14 15 13 16 15 18 12 19 10 20 11 21 8 23
REMARK SMILES IDX 9 24 7 25 6 26 1 27 2 28 3 29 88 30 4 31 5 32 30 33 31 34
REMARK SMILES IDX 32 35 33 36 34 37 35 38 36 39 37 40 38 41 39 42 40 43 41 44
REMARK SMILES IDX 87 45 42 46 86 47 43 48 44 49 45 50 80 51 46 52 85 53 79 54
REMARK SMILES IDX 81 55 47 56 84 57 78 58 77 59 48 61 70 62 55 63 69 64 56 65
REMARK SMILES IDX 59 66 68 67 82 68 57 69 58 70 67 72 83 73 60 74 49 75 50 76
REMARK SMILES IDX 54 77 51 78 53 79 52 80 71 81 72 82 76 83 73 84 75 85 74 86
REMARK SMILES IDX 61 87 62 88 66 89 63 90 65 91 64 92
REMARK H PARENT 13 17 12 22 81 60 59 71
REMARK Flexibility Score: inf
ROOT
ATOM      1  C   UNL A   1      40.042  22.118  27.251  1.00  0.00     0.188 C 
ENDROOT
BRANCH   1   2
ATOM      2  O   UNL A   1      38.957  22.848  26.117  1.00  0.00    -0.376 OA
BRANCH   2   3
ATOM      3  C   UNL A   1      37.490  23.806  26.178  1.00  0.00     0.202 C 
BRANCH   3   4
ATOM      4  C   UNL A   1      35.821  23.665  25.263  1.00  0.00     0.261 C 
BRANCH   4   5
ATOM      5  O   UNL A   1      34.969  24.914  24.308  1.00  0.00    -0.463 OA
BRANCH   5   6
ATOM      6  C   UNL A   1      33.805  25.742  24.254  1.00  0.00     0.310 C 
ATOM      7  O   UNL A   1      33.162  26.082  23.261  1.00  0.00    -0.252 OA
BRANCH   6   8
ATOM      8  C   UNL A   1      32.998  26.132  25.543  1.00  0.00     0.115 C 
ATOM      9  C   UNL A   1      31.528  26.628  25.215  1.00  0.00     0.098 C 
ATOM     10  C   UNL A   1      31.435  27.990  25.951  1.00  0.00     0.003 C 
ATOM     11  C   UNL A   1      32.264  29.029  25.170  1.00  0.00     0.005 C 
ATOM     12  C   UNL A   1      32.321  27.774  27.173  1.00  0.00     0.009 C 
ATOM     13  C   UNL A   1      33.546  27.357  26.341  1.00  0.00     0.004 C 
ATOM     14  C   UNL A   1      33.707  28.634  25.508  1.00  0.00     0.005 C 
BRANCH   9  15
ATOM     15  C   UNL A   1      30.242  25.803  25.440  1.00  0.00     0.242 C 
ATOM     16  N   UNL A   1      30.107  24.673  26.198  1.00  0.00    -0.267 N 
ATOM     17  H   UNL A   1      29.201  24.287  26.238  1.00  0.00     0.191 HD
ATOM     18  O   UNL A   1      29.184  26.229  24.945  1.00  0.00    -0.273 OA
BRANCH  16  19
ATOM     19  N   UNL A   1      31.073  24.007  26.913  1.00  0.00    -0.264 N 
ATOM     20  C   UNL A   1      31.921  23.045  26.451  1.00  0.00     0.279 C 
ATOM     21  O   UNL A   1      32.968  22.906  27.106  1.00  0.00    -0.269 OA
ATOM     22  H   UNL A   1      31.163  24.253  27.863  1.00  0.00     0.191 HD
BRANCH  20  23
ATOM     23  C   UNL A   1      31.624  22.054  25.286  1.00  0.00     0.260 C 
ATOM     24  C   UNL A   1      31.938  22.699  23.929  1.00  0.00     0.064 C 
BRANCH  23  25
ATOM     25  O   UNL A   1      31.726  20.645  25.331  1.00  0.00    -0.481 OA
BRANCH  25  26
ATOM     26  C   UNL A   1      32.810  19.910  24.984  1.00  0.00     0.120 A 
ATOM     27  C   UNL A   1      33.264  16.145  24.493  1.00  0.00     0.044 C 
ATOM     28  C   UNL A   1      33.557  17.611  24.598  1.00  0.00    -0.047 A 
ATOM     29  C   UNL A   1      34.876  18.062  24.567  1.00  0.00     0.003 A 
ATOM     30  C   UNL A   1      32.535  18.549  24.788  1.00  0.00     0.049 A 
ATOM     31  C   UNL A   1      35.153  19.423  24.680  1.00  0.00     0.004 A 
ATOM     32  C   UNL A   1      34.123  20.346  24.878  1.00  0.00     0.046 A 
ENDBRANCH  25  26
ENDBRANCH  23  25
ENDBRANCH  20  23
ENDBRANCH  16  19
ENDBRANCH   9  15
ENDBRANCH   6   8
ENDBRANCH   5   6
ENDBRANCH   4   5
ENDBRANCH   3   4
ENDBRANCH   2   3
ENDBRANCH   1   2
BRANCH   1  33
ATOM     33  C   UNL A   1      41.708  22.270  27.606  1.00  0.00     0.188 C 
BRANCH  33  34
ATOM     34  O   UNL A   1      42.916  21.863  26.914  1.00  0.00    -0.377 OA
BRANCH  34  35
ATOM     35  C   UNL A   1      43.122  20.770  26.019  1.00  0.00     0.188 C 
BRANCH  35  36
ATOM     36  C   UNL A   1      44.242  20.878  25.023  1.00  0.00     0.188 C 
BRANCH  36  37
ATOM     37  O   UNL A   1      43.829  21.832  24.070  1.00  0.00    -0.376 OA
BRANCH  37  38
ATOM     38  C   UNL A   1      44.879  22.598  23.521  1.00  0.00     0.202 C 
BRANCH  38  39
ATOM     39  C   UNL A   1      45.494  23.509  24.576  1.00  0.00     0.261 C 
BRANCH  39  40
ATOM     40  O   UNL A   1      46.898  23.672  24.268  1.00  0.00    -0.460 OA
BRANCH  40  41
ATOM     41  C   UNL A   1      47.324  24.971  24.233  1.00  0.00     0.338 C 
ATOM     42  O   UNL A   1      47.967  25.473  23.333  1.00  0.00    -0.246 OA
BRANCH  41  43
ATOM     43  C   UNL A   1      47.187  25.579  25.591  1.00  0.00     0.060 A 
ATOM     44  C   UNL A   1      47.538  24.861  26.717  1.00  0.00     0.016 A 
ATOM     45  C   UNL A   1      46.506  26.745  25.822  1.00  0.00     0.016 A 
ATOM     46  C   UNL A   1      46.836  25.071  27.936  1.00  0.00     0.010 A 
ATOM     47  C   UNL A   1      45.902  26.945  27.091  1.00  0.00     0.010 A 
ATOM     48  C   UNL A   1      45.706  25.902  28.065  1.00  0.00    -0.014 A 
BRANCH  48  49
ATOM     49  C   UNL A   1      44.248  25.462  29.096  1.00  0.00     0.031 A 
ATOM     50  C   UNL A   1      42.356  25.928  28.918  1.00  0.00     0.074 A 
ATOM     51  C   UNL A   1      44.766  24.925  30.251  1.00  0.00     0.049 A 
ATOM     52  N   UNL A   1      41.844  27.042  29.513  1.00  0.00    -0.248 NA
ATOM     53  C   UNL A   1      41.224  25.755  27.857  1.00  0.00     0.031 C 
ATOM     54  C   UNL A   1      44.161  24.065  31.217  1.00  0.00     0.029 A 
ATOM     55  N   UNL A   1      45.899  25.322  30.965  1.00  0.00    -0.354 N 
ATOM     56  C   UNL A   1      40.665  27.598  29.112  1.00  0.00     0.074 A 
ATOM     57  C   UNL A   1      40.400  26.835  27.935  1.00  0.00     0.031 C 
ATOM     58  C   UNL A   1      44.566  24.370  32.465  1.00  0.00     0.029 A 
ATOM     59  C   UNL A   1      45.573  25.376  32.318  1.00  0.00     0.049 A 
ATOM     60  H   UNL A   1      46.780  25.526  30.576  1.00  0.00     0.167 HD
ATOM     61  C   UNL A   1      39.989  28.588  29.805  1.00  0.00     0.031 A 
ATOM     62  C   UNL A   1      46.209  26.004  33.321  1.00  0.00     0.031 A 
ATOM     63  C   UNL A   1      40.302  28.737  31.254  1.00  0.00     0.049 A 
ATOM     64  C   UNL A   1      45.329  27.064  33.942  1.00  0.00     0.074 A 
ATOM     65  C   UNL A   1      39.625  28.208  32.350  1.00  0.00     0.029 A 
ATOM     66  N   UNL A   1      41.447  29.314  31.802  1.00  0.00    -0.354 N 
ATOM     67  N   UNL A   1      44.189  27.518  33.474  1.00  0.00    -0.248 NA
ATOM     68  C   UNL A   1      45.703  27.679  35.211  1.00  0.00     0.031 C 
ATOM     69  C   UNL A   1      40.499  28.168  33.458  1.00  0.00     0.029 A 
ATOM     70  C   UNL A   1      41.638  28.874  33.120  1.00  0.00     0.049 A 
ATOM     71  H   UNL A   1      42.039  29.943  31.330  1.00  0.00     0.167 HD
ATOM     72  C   UNL A   1      43.748  28.551  34.289  1.00  0.00     0.074 A 
ATOM     73  C   UNL A   1      44.694  28.543  35.395  1.00  0.00     0.031 C 
ATOM     74  C   UNL A   1      42.670  29.368  34.032  1.00  0.00     0.031 A 
BRANCH  61  75
ATOM     75  C   UNL A   1      38.683  29.134  29.247  1.00  0.00    -0.014 A 
ATOM     76  C   UNL A   1      37.515  29.200  30.034  1.00  0.00     0.009 A 
ATOM     77  C   UNL A   1      38.565  29.581  27.922  1.00  0.00     0.009 A 
ATOM     78  C   UNL A   1      36.270  29.552  29.500  1.00  0.00     0.001 A 
ATOM     79  C   UNL A   1      37.317  29.930  27.377  1.00  0.00     0.001 A 
ATOM     80  C   UNL A   1      36.165  29.885  28.159  1.00  0.00     0.000 A 
ENDBRANCH  61  75
BRANCH  62  81
ATOM     81  C   UNL A   1      47.676  25.987  33.070  1.00  0.00    -0.014 A 
ATOM     82  C   UNL A   1      48.211  27.279  32.822  1.00  0.00     0.009 A 
ATOM     83  C   UNL A   1      48.515  25.018  33.633  1.00  0.00     0.009 A 
ATOM     84  C   UNL A   1      49.459  27.649  33.325  1.00  0.00     0.001 A 
ATOM     85  C   UNL A   1      49.786  25.389  34.105  1.00  0.00     0.001 A 
ATOM     86  C   UNL A   1      50.231  26.711  34.000  1.00  0.00     0.000 A 
ENDBRANCH  62  81
BRANCH  74  87
ATOM     87  C   UNL A   1      42.306  30.658  34.781  1.00  0.00    -0.014 A 
ATOM     88  C   UNL A   1      42.999  31.871  34.723  1.00  0.00     0.009 A 
ATOM     89  C   UNL A   1      41.117  30.679  35.557  1.00  0.00     0.009 A 
ATOM     90  C   UNL A   1      42.572  33.006  35.435  1.00  0.00     0.001 A 
ATOM     91  C   UNL A   1      40.663  31.812  36.237  1.00  0.00     0.001 A 
ATOM     92  C   UNL A   1      41.402  32.978  36.185  1.00  0.00     0.000 A 
ENDBRANCH  74  87
ENDBRANCH  48  49
ENDBRANCH  41  43
ENDBRANCH  40  41
ENDBRANCH  39  40
ENDBRANCH  38  39
ENDBRANCH  37  38
ENDBRANCH  36  37
ENDBRANCH  35  36
ENDBRANCH  34  35
ENDBRANCH  33  34
ENDBRANCH   1  33
TORSDOF 25
ENDMDL
