MODEL 1
REMARK VINA RESULT:      -8.7      0.000      0.000
REMARK SMILES O=C(COC[C@@H]1CCCCO1)OCCOCCOCCOCCOC(=O)c1ccc(-c2c3nc(c(-c4ccccc4)c4ccc([nH]4)c(-c4ccccc4)c4nc(c(-c5ccccc5)c5ccc2[nH]5)C=C4)C=C3)cc1
REMARK SMILES IDX 17 1 16 2 15 3 14 4 13 5 12 6 2 7 1 8 3 9 4 10 5 11 6 12
REMARK SMILES IDX 7 13 11 14 8 15 10 16 9 17 18 18 19 19 20 20 21 21 22 22
REMARK SMILES IDX 23 23 24 24 25 25 26 26 27 27 28 28 74 29 29 30 73 31 30 32
REMARK SMILES IDX 31 33 32 34 67 35 33 36 72 37 66 38 68 39 34 40 71 41 65 42
REMARK SMILES IDX 64 43 35 45 57 46 42 47 56 48 43 49 46 50 55 51 69 52 44 53
REMARK SMILES IDX 45 54 54 56 70 57 47 58 36 59 37 60 41 61 38 62 40 63 39 64
REMARK SMILES IDX 58 65 59 66 63 67 60 68 62 69 61 70 48 71 49 72 53 73 50 74
REMARK SMILES IDX 52 75 51 76
REMARK H PARENT 68 44 46 55
REMARK Flexibility Score: inf
ROOT
ATOM      1  C   UNL A   1      38.846  21.633  26.136  1.00  0.00     0.188 C 
ENDROOT
BRANCH   1   2
ATOM      2  C   UNL A   1      37.794  22.128  25.131  1.00  0.00     0.188 C 
BRANCH   2   3
ATOM      3  O   UNL A   1      36.742  21.361  24.563  1.00  0.00    -0.376 OA
BRANCH   3   4
ATOM      4  C   UNL A   1      35.917  20.360  25.128  1.00  0.00     0.202 C 
BRANCH   4   5
ATOM      5  C   UNL A   1      34.453  20.154  24.749  1.00  0.00     0.261 C 
BRANCH   5   6
ATOM      6  O   UNL A   1      33.535  21.002  25.422  1.00  0.00    -0.462 OA
BRANCH   6   7
ATOM      7  C   UNL A   1      32.334  21.271  24.848  1.00  0.00     0.332 C 
ATOM      8  O   UNL A   1      31.322  21.279  25.543  1.00  0.00    -0.250 OA
BRANCH   7   9
ATOM      9  C   UNL A   1      32.298  21.336  23.307  1.00  0.00     0.282 C 
BRANCH   9  10
ATOM     10  O   UNL A   1      32.522  22.534  22.606  1.00  0.00    -0.367 OA
BRANCH  10  11
ATOM     11  C   UNL A   1      32.338  23.722  23.362  1.00  0.00     0.193 C 
BRANCH  11  12
ATOM     12  C   UNL A   1      31.778  24.955  22.614  1.00  0.00     0.144 C 
ATOM     13  C   UNL A   1      32.648  25.651  21.553  1.00  0.00     0.034 C 
ATOM     14  O   UNL A   1      31.191  25.895  23.524  1.00  0.00    -0.376 OA
ATOM     15  C   UNL A   1      33.503  26.816  22.057  1.00  0.00     0.005 C 
ATOM     16  C   UNL A   1      32.118  26.795  24.122  1.00  0.00     0.160 C 
ATOM     17  C   UNL A   1      32.745  27.674  23.055  1.00  0.00     0.029 C 
ENDBRANCH  11  12
ENDBRANCH  10  11
ENDBRANCH   9  10
ENDBRANCH   7   9
ENDBRANCH   6   7
ENDBRANCH   5   6
ENDBRANCH   4   5
ENDBRANCH   3   4
ENDBRANCH   2   3
ENDBRANCH   1   2
BRANCH   1  18
ATOM     18  O   UNL A   1      39.721  20.593  25.748  1.00  0.00    -0.377 OA
BRANCH  18  19
ATOM     19  C   UNL A   1      40.905  20.534  26.512  1.00  0.00     0.188 C 
BRANCH  19  20
ATOM     20  C   UNL A   1      41.816  19.359  26.103  1.00  0.00     0.188 C 
BRANCH  20  21
ATOM     21  O   UNL A   1      42.680  19.526  24.999  1.00  0.00    -0.376 OA
BRANCH  21  22
ATOM     22  C   UNL A   1      44.083  19.633  25.189  1.00  0.00     0.202 C 
BRANCH  22  23
ATOM     23  C   UNL A   1      44.885  20.956  25.266  1.00  0.00     0.261 C 
BRANCH  23  24
ATOM     24  O   UNL A   1      44.328  22.062  25.985  1.00  0.00    -0.460 OA
BRANCH  24  25
ATOM     25  C   UNL A   1      43.627  22.974  25.270  1.00  0.00     0.338 C 
ATOM     26  O   UNL A   1      43.247  22.877  24.115  1.00  0.00    -0.246 OA
BRANCH  25  27
ATOM     27  C   UNL A   1      43.169  24.020  26.214  1.00  0.00     0.060 A 
ATOM     28  C   UNL A   1      43.851  25.249  26.247  1.00  0.00     0.016 A 
ATOM     29  C   UNL A   1      42.021  23.833  26.986  1.00  0.00     0.016 A 
ATOM     30  C   UNL A   1      43.373  26.299  27.033  1.00  0.00     0.010 A 
ATOM     31  C   UNL A   1      41.574  24.869  27.813  1.00  0.00     0.010 A 
ATOM     32  C   UNL A   1      42.252  26.101  27.847  1.00  0.00    -0.014 A 
BRANCH  32  33
ATOM     33  C   UNL A   1      41.894  27.104  28.878  1.00  0.00     0.031 A 
ATOM     34  C   UNL A   1      42.666  27.091  30.168  1.00  0.00     0.074 A 
ATOM     35  C   UNL A   1      40.896  27.985  28.692  1.00  0.00     0.049 A 
ATOM     36  N   UNL A   1      42.462  27.775  31.262  1.00  0.00    -0.248 NA
ATOM     37  C   UNL A   1      43.821  26.179  30.231  1.00  0.00     0.031 C 
ATOM     38  C   UNL A   1      40.111  28.138  27.468  1.00  0.00     0.029 A 
ATOM     39  N   UNL A   1      40.358  28.911  29.554  1.00  0.00    -0.354 N 
ATOM     40  C   UNL A   1      43.447  27.362  32.149  1.00  0.00     0.074 A 
ATOM     41  C   UNL A   1      44.247  26.367  31.471  1.00  0.00     0.031 C 
ATOM     42  C   UNL A   1      39.170  29.078  27.670  1.00  0.00     0.029 A 
ATOM     43  C   UNL A   1      39.258  29.561  29.048  1.00  0.00     0.049 A 
ATOM     44  H   UNL A   1      40.726  29.091  30.450  1.00  0.00     0.167 HD
ATOM     45  C   UNL A   1      43.660  27.771  33.421  1.00  0.00     0.031 A 
ATOM     46  C   UNL A   1      38.397  30.410  29.645  1.00  0.00     0.031 A 
ATOM     47  C   UNL A   1      42.857  28.749  34.100  1.00  0.00     0.049 A 
ATOM     48  C   UNL A   1      38.602  30.772  31.096  1.00  0.00     0.074 A 
ATOM     49  C   UNL A   1      43.016  29.250  35.380  1.00  0.00     0.029 A 
ATOM     50  N   UNL A   1      41.736  29.360  33.564  1.00  0.00    -0.354 N 
ATOM     51  N   UNL A   1      39.566  30.414  31.912  1.00  0.00    -0.248 NA
ATOM     52  C   UNL A   1      37.597  31.652  31.711  1.00  0.00     0.031 C 
ATOM     53  C   UNL A   1      41.947  30.111  35.645  1.00  0.00     0.029 A 
ATOM     54  C   UNL A   1      41.164  30.197  34.505  1.00  0.00     0.049 A 
ATOM     55  H   UNL A   1      41.397  29.218  32.650  1.00  0.00     0.167 HD
ATOM     56  C   UNL A   1      39.293  31.041  33.123  1.00  0.00     0.074 A 
ATOM     57  C   UNL A   1      38.090  31.822  32.929  1.00  0.00     0.031 C 
ATOM     58  C   UNL A   1      39.970  30.972  34.294  1.00  0.00     0.031 A 
BRANCH  45  59
ATOM     59  C   UNL A   1      44.779  27.126  34.187  1.00  0.00    -0.014 A 
ATOM     60  C   UNL A   1      46.035  27.740  34.303  1.00  0.00     0.009 A 
ATOM     61  C   UNL A   1      44.543  25.919  34.864  1.00  0.00     0.009 A 
ATOM     62  C   UNL A   1      47.037  27.149  35.076  1.00  0.00     0.001 A 
ATOM     63  C   UNL A   1      45.538  25.344  35.656  1.00  0.00     0.001 A 
ATOM     64  C   UNL A   1      46.785  25.958  35.759  1.00  0.00     0.000 A 
ENDBRANCH  45  59
BRANCH  46  65
ATOM     65  C   UNL A   1      37.210  30.930  28.911  1.00  0.00    -0.014 A 
ATOM     66  C   UNL A   1      37.112  32.288  28.566  1.00  0.00     0.009 A 
ATOM     67  C   UNL A   1      36.130  30.082  28.619  1.00  0.00     0.009 A 
ATOM     68  C   UNL A   1      35.946  32.790  27.982  1.00  0.00     0.001 A 
ATOM     69  C   UNL A   1      34.979  30.579  28.002  1.00  0.00     0.001 A 
ATOM     70  C   UNL A   1      34.882  31.935  27.698  1.00  0.00     0.000 A 
ENDBRANCH  46  65
BRANCH  58  71
ATOM     71  C   UNL A   1      39.449  31.780  35.450  1.00  0.00    -0.014 A 
ATOM     72  C   UNL A   1      39.873  33.101  35.665  1.00  0.00     0.009 A 
ATOM     73  C   UNL A   1      38.476  31.231  36.300  1.00  0.00     0.009 A 
ATOM     74  C   UNL A   1      39.353  33.844  36.726  1.00  0.00     0.001 A 
ATOM     75  C   UNL A   1      37.933  31.989  37.339  1.00  0.00     0.001 A 
ATOM     76  C   UNL A   1      38.378  33.291  37.557  1.00  0.00     0.000 A 
ENDBRANCH  58  71
ENDBRANCH  32  33
ENDBRANCH  25  27
ENDBRANCH  24  25
ENDBRANCH  23  24
ENDBRANCH  22  23
ENDBRANCH  21  22
ENDBRANCH  20  21
ENDBRANCH  19  20
ENDBRANCH  18  19
ENDBRANCH   1  18
TORSDOF 23
ENDMDL
MODEL 2
REMARK VINA RESULT:      -8.7      1.344      2.946
REMARK SMILES O=C(COC[C@@H]1CCCCO1)OCCOCCOCCOCCOC(=O)c1ccc(-c2c3nc(c(-c4ccccc4)c4ccc([nH]4)c(-c4ccccc4)c4nc(c(-c5ccccc5)c5ccc2[nH]5)C=C4)C=C3)cc1
REMARK SMILES IDX 17 1 16 2 15 3 14 4 13 5 12 6 2 7 1 8 3 9 4 10 5 11 6 12
REMARK SMILES IDX 7 13 11 14 8 15 10 16 9 17 18 18 19 19 20 20 21 21 22 22
REMARK SMILES IDX 23 23 24 24 25 25 26 26 27 27 28 28 74 29 29 30 73 31 30 32
REMARK SMILES IDX 31 33 32 34 67 35 33 36 72 37 66 38 68 39 34 40 71 41 65 42
REMARK SMILES IDX 64 43 35 45 57 46 42 47 56 48 43 49 46 50 55 51 69 52 44 53
REMARK SMILES IDX 45 54 54 56 70 57 47 58 36 59 37 60 41 61 38 62 40 63 39 64
REMARK SMILES IDX 58 65 59 66 63 67 60 68 62 69 61 70 48 71 49 72 53 73 50 74
REMARK SMILES IDX 52 75 51 76
REMARK H PARENT 68 44 46 55
REMARK Flexibility Score: inf
ROOT
ATOM      1  C   UNL A   1      38.623  21.808  25.465  1.00  0.00     0.188 C 
ENDROOT
BRANCH   1   2
ATOM      2  C   UNL A   1      37.803  23.048  25.852  1.00  0.00     0.188 C 
BRANCH   2   3
ATOM      3  O   UNL A   1      36.557  23.445  25.297  1.00  0.00    -0.376 OA
BRANCH   3   4
ATOM      4  C   UNL A   1      36.123  23.513  23.952  1.00  0.00     0.202 C 
BRANCH   4   5
ATOM      5  C   UNL A   1      34.824  22.891  23.447  1.00  0.00     0.261 C 
BRANCH   5   6
ATOM      6  O   UNL A   1      33.677  23.182  24.231  1.00  0.00    -0.462 OA
BRANCH   6   7
ATOM      7  C   UNL A   1      32.510  22.539  23.968  1.00  0.00     0.332 C 
ATOM      8  O   UNL A   1      31.909  22.782  22.925  1.00  0.00    -0.250 OA
BRANCH   7   9
ATOM      9  C   UNL A   1      31.905  21.698  25.112  1.00  0.00     0.282 C 
BRANCH   9  10
ATOM     10  O   UNL A   1      32.031  20.299  25.156  1.00  0.00    -0.367 OA
BRANCH  10  11
ATOM     11  C   UNL A   1      33.074  19.759  24.357  1.00  0.00     0.193 C 
BRANCH  11  12
ATOM     12  C   UNL A   1      33.890  18.590  24.958  1.00  0.00     0.144 C 
ATOM     13  C   UNL A   1      34.616  17.616  24.014  1.00  0.00     0.034 C 
ATOM     14  O   UNL A   1      33.144  17.899  25.968  1.00  0.00    -0.376 OA
ATOM     15  C   UNL A   1      33.829  16.365  23.617  1.00  0.00     0.005 C 
ATOM     16  C   UNL A   1      32.259  16.901  25.469  1.00  0.00     0.160 C 
ATOM     17  C   UNL A   1      33.053  15.798  24.793  1.00  0.00     0.029 C 
ENDBRANCH  11  12
ENDBRANCH  10  11
ENDBRANCH   9  10
ENDBRANCH   7   9
ENDBRANCH   6   7
ENDBRANCH   5   6
ENDBRANCH   4   5
ENDBRANCH   3   4
ENDBRANCH   2   3
ENDBRANCH   1   2
BRANCH   1  18
ATOM     18  O   UNL A   1      39.788  21.504  26.205  1.00  0.00    -0.377 OA
BRANCH  18  19
ATOM     19  C   UNL A   1      40.140  20.138  26.173  1.00  0.00     0.188 C 
BRANCH  19  20
ATOM     20  C   UNL A   1      41.390  19.829  27.019  1.00  0.00     0.188 C 
BRANCH  20  21
ATOM     21  O   UNL A   1      42.441  19.092  26.430  1.00  0.00    -0.376 OA
BRANCH  21  22
ATOM     22  C   UNL A   1      43.172  19.626  25.336  1.00  0.00     0.202 C 
BRANCH  22  23
ATOM     23  C   UNL A   1      44.237  20.748  25.424  1.00  0.00     0.261 C 
BRANCH  23  24
ATOM     24  O   UNL A   1      43.912  21.958  26.117  1.00  0.00    -0.460 OA
BRANCH  24  25
ATOM     25  C   UNL A   1      43.525  23.016  25.366  1.00  0.00     0.338 C 
ATOM     26  O   UNL A   1      43.365  23.048  24.157  1.00  0.00    -0.246 OA
BRANCH  25  27
ATOM     27  C   UNL A   1      43.074  24.078  26.296  1.00  0.00     0.060 A 
ATOM     28  C   UNL A   1      43.655  25.355  26.199  1.00  0.00     0.016 A 
ATOM     29  C   UNL A   1      42.022  23.851  27.183  1.00  0.00     0.016 A 
ATOM     30  C   UNL A   1      43.170  26.410  26.973  1.00  0.00     0.010 A 
ATOM     31  C   UNL A   1      41.572  24.897  27.996  1.00  0.00     0.010 A 
ATOM     32  C   UNL A   1      42.148  26.176  27.901  1.00  0.00    -0.014 A 
BRANCH  32  33
ATOM     33  C   UNL A   1      41.808  27.208  28.909  1.00  0.00     0.031 A 
ATOM     34  C   UNL A   1      42.598  27.226  30.189  1.00  0.00     0.074 A 
ATOM     35  C   UNL A   1      40.812  28.089  28.713  1.00  0.00     0.049 A 
ATOM     36  N   UNL A   1      42.410  27.940  31.267  1.00  0.00    -0.248 NA
ATOM     37  C   UNL A   1      43.750  26.311  30.261  1.00  0.00     0.031 C 
ATOM     38  C   UNL A   1      40.011  28.213  27.496  1.00  0.00     0.029 A 
ATOM     39  N   UNL A   1      40.290  29.040  29.557  1.00  0.00    -0.354 N 
ATOM     40  C   UNL A   1      43.406  27.546  32.152  1.00  0.00     0.074 A 
ATOM     41  C   UNL A   1      44.192  26.530  31.491  1.00  0.00     0.031 C 
ATOM     42  C   UNL A   1      39.077  29.162  27.685  1.00  0.00     0.029 A 
ATOM     43  C   UNL A   1      39.186  29.681  29.048  1.00  0.00     0.049 A 
ATOM     44  H   UNL A   1      40.670  29.242  30.442  1.00  0.00     0.167 HD
ATOM     45  C   UNL A   1      43.637  27.988  33.410  1.00  0.00     0.031 A 
ATOM     46  C   UNL A   1      38.337  30.550  29.633  1.00  0.00     0.031 A 
ATOM     47  C   UNL A   1      42.847  28.988  34.073  1.00  0.00     0.049 A 
ATOM     48  C   UNL A   1      38.562  30.949  31.071  1.00  0.00     0.074 A 
ATOM     49  C   UNL A   1      43.025  29.522  35.337  1.00  0.00     0.029 A 
ATOM     50  N   UNL A   1      41.722  29.589  33.535  1.00  0.00    -0.354 N 
ATOM     51  N   UNL A   1      39.535  30.609  31.883  1.00  0.00    -0.248 NA
ATOM     52  C   UNL A   1      37.569  31.850  31.675  1.00  0.00     0.031 C 
ATOM     53  C   UNL A   1      41.964  30.395  35.592  1.00  0.00     0.029 A 
ATOM     54  C   UNL A   1      41.166  30.454  34.460  1.00  0.00     0.049 A 
ATOM     55  H   UNL A   1      41.370  29.425  32.630  1.00  0.00     0.167 HD
ATOM     56  C   UNL A   1      39.280  31.270  33.081  1.00  0.00     0.074 A 
ATOM     57  C   UNL A   1      38.079  32.051  32.882  1.00  0.00     0.031 C 
ATOM     58  C   UNL A   1      39.973  31.229  34.244  1.00  0.00     0.031 A 
BRANCH  45  59
ATOM     59  C   UNL A   1      44.763  27.358  34.178  1.00  0.00    -0.014 A 
ATOM     60  C   UNL A   1      46.070  27.862  34.105  1.00  0.00     0.009 A 
ATOM     61  C   UNL A   1      44.491  26.290  35.046  1.00  0.00     0.009 A 
ATOM     62  C   UNL A   1      47.085  27.298  34.881  1.00  0.00     0.001 A 
ATOM     63  C   UNL A   1      45.501  25.745  35.839  1.00  0.00     0.001 A 
ATOM     64  C   UNL A   1      46.799  26.248  35.753  1.00  0.00     0.000 A 
ENDBRANCH  45  59
BRANCH  46  65
ATOM     65  C   UNL A   1      37.142  31.056  28.901  1.00  0.00    -0.014 A 
ATOM     66  C   UNL A   1      37.010  32.418  28.589  1.00  0.00     0.009 A 
ATOM     67  C   UNL A   1      36.089  30.186  28.576  1.00  0.00     0.009 A 
ATOM     68  C   UNL A   1      35.835  32.903  28.006  1.00  0.00     0.001 A 
ATOM     69  C   UNL A   1      34.930  30.667  27.961  1.00  0.00     0.001 A 
ATOM     70  C   UNL A   1      34.799  32.027  27.691  1.00  0.00     0.000 A 
ENDBRANCH  46  65
BRANCH  58  71
ATOM     71  C   UNL A   1      39.470  32.069  35.385  1.00  0.00    -0.014 A 
ATOM     72  C   UNL A   1      39.824  33.423  35.503  1.00  0.00     0.009 A 
ATOM     73  C   UNL A   1      38.582  31.515  36.321  1.00  0.00     0.009 A 
ATOM     74  C   UNL A   1      39.322  34.194  36.552  1.00  0.00     0.001 A 
ATOM     75  C   UNL A   1      38.055  32.298  37.348  1.00  0.00     0.001 A 
ATOM     76  C   UNL A   1      38.431  33.634  37.469  1.00  0.00     0.000 A 
ENDBRANCH  58  71
ENDBRANCH  32  33
ENDBRANCH  25  27
ENDBRANCH  24  25
ENDBRANCH  23  24
ENDBRANCH  22  23
ENDBRANCH  21  22
ENDBRANCH  20  21
ENDBRANCH  19  20
ENDBRANCH  18  19
ENDBRANCH   1  18
TORSDOF 23
ENDMDL
MODEL 3
REMARK VINA RESULT:      -8.4      1.587      6.474
REMARK SMILES O=C(COC[C@@H]1CCCCO1)OCCOCCOCCOCCOC(=O)c1ccc(-c2c3nc(c(-c4ccccc4)c4ccc([nH]4)c(-c4ccccc4)c4nc(c(-c5ccccc5)c5ccc2[nH]5)C=C4)C=C3)cc1
REMARK SMILES IDX 17 1 16 2 15 3 14 4 13 5 12 6 2 7 1 8 3 9 4 10 5 11 6 12
REMARK SMILES IDX 7 13 11 14 8 15 10 16 9 17 18 18 19 19 20 20 21 21 22 22
REMARK SMILES IDX 23 23 24 24 25 25 26 26 27 27 28 28 74 29 29 30 73 31 30 32
REMARK SMILES IDX 31 33 32 34 67 35 33 36 72 37 66 38 68 39 34 40 71 41 65 42
REMARK SMILES IDX 64 43 35 45 57 46 42 47 56 48 43 49 46 50 55 51 69 52 44 53
REMARK SMILES IDX 45 54 54 56 70 57 47 58 36 59 37 60 41 61 38 62 40 63 39 64
REMARK SMILES IDX 58 65 59 66 63 67 60 68 62 69 61 70 48 71 49 72 53 73 50 74
REMARK SMILES IDX 52 75 51 76
REMARK H PARENT 68 44 46 55
REMARK Flexibility Score: inf
ROOT
ATOM      1  C   UNL A   1      39.575  21.625  26.130  1.00  0.00     0.188 C 
ENDROOT
BRANCH   1   2
ATOM      2  C   UNL A   1      38.109  21.812  25.705  1.00  0.00     0.188 C 
BRANCH   2   3
ATOM      3  O   UNL A   1      37.531  22.988  25.158  1.00  0.00    -0.376 OA
BRANCH   3   4
ATOM      4  C   UNL A   1      36.184  23.312  24.876  1.00  0.00     0.202 C 
BRANCH   4   5
ATOM      5  C   UNL A   1      35.424  24.448  25.554  1.00  0.00     0.261 C 
BRANCH   5   6
ATOM      6  O   UNL A   1      34.304  24.042  26.326  1.00  0.00    -0.462 OA
BRANCH   6   7
ATOM      7  C   UNL A   1      33.096  24.620  26.101  1.00  0.00     0.332 C 
ATOM      8  O   UNL A   1      33.046  25.740  25.602  1.00  0.00    -0.250 OA
BRANCH   7   9
ATOM      9  C   UNL A   1      31.862  23.909  26.696  1.00  0.00     0.282 C 
BRANCH   9  10
ATOM     10  O   UNL A   1      31.765  22.508  26.754  1.00  0.00    -0.367 OA
BRANCH  10  11
ATOM     11  C   UNL A   1      31.504  21.867  25.513  1.00  0.00     0.193 C 
BRANCH  11  12
ATOM     12  C   UNL A   1      32.718  21.295  24.744  1.00  0.00     0.144 C 
ATOM     13  C   UNL A   1      32.547  20.871  23.275  1.00  0.00     0.034 C 
ATOM     14  O   UNL A   1      33.397  20.294  25.513  1.00  0.00    -0.376 OA
ATOM     15  C   UNL A   1      32.188  19.401  23.046  1.00  0.00     0.005 C 
ATOM     16  C   UNL A   1      32.836  18.989  25.411  1.00  0.00     0.160 C 
ATOM     17  C   UNL A   1      32.956  18.487  23.983  1.00  0.00     0.029 C 
ENDBRANCH  11  12
ENDBRANCH  10  11
ENDBRANCH   9  10
ENDBRANCH   7   9
ENDBRANCH   6   7
ENDBRANCH   5   6
ENDBRANCH   4   5
ENDBRANCH   3   4
ENDBRANCH   2   3
ENDBRANCH   1   2
BRANCH   1  18
ATOM     18  O   UNL A   1      40.087  20.313  26.249  1.00  0.00    -0.377 OA
BRANCH  18  19
ATOM     19  C   UNL A   1      41.207  20.218  27.101  1.00  0.00     0.188 C 
BRANCH  19  20
ATOM     20  C   UNL A   1      42.506  19.895  26.336  1.00  0.00     0.188 C 
BRANCH  20  21
ATOM     21  O   UNL A   1      42.894  20.742  25.274  1.00  0.00    -0.376 OA
BRANCH  21  22
ATOM     22  C   UNL A   1      44.236  21.191  25.162  1.00  0.00     0.202 C 
BRANCH  22  23
ATOM     23  C   UNL A   1      44.687  22.538  24.544  1.00  0.00     0.261 C 
BRANCH  23  24
ATOM     24  O   UNL A   1      43.957  23.727  24.867  1.00  0.00    -0.460 OA
BRANCH  24  25
ATOM     25  C   UNL A   1      44.678  24.823  25.205  1.00  0.00     0.338 C 
ATOM     26  O   UNL A   1      45.598  25.326  24.582  1.00  0.00    -0.246 OA
BRANCH  25  27
ATOM     27  C   UNL A   1      43.991  25.470  26.348  1.00  0.00     0.060 A 
ATOM     28  C   UNL A   1      44.180  26.847  26.560  1.00  0.00     0.016 A 
ATOM     29  C   UNL A   1      43.092  24.754  27.139  1.00  0.00     0.016 A 
ATOM     30  C   UNL A   1      43.454  27.513  27.548  1.00  0.00     0.010 A 
ATOM     31  C   UNL A   1      42.405  25.413  28.164  1.00  0.00     0.010 A 
ATOM     32  C   UNL A   1      42.589  26.791  28.378  1.00  0.00    -0.014 A 
BRANCH  32  33
ATOM     33  C   UNL A   1      42.021  27.424  29.592  1.00  0.00     0.031 A 
ATOM     34  C   UNL A   1      40.727  28.178  29.450  1.00  0.00     0.074 A 
ATOM     35  C   UNL A   1      42.643  27.359  30.782  1.00  0.00     0.049 A 
ATOM     36  N   UNL A   1      40.100  28.918  30.326  1.00  0.00    -0.248 NA
ATOM     37  C   UNL A   1      40.055  28.086  28.143  1.00  0.00     0.031 C 
ATOM     38  C   UNL A   1      43.869  26.614  31.064  1.00  0.00     0.029 A 
ATOM     39  N   UNL A   1      42.330  27.956  31.980  1.00  0.00    -0.354 N 
ATOM     40  C   UNL A   1      38.973  29.396  29.670  1.00  0.00     0.074 A 
ATOM     41  C   UNL A   1      39.002  28.869  28.325  1.00  0.00     0.031 C 
ATOM     42  C   UNL A   1      44.222  26.826  32.344  1.00  0.00     0.029 A 
ATOM     43  C   UNL A   1      43.273  27.754  32.959  1.00  0.00     0.049 A 
ATOM     44  H   UNL A   1      41.508  28.480  32.123  1.00  0.00     0.167 HD
ATOM     45  C   UNL A   1      38.004  30.212  30.146  1.00  0.00     0.031 A 
ATOM     46  C   UNL A   1      43.380  28.294  34.190  1.00  0.00     0.031 A 
ATOM     47  C   UNL A   1      37.984  30.748  31.479  1.00  0.00     0.049 A 
ATOM     48  C   UNL A   1      42.336  29.279  34.659  1.00  0.00     0.074 A 
ATOM     49  C   UNL A   1      37.025  31.559  32.062  1.00  0.00     0.029 A 
ATOM     50  N   UNL A   1      38.971  30.544  32.428  1.00  0.00    -0.354 N 
ATOM     51  N   UNL A   1      41.248  29.687  34.049  1.00  0.00    -0.248 NA
ATOM     52  C   UNL A   1      42.538  29.882  35.985  1.00  0.00     0.031 C 
ATOM     53  C   UNL A   1      37.469  31.905  33.341  1.00  0.00     0.029 A 
ATOM     54  C   UNL A   1      38.670  31.253  33.577  1.00  0.00     0.049 A 
ATOM     55  H   UNL A   1      39.768  29.979  32.303  1.00  0.00     0.167 HD
ATOM     56  C   UNL A   1      40.631  30.573  34.925  1.00  0.00     0.074 A 
ATOM     57  C   UNL A   1      41.448  30.624  36.117  1.00  0.00     0.031 C 
ATOM     58  C   UNL A   1      39.492  31.288  34.757  1.00  0.00     0.031 A 
BRANCH  45  59
ATOM     59  C   UNL A   1      36.907  30.620  29.207  1.00  0.00    -0.014 A 
ATOM     60  C   UNL A   1      35.866  29.741  28.872  1.00  0.00     0.009 A 
ATOM     61  C   UNL A   1      36.879  31.933  28.710  1.00  0.00     0.009 A 
ATOM     62  C   UNL A   1      34.823  30.169  28.048  1.00  0.00     0.001 A 
ATOM     63  C   UNL A   1      35.822  32.365  27.908  1.00  0.00     0.001 A 
ATOM     64  C   UNL A   1      34.797  31.481  27.575  1.00  0.00     0.000 A 
ENDBRANCH  45  59
BRANCH  46  65
ATOM     65  C   UNL A   1      44.553  27.987  35.056  1.00  0.00    -0.014 A 
ATOM     66  C   UNL A   1      45.739  28.731  34.954  1.00  0.00     0.009 A 
ATOM     67  C   UNL A   1      44.515  26.896  35.939  1.00  0.00     0.009 A 
ATOM     68  C   UNL A   1      46.873  28.364  35.686  1.00  0.00     0.001 A 
ATOM     69  C   UNL A   1      45.638  26.553  36.696  1.00  0.00     0.001 A 
ATOM     70  C   UNL A   1      46.820  27.278  36.558  1.00  0.00     0.000 A 
ENDBRANCH  46  65
BRANCH  58  71
ATOM     71  C   UNL A   1      39.045  32.166  35.893  1.00  0.00    -0.014 A 
ATOM     72  C   UNL A   1      38.079  31.730  36.813  1.00  0.00     0.009 A 
ATOM     73  C   UNL A   1      39.643  33.422  36.080  1.00  0.00     0.009 A 
ATOM     74  C   UNL A   1      37.701  32.547  37.880  1.00  0.00     0.001 A 
ATOM     75  C   UNL A   1      39.288  34.223  37.166  1.00  0.00     0.001 A 
ATOM     76  C   UNL A   1      38.311  33.789  38.059  1.00  0.00     0.000 A 
ENDBRANCH  58  71
ENDBRANCH  32  33
ENDBRANCH  25  27
ENDBRANCH  24  25
ENDBRANCH  23  24
ENDBRANCH  22  23
ENDBRANCH  21  22
ENDBRANCH  20  21
ENDBRANCH  19  20
ENDBRANCH  18  19
ENDBRANCH   1  18
TORSDOF 23
ENDMDL
