MODEL 1
REMARK VINA RESULT:     -10.8      0.000      0.000
REMARK SMILES O=C(OCCOCCOCCOCCOC(=O)c1ccc(-c2c3nc(c(-c4ccccc4)c4ccc([nH]4)c(-c4ccccc4)c4nc(c(-c5ccccc5)c5ccc2[nH]5)C=C4)C=C3)cc1)C1=Cc2cc(Cl)cc(-c3ccc(Cl)cc3)c2O[C@@H]1C(F)(F)F
REMARK SMILES IDX 10 1 9 2 8 3 7 4 6 5 5 6 4 7 3 8 2 9 1 10 66 11 67 12 83 13
REMARK SMILES IDX 68 14 82 15 69 16 81 17 70 18 73 19 71 20 72 21 84 22 85 23
REMARK SMILES IDX 86 24 87 25 74 26 75 27 80 28 76 29 79 30 77 31 78 32 11 33
REMARK SMILES IDX 12 34 13 35 14 36 15 37 16 38 17 39 18 40 19 41 65 42 20 43
REMARK SMILES IDX 64 44 21 45 22 46 23 47 58 48 24 49 63 50 57 51 59 52 25 53
REMARK SMILES IDX 62 54 56 55 55 56 26 58 48 59 33 60 47 61 34 62 37 63 46 64
REMARK SMILES IDX 60 65 35 66 36 67 45 69 61 70 38 71 27 72 28 73 32 74 29 75
REMARK SMILES IDX 31 76 30 77 49 78 50 79 54 80 51 81 53 82 52 83 39 84 40 85
REMARK SMILES IDX 44 86 41 87 43 88 42 89
REMARK H PARENT 59 57 37 68
REMARK Flexibility Score: inf
ROOT
ATOM      1  C   UNL A   1      34.978  31.654  28.356  1.00  0.00     0.188 C 
ENDROOT
BRANCH   1   2
ATOM      2  O   UNL A   1      33.786  31.325  27.647  1.00  0.00    -0.377 OA
BRANCH   2   3
ATOM      3  C   UNL A   1      33.822  30.094  26.927  1.00  0.00     0.188 C 
BRANCH   3   4
ATOM      4  C   UNL A   1      32.431  29.619  26.524  1.00  0.00     0.188 C 
BRANCH   4   5
ATOM      5  O   UNL A   1      32.459  28.659  25.489  1.00  0.00    -0.376 OA
BRANCH   5   6
ATOM      6  C   UNL A   1      33.200  28.957  24.322  1.00  0.00     0.202 C 
BRANCH   6   7
ATOM      7  C   UNL A   1      33.827  27.779  23.566  1.00  0.00     0.261 C 
BRANCH   7   8
ATOM      8  O   UNL A   1      32.855  26.937  22.920  1.00  0.00    -0.460 OA
BRANCH   8   9
ATOM      9  C   UNL A   1      33.127  25.604  22.930  1.00  0.00     0.338 C 
ATOM     10  O   UNL A   1      33.956  25.092  22.195  1.00  0.00    -0.246 OA
BRANCH   9  11
ATOM     11  C   UNL A   1      32.246  24.830  23.863  1.00  0.00     0.087 C 
ATOM     12  C   UNL A   1      31.869  23.612  23.429  1.00  0.00     0.027 C 
ATOM     13  C   UNL A   1      32.585  24.972  25.317  1.00  0.00     0.316 C 
ATOM     14  C   UNL A   1      32.518  22.473  24.106  1.00  0.00     0.019 A 
ATOM     15  O   UNL A   1      33.487  23.917  25.769  1.00  0.00    -0.475 OA
ATOM     16  C   UNL A   1      32.318  21.163  23.672  1.00  0.00     0.032 A 
ATOM     17  C   UNL A   1      33.521  22.745  25.044  1.00  0.00     0.135 A 
ATOM     18  C   UNL A   1      33.174  20.156  24.113  1.00  0.00     0.042 A 
ATOM     19  C   UNL A   1      34.561  21.801  25.230  1.00  0.00     0.026 A 
ATOM     20  Cl  UNL A   1      32.900  18.525  23.646  1.00  0.00    -0.084 Cl
ATOM     21  C   UNL A   1      34.323  20.478  24.831  1.00  0.00     0.033 A 
BRANCH  13  22
ATOM     22  C   UNL A   1      31.345  25.305  26.157  1.00  0.00     0.430 C 
ATOM     23  F   UNL A   1      30.322  25.746  25.391  1.00  0.00    -0.167 F 
ATOM     24  F   UNL A   1      30.892  24.174  26.772  1.00  0.00    -0.167 F 
ATOM     25  F   UNL A   1      31.574  26.214  27.123  1.00  0.00    -0.167 F 
ENDBRANCH  13  22
BRANCH  19  26
ATOM     26  C   UNL A   1      35.974  22.198  25.435  1.00  0.00    -0.015 A 
ATOM     27  C   UNL A   1      36.260  23.535  25.819  1.00  0.00     0.010 A 
ATOM     28  C   UNL A   1      37.047  21.322  25.316  1.00  0.00     0.010 A 
ATOM     29  C   UNL A   1      37.550  23.949  26.174  1.00  0.00     0.021 A 
ATOM     30  C   UNL A   1      38.336  21.735  25.694  1.00  0.00     0.021 A 
ATOM     31  C   UNL A   1      38.582  23.029  26.150  1.00  0.00     0.041 A 
ATOM     32  Cl  UNL A   1      40.164  23.477  26.660  1.00  0.00    -0.084 Cl
ENDBRANCH  19  26
ENDBRANCH   9  11
ENDBRANCH   8   9
ENDBRANCH   7   8
ENDBRANCH   6   7
ENDBRANCH   5   6
ENDBRANCH   4   5
ENDBRANCH   3   4
ENDBRANCH   2   3
ENDBRANCH   1   2
BRANCH   1  33
ATOM     33  C   UNL A   1      34.977  33.036  29.050  1.00  0.00     0.188 C 
BRANCH  33  34
ATOM     34  O   UNL A   1      33.782  33.731  29.380  1.00  0.00    -0.376 OA
BRANCH  34  35
ATOM     35  C   UNL A   1      33.562  34.994  28.796  1.00  0.00     0.202 C 
BRANCH  35  36
ATOM     36  C   UNL A   1      32.916  36.027  29.735  1.00  0.00     0.261 C 
BRANCH  36  37
ATOM     37  O   UNL A   1      32.345  35.493  30.950  1.00  0.00    -0.460 OA
BRANCH  37  38
ATOM     38  C   UNL A   1      32.819  35.967  32.134  1.00  0.00     0.338 C 
ATOM     39  O   UNL A   1      32.348  36.866  32.793  1.00  0.00    -0.246 OA
BRANCH  38  40
ATOM     40  C   UNL A   1      33.968  35.107  32.584  1.00  0.00     0.060 A 
ATOM     41  C   UNL A   1      35.283  35.558  32.380  1.00  0.00     0.016 A 
ATOM     42  C   UNL A   1      33.774  33.881  33.228  1.00  0.00     0.016 A 
ATOM     43  C   UNL A   1      36.393  34.790  32.801  1.00  0.00     0.010 A 
ATOM     44  C   UNL A   1      34.880  33.117  33.648  1.00  0.00     0.010 A 
ATOM     45  C   UNL A   1      36.207  33.551  33.429  1.00  0.00    -0.014 A 
BRANCH  45  46
ATOM     46  C   UNL A   1      37.324  32.586  33.693  1.00  0.00     0.031 A 
ATOM     47  C   UNL A   1      38.255  32.890  34.836  1.00  0.00     0.074 A 
ATOM     48  C   UNL A   1      37.609  31.507  32.932  1.00  0.00     0.049 A 
ATOM     49  N   UNL A   1      39.380  32.308  35.163  1.00  0.00    -0.248 NA
ATOM     50  C   UNL A   1      37.840  33.969  35.745  1.00  0.00     0.031 C 
ATOM     51  C   UNL A   1      36.760  30.937  31.900  1.00  0.00     0.029 A 
ATOM     52  N   UNL A   1      38.745  30.723  32.874  1.00  0.00    -0.354 N 
ATOM     53  C   UNL A   1      39.790  32.927  36.334  1.00  0.00     0.074 A 
ATOM     54  C   UNL A   1      38.831  33.971  36.623  1.00  0.00     0.031 C 
ATOM     55  C   UNL A   1      37.455  30.028  31.192  1.00  0.00     0.029 A 
ATOM     56  C   UNL A   1      38.791  29.905  31.763  1.00  0.00     0.049 A 
ATOM     57  H   UNL A   1      39.452  30.746  33.558  1.00  0.00     0.167 HD
ATOM     58  C   UNL A   1      40.849  32.631  37.120  1.00  0.00     0.031 A 
ATOM     59  C   UNL A   1      39.791  29.156  31.252  1.00  0.00     0.031 A 
ATOM     60  C   UNL A   1      41.824  31.613  36.842  1.00  0.00     0.049 A 
ATOM     61  C   UNL A   1      41.076  29.005  32.025  1.00  0.00     0.074 A 
ATOM     62  C   UNL A   1      42.896  31.217  37.623  1.00  0.00     0.029 A 
ATOM     63  N   UNL A   1      41.867  30.853  35.687  1.00  0.00    -0.354 N 
ATOM     64  N   UNL A   1      41.400  29.516  33.185  1.00  0.00    -0.248 NA
ATOM     65  C   UNL A   1      42.109  28.126  31.451  1.00  0.00     0.031 C 
ATOM     66  C   UNL A   1      43.636  30.276  36.903  1.00  0.00     0.029 A 
ATOM     67  C   UNL A   1      42.987  30.037  35.704  1.00  0.00     0.049 A 
ATOM     68  H   UNL A   1      41.203  30.888  34.962  1.00  0.00     0.167 HD
ATOM     69  C   UNL A   1      42.632  28.963  33.514  1.00  0.00     0.074 A 
ATOM     70  C   UNL A   1      43.007  28.088  32.426  1.00  0.00     0.031 C 
ATOM     71  C   UNL A   1      43.366  29.151  34.635  1.00  0.00     0.031 A 
BRANCH  58  72
ATOM     72  C   UNL A   1      41.019  33.447  38.366  1.00  0.00    -0.014 A 
ATOM     73  C   UNL A   1      40.419  33.057  39.573  1.00  0.00     0.009 A 
ATOM     74  C   UNL A   1      41.819  34.598  38.337  1.00  0.00     0.009 A 
ATOM     75  C   UNL A   1      40.596  33.824  40.725  1.00  0.00     0.001 A 
ATOM     76  C   UNL A   1      42.015  35.347  39.496  1.00  0.00     0.001 A 
ATOM     77  C   UNL A   1      41.397  34.964  40.686  1.00  0.00     0.000 A 
ENDBRANCH  58  72
BRANCH  59  78
ATOM     78  C   UNL A   1      39.659  28.490  29.924  1.00  0.00    -0.014 A 
ATOM     79  C   UNL A   1      39.235  27.155  29.820  1.00  0.00     0.009 A 
ATOM     80  C   UNL A   1      40.082  29.154  28.761  1.00  0.00     0.009 A 
ATOM     81  C   UNL A   1      39.293  26.484  28.594  1.00  0.00     0.001 A 
ATOM     82  C   UNL A   1      40.116  28.488  27.531  1.00  0.00     0.001 A 
ATOM     83  C   UNL A   1      39.738  27.149  27.452  1.00  0.00     0.000 A 
ENDBRANCH  59  78
BRANCH  71  84
ATOM     84  C   UNL A   1      44.635  28.360  34.791  1.00  0.00    -0.014 A 
ATOM     85  C   UNL A   1      45.883  28.897  34.444  1.00  0.00     0.009 A 
ATOM     86  C   UNL A   1      44.585  27.079  35.367  1.00  0.00     0.009 A 
ATOM     87  C   UNL A   1      47.052  28.162  34.653  1.00  0.00     0.001 A 
ATOM     88  C   UNL A   1      45.756  26.360  35.606  1.00  0.00     0.001 A 
ATOM     89  C   UNL A   1      46.989  26.899  35.243  1.00  0.00     0.000 A 
ENDBRANCH  71  84
ENDBRANCH  45  46
ENDBRANCH  38  40
ENDBRANCH  37  38
ENDBRANCH  36  37
ENDBRANCH  35  36
ENDBRANCH  34  35
ENDBRANCH  33  34
ENDBRANCH   1  33
TORSDOF 22
ENDMDL
MODEL 2
REMARK VINA RESULT:     -10.3      1.573      5.815
REMARK SMILES O=C(OCCOCCOCCOCCOC(=O)c1ccc(-c2c3nc(c(-c4ccccc4)c4ccc([nH]4)c(-c4ccccc4)c4nc(c(-c5ccccc5)c5ccc2[nH]5)C=C4)C=C3)cc1)C1=Cc2cc(Cl)cc(-c3ccc(Cl)cc3)c2O[C@@H]1C(F)(F)F
REMARK SMILES IDX 10 1 9 2 8 3 7 4 6 5 5 6 4 7 3 8 2 9 1 10 66 11 67 12 83 13
REMARK SMILES IDX 68 14 82 15 69 16 81 17 70 18 73 19 71 20 72 21 84 22 85 23
REMARK SMILES IDX 86 24 87 25 74 26 75 27 80 28 76 29 79 30 77 31 78 32 11 33
REMARK SMILES IDX 12 34 13 35 14 36 15 37 16 38 17 39 18 40 19 41 65 42 20 43
REMARK SMILES IDX 64 44 21 45 22 46 23 47 58 48 24 49 63 50 57 51 59 52 25 53
REMARK SMILES IDX 62 54 56 55 55 56 26 58 48 59 33 60 47 61 34 62 37 63 46 64
REMARK SMILES IDX 60 65 35 66 36 67 45 69 61 70 38 71 27 72 28 73 32 74 29 75
REMARK SMILES IDX 31 76 30 77 49 78 50 79 54 80 51 81 53 82 52 83 39 84 40 85
REMARK SMILES IDX 44 86 41 87 43 88 42 89
REMARK H PARENT 59 57 37 68
REMARK Flexibility Score: inf
ROOT
ATOM      1  C   UNL A   1      33.623  29.065  26.961  1.00  0.00     0.188 C 
ENDROOT
BRANCH   1   2
ATOM      2  O   UNL A   1      34.006  28.709  25.635  1.00  0.00    -0.377 OA
BRANCH   2   3
ATOM      3  C   UNL A   1      32.941  28.290  24.782  1.00  0.00     0.188 C 
BRANCH   3   4
ATOM      4  C   UNL A   1      33.028  28.922  23.398  1.00  0.00     0.188 C 
BRANCH   4   5
ATOM      5  O   UNL A   1      32.545  28.073  22.379  1.00  0.00    -0.376 OA
BRANCH   5   6
ATOM      6  C   UNL A   1      32.921  26.710  22.411  1.00  0.00     0.202 C 
BRANCH   6   7
ATOM      7  C   UNL A   1      32.225  25.764  21.424  1.00  0.00     0.261 C 
BRANCH   7   8
ATOM      8  O   UNL A   1      32.806  24.449  21.391  1.00  0.00    -0.460 OA
BRANCH   8   9
ATOM      9  C   UNL A   1      33.463  24.063  22.518  1.00  0.00     0.338 C 
ATOM     10  O   UNL A   1      34.666  24.211  22.667  1.00  0.00    -0.246 OA
BRANCH   9  11
ATOM     11  C   UNL A   1      32.579  23.364  23.505  1.00  0.00     0.087 C 
ATOM     12  C   UNL A   1      32.153  22.140  23.138  1.00  0.00     0.027 C 
ATOM     13  C   UNL A   1      32.954  23.564  24.943  1.00  0.00     0.316 C 
ATOM     14  C   UNL A   1      32.780  21.014  23.857  1.00  0.00     0.019 A 
ATOM     15  O   UNL A   1      33.831  22.502  25.427  1.00  0.00    -0.475 OA
ATOM     16  C   UNL A   1      32.528  19.691  23.490  1.00  0.00     0.032 A 
ATOM     17  C   UNL A   1      33.811  21.296  24.759  1.00  0.00     0.135 A 
ATOM     18  C   UNL A   1      33.361  18.679  23.961  1.00  0.00     0.042 A 
ATOM     19  C   UNL A   1      34.825  20.328  24.969  1.00  0.00     0.026 A 
ATOM     20  Cl  UNL A   1      33.024  17.038  23.579  1.00  0.00    -0.084 Cl
ATOM     21  C   UNL A   1      34.535  18.996  24.639  1.00  0.00     0.033 A 
BRANCH  13  22
ATOM     22  C   UNL A   1      31.745  23.977  25.792  1.00  0.00     0.430 C 
ATOM     23  F   UNL A   1      31.143  22.909  26.363  1.00  0.00    -0.167 F 
ATOM     24  F   UNL A   1      32.157  24.770  26.823  1.00  0.00    -0.167 F 
ATOM     25  F   UNL A   1      30.816  24.672  25.108  1.00  0.00    -0.167 F 
ENDBRANCH  13  22
BRANCH  19  26
ATOM     26  C   UNL A   1      36.253  20.687  25.126  1.00  0.00    -0.015 A 
ATOM     27  C   UNL A   1      36.590  22.024  25.466  1.00  0.00     0.010 A 
ATOM     28  C   UNL A   1      37.296  19.776  25.001  1.00  0.00     0.010 A 
ATOM     29  C   UNL A   1      37.900  22.408  25.776  1.00  0.00     0.021 A 
ATOM     30  C   UNL A   1      38.607  20.159  25.334  1.00  0.00     0.021 A 
ATOM     31  C   UNL A   1      38.904  21.456  25.749  1.00  0.00     0.041 A 
ATOM     32  Cl  UNL A   1      40.511  21.869  26.204  1.00  0.00    -0.084 Cl
ENDBRANCH  19  26
ENDBRANCH   9  11
ENDBRANCH   8   9
ENDBRANCH   7   8
ENDBRANCH   6   7
ENDBRANCH   5   6
ENDBRANCH   4   5
ENDBRANCH   3   4
ENDBRANCH   2   3
ENDBRANCH   1   2
BRANCH   1  33
ATOM     33  C   UNL A   1      34.393  30.257  27.575  1.00  0.00     0.188 C 
BRANCH  33  34
ATOM     34  O   UNL A   1      33.752  31.456  27.990  1.00  0.00    -0.376 OA
BRANCH  34  35
ATOM     35  C   UNL A   1      32.963  32.150  27.051  1.00  0.00     0.202 C 
BRANCH  35  36
ATOM     36  C   UNL A   1      32.122  33.292  27.645  1.00  0.00     0.261 C 
BRANCH  36  37
ATOM     37  O   UNL A   1      32.740  34.598  27.622  1.00  0.00    -0.460 OA
BRANCH  37  38
ATOM     38  C   UNL A   1      33.093  35.154  28.813  1.00  0.00     0.338 C 
ATOM     39  O   UNL A   1      32.494  36.018  29.412  1.00  0.00    -0.246 OA
BRANCH  38  40
ATOM     40  C   UNL A   1      34.297  34.433  29.355  1.00  0.00     0.060 A 
ATOM     41  C   UNL A   1      34.176  33.697  30.546  1.00  0.00     0.016 A 
ATOM     42  C   UNL A   1      35.531  34.444  28.699  1.00  0.00     0.016 A 
ATOM     43  C   UNL A   1      35.276  32.991  31.083  1.00  0.00     0.010 A 
ATOM     44  C   UNL A   1      36.626  33.740  29.234  1.00  0.00     0.010 A 
ATOM     45  C   UNL A   1      36.522  33.014  30.442  1.00  0.00    -0.014 A 
BRANCH  45  46
ATOM     46  C   UNL A   1      37.780  32.485  31.065  1.00  0.00     0.031 A 
ATOM     47  C   UNL A   1      38.371  31.228  30.488  1.00  0.00     0.074 A 
ATOM     48  C   UNL A   1      38.377  33.005  32.160  1.00  0.00     0.049 A 
ATOM     49  N   UNL A   1      39.348  30.488  30.945  1.00  0.00    -0.248 NA
ATOM     50  C   UNL A   1      37.806  30.769  29.209  1.00  0.00     0.031 C 
ATOM     51  C   UNL A   1      38.081  34.290  32.768  1.00  0.00     0.029 A 
ATOM     52  N   UNL A   1      39.334  32.471  33.000  1.00  0.00    -0.354 N 
ATOM     53  C   UNL A   1      39.538  29.496  29.995  1.00  0.00     0.074 A 
ATOM     54  C   UNL A   1      38.534  29.689  28.971  1.00  0.00     0.031 C 
ATOM     55  C   UNL A   1      38.691  34.376  33.965  1.00  0.00     0.029 A 
ATOM     56  C   UNL A   1      39.474  33.166  34.184  1.00  0.00     0.049 A 
ATOM     57  H   UNL A   1      39.864  31.672  32.776  1.00  0.00     0.167 HD
ATOM     58  C   UNL A   1      40.485  28.532  29.957  1.00  0.00     0.031 A 
ATOM     59  C   UNL A   1      40.141  32.864  35.319  1.00  0.00     0.031 A 
ATOM     60  C   UNL A   1      41.478  28.310  30.971  1.00  0.00     0.049 A 
ATOM     61  C   UNL A   1      41.031  31.649  35.356  1.00  0.00     0.074 A 
ATOM     62  C   UNL A   1      42.508  27.386  30.974  1.00  0.00     0.029 A 
ATOM     63  N   UNL A   1      41.548  28.994  32.172  1.00  0.00    -0.354 N 
ATOM     64  N   UNL A   1      41.278  30.783  34.405  1.00  0.00    -0.248 NA
ATOM     65  C   UNL A   1      41.783  31.401  36.598  1.00  0.00     0.031 C 
ATOM     66  C   UNL A   1      43.151  27.454  32.213  1.00  0.00     0.029 A 
ATOM     67  C   UNL A   1      42.564  28.466  32.953  1.00  0.00     0.049 A 
ATOM     68  H   UNL A   1      40.964  29.741  32.433  1.00  0.00     0.167 HD
ATOM     69  C   UNL A   1      42.265  29.942  34.905  1.00  0.00     0.074 A 
ATOM     70  C   UNL A   1      42.562  30.387  36.248  1.00  0.00     0.031 C 
ATOM     71  C   UNL A   1      42.881  28.908  34.285  1.00  0.00     0.031 A 
BRANCH  58  72
ATOM     72  C   UNL A   1      40.477  27.620  28.768  1.00  0.00    -0.014 A 
ATOM     73  C   UNL A   1      39.778  26.403  28.794  1.00  0.00     0.009 A 
ATOM     74  C   UNL A   1      41.145  28.003  27.596  1.00  0.00     0.009 A 
ATOM     75  C   UNL A   1      39.774  25.571  27.674  1.00  0.00     0.001 A 
ATOM     76  C   UNL A   1      41.117  27.181  26.470  1.00  0.00     0.001 A 
ATOM     77  C   UNL A   1      40.438  25.964  26.513  1.00  0.00     0.000 A 
ENDBRANCH  58  72
BRANCH  59  78
ATOM     78  C   UNL A   1      39.997  33.698  36.546  1.00  0.00    -0.014 A 
ATOM     79  C   UNL A   1      38.870  33.581  37.377  1.00  0.00     0.009 A 
ATOM     80  C   UNL A   1      40.932  34.709  36.821  1.00  0.00     0.009 A 
ATOM     81  C   UNL A   1      38.654  34.491  38.416  1.00  0.00     0.001 A 
ATOM     82  C   UNL A   1      40.726  35.604  37.877  1.00  0.00     0.001 A 
ATOM     83  C   UNL A   1      39.579  35.505  38.662  1.00  0.00     0.000 A 
ENDBRANCH  59  78
BRANCH  71  84
ATOM     84  C   UNL A   1      43.989  28.203  35.017  1.00  0.00    -0.014 A 
ATOM     85  C   UNL A   1      45.290  28.727  35.061  1.00  0.00     0.009 A 
ATOM     86  C   UNL A   1      43.706  27.031  35.737  1.00  0.00     0.009 A 
ATOM     87  C   UNL A   1      46.287  28.082  35.797  1.00  0.00     0.001 A 
ATOM     88  C   UNL A   1      44.695  26.407  36.498  1.00  0.00     0.001 A 
ATOM     89  C   UNL A   1      45.987  26.929  36.522  1.00  0.00     0.000 A 
ENDBRANCH  71  84
ENDBRANCH  45  46
ENDBRANCH  38  40
ENDBRANCH  37  38
ENDBRANCH  36  37
ENDBRANCH  35  36
ENDBRANCH  34  35
ENDBRANCH  33  34
ENDBRANCH   1  33
TORSDOF 22
ENDMDL
MODEL 3
REMARK VINA RESULT:      -9.7      3.735      6.832
REMARK SMILES O=C(OCCOCCOCCOCCOC(=O)c1ccc(-c2c3nc(c(-c4ccccc4)c4ccc([nH]4)c(-c4ccccc4)c4nc(c(-c5ccccc5)c5ccc2[nH]5)C=C4)C=C3)cc1)C1=Cc2cc(Cl)cc(-c3ccc(Cl)cc3)c2O[C@@H]1C(F)(F)F
REMARK SMILES IDX 10 1 9 2 8 3 7 4 6 5 5 6 4 7 3 8 2 9 1 10 66 11 67 12 83 13
REMARK SMILES IDX 68 14 82 15 69 16 81 17 70 18 73 19 71 20 72 21 84 22 85 23
REMARK SMILES IDX 86 24 87 25 74 26 75 27 80 28 76 29 79 30 77 31 78 32 11 33
REMARK SMILES IDX 12 34 13 35 14 36 15 37 16 38 17 39 18 40 19 41 65 42 20 43
REMARK SMILES IDX 64 44 21 45 22 46 23 47 58 48 24 49 63 50 57 51 59 52 25 53
REMARK SMILES IDX 62 54 56 55 55 56 26 58 48 59 33 60 47 61 34 62 37 63 46 64
REMARK SMILES IDX 60 65 35 66 36 67 45 69 61 70 38 71 27 72 28 73 32 74 29 75
REMARK SMILES IDX 31 76 30 77 49 78 50 79 54 80 51 81 53 82 52 83 39 84 40 85
REMARK SMILES IDX 44 86 41 87 43 88 42 89
REMARK H PARENT 59 57 37 68
REMARK Flexibility Score: inf
ROOT
ATOM      1  C   UNL A   1      34.682  29.899  27.604  1.00  0.00     0.188 C 
ENDROOT
BRANCH   1   2
ATOM      2  O   UNL A   1      34.309  29.312  26.359  1.00  0.00    -0.377 OA
BRANCH   2   3
ATOM      3  C   UNL A   1      33.455  28.172  26.451  1.00  0.00     0.188 C 
BRANCH   3   4
ATOM      4  C   UNL A   1      32.447  28.112  25.310  1.00  0.00     0.188 C 
BRANCH   4   5
ATOM      5  O   UNL A   1      32.530  26.913  24.570  1.00  0.00    -0.376 OA
BRANCH   5   6
ATOM      6  C   UNL A   1      33.652  26.723  23.730  1.00  0.00     0.202 C 
BRANCH   6   7
ATOM      7  C   UNL A   1      33.383  26.276  22.287  1.00  0.00     0.261 C 
BRANCH   7   8
ATOM      8  O   UNL A   1      32.465  25.173  22.196  1.00  0.00    -0.460 OA
BRANCH   8   9
ATOM      9  C   UNL A   1      32.982  23.946  22.481  1.00  0.00     0.338 C 
ATOM     10  O   UNL A   1      33.985  23.509  21.940  1.00  0.00    -0.246 OA
BRANCH   9  11
ATOM     11  C   UNL A   1      32.147  23.166  23.450  1.00  0.00     0.087 C 
ATOM     12  C   UNL A   1      31.834  21.913  23.069  1.00  0.00     0.027 C 
ATOM     13  C   UNL A   1      32.483  23.386  24.895  1.00  0.00     0.316 C 
ATOM     14  C   UNL A   1      32.546  20.839  23.789  1.00  0.00     0.019 A 
ATOM     15  O   UNL A   1      33.442  22.400  25.385  1.00  0.00    -0.475 OA
ATOM     16  C   UNL A   1      32.414  19.503  23.409  1.00  0.00     0.032 A 
ATOM     17  C   UNL A   1      33.536  21.203  24.708  1.00  0.00     0.135 A 
ATOM     18  C   UNL A   1      33.325  18.563  23.886  1.00  0.00     0.042 A 
ATOM     19  C   UNL A   1      34.626  20.324  24.927  1.00  0.00     0.026 A 
ATOM     20  Cl  UNL A   1      33.137  16.902  23.488  1.00  0.00    -0.084 Cl
ATOM     21  C   UNL A   1      34.458  18.975  24.584  1.00  0.00     0.033 A 
BRANCH  13  22
ATOM     22  C   UNL A   1      31.230  23.687  25.728  1.00  0.00     0.430 C 
ATOM     23  F   UNL A   1      30.463  24.641  25.155  1.00  0.00    -0.167 F 
ATOM     24  F   UNL A   1      30.449  22.570  25.799  1.00  0.00    -0.167 F 
ATOM     25  F   UNL A   1      31.498  24.060  26.993  1.00  0.00    -0.167 F 
ENDBRANCH  13  22
BRANCH  19  26
ATOM     26  C   UNL A   1      36.016  20.804  25.107  1.00  0.00    -0.015 A 
ATOM     27  C   UNL A   1      36.228  22.149  25.512  1.00  0.00     0.010 A 
ATOM     28  C   UNL A   1      37.138  19.999  24.945  1.00  0.00     0.010 A 
ATOM     29  C   UNL A   1      37.499  22.635  25.847  1.00  0.00     0.021 A 
ATOM     30  C   UNL A   1      38.408  20.484  25.302  1.00  0.00     0.021 A 
ATOM     31  C   UNL A   1      38.585  21.781  25.779  1.00  0.00     0.041 A 
ATOM     32  Cl  UNL A   1      40.148  22.317  26.261  1.00  0.00    -0.084 Cl
ENDBRANCH  19  26
ENDBRANCH   9  11
ENDBRANCH   8   9
ENDBRANCH   7   8
ENDBRANCH   6   7
ENDBRANCH   5   6
ENDBRANCH   4   5
ENDBRANCH   3   4
ENDBRANCH   2   3
ENDBRANCH   1   2
BRANCH   1  33
ATOM     33  C   UNL A   1      34.469  31.427  27.707  1.00  0.00     0.188 C 
BRANCH  33  34
ATOM     34  O   UNL A   1      35.542  32.345  27.858  1.00  0.00    -0.376 OA
BRANCH  34  35
ATOM     35  C   UNL A   1      35.803  32.861  29.143  1.00  0.00     0.202 C 
BRANCH  35  36
ATOM     36  C   UNL A   1      34.546  33.175  29.972  1.00  0.00     0.261 C 
BRANCH  36  37
ATOM     37  O   UNL A   1      34.492  32.561  31.279  1.00  0.00    -0.460 OA
BRANCH  37  38
ATOM     38  C   UNL A   1      35.461  31.660  31.597  1.00  0.00     0.338 C 
ATOM     39  O   UNL A   1      35.795  30.697  30.943  1.00  0.00    -0.246 OA
BRANCH  38  40
ATOM     40  C   UNL A   1      36.165  32.115  32.845  1.00  0.00     0.060 A 
ATOM     41  C   UNL A   1      35.771  33.318  33.455  1.00  0.00     0.016 A 
ATOM     42  C   UNL A   1      37.183  31.366  33.442  1.00  0.00     0.016 A 
ATOM     43  C   UNL A   1      36.394  33.776  34.638  1.00  0.00     0.010 A 
ATOM     44  C   UNL A   1      37.802  31.822  34.621  1.00  0.00     0.010 A 
ATOM     45  C   UNL A   1      37.429  33.041  35.231  1.00  0.00    -0.014 A 
BRANCH  45  46
ATOM     46  C   UNL A   1      38.282  33.571  36.345  1.00  0.00     0.031 A 
ATOM     47  C   UNL A   1      39.546  34.296  35.972  1.00  0.00     0.074 A 
ATOM     48  C   UNL A   1      38.046  33.374  37.660  1.00  0.00     0.049 A 
ATOM     49  N   UNL A   1      40.525  34.700  36.740  1.00  0.00    -0.248 NA
ATOM     50  C   UNL A   1      39.707  34.640  34.551  1.00  0.00     0.031 C 
ATOM     51  C   UNL A   1      36.819  32.858  38.242  1.00  0.00     0.029 A 
ATOM     52  N   UNL A   1      38.871  33.535  38.756  1.00  0.00    -0.354 N 
ATOM     53  C   UNL A   1      41.400  35.375  35.903  1.00  0.00     0.074 A 
ATOM     54  C   UNL A   1      40.872  35.269  34.560  1.00  0.00     0.031 C 
ATOM     55  C   UNL A   1      37.019  32.572  39.542  1.00  0.00     0.029 A 
ATOM     56  C   UNL A   1      38.382  32.943  39.903  1.00  0.00     0.049 A 
ATOM     57  H   UNL A   1      39.725  34.024  38.721  1.00  0.00     0.167 HD
ATOM     58  C   UNL A   1      42.524  36.054  36.224  1.00  0.00     0.031 A 
ATOM     59  C   UNL A   1      38.961  32.712  41.100  1.00  0.00     0.031 A 
ATOM     60  C   UNL A   1      43.077  36.155  37.546  1.00  0.00     0.049 A 
ATOM     61  C   UNL A   1      40.328  33.280  41.386  1.00  0.00     0.074 A 
ATOM     62  C   UNL A   1      44.185  36.875  37.958  1.00  0.00     0.029 A 
ATOM     63  N   UNL A   1      42.587  35.498  38.661  1.00  0.00    -0.354 N 
ATOM     64  N   UNL A   1      41.092  34.008  40.612  1.00  0.00    -0.248 NA
ATOM     65  C   UNL A   1      40.886  33.050  42.729  1.00  0.00     0.031 C 
ATOM     66  C   UNL A   1      44.415  36.587  39.307  1.00  0.00     0.029 A 
ATOM     67  C   UNL A   1      43.411  35.743  39.748  1.00  0.00     0.049 A 
ATOM     68  H   UNL A   1      41.777  34.941  38.679  1.00  0.00     0.167 HD
ATOM     69  C   UNL A   1      42.177  34.385  41.395  1.00  0.00     0.074 A 
ATOM     70  C   UNL A   1      41.983  33.794  42.700  1.00  0.00     0.031 C 
ATOM     71  C   UNL A   1      43.224  35.174  41.057  1.00  0.00     0.031 A 
BRANCH  58  72
ATOM     72  C   UNL A   1      43.250  36.734  35.103  1.00  0.00    -0.014 A 
ATOM     73  C   UNL A   1      44.276  36.080  34.404  1.00  0.00     0.009 A 
ATOM     74  C   UNL A   1      42.874  38.029  34.719  1.00  0.00     0.009 A 
ATOM     75  C   UNL A   1      44.934  36.725  33.357  1.00  0.00     0.001 A 
ATOM     76  C   UNL A   1      43.516  38.661  33.654  1.00  0.00     0.001 A 
ATOM     77  C   UNL A   1      44.550  38.012  32.980  1.00  0.00     0.000 A 
ENDBRANCH  58  72
BRANCH  59  78
ATOM     78  C   UNL A   1      38.286  31.884  42.140  1.00  0.00    -0.014 A 
ATOM     79  C   UNL A   1      37.458  32.472  43.111  1.00  0.00     0.009 A 
ATOM     80  C   UNL A   1      38.572  30.513  42.242  1.00  0.00     0.009 A 
ATOM     81  C   UNL A   1      36.981  31.719  44.189  1.00  0.00     0.001 A 
ATOM     82  C   UNL A   1      38.074  29.756  43.308  1.00  0.00     0.001 A 
ATOM     83  C   UNL A   1      37.293  30.363  44.289  1.00  0.00     0.000 A 
ENDBRANCH  59  78
BRANCH  71  84
ATOM     84  C   UNL A   1      44.231  35.507  42.122  1.00  0.00    -0.014 A 
ATOM     85  C   UNL A   1      45.383  34.729  42.312  1.00  0.00     0.009 A 
ATOM     86  C   UNL A   1      44.058  36.664  42.899  1.00  0.00     0.009 A 
ATOM     87  C   UNL A   1      46.332  35.095  43.270  1.00  0.00     0.001 A 
ATOM     88  C   UNL A   1      45.023  37.045  43.832  1.00  0.00     0.001 A 
ATOM     89  C   UNL A   1      46.156  36.257  44.023  1.00  0.00     0.000 A 
ENDBRANCH  71  84
ENDBRANCH  45  46
ENDBRANCH  38  40
ENDBRANCH  37  38
ENDBRANCH  36  37
ENDBRANCH  35  36
ENDBRANCH  34  35
ENDBRANCH  33  34
ENDBRANCH   1  33
TORSDOF 22
ENDMDL
