MODEL 1
REMARK VINA RESULT:      -8.7      0.000      0.000
REMARK SMILES C[C@H]1[C@H](C)CC[C@@]2(C(=O)OCCOCCOCCOCCOC(=O)c3ccc(-c4c5nc(c(-c6ccccc6)c6ccc([nH]6)c(-c6ccccc6)c6nc(c(-c7ccccc7)c7ccc4[nH]7)C=C6)C=C5)cc3)CC[C@@]3(C)C(=CC[C@@H]4[C@@]5(C)CC[C@H](O)C(C)(C)[C@@H]5CC[C@]43C)[C@H]12
REMARK SMILES IDX 17 1 16 2 15 3 14 4 13 5 12 6 11 7 10 8 8 9 9 10 7 11 1 12
REMARK SMILES IDX 2 13 3 14 95 15 4 16 5 17 77 18 6 19 73 20 75 21 78 22 74 23
REMARK SMILES IDX 76 24 93 25 79 26 80 27 92 28 94 29 81 30 91 31 82 32 83 33
REMARK SMILES IDX 90 34 84 35 87 36 85 37 88 38 89 39 86 40 18 42 19 43 20 44
REMARK SMILES IDX 21 45 22 46 23 47 24 48 25 49 26 50 72 51 27 52 71 53 28 54
REMARK SMILES IDX 29 55 30 56 65 57 31 58 70 59 64 60 66 61 32 62 69 63 63 64
REMARK SMILES IDX 62 65 33 67 55 68 40 69 54 70 41 71 44 72 53 73 67 74 42 75
REMARK SMILES IDX 43 76 52 78 68 79 45 80 34 81 35 82 39 83 36 84 38 85 37 86
REMARK SMILES IDX 56 87 57 88 61 89 58 90 60 91 59 92 46 93 47 94 51 95 48 96
REMARK SMILES IDX 50 97 49 98
REMARK H PARENT 86 41 66 66 44 77
REMARK Flexibility Score: inf
ROOT
ATOM      1  C   UNL A   1      34.552  33.453  27.929  1.00  0.00     0.188 C 
ENDROOT
BRANCH   1   2
ATOM      2  O   UNL A   1      35.867  33.001  27.707  1.00  0.00    -0.377 OA
BRANCH   2   3
ATOM      3  C   UNL A   1      36.739  32.925  28.820  1.00  0.00     0.188 C 
BRANCH   3   4
ATOM      4  C   UNL A   1      37.040  31.579  29.525  1.00  0.00     0.188 C 
BRANCH   4   5
ATOM      5  O   UNL A   1      38.331  31.007  29.352  1.00  0.00    -0.376 OA
BRANCH   5   6
ATOM      6  C   UNL A   1      38.433  29.731  28.763  1.00  0.00     0.202 C 
BRANCH   6   7
ATOM      7  C   UNL A   1      39.739  29.363  28.088  1.00  0.00     0.261 C 
BRANCH   7   8
ATOM      8  O   UNL A   1      40.857  29.041  28.982  1.00  0.00    -0.463 OA
BRANCH   8   9
ATOM      9  C   UNL A   1      41.301  29.214  30.252  1.00  0.00     0.312 C 
ATOM     10  O   UNL A   1      41.051  28.535  31.238  1.00  0.00    -0.252 OA
BRANCH   9  11
ATOM     11  C   UNL A   1      42.333  30.365  30.312  1.00  0.00     0.075 C 
ATOM     12  C   UNL A   1      43.676  30.175  34.053  1.00  0.00     0.008 C 
ATOM     13  C   UNL A   1      42.708  30.229  32.873  1.00  0.00    -0.003 C 
ATOM     14  C   UNL A   1      41.683  31.422  33.034  1.00  0.00    -0.011 C 
ATOM     15  C   UNL A   1      43.405  30.069  31.412  1.00  0.00     0.036 C 
ATOM     16  C   UNL A   1      40.757  31.283  34.260  1.00  0.00     0.008 C 
ATOM     17  C   UNL A   1      40.742  31.602  31.843  1.00  0.00     0.005 C 
ATOM     18  C   UNL A   1      44.082  28.695  30.888  1.00  0.00    -0.063 C 
ATOM     19  C   UNL A   1      41.511  31.645  30.550  1.00  0.00     0.020 C 
ATOM     20  C   UNL A   1      43.031  30.586  28.955  1.00  0.00     0.020 C 
ATOM     21  C   UNL A   1      44.712  28.669  29.427  1.00  0.00    -0.006 C 
ATOM     22  C   UNL A   1      43.887  27.516  31.522  1.00  0.00    -0.027 C 
ATOM     23  C   UNL A   1      43.751  29.362  28.424  1.00  0.00     0.013 C 
ATOM     24  C   UNL A   1      46.015  29.499  29.490  1.00  0.00     0.017 C 
ATOM     25  C   UNL A   1      45.034  27.134  28.867  1.00  0.00    -0.020 C 
ATOM     26  C   UNL A   1      43.878  26.171  30.815  1.00  0.00     0.032 C 
ATOM     27  C   UNL A   1      43.792  26.271  29.272  1.00  0.00     0.006 C 
ATOM     28  C   UNL A   1      45.259  27.024  27.335  1.00  0.00     0.008 C 
ATOM     29  C   UNL A   1      46.347  26.594  29.513  1.00  0.00     0.012 C 
ATOM     30  C   UNL A   1      43.450  24.897  28.483  1.00  0.00    -0.025 C 
ATOM     31  C   UNL A   1      45.292  25.563  26.826  1.00  0.00     0.005 C 
ATOM     32  C   UNL A   1      43.975  23.698  29.299  1.00  0.00     0.012 C 
ATOM     33  C   UNL A   1      41.899  24.724  28.376  1.00  0.00     0.010 C 
ATOM     34  C   UNL A   1      43.900  24.943  26.978  1.00  0.00     0.003 C 
ATOM     35  C   UNL A   1      41.392  23.556  27.521  1.00  0.00     0.033 C 
ATOM     36  C   UNL A   1      43.579  23.639  26.127  1.00  0.00    -0.006 C 
ATOM     37  C   UNL A   1      42.026  23.471  26.131  1.00  0.00     0.120 C 
ATOM     38  C   UNL A   1      44.281  22.345  26.594  1.00  0.00     0.014 C 
ATOM     39  C   UNL A   1      44.019  23.821  24.651  1.00  0.00     0.014 C 
BRANCH  37  40
ATOM     40  O   UNL A   1      41.626  22.253  25.498  1.00  0.00    -0.393 OA
ATOM     41  H   UNL A   1      41.143  21.702  26.134  1.00  0.00     0.210 HD
ENDBRANCH  37  40
ENDBRANCH   9  11
ENDBRANCH   8   9
ENDBRANCH   7   8
ENDBRANCH   6   7
ENDBRANCH   5   6
ENDBRANCH   4   5
ENDBRANCH   3   4
ENDBRANCH   2   3
ENDBRANCH   1   2
BRANCH   1  42
ATOM     42  C   UNL A   1      34.459  34.936  28.315  1.00  0.00     0.188 C 
BRANCH  42  43
ATOM     43  O   UNL A   1      33.194  35.309  28.821  1.00  0.00    -0.376 OA
BRANCH  43  44
ATOM     44  C   UNL A   1      33.085  36.133  29.972  1.00  0.00     0.202 C 
BRANCH  44  45
ATOM     45  C   UNL A   1      33.277  35.650  31.426  1.00  0.00     0.261 C 
BRANCH  45  46
ATOM     46  O   UNL A   1      34.524  35.055  31.815  1.00  0.00    -0.460 OA
BRANCH  46  47
ATOM     47  C   UNL A   1      34.598  33.740  32.081  1.00  0.00     0.338 C 
ATOM     48  O   UNL A   1      34.223  32.821  31.371  1.00  0.00    -0.246 OA
BRANCH  47  49
ATOM     49  C   UNL A   1      35.499  33.612  33.260  1.00  0.00     0.060 A 
ATOM     50  C   UNL A   1      35.287  34.471  34.354  1.00  0.00     0.016 A 
ATOM     51  C   UNL A   1      36.387  32.533  33.382  1.00  0.00     0.016 A 
ATOM     52  C   UNL A   1      35.952  34.252  35.561  1.00  0.00     0.010 A 
ATOM     53  C   UNL A   1      37.116  32.362  34.563  1.00  0.00     0.010 A 
ATOM     54  C   UNL A   1      36.930  33.250  35.637  1.00  0.00    -0.014 A 
BRANCH  54  55
ATOM     55  C   UNL A   1      38.027  33.442  36.613  1.00  0.00     0.031 A 
ATOM     56  C   UNL A   1      39.240  34.165  36.084  1.00  0.00     0.074 A 
ATOM     57  C   UNL A   1      37.968  33.038  37.893  1.00  0.00     0.049 A 
ATOM     58  N   UNL A   1      40.347  34.498  36.691  1.00  0.00    -0.248 NA
ATOM     59  C   UNL A   1      39.186  34.581  34.668  1.00  0.00     0.031 C 
ATOM     60  C   UNL A   1      36.834  32.379  38.536  1.00  0.00     0.029 A 
ATOM     61  N   UNL A   1      38.911  33.130  38.886  1.00  0.00    -0.354 N 
ATOM     62  C   UNL A   1      41.101  35.171  35.736  1.00  0.00     0.074 A 
ATOM     63  C   UNL A   1      40.347  35.187  34.510  1.00  0.00     0.031 C 
ATOM     64  C   UNL A   1      37.155  32.112  39.818  1.00  0.00     0.029 A 
ATOM     65  C   UNL A   1      38.524  32.559  40.074  1.00  0.00     0.049 A 
ATOM     66  H   UNL A   1      39.785  33.566  38.759  1.00  0.00     0.167 HD
ATOM     67  C   UNL A   1      42.326  35.725  35.860  1.00  0.00     0.031 A 
ATOM     68  C   UNL A   1      39.216  32.402  41.220  1.00  0.00     0.031 A 
ATOM     69  C   UNL A   1      43.111  35.647  37.054  1.00  0.00     0.049 A 
ATOM     70  C   UNL A   1      40.628  32.927  41.302  1.00  0.00     0.074 A 
ATOM     71  C   UNL A   1      44.380  36.142  37.284  1.00  0.00     0.029 A 
ATOM     72  N   UNL A   1      42.703  35.008  38.213  1.00  0.00    -0.354 N 
ATOM     73  N   UNL A   1      41.323  33.585  40.402  1.00  0.00    -0.248 NA
ATOM     74  C   UNL A   1      41.353  32.689  42.559  1.00  0.00     0.031 C 
ATOM     75  C   UNL A   1      44.763  35.752  38.570  1.00  0.00     0.029 A 
ATOM     76  C   UNL A   1      43.706  35.071  39.159  1.00  0.00     0.049 A 
ATOM     77  H   UNL A   1      41.828  34.573  38.342  1.00  0.00     0.167 HD
ATOM     78  C   UNL A   1      42.549  33.864  40.996  1.00  0.00     0.074 A 
ATOM     79  C   UNL A   1      42.499  33.317  42.335  1.00  0.00     0.031 C 
ATOM     80  C   UNL A   1      43.623  34.517  40.484  1.00  0.00     0.031 A 
BRANCH  67  81
ATOM     81  C   UNL A   1      42.891  36.395  34.644  1.00  0.00    -0.014 A 
ATOM     82  C   UNL A   1      42.873  37.794  34.508  1.00  0.00     0.009 A 
ATOM     83  C   UNL A   1      43.422  35.616  33.606  1.00  0.00     0.009 A 
ATOM     84  C   UNL A   1      43.349  38.395  33.341  1.00  0.00     0.001 A 
ATOM     85  C   UNL A   1      43.921  36.221  32.453  1.00  0.00     0.001 A 
ATOM     86  C   UNL A   1      43.878  37.608  32.318  1.00  0.00     0.000 A 
ENDBRANCH  67  81
BRANCH  68  87
ATOM     87  C   UNL A   1      38.609  31.693  42.381  1.00  0.00    -0.014 A 
ATOM     88  C   UNL A   1      38.675  30.295  42.487  1.00  0.00     0.009 A 
ATOM     89  C   UNL A   1      37.914  32.412  43.368  1.00  0.00     0.009 A 
ATOM     90  C   UNL A   1      38.037  29.631  43.540  1.00  0.00     0.001 A 
ATOM     91  C   UNL A   1      37.300  31.748  44.433  1.00  0.00     0.001 A 
ATOM     92  C   UNL A   1      37.354  30.357  44.513  1.00  0.00     0.000 A 
ENDBRANCH  68  87
BRANCH  80  93
ATOM     93  C   UNL A   1      44.809  34.711  41.385  1.00  0.00    -0.014 A 
ATOM     94  C   UNL A   1      45.865  33.790  41.411  1.00  0.00     0.009 A 
ATOM     95  C   UNL A   1      44.895  35.873  42.169  1.00  0.00     0.009 A 
ATOM     96  C   UNL A   1      46.971  34.012  42.234  1.00  0.00     0.001 A 
ATOM     97  C   UNL A   1      46.016  36.108  42.965  1.00  0.00     0.001 A 
ATOM     98  C   UNL A   1      47.048  35.173  43.004  1.00  0.00     0.000 A 
ENDBRANCH  80  93
ENDBRANCH  54  55
ENDBRANCH  47  49
ENDBRANCH  46  47
ENDBRANCH  45  46
ENDBRANCH  44  45
ENDBRANCH  43  44
ENDBRANCH  42  43
ENDBRANCH   1  42
TORSDOF 21
ENDMDL
MODEL 2
REMARK VINA RESULT:      -8.5      5.971     11.861
REMARK SMILES C[C@H]1[C@H](C)CC[C@@]2(C(=O)OCCOCCOCCOCCOC(=O)c3ccc(-c4c5nc(c(-c6ccccc6)c6ccc([nH]6)c(-c6ccccc6)c6nc(c(-c7ccccc7)c7ccc4[nH]7)C=C6)C=C5)cc3)CC[C@@]3(C)C(=CC[C@@H]4[C@@]5(C)CC[C@H](O)C(C)(C)[C@@H]5CC[C@]43C)[C@H]12
REMARK SMILES IDX 17 1 16 2 15 3 14 4 13 5 12 6 11 7 10 8 8 9 9 10 7 11 1 12
REMARK SMILES IDX 2 13 3 14 95 15 4 16 5 17 77 18 6 19 73 20 75 21 78 22 74 23
REMARK SMILES IDX 76 24 93 25 79 26 80 27 92 28 94 29 81 30 91 31 82 32 83 33
REMARK SMILES IDX 90 34 84 35 87 36 85 37 88 38 89 39 86 40 18 42 19 43 20 44
REMARK SMILES IDX 21 45 22 46 23 47 24 48 25 49 26 50 72 51 27 52 71 53 28 54
REMARK SMILES IDX 29 55 30 56 65 57 31 58 70 59 64 60 66 61 32 62 69 63 63 64
REMARK SMILES IDX 62 65 33 67 55 68 40 69 54 70 41 71 44 72 53 73 67 74 42 75
REMARK SMILES IDX 43 76 52 78 68 79 45 80 34 81 35 82 39 83 36 84 38 85 37 86
REMARK SMILES IDX 56 87 57 88 61 89 58 90 60 91 59 92 46 93 47 94 51 95 48 96
REMARK SMILES IDX 50 97 49 98
REMARK H PARENT 86 41 66 66 44 77
REMARK Flexibility Score: inf
ROOT
ATOM      1  C   UNL A   1      42.686  37.358  27.173  1.00  0.00     0.188 C 
ENDROOT
BRANCH   1   2
ATOM      2  O   UNL A   1      43.848  36.564  27.178  1.00  0.00    -0.377 OA
BRANCH   2   3
ATOM      3  C   UNL A   1      43.764  35.269  27.744  1.00  0.00     0.188 C 
BRANCH   3   4
ATOM      4  C   UNL A   1      44.494  34.058  27.113  1.00  0.00     0.188 C 
BRANCH   4   5
ATOM      5  O   UNL A   1      43.923  32.766  27.288  1.00  0.00    -0.376 OA
BRANCH   5   6
ATOM      6  C   UNL A   1      44.753  31.711  27.718  1.00  0.00     0.202 C 
BRANCH   6   7
ATOM      7  C   UNL A   1      45.284  30.753  26.671  1.00  0.00     0.261 C 
BRANCH   7   8
ATOM      8  O   UNL A   1      44.621  29.446  26.601  1.00  0.00    -0.463 OA
BRANCH   8   9
ATOM      9  C   UNL A   1      44.662  28.192  27.116  1.00  0.00     0.312 C 
ATOM     10  O   UNL A   1      44.964  27.852  28.251  1.00  0.00    -0.252 OA
BRANCH   9  11
ATOM     11  C   UNL A   1      44.125  27.167  26.089  1.00  0.00     0.075 C 
ATOM     12  C   UNL A   1      44.775  23.674  27.879  1.00  0.00     0.008 C 
ATOM     13  C   UNL A   1      45.022  25.077  27.330  1.00  0.00    -0.003 C 
ATOM     14  C   UNL A   1      46.263  25.092  26.350  1.00  0.00    -0.011 C 
ATOM     15  C   UNL A   1      43.688  25.854  26.817  1.00  0.00     0.036 C 
ATOM     16  C   UNL A   1      47.598  24.726  27.033  1.00  0.00     0.008 C 
ATOM     17  C   UNL A   1      46.517  26.445  25.684  1.00  0.00     0.005 C 
ATOM     18  C   UNL A   1      42.515  26.368  27.807  1.00  0.00    -0.063 C 
ATOM     19  C   UNL A   1      45.256  26.982  25.061  1.00  0.00     0.020 C 
ATOM     20  C   UNL A   1      42.939  27.729  25.280  1.00  0.00     0.020 C 
ATOM     21  C   UNL A   1      41.272  27.134  27.174  1.00  0.00    -0.006 C 
ATOM     22  C   UNL A   1      42.684  26.419  29.148  1.00  0.00    -0.027 C 
ATOM     23  C   UNL A   1      41.765  28.171  26.130  1.00  0.00     0.013 C 
ATOM     24  C   UNL A   1      40.428  26.073  26.431  1.00  0.00     0.017 C 
ATOM     25  C   UNL A   1      40.336  27.928  28.300  1.00  0.00    -0.020 C 
ATOM     26  C   UNL A   1      42.001  27.438  30.045  1.00  0.00     0.032 C 
ATOM     27  C   UNL A   1      41.348  28.614  29.278  1.00  0.00     0.006 C 
ATOM     28  C   UNL A   1      39.374  29.000  27.720  1.00  0.00     0.008 C 
ATOM     29  C   UNL A   1      39.415  26.912  29.043  1.00  0.00     0.012 C 
ATOM     30  C   UNL A   1      40.896  29.890  30.171  1.00  0.00    -0.025 C 
ATOM     31  C   UNL A   1      38.724  29.889  28.807  1.00  0.00     0.005 C 
ATOM     32  C   UNL A   1      40.548  29.414  31.595  1.00  0.00     0.012 C 
ATOM     33  C   UNL A   1      42.095  30.885  30.310  1.00  0.00     0.010 C 
ATOM     34  C   UNL A   1      39.801  30.761  29.458  1.00  0.00     0.003 C 
ATOM     35  C   UNL A   1      41.802  32.227  30.993  1.00  0.00     0.033 C 
ATOM     36  C   UNL A   1      39.319  32.047  30.261  1.00  0.00    -0.006 C 
ATOM     37  C   UNL A   1      40.575  32.958  30.445  1.00  0.00     0.120 C 
ATOM     38  C   UNL A   1      38.628  31.771  31.614  1.00  0.00     0.014 C 
ATOM     39  C   UNL A   1      38.280  32.854  29.439  1.00  0.00     0.014 C 
BRANCH  37  40
ATOM     40  O   UNL A   1      40.288  34.091  31.267  1.00  0.00    -0.393 OA
ATOM     41  H   UNL A   1      41.117  34.456  31.615  1.00  0.00     0.210 HD
ENDBRANCH  37  40
ENDBRANCH   9  11
ENDBRANCH   8   9
ENDBRANCH   7   8
ENDBRANCH   6   7
ENDBRANCH   5   6
ENDBRANCH   4   5
ENDBRANCH   3   4
ENDBRANCH   2   3
ENDBRANCH   1   2
BRANCH   1  42
ATOM     42  C   UNL A   1      42.864  38.728  27.842  1.00  0.00     0.188 C 
BRANCH  42  43
ATOM     43  O   UNL A   1      43.133  38.650  29.227  1.00  0.00    -0.376 OA
BRANCH  43  44
ATOM     44  C   UNL A   1      43.869  39.670  29.883  1.00  0.00     0.202 C 
BRANCH  44  45
ATOM     45  C   UNL A   1      44.056  39.782  31.412  1.00  0.00     0.261 C 
BRANCH  45  46
ATOM     46  O   UNL A   1      43.126  39.127  32.287  1.00  0.00    -0.460 OA
BRANCH  46  47
ATOM     47  C   UNL A   1      43.565  38.419  33.341  1.00  0.00     0.338 C 
ATOM     48  O   UNL A   1      43.316  38.616  34.519  1.00  0.00    -0.246 OA
BRANCH  47  49
ATOM     49  C   UNL A   1      44.159  37.174  32.778  1.00  0.00     0.060 A 
ATOM     50  C   UNL A   1      45.393  36.735  33.293  1.00  0.00     0.016 A 
ATOM     51  C   UNL A   1      43.423  36.341  31.923  1.00  0.00     0.016 A 
ATOM     52  C   UNL A   1      45.885  35.472  32.962  1.00  0.00     0.010 A 
ATOM     53  C   UNL A   1      43.954  35.110  31.524  1.00  0.00     0.010 A 
ATOM     54  C   UNL A   1      45.207  34.696  32.011  1.00  0.00    -0.014 A 
BRANCH  54  55
ATOM     55  C   UNL A   1      46.011  33.741  31.213  1.00  0.00     0.031 A 
ATOM     56  C   UNL A   1      45.899  32.297  31.633  1.00  0.00     0.074 A 
ATOM     57  C   UNL A   1      46.776  34.099  30.169  1.00  0.00     0.049 A 
ATOM     58  N   UNL A   1      46.460  31.232  31.127  1.00  0.00    -0.248 NA
ATOM     59  C   UNL A   1      45.014  32.019  32.782  1.00  0.00     0.031 C 
ATOM     60  C   UNL A   1      46.924  35.451  29.633  1.00  0.00     0.029 A 
ATOM     61  N   UNL A   1      47.581  33.329  29.367  1.00  0.00    -0.354 N 
ATOM     62  C   UNL A   1      45.982  30.170  31.886  1.00  0.00     0.074 A 
ATOM     63  C   UNL A   1      45.105  30.707  32.893  1.00  0.00     0.031 C 
ATOM     64  C   UNL A   1      47.785  35.415  28.597  1.00  0.00     0.029 A 
ATOM     65  C   UNL A   1      48.265  34.045  28.415  1.00  0.00     0.049 A 
ATOM     66  H   UNL A   1      47.662  32.353  29.465  1.00  0.00     0.167 HD
ATOM     67  C   UNL A   1      46.253  28.853  31.765  1.00  0.00     0.031 A 
ATOM     68  C   UNL A   1      49.186  33.632  27.522  1.00  0.00     0.031 A 
ATOM     69  C   UNL A   1      47.182  28.322  30.815  1.00  0.00     0.049 A 
ATOM     70  C   UNL A   1      49.562  32.171  27.480  1.00  0.00     0.074 A 
ATOM     71  C   UNL A   1      47.562  27.008  30.624  1.00  0.00     0.029 A 
ATOM     72  N   UNL A   1      47.894  29.091  29.910  1.00  0.00    -0.354 N 
ATOM     73  N   UNL A   1      49.084  31.170  28.183  1.00  0.00    -0.248 NA
ATOM     74  C   UNL A   1      50.605  31.782  26.518  1.00  0.00     0.031 C 
ATOM     75  C   UNL A   1      48.551  26.988  29.637  1.00  0.00     0.029 A 
ATOM     76  C   UNL A   1      48.736  28.283  29.172  1.00  0.00     0.049 A 
ATOM     77  H   UNL A   1      47.813  30.067  29.810  1.00  0.00     0.167 HD
ATOM     78  C   UNL A   1      49.744  30.034  27.728  1.00  0.00     0.074 A 
ATOM     79  C   UNL A   1      50.645  30.467  26.680  1.00  0.00     0.031 C 
ATOM     80  C   UNL A   1      49.619  28.746  28.134  1.00  0.00     0.031 A 
BRANCH  67  81
ATOM     81  C   UNL A   1      45.578  27.932  32.737  1.00  0.00    -0.014 A 
ATOM     82  C   UNL A   1      46.151  27.645  33.987  1.00  0.00     0.009 A 
ATOM     83  C   UNL A   1      44.367  27.319  32.385  1.00  0.00     0.009 A 
ATOM     84  C   UNL A   1      45.537  26.739  34.853  1.00  0.00     0.001 A 
ATOM     85  C   UNL A   1      43.742  26.435  33.263  1.00  0.00     0.001 A 
ATOM     86  C   UNL A   1      44.330  26.139  34.493  1.00  0.00     0.000 A 
ENDBRANCH  67  81
BRANCH  68  87
ATOM     87  C   UNL A   1      49.848  34.605  26.609  1.00  0.00    -0.014 A 
ATOM     88  C   UNL A   1      51.049  35.234  26.974  1.00  0.00     0.009 A 
ATOM     89  C   UNL A   1      49.252  34.948  25.384  1.00  0.00     0.009 A 
ATOM     90  C   UNL A   1      51.623  36.204  26.146  1.00  0.00     0.001 A 
ATOM     91  C   UNL A   1      49.843  35.898  24.546  1.00  0.00     0.001 A 
ATOM     92  C   UNL A   1      51.023  36.532  24.932  1.00  0.00     0.000 A 
ENDBRANCH  68  87
BRANCH  80  93
ATOM     93  C   UNL A   1      50.440  27.711  27.419  1.00  0.00    -0.014 A 
ATOM     94  C   UNL A   1      50.027  27.168  26.195  1.00  0.00     0.009 A 
ATOM     95  C   UNL A   1      51.681  27.327  27.954  1.00  0.00     0.009 A 
ATOM     96  C   UNL A   1      50.825  26.232  25.536  1.00  0.00     0.001 A 
ATOM     97  C   UNL A   1      52.491  26.417  27.277  1.00  0.00     0.001 A 
ATOM     98  C   UNL A   1      52.059  25.863  26.074  1.00  0.00     0.000 A 
ENDBRANCH  80  93
ENDBRANCH  54  55
ENDBRANCH  47  49
ENDBRANCH  46  47
ENDBRANCH  45  46
ENDBRANCH  44  45
ENDBRANCH  43  44
ENDBRANCH  42  43
ENDBRANCH   1  42
TORSDOF 21
ENDMDL
MODEL 3
REMARK VINA RESULT:      -8.3      5.763     10.607
REMARK SMILES C[C@H]1[C@H](C)CC[C@@]2(C(=O)OCCOCCOCCOCCOC(=O)c3ccc(-c4c5nc(c(-c6ccccc6)c6ccc([nH]6)c(-c6ccccc6)c6nc(c(-c7ccccc7)c7ccc4[nH]7)C=C6)C=C5)cc3)CC[C@@]3(C)C(=CC[C@@H]4[C@@]5(C)CC[C@H](O)C(C)(C)[C@@H]5CC[C@]43C)[C@H]12
REMARK SMILES IDX 17 1 16 2 15 3 14 4 13 5 12 6 11 7 10 8 8 9 9 10 7 11 1 12
REMARK SMILES IDX 2 13 3 14 95 15 4 16 5 17 77 18 6 19 73 20 75 21 78 22 74 23
REMARK SMILES IDX 76 24 93 25 79 26 80 27 92 28 94 29 81 30 91 31 82 32 83 33
REMARK SMILES IDX 90 34 84 35 87 36 85 37 88 38 89 39 86 40 18 42 19 43 20 44
REMARK SMILES IDX 21 45 22 46 23 47 24 48 25 49 26 50 72 51 27 52 71 53 28 54
REMARK SMILES IDX 29 55 30 56 65 57 31 58 70 59 64 60 66 61 32 62 69 63 63 64
REMARK SMILES IDX 62 65 33 67 55 68 40 69 54 70 41 71 44 72 53 73 67 74 42 75
REMARK SMILES IDX 43 76 52 78 68 79 45 80 34 81 35 82 39 83 36 84 38 85 37 86
REMARK SMILES IDX 56 87 57 88 61 89 58 90 60 91 59 92 46 93 47 94 51 95 48 96
REMARK SMILES IDX 50 97 49 98
REMARK H PARENT 86 41 66 66 44 77
REMARK Flexibility Score: inf
ROOT
ATOM      1  C   UNL A   1      44.242  37.318  27.769  1.00  0.00     0.188 C 
ENDROOT
BRANCH   1   2
ATOM      2  O   UNL A   1      44.127  35.916  27.713  1.00  0.00    -0.377 OA
BRANCH   2   3
ATOM      3  C   UNL A   1      44.417  35.276  26.484  1.00  0.00     0.188 C 
BRANCH   3   4
ATOM      4  C   UNL A   1      44.263  33.745  26.310  1.00  0.00     0.188 C 
BRANCH   4   5
ATOM      5  O   UNL A   1      44.987  32.894  27.192  1.00  0.00    -0.376 OA
BRANCH   5   6
ATOM      6  C   UNL A   1      45.218  31.558  26.807  1.00  0.00     0.202 C 
BRANCH   6   7
ATOM      7  C   UNL A   1      44.085  30.566  26.971  1.00  0.00     0.261 C 
BRANCH   7   8
ATOM      8  O   UNL A   1      44.378  29.185  26.573  1.00  0.00    -0.463 OA
BRANCH   8   9
ATOM      9  C   UNL A   1      44.494  27.926  27.065  1.00  0.00     0.312 C 
ATOM     10  O   UNL A   1      44.867  27.583  28.178  1.00  0.00    -0.252 OA
BRANCH   9  11
ATOM     11  C   UNL A   1      43.945  26.895  26.050  1.00  0.00     0.075 C 
ATOM     12  C   UNL A   1      44.654  23.410  27.834  1.00  0.00     0.008 C 
ATOM     13  C   UNL A   1      44.881  24.814  27.278  1.00  0.00    -0.003 C 
ATOM     14  C   UNL A   1      46.103  24.837  26.274  1.00  0.00    -0.011 C 
ATOM     15  C   UNL A   1      43.532  25.580  26.789  1.00  0.00     0.036 C 
ATOM     16  C   UNL A   1      47.453  24.481  26.932  1.00  0.00     0.008 C 
ATOM     17  C   UNL A   1      46.333  26.189  25.601  1.00  0.00     0.005 C 
ATOM     18  C   UNL A   1      42.374  26.088  27.800  1.00  0.00    -0.063 C 
ATOM     19  C   UNL A   1      45.057  26.716  25.001  1.00  0.00     0.020 C 
ATOM     20  C   UNL A   1      42.739  27.447  25.263  1.00  0.00     0.020 C 
ATOM     21  C   UNL A   1      41.114  26.843  27.190  1.00  0.00    -0.006 C 
ATOM     22  C   UNL A   1      42.568  26.143  29.137  1.00  0.00    -0.027 C 
ATOM     23  C   UNL A   1      41.578  27.882  26.135  1.00  0.00     0.013 C 
ATOM     24  C   UNL A   1      40.263  25.775  26.465  1.00  0.00     0.017 C 
ATOM     25  C   UNL A   1      40.193  27.634  28.332  1.00  0.00    -0.020 C 
ATOM     26  C   UNL A   1      41.896  27.159  30.045  1.00  0.00     0.032 C 
ATOM     27  C   UNL A   1      41.219  28.329  29.289  1.00  0.00     0.006 C 
ATOM     28  C   UNL A   1      39.213  28.697  27.769  1.00  0.00     0.008 C 
ATOM     29  C   UNL A   1      39.294  26.612  29.094  1.00  0.00     0.012 C 
ATOM     30  C   UNL A   1      40.775  29.603  30.188  1.00  0.00    -0.025 C 
ATOM     31  C   UNL A   1      38.577  29.584  28.866  1.00  0.00     0.005 C 
ATOM     32  C   UNL A   1      40.457  29.127  31.620  1.00  0.00     0.012 C 
ATOM     33  C   UNL A   1      41.970  30.607  30.302  1.00  0.00     0.010 C 
ATOM     34  C   UNL A   1      39.660  30.465  29.495  1.00  0.00     0.003 C 
ATOM     35  C   UNL A   1      41.680  31.949  30.988  1.00  0.00     0.033 C 
ATOM     36  C   UNL A   1      39.184  31.749  30.304  1.00  0.00    -0.006 C 
ATOM     37  C   UNL A   1      40.437  32.669  30.462  1.00  0.00     0.120 C 
ATOM     38  C   UNL A   1      38.521  31.471  31.671  1.00  0.00     0.014 C 
ATOM     39  C   UNL A   1      38.124  32.546  29.501  1.00  0.00     0.014 C 
BRANCH  37  40
ATOM     40  O   UNL A   1      40.158  33.802  31.288  1.00  0.00    -0.393 OA
ATOM     41  H   UNL A   1      40.784  33.824  32.029  1.00  0.00     0.210 HD
ENDBRANCH  37  40
ENDBRANCH   9  11
ENDBRANCH   8   9
ENDBRANCH   7   8
ENDBRANCH   6   7
ENDBRANCH   5   6
ENDBRANCH   4   5
ENDBRANCH   3   4
ENDBRANCH   2   3
ENDBRANCH   1   2
BRANCH   1  42
ATOM     42  C   UNL A   1      43.592  37.948  29.009  1.00  0.00     0.188 C 
BRANCH  42  43
ATOM     43  O   UNL A   1      44.526  38.367  29.984  1.00  0.00    -0.376 OA
BRANCH  43  44
ATOM     44  C   UNL A   1      44.305  39.545  30.743  1.00  0.00     0.202 C 
BRANCH  44  45
ATOM     45  C   UNL A   1      43.715  39.580  32.170  1.00  0.00     0.261 C 
BRANCH  45  46
ATOM     46  O   UNL A   1      44.211  38.670  33.162  1.00  0.00    -0.460 OA
BRANCH  46  47
ATOM     47  C   UNL A   1      43.402  37.740  33.698  1.00  0.00     0.338 C 
ATOM     48  O   UNL A   1      42.343  37.925  34.274  1.00  0.00    -0.246 OA
BRANCH  47  49
ATOM     49  C   UNL A   1      43.892  36.430  33.186  1.00  0.00     0.060 A 
ATOM     50  C   UNL A   1      44.845  35.732  33.952  1.00  0.00     0.016 A 
ATOM     51  C   UNL A   1      43.275  35.798  32.097  1.00  0.00     0.016 A 
ATOM     52  C   UNL A   1      45.174  34.413  33.636  1.00  0.00     0.010 A 
ATOM     53  C   UNL A   1      43.664  34.506  31.729  1.00  0.00     0.010 A 
ATOM     54  C   UNL A   1      44.647  33.831  32.474  1.00  0.00    -0.014 A 
BRANCH  54  55
ATOM     55  C   UNL A   1      45.450  32.774  31.818  1.00  0.00     0.031 A 
ATOM     56  C   UNL A   1      46.340  33.245  30.695  1.00  0.00     0.074 A 
ATOM     57  C   UNL A   1      45.432  31.483  32.190  1.00  0.00     0.049 A 
ATOM     58  N   UNL A   1      47.168  32.570  29.944  1.00  0.00    -0.248 NA
ATOM     59  C   UNL A   1      46.293  34.688  30.387  1.00  0.00     0.031 C 
ATOM     60  C   UNL A   1      44.658  30.915  33.291  1.00  0.00     0.029 A 
ATOM     61  N   UNL A   1      46.100  30.408  31.658  1.00  0.00    -0.354 N 
ATOM     62  C   UNL A   1      47.743  33.510  29.097  1.00  0.00     0.074 A 
ATOM     63  C   UNL A   1      47.166  34.793  29.404  1.00  0.00     0.031 C 
ATOM     64  C   UNL A   1      44.886  29.588  33.344  1.00  0.00     0.029 A 
ATOM     65  C   UNL A   1      45.801  29.213  32.265  1.00  0.00     0.049 A 
ATOM     66  H   UNL A   1      46.737  30.487  30.912  1.00  0.00     0.167 HD
ATOM     67  C   UNL A   1      48.671  33.326  28.133  1.00  0.00     0.031 A 
ATOM     68  C   UNL A   1      46.207  27.965  31.959  1.00  0.00     0.031 A 
ATOM     69  C   UNL A   1      49.193  32.043  27.773  1.00  0.00     0.049 A 
ATOM     70  C   UNL A   1      47.156  27.767  30.802  1.00  0.00     0.074 A 
ATOM     71  C   UNL A   1      50.111  31.732  26.789  1.00  0.00     0.029 A 
ATOM     72  N   UNL A   1      48.816  30.854  28.375  1.00  0.00    -0.354 N 
ATOM     73  N   UNL A   1      47.716  28.665  30.024  1.00  0.00    -0.248 NA
ATOM     74  C   UNL A   1      47.532  26.381  30.482  1.00  0.00     0.031 C 
ATOM     75  C   UNL A   1      50.249  30.342  26.759  1.00  0.00     0.029 A 
ATOM     76  C   UNL A   1      49.464  29.798  27.767  1.00  0.00     0.049 A 
ATOM     77  H   UNL A   1      48.181  30.774  29.123  1.00  0.00     0.167 HD
ATOM     78  C   UNL A   1      48.530  27.956  29.146  1.00  0.00     0.074 A 
ATOM     79  C   UNL A   1      48.402  26.557  29.497  1.00  0.00     0.031 C 
ATOM     80  C   UNL A   1      49.316  28.416  28.142  1.00  0.00     0.031 A 
BRANCH  67  81
ATOM     81  C   UNL A   1      49.109  34.544  27.375  1.00  0.00    -0.014 A 
ATOM     82  C   UNL A   1      48.480  34.920  26.176  1.00  0.00     0.009 A 
ATOM     83  C   UNL A   1      50.183  35.308  27.851  1.00  0.00     0.009 A 
ATOM     84  C   UNL A   1      48.941  36.022  25.454  1.00  0.00     0.001 A 
ATOM     85  C   UNL A   1      50.624  36.425  27.142  1.00  0.00     0.001 A 
ATOM     86  C   UNL A   1      50.009  36.776  25.940  1.00  0.00     0.000 A 
ENDBRANCH  67  81
BRANCH  68  87
ATOM     87  C   UNL A   1      45.705  26.793  32.728  1.00  0.00    -0.014 A 
ATOM     88  C   UNL A   1      44.657  26.001  32.234  1.00  0.00     0.009 A 
ATOM     89  C   UNL A   1      46.242  26.489  33.990  1.00  0.00     0.009 A 
ATOM     90  C   UNL A   1      44.139  24.949  32.997  1.00  0.00     0.001 A 
ATOM     91  C   UNL A   1      45.741  25.421  34.739  1.00  0.00     0.001 A 
ATOM     92  C   UNL A   1      44.684  24.658  34.246  1.00  0.00     0.000 A 
ENDBRANCH  68  87
BRANCH  80  93
ATOM     93  C   UNL A   1      50.128  27.408  27.381  1.00  0.00    -0.014 A 
ATOM     94  C   UNL A   1      49.787  27.031  26.074  1.00  0.00     0.009 A 
ATOM     95  C   UNL A   1      51.292  26.879  27.963  1.00  0.00     0.009 A 
ATOM     96  C   UNL A   1      50.578  26.117  25.377  1.00  0.00     0.001 A 
ATOM     97  C   UNL A   1      52.098  25.990  27.253  1.00  0.00     0.001 A 
ATOM     98  C   UNL A   1      51.735  25.602  25.964  1.00  0.00     0.000 A 
ENDBRANCH  80  93
ENDBRANCH  54  55
ENDBRANCH  47  49
ENDBRANCH  46  47
ENDBRANCH  45  46
ENDBRANCH  44  45
ENDBRANCH  43  44
ENDBRANCH  42  43
ENDBRANCH   1  42
TORSDOF 21
ENDMDL
