MODEL 1
REMARK VINA RESULT:      -9.9      0.000      0.000
REMARK SMILES COC(=O)c1ccc([C@H]2Nc3c(C(=O)OCCOCCOCCOCCOC(=O)c4ccc(-c5c6nc(c(-c7ccccc7)c7ccc([nH]7)c(-c7ccccc7)c7nc(c(-c8ccccc8)c8ccc5[nH]8)C=C7)C=C6)cc4)cccc3[C@H]3[C@H]4CC[C@H](C4)[C@H]32)cc1
REMARK SMILES IDX 20 1 19 2 18 3 17 4 16 5 15 6 13 7 14 8 12 9 9 10 10 11
REMARK SMILES IDX 88 12 11 13 82 15 86 16 81 17 83 18 85 19 87 20 78 21 80 22
REMARK SMILES IDX 84 23 79 24 8 25 5 26 6 27 90 28 7 29 89 30 3 31 4 32 2 33
REMARK SMILES IDX 1 34 21 35 22 36 23 37 24 38 25 39 26 40 27 41 28 42 29 43
REMARK SMILES IDX 30 44 31 45 77 46 32 47 76 48 33 49 34 50 35 51 70 52 36 53
REMARK SMILES IDX 75 54 69 55 71 56 37 57 74 58 68 59 67 60 38 62 60 63 45 64
REMARK SMILES IDX 59 65 46 66 49 67 58 68 72 69 47 70 48 71 57 73 73 74 50 75
REMARK SMILES IDX 39 76 40 77 44 78 41 79 43 80 42 81 61 82 62 83 66 84 63 85
REMARK SMILES IDX 65 86 64 87 51 88 52 89 56 90 53 91 55 92 54 93
REMARK H PARENT 10 14 71 61 49 72
REMARK Flexibility Score: inf
ROOT
ATOM      1  C   UNL A   1      33.567  21.950  23.494  1.00  0.00     0.188 C 
ENDROOT
BRANCH   1   2
ATOM      2  C   UNL A   1      32.138  21.886  24.077  1.00  0.00     0.188 C 
BRANCH   2   3
ATOM      3  O   UNL A   1      32.080  21.224  25.342  1.00  0.00    -0.376 OA
BRANCH   3   4
ATOM      4  C   UNL A   1      33.322  20.886  25.942  1.00  0.00     0.202 C 
BRANCH   4   5
ATOM      5  C   UNL A   1      33.726  21.820  27.083  1.00  0.00     0.261 C 
BRANCH   5   6
ATOM      6  O   UNL A   1      32.986  23.046  27.161  1.00  0.00    -0.460 OA
BRANCH   6   7
ATOM      7  C   UNL A   1      33.443  24.158  26.533  1.00  0.00     0.340 C 
ATOM      8  O   UNL A   1      34.600  24.423  26.269  1.00  0.00    -0.246 OA
BRANCH   7   9
ATOM      9  C   UNL A   1      32.225  24.881  26.087  1.00  0.00     0.083 A 
ATOM     10  C   UNL A   1      33.381  27.766  24.082  1.00  0.00     0.113 C 
ATOM     11  N   UNL A   1      33.401  26.327  24.441  1.00  0.00    -0.377 N 
ATOM     12  C   UNL A   1      32.204  27.978  23.080  1.00  0.00     0.027 C 
ATOM     13  C   UNL A   1      32.236  25.799  25.015  1.00  0.00     0.053 A 
ATOM     14  H   UNL A   1      34.196  25.768  24.283  1.00  0.00     0.161 HD
ATOM     15  C   UNL A   1      31.025  26.967  23.174  1.00  0.00     0.030 C 
ATOM     16  C   UNL A   1      31.451  29.310  22.839  1.00  0.00    -0.005 C 
ATOM     17  C   UNL A   1      30.996  26.192  24.467  1.00  0.00    -0.020 A 
ATOM     18  C   UNL A   1      29.788  27.815  22.750  1.00  0.00    -0.003 C 
ATOM     19  C   UNL A   1      30.506  29.708  23.998  1.00  0.00     0.004 C 
ATOM     20  C   UNL A   1      30.419  28.836  21.796  1.00  0.00     0.008 C 
ATOM     21  C   UNL A   1      31.012  24.481  26.675  1.00  0.00     0.018 A 
ATOM     22  C   UNL A   1      29.796  25.719  25.020  1.00  0.00     0.006 A 
ATOM     23  C   UNL A   1      29.321  28.758  23.861  1.00  0.00     0.004 C 
ATOM     24  C   UNL A   1      29.801  24.907  26.148  1.00  0.00     0.001 A 
BRANCH  10  25
ATOM     25  C   UNL A   1      33.584  28.640  25.328  1.00  0.00    -0.025 A 
ATOM     26  C   UNL A   1      34.048  30.463  27.438  1.00  0.00     0.060 A 
ATOM     27  C   UNL A   1      32.846  30.508  26.745  1.00  0.00     0.016 A 
ATOM     28  C   UNL A   1      34.941  29.417  27.206  1.00  0.00     0.016 A 
ATOM     29  C   UNL A   1      32.623  29.603  25.707  1.00  0.00     0.007 A 
ATOM     30  C   UNL A   1      34.670  28.481  26.199  1.00  0.00     0.007 A 
BRANCH  26  31
ATOM     31  C   UNL A   1      34.369  31.558  28.371  1.00  0.00     0.337 C 
ATOM     32  O   UNL A   1      34.826  31.404  29.490  1.00  0.00    -0.246 OA
BRANCH  31  33
ATOM     33  O   UNL A   1      33.938  32.717  27.813  1.00  0.00    -0.465 OA
ATOM     34  C   UNL A   1      34.557  33.899  28.321  1.00  0.00     0.282 C 
ENDBRANCH  31  33
ENDBRANCH  26  31
ENDBRANCH  10  25
ENDBRANCH   7   9
ENDBRANCH   6   7
ENDBRANCH   5   6
ENDBRANCH   4   5
ENDBRANCH   3   4
ENDBRANCH   2   3
ENDBRANCH   1   2
BRANCH   1  35
ATOM     35  O   UNL A   1      34.148  23.208  23.151  1.00  0.00    -0.377 OA
BRANCH  35  36
ATOM     36  C   UNL A   1      35.541  23.345  23.392  1.00  0.00     0.188 C 
BRANCH  36  37
ATOM     37  C   UNL A   1      36.125  22.103  24.092  1.00  0.00     0.188 C 
BRANCH  37  38
ATOM     38  O   UNL A   1      37.426  22.331  24.618  1.00  0.00    -0.376 OA
BRANCH  38  39
ATOM     39  C   UNL A   1      38.061  21.291  25.349  1.00  0.00     0.202 C 
BRANCH  39  40
ATOM     40  C   UNL A   1      39.365  21.547  26.124  1.00  0.00     0.261 C 
BRANCH  40  41
ATOM     41  O   UNL A   1      40.081  20.404  26.609  1.00  0.00    -0.460 OA
BRANCH  41  42
ATOM     42  C   UNL A   1      41.298  20.132  26.100  1.00  0.00     0.338 C 
ATOM     43  O   UNL A   1      41.621  19.203  25.387  1.00  0.00    -0.246 OA
BRANCH  42  44
ATOM     44  C   UNL A   1      42.148  21.294  26.434  1.00  0.00     0.060 A 
ATOM     45  C   UNL A   1      42.533  21.514  27.765  1.00  0.00     0.016 A 
ATOM     46  C   UNL A   1      42.604  22.130  25.413  1.00  0.00     0.016 A 
ATOM     47  C   UNL A   1      43.359  22.594  28.081  1.00  0.00     0.010 A 
ATOM     48  C   UNL A   1      43.406  23.223  25.731  1.00  0.00     0.010 A 
ATOM     49  C   UNL A   1      43.757  23.476  27.069  1.00  0.00    -0.014 A 
BRANCH  49  50
ATOM     50  C   UNL A   1      44.324  24.801  27.400  1.00  0.00     0.031 A 
ATOM     51  C   UNL A   1      43.361  25.882  27.799  1.00  0.00     0.074 A 
ATOM     52  C   UNL A   1      45.634  25.064  27.274  1.00  0.00     0.049 A 
ATOM     53  N   UNL A   1      43.564  27.163  27.952  1.00  0.00    -0.248 NA
ATOM     54  C   UNL A   1      41.973  25.453  28.038  1.00  0.00     0.031 C 
ATOM     55  C   UNL A   1      46.667  24.089  26.935  1.00  0.00     0.029 A 
ATOM     56  N   UNL A   1      46.309  26.254  27.386  1.00  0.00    -0.354 N 
ATOM     57  C   UNL A   1      42.324  27.698  28.278  1.00  0.00     0.074 A 
ATOM     58  C   UNL A   1      41.375  26.607  28.283  1.00  0.00     0.031 C 
ATOM     59  C   UNL A   1      47.846  24.728  26.831  1.00  0.00     0.029 A 
ATOM     60  C   UNL A   1      47.636  26.160  27.051  1.00  0.00     0.049 A 
ATOM     61  H   UNL A   1      45.883  27.092  27.676  1.00  0.00     0.167 HD
ATOM     62  C   UNL A   1      42.003  28.985  28.539  1.00  0.00     0.031 A 
ATOM     63  C   UNL A   1      48.563  27.125  26.894  1.00  0.00     0.031 A 
ATOM     64  C   UNL A   1      42.945  30.067  28.498  1.00  0.00     0.049 A 
ATOM     65  C   UNL A   1      48.174  28.565  27.116  1.00  0.00     0.074 A 
ATOM     66  C   UNL A   1      42.731  31.409  28.758  1.00  0.00     0.029 A 
ATOM     67  N   UNL A   1      44.283  29.930  28.158  1.00  0.00    -0.354 N 
ATOM     68  N   UNL A   1      47.006  29.063  27.446  1.00  0.00    -0.248 NA
ATOM     69  C   UNL A   1      49.231  29.573  26.946  1.00  0.00     0.031 C 
ATOM     70  C   UNL A   1      43.928  32.091  28.517  1.00  0.00     0.029 A 
ATOM     71  C   UNL A   1      44.902  31.165  28.175  1.00  0.00     0.049 A 
ATOM     72  H   UNL A   1      44.725  29.078  27.939  1.00  0.00     0.167 HD
ATOM     73  C   UNL A   1      47.193  30.436  27.554  1.00  0.00     0.074 A 
ATOM     74  C   UNL A   1      48.588  30.692  27.254  1.00  0.00     0.031 C 
ATOM     75  C   UNL A   1      46.294  31.397  27.881  1.00  0.00     0.031 A 
BRANCH  62  76
ATOM     76  C   UNL A   1      40.558  29.281  28.827  1.00  0.00    -0.014 A 
ATOM     77  C   UNL A   1      40.083  29.419  30.141  1.00  0.00     0.009 A 
ATOM     78  C   UNL A   1      39.650  29.395  27.762  1.00  0.00     0.009 A 
ATOM     79  C   UNL A   1      38.722  29.614  30.384  1.00  0.00     0.001 A 
ATOM     80  C   UNL A   1      38.296  29.624  28.007  1.00  0.00     0.001 A 
ATOM     81  C   UNL A   1      37.830  29.719  29.318  1.00  0.00     0.000 A 
ENDBRANCH  62  76
BRANCH  63  82
ATOM     82  C   UNL A   1      49.941  26.760  26.474  1.00  0.00    -0.014 A 
ATOM     83  C   UNL A   1      50.917  26.437  27.426  1.00  0.00     0.009 A 
ATOM     84  C   UNL A   1      50.276  26.708  25.112  1.00  0.00     0.009 A 
ATOM     85  C   UNL A   1      52.206  26.078  27.024  1.00  0.00     0.001 A 
ATOM     86  C   UNL A   1      51.558  26.323  24.710  1.00  0.00     0.001 A 
ATOM     87  C   UNL A   1      52.524  26.014  25.667  1.00  0.00     0.000 A 
ENDBRANCH  63  82
BRANCH  75  88
ATOM     88  C   UNL A   1      46.789  32.812  27.988  1.00  0.00    -0.014 A 
ATOM     89  C   UNL A   1      46.780  33.679  26.885  1.00  0.00     0.009 A 
ATOM     90  C   UNL A   1      47.182  33.308  29.242  1.00  0.00     0.009 A 
ATOM     91  C   UNL A   1      47.170  35.012  27.035  1.00  0.00     0.001 A 
ATOM     92  C   UNL A   1      47.546  34.646  29.394  1.00  0.00     0.001 A 
ATOM     93  C   UNL A   1      47.544  35.496  28.290  1.00  0.00     0.000 A 
ENDBRANCH  75  88
ENDBRANCH  49  50
ENDBRANCH  42  44
ENDBRANCH  41  42
ENDBRANCH  40  41
ENDBRANCH  39  40
ENDBRANCH  38  39
ENDBRANCH  37  38
ENDBRANCH  36  37
ENDBRANCH  35  36
ENDBRANCH   1  35
TORSDOF 23
ENDMDL
MODEL 2
REMARK VINA RESULT:      -9.7      0.972      5.527
REMARK SMILES COC(=O)c1ccc([C@H]2Nc3c(C(=O)OCCOCCOCCOCCOC(=O)c4ccc(-c5c6nc(c(-c7ccccc7)c7ccc([nH]7)c(-c7ccccc7)c7nc(c(-c8ccccc8)c8ccc5[nH]8)C=C7)C=C6)cc4)cccc3[C@H]3[C@H]4CC[C@H](C4)[C@H]32)cc1
REMARK SMILES IDX 20 1 19 2 18 3 17 4 16 5 15 6 13 7 14 8 12 9 9 10 10 11
REMARK SMILES IDX 88 12 11 13 82 15 86 16 81 17 83 18 85 19 87 20 78 21 80 22
REMARK SMILES IDX 84 23 79 24 8 25 5 26 6 27 90 28 7 29 89 30 3 31 4 32 2 33
REMARK SMILES IDX 1 34 21 35 22 36 23 37 24 38 25 39 26 40 27 41 28 42 29 43
REMARK SMILES IDX 30 44 31 45 77 46 32 47 76 48 33 49 34 50 35 51 70 52 36 53
REMARK SMILES IDX 75 54 69 55 71 56 37 57 74 58 68 59 67 60 38 62 60 63 45 64
REMARK SMILES IDX 59 65 46 66 49 67 58 68 72 69 47 70 48 71 57 73 73 74 50 75
REMARK SMILES IDX 39 76 40 77 44 78 41 79 43 80 42 81 61 82 62 83 66 84 63 85
REMARK SMILES IDX 65 86 64 87 51 88 52 89 56 90 53 91 55 92 54 93
REMARK H PARENT 10 14 71 61 49 72
REMARK Flexibility Score: inf
ROOT
ATOM      1  C   UNL A   1      33.696  22.025  23.323  1.00  0.00     0.188 C 
ENDROOT
BRANCH   1   2
ATOM      2  C   UNL A   1      32.185  22.214  23.583  1.00  0.00     0.188 C 
BRANCH   2   3
ATOM      3  O   UNL A   1      31.802  21.876  24.918  1.00  0.00    -0.376 OA
BRANCH   3   4
ATOM      4  C   UNL A   1      32.839  21.454  25.791  1.00  0.00     0.202 C 
BRANCH   4   5
ATOM      5  C   UNL A   1      33.311  22.543  26.754  1.00  0.00     0.261 C 
BRANCH   5   6
ATOM      6  O   UNL A   1      32.526  23.743  26.754  1.00  0.00    -0.460 OA
BRANCH   6   7
ATOM      7  C   UNL A   1      32.932  24.823  26.039  1.00  0.00     0.340 C 
ATOM      8  O   UNL A   1      34.066  25.072  25.676  1.00  0.00    -0.246 OA
BRANCH   7   9
ATOM      9  C   UNL A   1      31.682  25.525  25.651  1.00  0.00     0.083 A 
ATOM     10  C   UNL A   1      32.704  28.537  23.765  1.00  0.00     0.113 C 
ATOM     11  N   UNL A   1      32.778  27.085  24.054  1.00  0.00    -0.377 N 
ATOM     12  C   UNL A   1      31.500  28.758  22.796  1.00  0.00     0.027 C 
ATOM     13  C   UNL A   1      31.642  26.492  24.624  1.00  0.00     0.053 A 
ATOM     14  H   UNL A   1      33.587  26.561  23.855  1.00  0.00     0.161 HD
ATOM     15  C   UNL A   1      30.357  27.704  22.864  1.00  0.00     0.030 C 
ATOM     16  C   UNL A   1      30.700  30.073  22.633  1.00  0.00    -0.005 C 
ATOM     17  C   UNL A   1      30.380  26.869  24.119  1.00  0.00    -0.020 A 
ATOM     18  C   UNL A   1      29.084  28.530  22.504  1.00  0.00    -0.003 C 
ATOM     19  C   UNL A   1      29.767  30.385  23.827  1.00  0.00     0.004 C 
ATOM     20  C   UNL A   1      29.663  29.615  21.588  1.00  0.00     0.008 C 
ATOM     21  C   UNL A   1      30.495  25.058  26.242  1.00  0.00     0.018 A 
ATOM     22  C   UNL A   1      29.206  26.331  24.671  1.00  0.00     0.006 A 
ATOM     23  C   UNL A   1      28.610  29.404  23.667  1.00  0.00     0.004 C 
ATOM     24  C   UNL A   1      29.261  25.467  25.759  1.00  0.00     0.001 A 
BRANCH  10  25
ATOM     25  C   UNL A   1      32.904  29.358  25.047  1.00  0.00    -0.025 A 
ATOM     26  C   UNL A   1      33.326  31.102  27.231  1.00  0.00     0.060 A 
ATOM     27  C   UNL A   1      32.079  31.053  26.624  1.00  0.00     0.016 A 
ATOM     28  C   UNL A   1      34.305  30.175  26.875  1.00  0.00     0.016 A 
ATOM     29  C   UNL A   1      31.877  30.187  25.548  1.00  0.00     0.007 A 
ATOM     30  C   UNL A   1      34.062  29.271  25.832  1.00  0.00     0.007 A 
BRANCH  26  31
ATOM     31  C   UNL A   1      33.597  32.172  28.209  1.00  0.00     0.337 C 
ATOM     32  O   UNL A   1      33.234  33.328  28.088  1.00  0.00    -0.246 OA
BRANCH  31  33
ATOM     33  O   UNL A   1      34.417  31.663  29.162  1.00  0.00    -0.465 OA
ATOM     34  C   UNL A   1      34.970  32.626  30.059  1.00  0.00     0.282 C 
ENDBRANCH  31  33
ENDBRANCH  26  31
ENDBRANCH  10  25
ENDBRANCH   7   9
ENDBRANCH   6   7
ENDBRANCH   5   6
ENDBRANCH   4   5
ENDBRANCH   3   4
ENDBRANCH   2   3
ENDBRANCH   1   2
BRANCH   1  35
ATOM     35  O   UNL A   1      34.517  23.150  23.011  1.00  0.00    -0.377 OA
BRANCH  35  36
ATOM     36  C   UNL A   1      35.851  23.111  23.498  1.00  0.00     0.188 C 
BRANCH  36  37
ATOM     37  C   UNL A   1      36.145  21.799  24.252  1.00  0.00     0.188 C 
BRANCH  37  38
ATOM     38  O   UNL A   1      37.323  21.874  25.045  1.00  0.00    -0.376 OA
BRANCH  38  39
ATOM     39  C   UNL A   1      38.125  20.712  25.192  1.00  0.00     0.202 C 
BRANCH  39  40
ATOM     40  C   UNL A   1      39.536  20.792  25.801  1.00  0.00     0.261 C 
BRANCH  40  41
ATOM     41  O   UNL A   1      40.136  19.567  26.242  1.00  0.00    -0.460 OA
BRANCH  41  42
ATOM     42  C   UNL A   1      41.469  19.415  26.126  1.00  0.00     0.338 C 
ATOM     43  O   UNL A   1      42.081  18.432  25.756  1.00  0.00    -0.246 OA
BRANCH  42  44
ATOM     44  C   UNL A   1      42.054  20.748  26.374  1.00  0.00     0.060 A 
ATOM     45  C   UNL A   1      42.211  21.206  27.690  1.00  0.00     0.016 A 
ATOM     46  C   UNL A   1      42.497  21.518  25.295  1.00  0.00     0.016 A 
ATOM     47  C   UNL A   1      42.789  22.453  27.929  1.00  0.00     0.010 A 
ATOM     48  C   UNL A   1      43.049  22.773  25.532  1.00  0.00     0.010 A 
ATOM     49  C   UNL A   1      43.166  23.258  26.846  1.00  0.00    -0.014 A 
BRANCH  49  50
ATOM     50  C   UNL A   1      43.447  24.697  27.035  1.00  0.00     0.031 A 
ATOM     51  C   UNL A   1      44.879  25.137  26.945  1.00  0.00     0.074 A 
ATOM     52  C   UNL A   1      42.481  25.573  27.354  1.00  0.00     0.049 A 
ATOM     53  N   UNL A   1      45.419  26.286  27.255  1.00  0.00    -0.248 NA
ATOM     54  C   UNL A   1      45.835  24.128  26.457  1.00  0.00     0.031 C 
ATOM     55  C   UNL A   1      41.053  25.273  27.429  1.00  0.00     0.029 A 
ATOM     56  N   UNL A   1      42.572  26.895  27.712  1.00  0.00    -0.354 N 
ATOM     57  C   UNL A   1      46.780  26.129  27.026  1.00  0.00     0.074 A 
ATOM     58  C   UNL A   1      46.984  24.772  26.569  1.00  0.00     0.031 C 
ATOM     59  C   UNL A   1      40.403  26.374  27.845  1.00  0.00     0.029 A 
ATOM     60  C   UNL A   1      41.375  27.435  28.108  1.00  0.00     0.049 A 
ATOM     61  H   UNL A   1      43.414  27.404  27.689  1.00  0.00     0.167 HD
ATOM     62  C   UNL A   1      47.773  27.031  27.191  1.00  0.00     0.031 A 
ATOM     63  C   UNL A   1      41.104  28.633  28.662  1.00  0.00     0.031 A 
ATOM     64  C   UNL A   1      47.566  28.366  27.678  1.00  0.00     0.049 A 
ATOM     65  C   UNL A   1      42.230  29.604  28.910  1.00  0.00     0.074 A 
ATOM     66  C   UNL A   1      48.498  29.370  27.873  1.00  0.00     0.029 A 
ATOM     67  N   UNL A   1      46.335  28.878  28.064  1.00  0.00    -0.354 N 
ATOM     68  N   UNL A   1      43.512  29.460  28.670  1.00  0.00    -0.248 NA
ATOM     69  C   UNL A   1      41.872  30.901  29.503  1.00  0.00     0.031 C 
ATOM     70  C   UNL A   1      47.839  30.468  28.433  1.00  0.00     0.029 A 
ATOM     71  C   UNL A   1      46.486  30.173  28.522  1.00  0.00     0.049 A 
ATOM     72  H   UNL A   1      45.481  28.389  28.018  1.00  0.00     0.167 HD
ATOM     73  C   UNL A   1      44.109  30.656  29.052  1.00  0.00     0.074 A 
ATOM     74  C   UNL A   1      43.048  31.514  29.539  1.00  0.00     0.031 C 
ATOM     75  C   UNL A   1      45.416  31.014  28.996  1.00  0.00     0.031 A 
BRANCH  62  76
ATOM     76  C   UNL A   1      49.172  26.567  26.899  1.00  0.00    -0.014 A 
ATOM     77  C   UNL A   1      49.976  25.984  27.892  1.00  0.00     0.009 A 
ATOM     78  C   UNL A   1      49.703  26.743  25.612  1.00  0.00     0.009 A 
ATOM     79  C   UNL A   1      51.299  25.635  27.616  1.00  0.00     0.001 A 
ATOM     80  C   UNL A   1      51.015  26.361  25.330  1.00  0.00     0.001 A 
ATOM     81  C   UNL A   1      51.817  25.821  26.335  1.00  0.00     0.000 A 
ENDBRANCH  62  76
BRANCH  63  82
ATOM     82  C   UNL A   1      39.708  28.964  29.049  1.00  0.00    -0.014 A 
ATOM     83  C   UNL A   1      38.871  29.669  28.174  1.00  0.00     0.009 A 
ATOM     84  C   UNL A   1      39.199  28.550  30.291  1.00  0.00     0.009 A 
ATOM     85  C   UNL A   1      37.554  29.963  28.537  1.00  0.00     0.001 A 
ATOM     86  C   UNL A   1      37.875  28.822  30.642  1.00  0.00     0.001 A 
ATOM     87  C   UNL A   1      37.054  29.533  29.767  1.00  0.00     0.000 A 
ENDBRANCH  63  82
BRANCH  75  88
ATOM     88  C   UNL A   1      45.778  32.409  29.418  1.00  0.00    -0.014 A 
ATOM     89  C   UNL A   1      46.177  32.699  30.732  1.00  0.00     0.009 A 
ATOM     90  C   UNL A   1      45.809  33.432  28.456  1.00  0.00     0.009 A 
ATOM     91  C   UNL A   1      46.586  33.990  31.074  1.00  0.00     0.001 A 
ATOM     92  C   UNL A   1      46.243  34.713  28.795  1.00  0.00     0.001 A 
ATOM     93  C   UNL A   1      46.627  34.993  30.105  1.00  0.00     0.000 A 
ENDBRANCH  75  88
ENDBRANCH  49  50
ENDBRANCH  42  44
ENDBRANCH  41  42
ENDBRANCH  40  41
ENDBRANCH  39  40
ENDBRANCH  38  39
ENDBRANCH  37  38
ENDBRANCH  36  37
ENDBRANCH  35  36
ENDBRANCH   1  35
TORSDOF 23
ENDMDL
MODEL 3
REMARK VINA RESULT:      -8.4      6.309     11.561
REMARK SMILES COC(=O)c1ccc([C@H]2Nc3c(C(=O)OCCOCCOCCOCCOC(=O)c4ccc(-c5c6nc(c(-c7ccccc7)c7ccc([nH]7)c(-c7ccccc7)c7nc(c(-c8ccccc8)c8ccc5[nH]8)C=C7)C=C6)cc4)cccc3[C@H]3[C@H]4CC[C@H](C4)[C@H]32)cc1
REMARK SMILES IDX 20 1 19 2 18 3 17 4 16 5 15 6 13 7 14 8 12 9 9 10 10 11
REMARK SMILES IDX 88 12 11 13 82 15 86 16 81 17 83 18 85 19 87 20 78 21 80 22
REMARK SMILES IDX 84 23 79 24 8 25 5 26 6 27 90 28 7 29 89 30 3 31 4 32 2 33
REMARK SMILES IDX 1 34 21 35 22 36 23 37 24 38 25 39 26 40 27 41 28 42 29 43
REMARK SMILES IDX 30 44 31 45 77 46 32 47 76 48 33 49 34 50 35 51 70 52 36 53
REMARK SMILES IDX 75 54 69 55 71 56 37 57 74 58 68 59 67 60 38 62 60 63 45 64
REMARK SMILES IDX 59 65 46 66 49 67 58 68 72 69 47 70 48 71 57 73 73 74 50 75
REMARK SMILES IDX 39 76 40 77 44 78 41 79 43 80 42 81 61 82 62 83 66 84 63 85
REMARK SMILES IDX 65 86 64 87 51 88 52 89 56 90 53 91 55 92 54 93
REMARK H PARENT 10 14 71 61 49 72
REMARK Flexibility Score: inf
ROOT
ATOM      1  C   UNL A   1      37.894  33.851  36.474  1.00  0.00     0.188 C 
ENDROOT
BRANCH   1   2
ATOM      2  C   UNL A   1      36.986  32.999  35.560  1.00  0.00     0.188 C 
BRANCH   2   3
ATOM      3  O   UNL A   1      35.717  33.608  35.311  1.00  0.00    -0.376 OA
BRANCH   3   4
ATOM      4  C   UNL A   1      35.528  34.185  34.027  1.00  0.00     0.202 C 
BRANCH   4   5
ATOM      5  C   UNL A   1      34.568  33.396  33.136  1.00  0.00     0.261 C 
BRANCH   5   6
ATOM      6  O   UNL A   1      35.168  32.336  32.378  1.00  0.00    -0.460 OA
BRANCH   6   7
ATOM      7  C   UNL A   1      35.779  32.605  31.198  1.00  0.00     0.340 C 
ATOM      8  O   UNL A   1      35.734  33.649  30.575  1.00  0.00    -0.246 OA
BRANCH   7   9
ATOM      9  C   UNL A   1      36.645  31.428  30.931  1.00  0.00     0.083 A 
ATOM     10  C   UNL A   1      39.726  31.909  32.919  1.00  0.00     0.113 C 
ATOM     11  N   UNL A   1      38.251  31.898  32.771  1.00  0.00    -0.377 N 
ATOM     12  C   UNL A   1      40.174  30.444  33.213  1.00  0.00     0.027 C 
ATOM     13  C   UNL A   1      37.718  31.068  31.774  1.00  0.00     0.053 A 
ATOM     14  H   UNL A   1      37.671  32.448  33.346  1.00  0.00     0.161 HD
ATOM     15  C   UNL A   1      39.243  29.316  32.681  1.00  0.00     0.030 C 
ATOM     16  C   UNL A   1      41.575  29.851  32.921  1.00  0.00    -0.005 C 
ATOM     17  C   UNL A   1      38.277  29.782  31.621  1.00  0.00    -0.020 A 
ATOM     18  C   UNL A   1      40.230  28.149  32.373  1.00  0.00    -0.003 C 
ATOM     19  C   UNL A   1      41.848  29.609  31.418  1.00  0.00     0.004 C 
ATOM     20  C   UNL A   1      41.344  28.402  33.395  1.00  0.00     0.008 C 
ATOM     21  C   UNL A   1      36.239  30.580  29.885  1.00  0.00     0.018 A 
ATOM     22  C   UNL A   1      37.804  28.918  30.620  1.00  0.00     0.006 A 
ATOM     23  C   UNL A   1      41.014  28.377  31.078  1.00  0.00     0.004 C 
ATOM     24  C   UNL A   1      36.825  29.332  29.725  1.00  0.00     0.001 A 
BRANCH  10  25
ATOM     25  C   UNL A   1      40.375  32.778  31.831  1.00  0.00    -0.025 A 
ATOM     26  C   UNL A   1      41.481  34.612  29.987  1.00  0.00     0.060 A 
ATOM     27  C   UNL A   1      42.206  34.253  31.115  1.00  0.00     0.016 A 
ATOM     28  C   UNL A   1      40.297  33.941  29.684  1.00  0.00     0.016 A 
ATOM     29  C   UNL A   1      41.655  33.344  32.020  1.00  0.00     0.007 A 
ATOM     30  C   UNL A   1      39.789  32.987  30.576  1.00  0.00     0.007 A 
BRANCH  26  31
ATOM     31  C   UNL A   1      41.965  35.733  29.162  1.00  0.00     0.337 C 
ATOM     32  O   UNL A   1      41.574  35.985  28.036  1.00  0.00    -0.246 OA
BRANCH  31  33
ATOM     33  O   UNL A   1      42.993  36.320  29.825  1.00  0.00    -0.465 OA
ATOM     34  C   UNL A   1      44.130  36.635  29.019  1.00  0.00     0.282 C 
ENDBRANCH  31  33
ENDBRANCH  26  31
ENDBRANCH  10  25
ENDBRANCH   7   9
ENDBRANCH   6   7
ENDBRANCH   5   6
ENDBRANCH   4   5
ENDBRANCH   3   4
ENDBRANCH   2   3
ENDBRANCH   1   2
BRANCH   1  35
ATOM     35  O   UNL A   1      38.677  33.228  37.493  1.00  0.00    -0.377 OA
BRANCH  35  36
ATOM     36  C   UNL A   1      38.990  34.027  38.625  1.00  0.00     0.188 C 
BRANCH  36  37
ATOM     37  C   UNL A   1      39.715  35.327  38.224  1.00  0.00     0.188 C 
BRANCH  37  38
ATOM     38  O   UNL A   1      40.405  35.928  39.311  1.00  0.00    -0.376 OA
BRANCH  38  39
ATOM     39  C   UNL A   1      41.821  36.028  39.253  1.00  0.00     0.202 C 
BRANCH  39  40
ATOM     40  C   UNL A   1      42.698  34.778  39.071  1.00  0.00     0.261 C 
BRANCH  40  41
ATOM     41  O   UNL A   1      43.438  34.662  37.848  1.00  0.00    -0.460 OA
BRANCH  41  42
ATOM     42  C   UNL A   1      44.661  34.099  37.877  1.00  0.00     0.338 C 
ATOM     43  O   UNL A   1      45.459  34.088  38.793  1.00  0.00    -0.246 OA
BRANCH  42  44
ATOM     44  C   UNL A   1      44.786  33.333  36.620  1.00  0.00     0.060 A 
ATOM     45  C   UNL A   1      43.634  32.985  35.899  1.00  0.00     0.016 A 
ATOM     46  C   UNL A   1      46.055  33.009  36.134  1.00  0.00     0.016 A 
ATOM     47  C   UNL A   1      43.750  32.285  34.697  1.00  0.00     0.010 A 
ATOM     48  C   UNL A   1      46.169  32.287  34.948  1.00  0.00     0.010 A 
ATOM     49  C   UNL A   1      45.017  31.895  34.245  1.00  0.00    -0.014 A 
BRANCH  49  50
ATOM     50  C   UNL A   1      45.161  30.871  33.190  1.00  0.00     0.031 A 
ATOM     51  C   UNL A   1      45.241  31.351  31.770  1.00  0.00     0.074 A 
ATOM     52  C   UNL A   1      45.140  29.557  33.468  1.00  0.00     0.049 A 
ATOM     53  N   UNL A   1      45.177  30.671  30.655  1.00  0.00    -0.248 NA
ATOM     54  C   UNL A   1      45.393  32.804  31.588  1.00  0.00     0.031 C 
ATOM     55  C   UNL A   1      45.108  28.973  34.806  1.00  0.00     0.029 A 
ATOM     56  N   UNL A   1      45.107  28.477  32.622  1.00  0.00    -0.354 N 
ATOM     57  C   UNL A   1      45.253  31.617  29.641  1.00  0.00     0.074 A 
ATOM     58  C   UNL A   1      45.350  32.915  30.271  1.00  0.00     0.031 C 
ATOM     59  C   UNL A   1      45.024  27.636  34.691  1.00  0.00     0.029 A 
ATOM     60  C   UNL A   1      44.950  27.280  33.273  1.00  0.00     0.049 A 
ATOM     61  H   UNL A   1      45.186  28.554  31.643  1.00  0.00     0.167 HD
ATOM     62  C   UNL A   1      45.233  31.422  28.303  1.00  0.00     0.031 A 
ATOM     63  C   UNL A   1      44.726  26.046  32.780  1.00  0.00     0.031 A 
ATOM     64  C   UNL A   1      45.102  30.132  27.686  1.00  0.00     0.049 A 
ATOM     65  C   UNL A   1      44.632  25.853  31.289  1.00  0.00     0.074 A 
ATOM     66  C   UNL A   1      45.083  29.816  26.339  1.00  0.00     0.029 A 
ATOM     67  N   UNL A   1      44.949  28.941  28.382  1.00  0.00    -0.354 N 
ATOM     68  N   UNL A   1      44.727  26.746  30.333  1.00  0.00    -0.248 NA
ATOM     69  C   UNL A   1      44.401  24.482  30.809  1.00  0.00     0.031 C 
ATOM     70  C   UNL A   1      44.860  28.441  26.221  1.00  0.00     0.029 A 
ATOM     71  C   UNL A   1      44.809  27.892  27.494  1.00  0.00     0.049 A 
ATOM     72  H   UNL A   1      44.943  28.858  29.363  1.00  0.00     0.167 HD
ATOM     73  C   UNL A   1      44.601  26.044  29.139  1.00  0.00     0.074 A 
ATOM     74  C   UNL A   1      44.421  24.650  29.493  1.00  0.00     0.031 C 
ATOM     75  C   UNL A   1      44.639  26.510  27.867  1.00  0.00     0.031 A 
BRANCH  62  76
ATOM     76  C   UNL A   1      45.293  32.647  27.435  1.00  0.00    -0.014 A 
ATOM     77  C   UNL A   1      46.515  33.259  27.110  1.00  0.00     0.009 A 
ATOM     78  C   UNL A   1      44.101  33.215  26.959  1.00  0.00     0.009 A 
ATOM     79  C   UNL A   1      46.538  34.442  26.369  1.00  0.00     0.001 A 
ATOM     80  C   UNL A   1      44.130  34.379  26.190  1.00  0.00     0.001 A 
ATOM     81  C   UNL A   1      45.346  35.000  25.908  1.00  0.00     0.000 A 
ENDBRANCH  62  76
BRANCH  63  82
ATOM     82  C   UNL A   1      44.542  24.905  33.714  1.00  0.00    -0.014 A 
ATOM     83  C   UNL A   1      43.271  24.586  34.213  1.00  0.00     0.009 A 
ATOM     84  C   UNL A   1      45.638  24.111  34.089  1.00  0.00     0.009 A 
ATOM     85  C   UNL A   1      43.102  23.500  35.077  1.00  0.00     0.001 A 
ATOM     86  C   UNL A   1      45.463  23.011  34.932  1.00  0.00     0.001 A 
ATOM     87  C   UNL A   1      44.196  22.710  35.430  1.00  0.00     0.000 A 
ENDBRANCH  63  82
BRANCH  75  88
ATOM     88  C   UNL A   1      44.539  25.508  26.751  1.00  0.00    -0.014 A 
ATOM     89  C   UNL A   1      45.680  24.900  26.206  1.00  0.00     0.009 A 
ATOM     90  C   UNL A   1      43.271  25.100  26.307  1.00  0.00     0.009 A 
ATOM     91  C   UNL A   1      45.550  23.913  25.227  1.00  0.00     0.001 A 
ATOM     92  C   UNL A   1      43.144  24.095  25.347  1.00  0.00     0.001 A 
ATOM     93  C   UNL A   1      44.284  23.505  24.805  1.00  0.00     0.000 A 
ENDBRANCH  75  88
ENDBRANCH  49  50
ENDBRANCH  42  44
ENDBRANCH  41  42
ENDBRANCH  40  41
ENDBRANCH  39  40
ENDBRANCH  38  39
ENDBRANCH  37  38
ENDBRANCH  36  37
ENDBRANCH  35  36
ENDBRANCH   1  35
TORSDOF 23
ENDMDL
