MODEL 1
REMARK VINA RESULT:      -8.8      0.000      0.000
REMARK SMILES N#CCOc1ccccc1[C@H]1[NH2+][C@@H](C(=O)OCCOCCOCCOCCOC(=O)c2ccc(-c3c4nc(c(-c5ccccc5)c5ccc([nH]5)c(-c5ccccc5)c5nc(c(-c6ccccc6)c6ccc3[nH]6)C=C5)C=C4)cc2)CS1
REMARK SMILES IDX 21 1 20 2 19 3 18 4 17 5 16 6 14 7 15 8 13 9 11 10 12 11
REMARK SMILES IDX 80 12 79 15 10 16 5 17 6 18 7 19 9 20 8 21 4 22 3 23 2 24
REMARK SMILES IDX 1 25 22 26 23 27 24 28 25 29 26 30 27 31 28 32 29 33 30 34
REMARK SMILES IDX 31 35 32 36 78 37 33 38 77 39 34 40 35 41 36 42 71 43 37 44
REMARK SMILES IDX 76 45 70 46 72 47 38 48 75 49 69 50 68 51 39 53 61 54 46 55
REMARK SMILES IDX 60 56 47 57 50 58 59 59 73 60 48 61 49 62 58 64 74 65 51 66
REMARK SMILES IDX 40 67 41 68 45 69 42 70 44 71 43 72 62 73 63 74 67 75 64 76
REMARK SMILES IDX 66 77 65 78 52 79 53 80 57 81 54 82 56 83 55 84
REMARK H PARENT 12 13 12 14 72 52 50 63
REMARK Flexibility Score: inf
ROOT
ATOM      1  C   UNL A   1      34.564  30.560  27.544  1.00  0.00     0.188 C 
ENDROOT
BRANCH   1   2
ATOM      2  C   UNL A   1      33.093  30.224  27.255  1.00  0.00     0.188 C 
BRANCH   2   3
ATOM      3  O   UNL A   1      32.739  30.220  25.884  1.00  0.00    -0.376 OA
BRANCH   3   4
ATOM      4  C   UNL A   1      32.057  29.125  25.278  1.00  0.00     0.202 C 
BRANCH   4   5
ATOM      5  C   UNL A   1      31.603  27.931  26.113  1.00  0.00     0.261 C 
BRANCH   5   6
ATOM      6  O   UNL A   1      30.802  26.969  25.374  1.00  0.00    -0.459 OA
BRANCH   6   7
ATOM      7  C   UNL A   1      30.491  25.715  25.798  1.00  0.00     0.365 C 
ATOM      8  O   UNL A   1      29.483  25.530  26.471  1.00  0.00    -0.245 OA
BRANCH   7   9
ATOM      9  C   UNL A   1      31.474  24.598  25.442  1.00  0.00     0.304 C 
ATOM     10  C   UNL A   1      33.570  23.677  25.157  1.00  0.00     0.278 C 
ATOM     11  N   UNL A   1      32.943  24.786  25.889  1.00  0.00    -0.319 N 
ATOM     12  S   UNL A   1      33.145  24.062  23.460  1.00  0.00    -0.087 SA
ATOM     13  H   UNL A   1      33.315  25.691  25.598  1.00  0.00     0.348 HD
ATOM     14  H   UNL A   1      33.092  24.778  26.897  1.00  0.00     0.348 HD
ATOM     15  C   UNL A   1      31.445  24.199  23.951  1.00  0.00     0.153 C 
BRANCH  10  16
ATOM     16  C   UNL A   1      34.911  23.042  25.260  1.00  0.00     0.062 A 
ATOM     17  C   UNL A   1      35.046  21.624  25.126  1.00  0.00     0.131 A 
ATOM     18  C   UNL A   1      36.341  21.098  24.983  1.00  0.00     0.047 A 
ATOM     19  C   UNL A   1      37.473  21.903  25.105  1.00  0.00     0.004 A 
ATOM     20  C   UNL A   1      36.060  23.823  25.478  1.00  0.00     0.015 A 
ATOM     21  C   UNL A   1      37.333  23.253  25.406  1.00  0.00     0.001 A 
BRANCH  17  22
ATOM     22  O   UNL A   1      34.102  20.629  25.005  1.00  0.00    -0.478 OA
BRANCH  22  23
ATOM     23  C   UNL A   1      34.203  19.240  24.564  1.00  0.00     0.349 C 
BRANCH  23  24
ATOM     24  C   UNL A   1      33.028  18.349  24.937  1.00  0.00     0.104 C 
ATOM     25  N   UNL A   1      32.054  17.611  25.246  1.00  0.00    -0.195 NA
ENDBRANCH  23  24
ENDBRANCH  22  23
ENDBRANCH  17  22
ENDBRANCH  10  16
ENDBRANCH   7   9
ENDBRANCH   6   7
ENDBRANCH   5   6
ENDBRANCH   4   5
ENDBRANCH   3   4
ENDBRANCH   2   3
ENDBRANCH   1   2
BRANCH   1  26
ATOM     26  O   UNL A   1      34.910  31.949  27.480  1.00  0.00    -0.377 OA
BRANCH  26  27
ATOM     27  C   UNL A   1      34.376  32.788  28.497  1.00  0.00     0.188 C 
BRANCH  27  28
ATOM     28  C   UNL A   1      33.455  33.952  28.072  1.00  0.00     0.188 C 
BRANCH  28  29
ATOM     29  O   UNL A   1      33.992  35.239  28.302  1.00  0.00    -0.376 OA
BRANCH  29  30
ATOM     30  C   UNL A   1      33.142  36.227  28.863  1.00  0.00     0.202 C 
BRANCH  30  31
ATOM     31  C   UNL A   1      33.020  36.302  30.395  1.00  0.00     0.261 C 
BRANCH  31  32
ATOM     32  O   UNL A   1      34.109  35.751  31.150  1.00  0.00    -0.460 OA
BRANCH  32  33
ATOM     33  C   UNL A   1      33.817  34.769  32.034  1.00  0.00     0.338 C 
ATOM     34  O   UNL A   1      32.781  34.588  32.628  1.00  0.00    -0.246 OA
BRANCH  33  35
ATOM     35  C   UNL A   1      34.948  33.816  31.981  1.00  0.00     0.060 A 
ATOM     36  C   UNL A   1      34.798  32.535  32.531  1.00  0.00     0.016 A 
ATOM     37  C   UNL A   1      36.139  34.191  31.361  1.00  0.00     0.016 A 
ATOM     38  C   UNL A   1      35.847  31.618  32.461  1.00  0.00     0.010 A 
ATOM     39  C   UNL A   1      37.201  33.289  31.328  1.00  0.00     0.010 A 
ATOM     40  C   UNL A   1      37.067  32.010  31.900  1.00  0.00    -0.014 A 
BRANCH  40  41
ATOM     41  C   UNL A   1      38.289  31.207  32.119  1.00  0.00     0.031 A 
ATOM     42  C   UNL A   1      39.195  31.623  33.241  1.00  0.00     0.074 A 
ATOM     43  C   UNL A   1      38.618  30.179  31.320  1.00  0.00     0.049 A 
ATOM     44  N   UNL A   1      40.407  31.224  33.522  1.00  0.00    -0.248 NA
ATOM     45  C   UNL A   1      38.661  32.644  34.158  1.00  0.00     0.031 C 
ATOM     46  C   UNL A   1      37.794  29.642  30.241  1.00  0.00     0.029 A 
ATOM     47  N   UNL A   1      39.765  29.426  31.283  1.00  0.00    -0.354 N 
ATOM     48  C   UNL A   1      40.789  31.962  34.635  1.00  0.00     0.074 A 
ATOM     49  C   UNL A   1      39.694  32.848  34.960  1.00  0.00     0.031 C 
ATOM     50  C   UNL A   1      38.480  28.666  29.620  1.00  0.00     0.029 A 
ATOM     51  C   UNL A   1      39.806  28.549  30.227  1.00  0.00     0.049 A 
ATOM     52  H   UNL A   1      40.487  29.507  31.947  1.00  0.00     0.167 HD
ATOM     53  C   UNL A   1      41.952  31.909  35.323  1.00  0.00     0.031 A 
ATOM     54  C   UNL A   1      40.817  27.780  29.776  1.00  0.00     0.031 A 
ATOM     55  C   UNL A   1      43.050  31.052  34.972  1.00  0.00     0.049 A 
ATOM     56  C   UNL A   1      42.145  27.807  30.491  1.00  0.00     0.074 A 
ATOM     57  C   UNL A   1      44.276  30.922  35.598  1.00  0.00     0.029 A 
ATOM     58  N   UNL A   1      43.057  30.189  33.888  1.00  0.00    -0.354 N 
ATOM     59  N   UNL A   1      42.501  28.501  31.546  1.00  0.00    -0.248 NA
ATOM     60  C   UNL A   1      43.208  26.946  29.954  1.00  0.00     0.031 C 
ATOM     61  C   UNL A   1      45.049  30.027  34.854  1.00  0.00     0.029 A 
ATOM     62  C   UNL A   1      44.275  29.541  33.810  1.00  0.00     0.049 A 
ATOM     63  H   UNL A   1      42.305  30.056  33.265  1.00  0.00     0.167 HD
ATOM     64  C   UNL A   1      43.813  28.131  31.821  1.00  0.00     0.074 A 
ATOM     65  C   UNL A   1      44.190  27.153  30.822  1.00  0.00     0.031 C 
ATOM     66  C   UNL A   1      44.630  28.559  32.815  1.00  0.00     0.031 A 
BRANCH  53  67
ATOM     67  C   UNL A   1      42.103  32.849  36.486  1.00  0.00    -0.014 A 
ATOM     68  C   UNL A   1      41.659  32.501  37.773  1.00  0.00     0.009 A 
ATOM     69  C   UNL A   1      42.689  34.109  36.288  1.00  0.00     0.009 A 
ATOM     70  C   UNL A   1      41.756  33.414  38.825  1.00  0.00     0.001 A 
ATOM     71  C   UNL A   1      42.819  35.005  37.350  1.00  0.00     0.001 A 
ATOM     72  C   UNL A   1      42.339  34.663  38.613  1.00  0.00     0.000 A 
ENDBRANCH  53  67
BRANCH  54  73
ATOM     73  C   UNL A   1      40.626  26.950  28.557  1.00  0.00    -0.014 A 
ATOM     74  C   UNL A   1      41.084  27.393  27.308  1.00  0.00     0.009 A 
ATOM     75  C   UNL A   1      39.982  25.704  28.640  1.00  0.00     0.009 A 
ATOM     76  C   UNL A   1      40.884  26.614  26.163  1.00  0.00     0.001 A 
ATOM     77  C   UNL A   1      39.811  24.914  27.500  1.00  0.00     0.001 A 
ATOM     78  C   UNL A   1      40.255  25.373  26.262  1.00  0.00     0.000 A 
ENDBRANCH  54  73
BRANCH  66  79
ATOM     79  C   UNL A   1      45.994  27.935  32.926  1.00  0.00    -0.014 A 
ATOM     80  C   UNL A   1      47.117  28.504  32.307  1.00  0.00     0.009 A 
ATOM     81  C   UNL A   1      46.168  26.810  33.750  1.00  0.00     0.009 A 
ATOM     82  C   UNL A   1      48.384  27.949  32.501  1.00  0.00     0.001 A 
ATOM     83  C   UNL A   1      47.439  26.278  33.966  1.00  0.00     0.001 A 
ATOM     84  C   UNL A   1      48.546  26.844  33.338  1.00  0.00     0.000 A 
ENDBRANCH  66  79
ENDBRANCH  40  41
ENDBRANCH  33  35
ENDBRANCH  32  33
ENDBRANCH  31  32
ENDBRANCH  30  31
ENDBRANCH  29  30
ENDBRANCH  28  29
ENDBRANCH  27  28
ENDBRANCH  26  27
ENDBRANCH   1  26
TORSDOF 24
ENDMDL
MODEL 2
REMARK VINA RESULT:      -8.7      1.646      2.285
REMARK SMILES N#CCOc1ccccc1[C@H]1[NH2+][C@@H](C(=O)OCCOCCOCCOCCOC(=O)c2ccc(-c3c4nc(c(-c5ccccc5)c5ccc([nH]5)c(-c5ccccc5)c5nc(c(-c6ccccc6)c6ccc3[nH]6)C=C5)C=C4)cc2)CS1
REMARK SMILES IDX 21 1 20 2 19 3 18 4 17 5 16 6 14 7 15 8 13 9 11 10 12 11
REMARK SMILES IDX 80 12 79 15 10 16 5 17 6 18 7 19 9 20 8 21 4 22 3 23 2 24
REMARK SMILES IDX 1 25 22 26 23 27 24 28 25 29 26 30 27 31 28 32 29 33 30 34
REMARK SMILES IDX 31 35 32 36 78 37 33 38 77 39 34 40 35 41 36 42 71 43 37 44
REMARK SMILES IDX 76 45 70 46 72 47 38 48 75 49 69 50 68 51 39 53 61 54 46 55
REMARK SMILES IDX 60 56 47 57 50 58 59 59 73 60 48 61 49 62 58 64 74 65 51 66
REMARK SMILES IDX 40 67 41 68 45 69 42 70 44 71 43 72 62 73 63 74 67 75 64 76
REMARK SMILES IDX 66 77 65 78 52 79 53 80 57 81 54 82 56 83 55 84
REMARK H PARENT 12 13 12 14 72 52 50 63
REMARK Flexibility Score: inf
ROOT
ATOM      1  C   UNL A   1      34.491  30.348  27.607  1.00  0.00     0.188 C 
ENDROOT
BRANCH   1   2
ATOM      2  C   UNL A   1      33.066  30.148  27.069  1.00  0.00     0.188 C 
BRANCH   2   3
ATOM      3  O   UNL A   1      32.962  30.100  25.657  1.00  0.00    -0.376 OA
BRANCH   3   4
ATOM      4  C   UNL A   1      32.268  29.055  24.981  1.00  0.00     0.202 C 
BRANCH   4   5
ATOM      5  C   UNL A   1      31.306  28.142  25.736  1.00  0.00     0.261 C 
BRANCH   5   6
ATOM      6  O   UNL A   1      31.031  26.888  25.054  1.00  0.00    -0.459 OA
BRANCH   6   7
ATOM      7  C   UNL A   1      30.962  25.668  25.652  1.00  0.00     0.365 C 
ATOM      8  O   UNL A   1      30.145  25.471  26.546  1.00  0.00    -0.245 OA
BRANCH   7   9
ATOM      9  C   UNL A   1      31.969  24.612  25.193  1.00  0.00     0.304 C 
ATOM     10  C   UNL A   1      34.057  23.640  25.061  1.00  0.00     0.278 C 
ATOM     11  N   UNL A   1      33.323  24.562  25.938  1.00  0.00    -0.319 N 
ATOM     12  S   UNL A   1      33.988  24.490  23.485  1.00  0.00    -0.087 SA
ATOM     13  H   UNL A   1      33.767  25.480  25.981  1.00  0.00     0.348 HD
ATOM     14  H   UNL A   1      33.268  24.276  26.916  1.00  0.00     0.348 HD
ATOM     15  C   UNL A   1      32.228  24.624  23.671  1.00  0.00     0.153 C 
BRANCH  10  16
ATOM     16  C   UNL A   1      35.335  22.898  25.233  1.00  0.00     0.062 A 
ATOM     17  C   UNL A   1      35.417  21.516  24.875  1.00  0.00     0.131 A 
ATOM     18  C   UNL A   1      36.690  20.926  24.820  1.00  0.00     0.047 A 
ATOM     19  C   UNL A   1      37.831  21.613  25.232  1.00  0.00     0.004 A 
ATOM     20  C   UNL A   1      36.477  23.545  25.737  1.00  0.00     0.015 A 
ATOM     21  C   UNL A   1      37.717  22.902  25.741  1.00  0.00     0.001 A 
BRANCH  17  22
ATOM     22  O   UNL A   1      34.452  20.627  24.455  1.00  0.00    -0.478 OA
BRANCH  22  23
ATOM     23  C   UNL A   1      33.894  19.430  25.079  1.00  0.00     0.349 C 
BRANCH  23  24
ATOM     24  C   UNL A   1      34.255  18.114  24.406  1.00  0.00     0.104 C 
ATOM     25  N   UNL A   1      34.553  17.024  23.847  1.00  0.00    -0.195 NA
ENDBRANCH  23  24
ENDBRANCH  22  23
ENDBRANCH  17  22
ENDBRANCH  10  16
ENDBRANCH   7   9
ENDBRANCH   6   7
ENDBRANCH   5   6
ENDBRANCH   4   5
ENDBRANCH   3   4
ENDBRANCH   2   3
ENDBRANCH   1   2
BRANCH   1  26
ATOM     26  O   UNL A   1      34.950  31.704  27.668  1.00  0.00    -0.377 OA
BRANCH  26  27
ATOM     27  C   UNL A   1      34.373  32.530  28.672  1.00  0.00     0.188 C 
BRANCH  27  28
ATOM     28  C   UNL A   1      33.795  33.897  28.248  1.00  0.00     0.188 C 
BRANCH  28  29
ATOM     29  O   UNL A   1      34.294  34.997  28.983  1.00  0.00    -0.376 OA
BRANCH  29  30
ATOM     30  C   UNL A   1      33.566  36.215  28.938  1.00  0.00     0.202 C 
BRANCH  30  31
ATOM     31  C   UNL A   1      32.500  36.469  30.017  1.00  0.00     0.261 C 
BRANCH  31  32
ATOM     32  O   UNL A   1      32.958  37.069  31.238  1.00  0.00    -0.460 OA
BRANCH  32  33
ATOM     33  C   UNL A   1      32.713  36.400  32.389  1.00  0.00     0.338 C 
ATOM     34  O   UNL A   1      31.734  36.468  33.094  1.00  0.00    -0.246 OA
BRANCH  33  35
ATOM     35  C   UNL A   1      33.789  35.394  32.518  1.00  0.00     0.060 A 
ATOM     36  C   UNL A   1      33.478  34.102  32.969  1.00  0.00     0.016 A 
ATOM     37  C   UNL A   1      35.096  35.730  32.165  1.00  0.00     0.016 A 
ATOM     38  C   UNL A   1      34.479  33.136  33.067  1.00  0.00     0.010 A 
ATOM     39  C   UNL A   1      36.103  34.776  32.303  1.00  0.00     0.010 A 
ATOM     40  C   UNL A   1      35.803  33.486  32.778  1.00  0.00    -0.014 A 
BRANCH  40  41
ATOM     41  C   UNL A   1      36.920  32.614  33.199  1.00  0.00     0.031 A 
ATOM     42  C   UNL A   1      37.583  32.927  34.509  1.00  0.00     0.074 A 
ATOM     43  C   UNL A   1      37.374  31.614  32.426  1.00  0.00     0.049 A 
ATOM     44  N   UNL A   1      38.692  32.456  35.013  1.00  0.00    -0.248 NA
ATOM     45  C   UNL A   1      36.904  33.924  35.355  1.00  0.00     0.031 C 
ATOM     46  C   UNL A   1      36.778  31.174  31.168  1.00  0.00     0.029 A 
ATOM     47  N   UNL A   1      38.474  30.810  32.585  1.00  0.00    -0.354 N 
ATOM     48  C   UNL A   1      38.856  33.116  36.225  1.00  0.00     0.074 A 
ATOM     49  C   UNL A   1      37.750  34.036  36.366  1.00  0.00     0.031 C 
ATOM     50  C   UNL A   1      37.544  30.199  30.646  1.00  0.00     0.029 A 
ATOM     51  C   UNL A   1      38.706  29.987  31.509  1.00  0.00     0.049 A 
ATOM     52  H   UNL A   1      39.041  30.821  33.389  1.00  0.00     0.167 HD
ATOM     53  C   UNL A   1      39.844  32.971  37.137  1.00  0.00     0.031 A 
ATOM     54  C   UNL A   1      39.761  29.194  31.234  1.00  0.00     0.031 A 
ATOM     55  C   UNL A   1      40.960  32.082  36.972  1.00  0.00     0.049 A 
ATOM     56  C   UNL A   1      40.907  29.120  32.212  1.00  0.00     0.074 A 
ATOM     57  C   UNL A   1      42.019  31.860  37.832  1.00  0.00     0.029 A 
ATOM     58  N   UNL A   1      41.164  31.276  35.863  1.00  0.00    -0.354 N 
ATOM     59  N   UNL A   1      41.056  29.740  33.359  1.00  0.00    -0.248 NA
ATOM     60  C   UNL A   1      42.028  28.237  31.858  1.00  0.00     0.031 C 
ATOM     61  C   UNL A   1      42.900  30.968  37.213  1.00  0.00     0.029 A 
ATOM     62  C   UNL A   1      42.347  30.574  36.003  1.00  0.00     0.049 A 
ATOM     63  H   UNL A   1      40.558  31.212  35.090  1.00  0.00     0.167 HD
ATOM     64  C   UNL A   1      42.267  29.294  33.879  1.00  0.00     0.074 A 
ATOM     65  C   UNL A   1      42.811  28.352  32.924  1.00  0.00     0.031 C 
ATOM     66  C   UNL A   1      42.869  29.630  35.047  1.00  0.00     0.031 A 
BRANCH  53  67
ATOM     67  C   UNL A   1      39.779  33.842  38.361  1.00  0.00    -0.014 A 
ATOM     68  C   UNL A   1      39.163  33.399  39.543  1.00  0.00     0.009 A 
ATOM     69  C   UNL A   1      40.334  35.130  38.326  1.00  0.00     0.009 A 
ATOM     70  C   UNL A   1      39.063  34.247  40.647  1.00  0.00     0.001 A 
ATOM     71  C   UNL A   1      40.266  35.962  39.443  1.00  0.00     0.001 A 
ATOM     72  C   UNL A   1      39.617  35.526  40.598  1.00  0.00     0.000 A 
ENDBRANCH  53  67
BRANCH  54  73
ATOM     73  C   UNL A   1      39.803  28.439  29.954  1.00  0.00    -0.014 A 
ATOM     74  C   UNL A   1      39.236  27.160  29.856  1.00  0.00     0.009 A 
ATOM     75  C   UNL A   1      40.413  28.999  28.819  1.00  0.00     0.009 A 
ATOM     76  C   UNL A   1      39.296  26.449  28.653  1.00  0.00     0.001 A 
ATOM     77  C   UNL A   1      40.444  28.299  27.610  1.00  0.00     0.001 A 
ATOM     78  C   UNL A   1      39.892  27.022  27.530  1.00  0.00     0.000 A 
ENDBRANCH  54  73
BRANCH  66  79
ATOM     79  C   UNL A   1      44.155  28.936  35.403  1.00  0.00    -0.014 A 
ATOM     80  C   UNL A   1      45.350  29.646  35.584  1.00  0.00     0.009 A 
ATOM     81  C   UNL A   1      44.140  27.553  35.657  1.00  0.00     0.009 A 
ATOM     82  C   UNL A   1      46.507  28.983  35.999  1.00  0.00     0.001 A 
ATOM     83  C   UNL A   1      45.289  26.900  36.102  1.00  0.00     0.001 A 
ATOM     84  C   UNL A   1      46.474  27.613  36.267  1.00  0.00     0.000 A 
ENDBRANCH  66  79
ENDBRANCH  40  41
ENDBRANCH  33  35
ENDBRANCH  32  33
ENDBRANCH  31  32
ENDBRANCH  30  31
ENDBRANCH  29  30
ENDBRANCH  28  29
ENDBRANCH  27  28
ENDBRANCH  26  27
ENDBRANCH   1  26
TORSDOF 24
ENDMDL
MODEL 3
REMARK VINA RESULT:      -8.4      0.997      5.850
REMARK SMILES N#CCOc1ccccc1[C@H]1[NH2+][C@@H](C(=O)OCCOCCOCCOCCOC(=O)c2ccc(-c3c4nc(c(-c5ccccc5)c5ccc([nH]5)c(-c5ccccc5)c5nc(c(-c6ccccc6)c6ccc3[nH]6)C=C5)C=C4)cc2)CS1
REMARK SMILES IDX 21 1 20 2 19 3 18 4 17 5 16 6 14 7 15 8 13 9 11 10 12 11
REMARK SMILES IDX 80 12 79 15 10 16 5 17 6 18 7 19 9 20 8 21 4 22 3 23 2 24
REMARK SMILES IDX 1 25 22 26 23 27 24 28 25 29 26 30 27 31 28 32 29 33 30 34
REMARK SMILES IDX 31 35 32 36 78 37 33 38 77 39 34 40 35 41 36 42 71 43 37 44
REMARK SMILES IDX 76 45 70 46 72 47 38 48 75 49 69 50 68 51 39 53 61 54 46 55
REMARK SMILES IDX 60 56 47 57 50 58 59 59 73 60 48 61 49 62 58 64 74 65 51 66
REMARK SMILES IDX 40 67 41 68 45 69 42 70 44 71 43 72 62 73 63 74 67 75 64 76
REMARK SMILES IDX 66 77 65 78 52 79 53 80 57 81 54 82 56 83 55 84
REMARK H PARENT 12 13 12 14 72 52 50 63
REMARK Flexibility Score: inf
ROOT
ATOM      1  C   UNL A   1      33.996  30.489  27.351  1.00  0.00     0.188 C 
ENDROOT
BRANCH   1   2
ATOM      2  C   UNL A   1      32.475  30.406  27.150  1.00  0.00     0.188 C 
BRANCH   2   3
ATOM      3  O   UNL A   1      32.049  30.441  25.800  1.00  0.00    -0.376 OA
BRANCH   3   4
ATOM      4  C   UNL A   1      31.881  29.257  25.025  1.00  0.00     0.202 C 
BRANCH   4   5
ATOM      5  C   UNL A   1      32.311  27.899  25.572  1.00  0.00     0.261 C 
BRANCH   5   6
ATOM      6  O   UNL A   1      31.570  26.780  25.013  1.00  0.00    -0.459 OA
BRANCH   6   7
ATOM      7  C   UNL A   1      31.231  25.648  25.685  1.00  0.00     0.365 C 
ATOM      8  O   UNL A   1      30.314  25.673  26.500  1.00  0.00    -0.245 OA
BRANCH   7   9
ATOM      9  C   UNL A   1      32.072  24.400  25.412  1.00  0.00     0.304 C 
ATOM     10  C   UNL A   1      34.042  23.220  25.190  1.00  0.00     0.278 C 
ATOM     11  N   UNL A   1      33.558  24.447  25.838  1.00  0.00    -0.319 N 
ATOM     12  S   UNL A   1      33.642  23.522  23.471  1.00  0.00    -0.087 SA
ATOM     13  H   UNL A   1      34.029  25.277  25.477  1.00  0.00     0.348 HD
ATOM     14  H   UNL A   1      33.718  24.497  26.843  1.00  0.00     0.348 HD
ATOM     15  C   UNL A   1      31.976  23.895  23.957  1.00  0.00     0.153 C 
BRANCH  10  16
ATOM     16  C   UNL A   1      35.300  22.440  25.337  1.00  0.00     0.062 A 
ATOM     17  C   UNL A   1      35.313  21.037  25.057  1.00  0.00     0.131 A 
ATOM     18  C   UNL A   1      36.559  20.397  24.969  1.00  0.00     0.047 A 
ATOM     19  C   UNL A   1      37.746  21.062  25.276  1.00  0.00     0.004 A 
ATOM     20  C   UNL A   1      36.492  23.071  25.739  1.00  0.00     0.015 A 
ATOM     21  C   UNL A   1      37.706  22.381  25.713  1.00  0.00     0.001 A 
BRANCH  17  22
ATOM     22  O   UNL A   1      34.295  20.164  24.745  1.00  0.00    -0.478 OA
BRANCH  22  23
ATOM     23  C   UNL A   1      33.002  19.910  25.376  1.00  0.00     0.349 C 
BRANCH  23  24
ATOM     24  C   UNL A   1      32.541  18.460  25.360  1.00  0.00     0.104 C 
ATOM     25  N   UNL A   1      32.160  17.259  25.348  1.00  0.00    -0.195 NA
ENDBRANCH  23  24
ENDBRANCH  22  23
ENDBRANCH  17  22
ENDBRANCH  10  16
ENDBRANCH   7   9
ENDBRANCH   6   7
ENDBRANCH   5   6
ENDBRANCH   4   5
ENDBRANCH   3   4
ENDBRANCH   2   3
ENDBRANCH   1   2
BRANCH   1  26
ATOM     26  O   UNL A   1      34.543  31.811  27.419  1.00  0.00    -0.377 OA
BRANCH  26  27
ATOM     27  C   UNL A   1      34.030  32.665  28.435  1.00  0.00     0.188 C 
BRANCH  27  28
ATOM     28  C   UNL A   1      33.613  34.098  28.041  1.00  0.00     0.188 C 
BRANCH  28  29
ATOM     29  O   UNL A   1      34.042  35.101  28.940  1.00  0.00    -0.376 OA
BRANCH  29  30
ATOM     30  C   UNL A   1      33.077  35.679  29.806  1.00  0.00     0.202 C 
BRANCH  30  31
ATOM     31  C   UNL A   1      33.423  35.817  31.298  1.00  0.00     0.261 C 
BRANCH  31  32
ATOM     32  O   UNL A   1      34.593  35.118  31.749  1.00  0.00    -0.460 OA
BRANCH  32  33
ATOM     33  C   UNL A   1      34.405  33.939  32.386  1.00  0.00     0.338 C 
ATOM     34  O   UNL A   1      33.375  33.493  32.836  1.00  0.00    -0.246 OA
BRANCH  33  35
ATOM     35  C   UNL A   1      35.669  33.185  32.241  1.00  0.00     0.060 A 
ATOM     36  C   UNL A   1      35.815  31.949  32.888  1.00  0.00     0.016 A 
ATOM     37  C   UNL A   1      36.690  33.695  31.441  1.00  0.00     0.016 A 
ATOM     38  C   UNL A   1      36.991  31.215  32.736  1.00  0.00     0.010 A 
ATOM     39  C   UNL A   1      37.881  32.981  31.321  1.00  0.00     0.010 A 
ATOM     40  C   UNL A   1      38.045  31.753  31.988  1.00  0.00    -0.014 A 
BRANCH  40  41
ATOM     41  C   UNL A   1      39.406  31.184  32.090  1.00  0.00     0.031 A 
ATOM     42  C   UNL A   1      39.773  30.097  31.122  1.00  0.00     0.074 A 
ATOM     43  C   UNL A   1      40.271  31.573  33.041  1.00  0.00     0.049 A 
ATOM     44  N   UNL A   1      40.810  29.302  31.119  1.00  0.00    -0.248 NA
ATOM     45  C   UNL A   1      38.826  29.868  30.017  1.00  0.00     0.031 C 
ATOM     46  C   UNL A   1      40.056  32.656  33.995  1.00  0.00     0.029 A 
ATOM     47  N   UNL A   1      41.501  31.062  33.373  1.00  0.00    -0.354 N 
ATOM     48  C   UNL A   1      40.628  28.464  30.026  1.00  0.00     0.074 A 
ATOM     49  C   UNL A   1      39.373  28.829  29.408  1.00  0.00     0.031 C 
ATOM     50  C   UNL A   1      41.106  32.707  34.834  1.00  0.00     0.029 A 
ATOM     51  C   UNL A   1      42.037  31.627  34.504  1.00  0.00     0.049 A 
ATOM     52  H   UNL A   1      41.954  30.360  32.852  1.00  0.00     0.167 HD
ATOM     53  C   UNL A   1      41.434  27.474  29.579  1.00  0.00     0.031 A 
ATOM     54  C   UNL A   1      43.126  31.277  35.217  1.00  0.00     0.031 A 
ATOM     55  C   UNL A   1      42.661  27.092  30.221  1.00  0.00     0.049 A 
ATOM     56  C   UNL A   1      43.961  30.104  34.767  1.00  0.00     0.074 A 
ATOM     57  C   UNL A   1      43.552  26.100  29.855  1.00  0.00     0.029 A 
ATOM     58  N   UNL A   1      43.162  27.680  31.371  1.00  0.00    -0.354 N 
ATOM     59  N   UNL A   1      43.790  29.317  33.730  1.00  0.00    -0.248 NA
ATOM     60  C   UNL A   1      45.137  29.772  35.583  1.00  0.00     0.031 C 
ATOM     61  C   UNL A   1      44.560  26.045  30.822  1.00  0.00     0.029 A 
ATOM     62  C   UNL A   1      44.337  27.055  31.746  1.00  0.00     0.049 A 
ATOM     63  H   UNL A   1      42.744  28.432  31.851  1.00  0.00     0.167 HD
ATOM     64  C   UNL A   1      44.855  28.424  33.750  1.00  0.00     0.074 A 
ATOM     65  C   UNL A   1      45.667  28.765  34.899  1.00  0.00     0.031 C 
ATOM     66  C   UNL A   1      45.140  27.416  32.888  1.00  0.00     0.031 A 
BRANCH  53  67
ATOM     67  C   UNL A   1      40.970  26.706  28.373  1.00  0.00    -0.014 A 
ATOM     68  C   UNL A   1      41.401  27.043  27.079  1.00  0.00     0.009 A 
ATOM     69  C   UNL A   1      40.080  25.633  28.534  1.00  0.00     0.009 A 
ATOM     70  C   UNL A   1      40.911  26.353  25.969  1.00  0.00     0.001 A 
ATOM     71  C   UNL A   1      39.621  24.920  27.425  1.00  0.00     0.001 A 
ATOM     72  C   UNL A   1      40.025  25.290  26.144  1.00  0.00     0.000 A 
ENDBRANCH  53  67
BRANCH  54  73
ATOM     73  C   UNL A   1      43.466  32.021  36.459  1.00  0.00    -0.014 A 
ATOM     74  C   UNL A   1      42.953  31.619  37.700  1.00  0.00     0.009 A 
ATOM     75  C   UNL A   1      44.312  33.142  36.406  1.00  0.00     0.009 A 
ATOM     76  C   UNL A   1      43.263  32.336  38.860  1.00  0.00     0.001 A 
ATOM     77  C   UNL A   1      44.645  33.837  37.570  1.00  0.00     0.001 A 
ATOM     78  C   UNL A   1      44.114  33.438  38.796  1.00  0.00     0.000 A 
ENDBRANCH  54  73
BRANCH  66  79
ATOM     79  C   UNL A   1      46.410  26.640  33.104  1.00  0.00    -0.014 A 
ATOM     80  C   UNL A   1      46.440  25.479  33.890  1.00  0.00     0.009 A 
ATOM     81  C   UNL A   1      47.575  27.030  32.421  1.00  0.00     0.009 A 
ATOM     82  C   UNL A   1      47.616  24.734  33.999  1.00  0.00     0.001 A 
ATOM     83  C   UNL A   1      48.739  26.265  32.508  1.00  0.00     0.001 A 
ATOM     84  C   UNL A   1      48.761  25.121  33.301  1.00  0.00     0.000 A 
ENDBRANCH  66  79
ENDBRANCH  40  41
ENDBRANCH  33  35
ENDBRANCH  32  33
ENDBRANCH  31  32
ENDBRANCH  30  31
ENDBRANCH  29  30
ENDBRANCH  28  29
ENDBRANCH  27  28
ENDBRANCH  26  27
ENDBRANCH   1  26
TORSDOF 24
ENDMDL
