MODEL 1
REMARK VINA RESULT:      -8.9      0.000      0.000
REMARK SMILES C[C@H]([NH2+][C@@H](C)Cc1cccs1)[C@@H](C)C(=O)OCCOCCOCCOCCOC(=O)c1ccc(-c2c3nc(c(-c4ccccc4)c4ccc([nH]4)c(-c4ccccc4)c4nc(c(-c5ccccc5)c5ccc2[nH]5)C=C4)C=C3)cc1
REMARK SMILES IDX 20 1 19 2 18 3 17 4 16 5 14 6 15 7 12 8 13 9 2 10 1 11 3 12
REMARK SMILES IDX 4 15 5 16 6 17 7 18 8 19 11 20 9 21 10 22 21 23 22 24 23 25
REMARK SMILES IDX 24 26 25 27 26 28 27 29 28 30 29 31 30 32 31 33 32 34 78 35
REMARK SMILES IDX 33 36 77 37 34 38 35 39 36 40 71 41 37 42 76 43 70 44 72 45
REMARK SMILES IDX 38 46 75 47 69 48 68 49 39 51 61 52 46 53 60 54 47 55 50 56
REMARK SMILES IDX 59 57 73 58 48 59 49 60 58 62 74 63 51 64 40 65 41 66 45 67
REMARK SMILES IDX 42 68 44 69 43 70 62 71 63 72 67 73 64 74 66 75 65 76 52 77
REMARK SMILES IDX 53 78 57 79 54 80 56 81 55 82
REMARK H PARENT 3 13 3 14 72 50 50 61
REMARK Flexibility Score: inf
ROOT
ATOM      1  C   UNL A   1      42.109  21.201  26.789  1.00  0.00     0.188 C 
ENDROOT
BRANCH   1   2
ATOM      2  O   UNL A   1      41.028  22.021  27.217  1.00  0.00    -0.376 OA
BRANCH   2   3
ATOM      3  C   UNL A   1      39.936  22.202  26.316  1.00  0.00     0.202 C 
BRANCH   3   4
ATOM      4  C   UNL A   1      38.740  23.081  26.751  1.00  0.00     0.261 C 
BRANCH   4   5
ATOM      5  O   UNL A   1      38.158  23.982  25.762  1.00  0.00    -0.463 OA
BRANCH   5   6
ATOM      6  C   UNL A   1      36.928  23.629  25.325  1.00  0.00     0.314 C 
ATOM      7  O   UNL A   1      35.966  24.398  25.399  1.00  0.00    -0.252 OA
BRANCH   6   8
ATOM      8  C   UNL A   1      36.736  22.265  24.639  1.00  0.00     0.154 C 
ATOM      9  C   UNL A   1      36.394  22.622  23.174  1.00  0.00     0.026 C 
BRANCH   8  10
ATOM     10  C   UNL A   1      35.811  21.069  25.060  1.00  0.00     0.193 C 
ATOM     11  C   UNL A   1      36.378  19.686  24.774  1.00  0.00     0.076 C 
BRANCH  10  12
ATOM     12  N   UNL A   1      34.486  21.345  24.411  1.00  0.00    -0.341 N 
ATOM     13  H   UNL A   1      34.170  20.457  24.020  1.00  0.00     0.346 HD
ATOM     14  H   UNL A   1      34.714  22.112  23.779  1.00  0.00     0.346 HD
BRANCH  12  15
ATOM     15  C   UNL A   1      33.347  21.892  25.163  1.00  0.00     0.184 C 
ATOM     16  C   UNL A   1      32.924  23.217  24.517  1.00  0.00     0.075 C 
BRANCH  15  17
ATOM     17  C   UNL A   1      32.104  20.955  25.088  1.00  0.00     0.111 C 
BRANCH  17  18
ATOM     18  C   UNL A   1      32.415  19.665  24.405  1.00  0.00     0.010 A 
ATOM     19  C   UNL A   1      32.332  19.405  23.055  1.00  0.00     0.015 A 
ATOM     20  S   UNL A   1      32.909  18.292  25.297  1.00  0.00    -0.149 S 
ATOM     21  C   UNL A   1      32.601  18.046  22.764  1.00  0.00     0.012 A 
ATOM     22  C   UNL A   1      32.920  17.321  23.890  1.00  0.00     0.065 A 
ENDBRANCH  17  18
ENDBRANCH  15  17
ENDBRANCH  12  15
ENDBRANCH  10  12
ENDBRANCH   8  10
ENDBRANCH   6   8
ENDBRANCH   5   6
ENDBRANCH   4   5
ENDBRANCH   3   4
ENDBRANCH   2   3
ENDBRANCH   1   2
BRANCH   1  23
ATOM     23  C   UNL A   1      41.738  19.820  26.243  1.00  0.00     0.188 C 
BRANCH  23  24
ATOM     24  O   UNL A   1      42.884  19.013  26.039  1.00  0.00    -0.377 OA
BRANCH  24  25
ATOM     25  C   UNL A   1      43.774  19.318  24.974  1.00  0.00     0.188 C 
BRANCH  25  26
ATOM     26  C   UNL A   1      45.252  19.536  25.340  1.00  0.00     0.188 C 
BRANCH  26  27
ATOM     27  O   UNL A   1      45.986  20.571  24.679  1.00  0.00    -0.376 OA
BRANCH  27  28
ATOM     28  C   UNL A   1      45.708  21.920  25.036  1.00  0.00     0.202 C 
BRANCH  28  29
ATOM     29  C   UNL A   1      45.057  22.785  23.957  1.00  0.00     0.261 C 
BRANCH  29  30
ATOM     30  O   UNL A   1      44.165  23.748  24.539  1.00  0.00    -0.460 OA
BRANCH  30  31
ATOM     31  C   UNL A   1      44.782  24.845  25.037  1.00  0.00     0.338 C 
ATOM     32  O   UNL A   1      45.845  25.323  24.696  1.00  0.00    -0.246 OA
BRANCH  31  33
ATOM     33  C   UNL A   1      43.860  25.535  25.951  1.00  0.00     0.060 A 
ATOM     34  C   UNL A   1      44.106  26.893  26.184  1.00  0.00     0.016 A 
ATOM     35  C   UNL A   1      42.843  24.859  26.627  1.00  0.00     0.016 A 
ATOM     36  C   UNL A   1      43.349  27.585  27.115  1.00  0.00     0.010 A 
ATOM     37  C   UNL A   1      42.111  25.545  27.598  1.00  0.00     0.010 A 
ATOM     38  C   UNL A   1      42.391  26.897  27.865  1.00  0.00    -0.014 A 
BRANCH  38  39
ATOM     39  C   UNL A   1      41.867  27.551  29.078  1.00  0.00     0.031 A 
ATOM     40  C   UNL A   1      40.532  28.232  28.993  1.00  0.00     0.074 A 
ATOM     41  C   UNL A   1      42.528  27.462  30.243  1.00  0.00     0.049 A 
ATOM     42  N   UNL A   1      39.874  28.884  29.913  1.00  0.00    -0.248 NA
ATOM     43  C   UNL A   1      39.842  28.159  27.693  1.00  0.00     0.031 C 
ATOM     44  C   UNL A   1      43.783  26.741  30.450  1.00  0.00     0.029 A 
ATOM     45  N   UNL A   1      42.226  27.984  31.472  1.00  0.00    -0.354 N 
ATOM     46  C   UNL A   1      38.698  29.305  29.305  1.00  0.00     0.074 A 
ATOM     47  C   UNL A   1      38.741  28.855  27.932  1.00  0.00     0.031 C 
ATOM     48  C   UNL A   1      44.153  26.879  31.735  1.00  0.00     0.029 A 
ATOM     49  C   UNL A   1      43.184  27.732  32.422  1.00  0.00     0.049 A 
ATOM     50  H   UNL A   1      41.404  28.492  31.657  1.00  0.00     0.167 HD
ATOM     51  C   UNL A   1      37.676  30.008  29.846  1.00  0.00     0.031 A 
ATOM     52  C   UNL A   1      43.278  28.172  33.690  1.00  0.00     0.031 A 
ATOM     53  C   UNL A   1      37.662  30.472  31.206  1.00  0.00     0.049 A 
ATOM     54  C   UNL A   1      42.190  29.062  34.230  1.00  0.00     0.074 A 
ATOM     55  C   UNL A   1      36.683  31.195  31.861  1.00  0.00     0.029 A 
ATOM     56  N   UNL A   1      38.688  30.267  32.115  1.00  0.00    -0.354 N 
ATOM     57  N   UNL A   1      41.077  29.449  33.654  1.00  0.00    -0.248 NA
ATOM     58  C   UNL A   1      42.375  29.579  35.592  1.00  0.00     0.031 C 
ATOM     59  C   UNL A   1      37.150  31.490  33.145  1.00  0.00     0.029 A 
ATOM     60  C   UNL A   1      38.389  30.892  33.313  1.00  0.00     0.049 A 
ATOM     61  H   UNL A   1      39.509  29.753  31.936  1.00  0.00     0.167 HD
ATOM     62  C   UNL A   1      40.421  30.242  34.587  1.00  0.00     0.074 A 
ATOM     63  C   UNL A   1      41.250  30.257  35.776  1.00  0.00     0.031 C 
ATOM     64  C   UNL A   1      39.241  30.902  34.475  1.00  0.00     0.031 A 
BRANCH  51  65
ATOM     65  C   UNL A   1      36.529  30.368  28.943  1.00  0.00    -0.014 A 
ATOM     66  C   UNL A   1      35.681  29.388  28.402  1.00  0.00     0.009 A 
ATOM     67  C   UNL A   1      36.286  31.716  28.640  1.00  0.00     0.009 A 
ATOM     68  C   UNL A   1      34.636  29.751  27.550  1.00  0.00     0.001 A 
ATOM     69  C   UNL A   1      35.223  32.079  27.813  1.00  0.00     0.001 A 
ATOM     70  C   UNL A   1      34.405  31.096  27.260  1.00  0.00     0.000 A 
ENDBRANCH  51  65
BRANCH  52  71
ATOM     71  C   UNL A   1      44.466  27.825  34.512  1.00  0.00    -0.014 A 
ATOM     72  C   UNL A   1      45.616  28.626  34.491  1.00  0.00     0.009 A 
ATOM     73  C   UNL A   1      44.456  26.675  35.321  1.00  0.00     0.009 A 
ATOM     74  C   UNL A   1      46.737  28.273  35.245  1.00  0.00     0.001 A 
ATOM     75  C   UNL A   1      45.567  26.343  36.098  1.00  0.00     0.001 A 
ATOM     76  C   UNL A   1      46.710  27.136  36.053  1.00  0.00     0.000 A 
ENDBRANCH  52  71
BRANCH  64  77
ATOM     77  C   UNL A   1      38.778  31.687  35.670  1.00  0.00    -0.014 A 
ATOM     78  C   UNL A   1      38.059  31.072  36.707  1.00  0.00     0.009 A 
ATOM     79  C   UNL A   1      39.115  33.044  35.787  1.00  0.00     0.009 A 
ATOM     80  C   UNL A   1      37.661  31.809  37.823  1.00  0.00     0.001 A 
ATOM     81  C   UNL A   1      38.744  33.770  36.919  1.00  0.00     0.001 A 
ATOM     82  C   UNL A   1      38.011  33.155  37.932  1.00  0.00     0.000 A 
ENDBRANCH  64  77
ENDBRANCH  38  39
ENDBRANCH  31  33
ENDBRANCH  30  31
ENDBRANCH  29  30
ENDBRANCH  28  29
ENDBRANCH  27  28
ENDBRANCH  26  27
ENDBRANCH  25  26
ENDBRANCH  24  25
ENDBRANCH  23  24
ENDBRANCH   1  23
TORSDOF 25
ENDMDL
MODEL 2
REMARK VINA RESULT:      -8.9      0.518      5.810
REMARK SMILES C[C@H]([NH2+][C@@H](C)Cc1cccs1)[C@@H](C)C(=O)OCCOCCOCCOCCOC(=O)c1ccc(-c2c3nc(c(-c4ccccc4)c4ccc([nH]4)c(-c4ccccc4)c4nc(c(-c5ccccc5)c5ccc2[nH]5)C=C4)C=C3)cc1
REMARK SMILES IDX 20 1 19 2 18 3 17 4 16 5 14 6 15 7 12 8 13 9 2 10 1 11 3 12
REMARK SMILES IDX 4 15 5 16 6 17 7 18 8 19 11 20 9 21 10 22 21 23 22 24 23 25
REMARK SMILES IDX 24 26 25 27 26 28 27 29 28 30 29 31 30 32 31 33 32 34 78 35
REMARK SMILES IDX 33 36 77 37 34 38 35 39 36 40 71 41 37 42 76 43 70 44 72 45
REMARK SMILES IDX 38 46 75 47 69 48 68 49 39 51 61 52 46 53 60 54 47 55 50 56
REMARK SMILES IDX 59 57 73 58 48 59 49 60 58 62 74 63 51 64 40 65 41 66 45 67
REMARK SMILES IDX 42 68 44 69 43 70 62 71 63 72 67 73 64 74 66 75 65 76 52 77
REMARK SMILES IDX 53 78 57 79 54 80 56 81 55 82
REMARK H PARENT 3 13 3 14 72 50 50 61
REMARK Flexibility Score: inf
ROOT
ATOM      1  C   UNL A   1      41.991  21.049  26.750  1.00  0.00     0.188 C 
ENDROOT
BRANCH   1   2
ATOM      2  O   UNL A   1      41.004  21.950  27.239  1.00  0.00    -0.376 OA
BRANCH   2   3
ATOM      3  C   UNL A   1      39.821  22.125  26.459  1.00  0.00     0.202 C 
BRANCH   3   4
ATOM      4  C   UNL A   1      38.835  23.257  26.831  1.00  0.00     0.261 C 
BRANCH   4   5
ATOM      5  O   UNL A   1      38.224  24.015  25.744  1.00  0.00    -0.463 OA
BRANCH   5   6
ATOM      6  C   UNL A   1      36.966  23.636  25.424  1.00  0.00     0.314 C 
ATOM      7  O   UNL A   1      35.995  24.368  25.631  1.00  0.00    -0.252 OA
BRANCH   6   8
ATOM      8  C   UNL A   1      36.745  22.294  24.706  1.00  0.00     0.154 C 
ATOM      9  C   UNL A   1      36.264  22.696  23.292  1.00  0.00     0.026 C 
BRANCH   8  10
ATOM     10  C   UNL A   1      35.889  21.059  25.160  1.00  0.00     0.193 C 
ATOM     11  C   UNL A   1      36.526  19.703  24.897  1.00  0.00     0.076 C 
BRANCH  10  12
ATOM     12  N   UNL A   1      34.546  21.250  24.519  1.00  0.00    -0.341 N 
ATOM     13  H   UNL A   1      34.277  20.340  24.145  1.00  0.00     0.346 HD
ATOM     14  H   UNL A   1      34.725  22.019  23.873  1.00  0.00     0.346 HD
BRANCH  12  15
ATOM     15  C   UNL A   1      33.384  21.745  25.273  1.00  0.00     0.184 C 
ATOM     16  C   UNL A   1      32.987  23.118  24.716  1.00  0.00     0.075 C 
BRANCH  15  17
ATOM     17  C   UNL A   1      32.141  20.824  25.085  1.00  0.00     0.111 C 
BRANCH  17  18
ATOM     18  C   UNL A   1      32.493  19.536  24.417  1.00  0.00     0.010 A 
ATOM     19  C   UNL A   1      32.489  19.279  23.064  1.00  0.00     0.015 A 
ATOM     20  S   UNL A   1      32.937  18.161  25.333  1.00  0.00    -0.149 S 
ATOM     21  C   UNL A   1      32.777  17.922  22.786  1.00  0.00     0.012 A 
ATOM     22  C   UNL A   1      33.031  17.194  23.926  1.00  0.00     0.065 A 
ENDBRANCH  17  18
ENDBRANCH  15  17
ENDBRANCH  12  15
ENDBRANCH  10  12
ENDBRANCH   8  10
ENDBRANCH   6   8
ENDBRANCH   5   6
ENDBRANCH   4   5
ENDBRANCH   3   4
ENDBRANCH   2   3
ENDBRANCH   1   2
BRANCH   1  23
ATOM     23  C   UNL A   1      41.495  19.667  26.322  1.00  0.00     0.188 C 
BRANCH  23  24
ATOM     24  O   UNL A   1      42.569  18.770  26.104  1.00  0.00    -0.377 OA
BRANCH  24  25
ATOM     25  C   UNL A   1      43.436  18.972  24.997  1.00  0.00     0.188 C 
BRANCH  25  26
ATOM     26  C   UNL A   1      44.937  19.119  25.302  1.00  0.00     0.188 C 
BRANCH  26  27
ATOM     27  O   UNL A   1      45.688  20.129  24.623  1.00  0.00    -0.376 OA
BRANCH  27  28
ATOM     28  C   UNL A   1      45.455  21.487  24.977  1.00  0.00     0.202 C 
BRANCH  28  29
ATOM     29  C   UNL A   1      44.757  22.351  23.927  1.00  0.00     0.261 C 
BRANCH  29  30
ATOM     30  O   UNL A   1      43.916  23.335  24.548  1.00  0.00    -0.460 OA
BRANCH  30  31
ATOM     31  C   UNL A   1      44.572  24.440  24.969  1.00  0.00     0.338 C 
ATOM     32  O   UNL A   1      45.652  24.854  24.599  1.00  0.00    -0.246 OA
BRANCH  31  33
ATOM     33  C   UNL A   1      43.677  25.225  25.831  1.00  0.00     0.060 A 
ATOM     34  C   UNL A   1      43.908  26.605  25.887  1.00  0.00     0.016 A 
ATOM     35  C   UNL A   1      42.700  24.625  26.627  1.00  0.00     0.016 A 
ATOM     36  C   UNL A   1      43.179  27.396  26.758  1.00  0.00     0.010 A 
ATOM     37  C   UNL A   1      41.997  25.415  27.539  1.00  0.00     0.010 A 
ATOM     38  C   UNL A   1      42.265  26.793  27.627  1.00  0.00    -0.014 A 
BRANCH  38  39
ATOM     39  C   UNL A   1      41.779  27.584  28.773  1.00  0.00     0.031 A 
ATOM     40  C   UNL A   1      42.564  27.530  30.051  1.00  0.00     0.074 A 
ATOM     41  C   UNL A   1      40.717  28.394  28.643  1.00  0.00     0.049 A 
ATOM     42  N   UNL A   1      42.331  28.121  31.192  1.00  0.00    -0.248 NA
ATOM     43  C   UNL A   1      43.782  26.702  30.038  1.00  0.00     0.031 C 
ATOM     44  C   UNL A   1      39.947  28.590  27.416  1.00  0.00     0.029 A 
ATOM     45  N   UNL A   1      40.108  29.205  29.563  1.00  0.00    -0.354 N 
ATOM     46  C   UNL A   1      43.366  27.733  32.033  1.00  0.00     0.074 A 
ATOM     47  C   UNL A   1      44.217  26.839  31.281  1.00  0.00     0.031 C 
ATOM     48  C   UNL A   1      38.954  29.460  27.663  1.00  0.00     0.029 A 
ATOM     49  C   UNL A   1      38.996  29.844  29.073  1.00  0.00     0.049 A 
ATOM     50  H   UNL A   1      40.434  29.319  30.484  1.00  0.00     0.167 HD
ATOM     51  C   UNL A   1      43.584  28.090  33.320  1.00  0.00     0.031 A 
ATOM     52  C   UNL A   1      38.099  30.620  29.709  1.00  0.00     0.031 A 
ATOM     53  C   UNL A   1      42.712  28.959  34.062  1.00  0.00     0.049 A 
ATOM     54  C   UNL A   1      38.292  30.898  31.176  1.00  0.00     0.074 A 
ATOM     55  C   UNL A   1      42.830  29.387  35.371  1.00  0.00     0.029 A 
ATOM     56  N   UNL A   1      41.549  29.521  33.558  1.00  0.00    -0.354 N 
ATOM     57  N   UNL A   1      39.276  30.536  31.963  1.00  0.00    -0.248 NA
ATOM     58  C   UNL A   1      37.246  31.687  31.841  1.00  0.00     0.031 C 
ATOM     59  C   UNL A   1      41.700  30.149  35.681  1.00  0.00     0.029 A 
ATOM     60  C   UNL A   1      40.913  30.253  34.544  1.00  0.00     0.049 A 
ATOM     61  H   UNL A   1      41.224  29.415  32.635  1.00  0.00     0.167 HD
ATOM     62  C   UNL A   1      38.978  31.065  33.213  1.00  0.00     0.074 A 
ATOM     63  C   UNL A   1      37.734  31.795  33.070  1.00  0.00     0.031 C 
ATOM     64  C   UNL A   1      39.667  30.958  34.377  1.00  0.00     0.031 A 
BRANCH  51  65
ATOM     65  C   UNL A   1      44.773  27.486  34.015  1.00  0.00    -0.014 A 
ATOM     66  C   UNL A   1      44.777  26.149  34.439  1.00  0.00     0.009 A 
ATOM     67  C   UNL A   1      45.915  28.272  34.234  1.00  0.00     0.009 A 
ATOM     68  C   UNL A   1      45.889  25.621  35.101  1.00  0.00     0.001 A 
ATOM     69  C   UNL A   1      47.036  27.734  34.868  1.00  0.00     0.001 A 
ATOM     70  C   UNL A   1      47.018  26.412  35.310  1.00  0.00     0.000 A 
ENDBRANCH  51  65
BRANCH  52  71
ATOM     71  C   UNL A   1      36.915  31.141  28.977  1.00  0.00    -0.014 A 
ATOM     72  C   UNL A   1      36.793  32.507  28.683  1.00  0.00     0.009 A 
ATOM     73  C   UNL A   1      35.889  30.268  28.576  1.00  0.00     0.009 A 
ATOM     74  C   UNL A   1      35.662  32.989  28.021  1.00  0.00     0.001 A 
ATOM     75  C   UNL A   1      34.775  30.748  27.887  1.00  0.00     0.001 A 
ATOM     76  C   UNL A   1      34.657  32.110  27.618  1.00  0.00     0.000 A 
ENDBRANCH  52  71
BRANCH  64  77
ATOM     77  C   UNL A   1      39.092  31.651  35.581  1.00  0.00    -0.014 A 
ATOM     78  C   UNL A   1      39.337  33.012  35.819  1.00  0.00     0.009 A 
ATOM     79  C   UNL A   1      38.249  30.946  36.454  1.00  0.00     0.009 A 
ATOM     80  C   UNL A   1      38.772  33.646  36.926  1.00  0.00     0.001 A 
ATOM     81  C   UNL A   1      37.659  31.592  37.541  1.00  0.00     0.001 A 
ATOM     82  C   UNL A   1      37.928  32.938  37.781  1.00  0.00     0.000 A 
ENDBRANCH  64  77
ENDBRANCH  38  39
ENDBRANCH  31  33
ENDBRANCH  30  31
ENDBRANCH  29  30
ENDBRANCH  28  29
ENDBRANCH  27  28
ENDBRANCH  26  27
ENDBRANCH  25  26
ENDBRANCH  24  25
ENDBRANCH  23  24
ENDBRANCH   1  23
TORSDOF 25
ENDMDL
MODEL 3
REMARK VINA RESULT:      -7.7      6.546     11.410
REMARK SMILES C[C@H]([NH2+][C@@H](C)Cc1cccs1)[C@@H](C)C(=O)OCCOCCOCCOCCOC(=O)c1ccc(-c2c3nc(c(-c4ccccc4)c4ccc([nH]4)c(-c4ccccc4)c4nc(c(-c5ccccc5)c5ccc2[nH]5)C=C4)C=C3)cc1
REMARK SMILES IDX 20 1 19 2 18 3 17 4 16 5 14 6 15 7 12 8 13 9 2 10 1 11 3 12
REMARK SMILES IDX 4 15 5 16 6 17 7 18 8 19 11 20 9 21 10 22 21 23 22 24 23 25
REMARK SMILES IDX 24 26 25 27 26 28 27 29 28 30 29 31 30 32 31 33 32 34 78 35
REMARK SMILES IDX 33 36 77 37 34 38 35 39 36 40 71 41 37 42 76 43 70 44 72 45
REMARK SMILES IDX 38 46 75 47 69 48 68 49 39 51 61 52 46 53 60 54 47 55 50 56
REMARK SMILES IDX 59 57 73 58 48 59 49 60 58 62 74 63 51 64 40 65 41 66 45 67
REMARK SMILES IDX 42 68 44 69 43 70 62 71 63 72 67 73 64 74 66 75 65 76 52 77
REMARK SMILES IDX 53 78 57 79 54 80 56 81 55 82
REMARK H PARENT 3 13 3 14 72 50 50 61
REMARK Flexibility Score: inf
ROOT
ATOM      1  C   UNL A   1      35.780  29.733  27.983  1.00  0.00     0.188 C 
ENDROOT
BRANCH   1   2
ATOM      2  O   UNL A   1      34.803  30.683  27.572  1.00  0.00    -0.376 OA
BRANCH   2   3
ATOM      3  C   UNL A   1      33.523  30.190  27.178  1.00  0.00     0.202 C 
BRANCH   3   4
ATOM      4  C   UNL A   1      33.293  28.662  27.111  1.00  0.00     0.261 C 
BRANCH   4   5
ATOM      5  O   UNL A   1      34.062  27.897  26.136  1.00  0.00    -0.463 OA
BRANCH   5   6
ATOM      6  C   UNL A   1      33.321  27.246  25.212  1.00  0.00     0.314 C 
ATOM      7  O   UNL A   1      33.597  27.288  24.010  1.00  0.00    -0.252 OA
BRANCH   6   8
ATOM      8  C   UNL A   1      32.151  26.360  25.673  1.00  0.00     0.154 C 
ATOM      9  C   UNL A   1      32.652  24.916  25.435  1.00  0.00     0.026 C 
BRANCH   8  10
ATOM     10  C   UNL A   1      30.643  26.411  25.242  1.00  0.00     0.193 C 
ATOM     11  C   UNL A   1      29.803  25.226  25.697  1.00  0.00     0.076 C 
BRANCH  10  12
ATOM     12  N   UNL A   1      30.661  26.626  23.757  1.00  0.00    -0.341 N 
ATOM     13  H   UNL A   1      30.323  25.759  23.339  1.00  0.00     0.346 HD
ATOM     14  H   UNL A   1      31.627  26.912  23.595  1.00  0.00     0.346 HD
BRANCH  12  15
ATOM     15  C   UNL A   1      29.905  27.713  23.116  1.00  0.00     0.184 C 
ATOM     16  C   UNL A   1      28.426  27.570  23.493  1.00  0.00     0.075 C 
BRANCH  15  17
ATOM     17  C   UNL A   1      30.354  29.111  23.639  1.00  0.00     0.111 C 
BRANCH  17  18
ATOM     18  C   UNL A   1      29.471  30.207  23.139  1.00  0.00     0.010 A 
ATOM     19  C   UNL A   1      28.818  31.152  23.899  1.00  0.00     0.015 A 
ATOM     20  S   UNL A   1      29.148  30.386  21.470  1.00  0.00    -0.149 S 
ATOM     21  C   UNL A   1      27.984  31.977  23.107  1.00  0.00     0.012 A 
ATOM     22  C   UNL A   1      28.057  31.667  21.768  1.00  0.00     0.065 A 
ENDBRANCH  17  18
ENDBRANCH  15  17
ENDBRANCH  12  15
ENDBRANCH  10  12
ENDBRANCH   8  10
ENDBRANCH   6   8
ENDBRANCH   5   6
ENDBRANCH   4   5
ENDBRANCH   3   4
ENDBRANCH   2   3
ENDBRANCH   1   2
BRANCH   1  23
ATOM     23  C   UNL A   1      36.882  30.252  28.909  1.00  0.00     0.188 C 
BRANCH  23  24
ATOM     24  O   UNL A   1      36.940  29.516  30.118  1.00  0.00    -0.377 OA
BRANCH  24  25
ATOM     25  C   UNL A   1      37.967  28.550  30.299  1.00  0.00     0.188 C 
BRANCH  25  26
ATOM     26  C   UNL A   1      39.038  28.454  29.199  1.00  0.00     0.188 C 
BRANCH  26  27
ATOM     27  O   UNL A   1      38.924  27.432  28.204  1.00  0.00    -0.376 OA
BRANCH  27  28
ATOM     28  C   UNL A   1      39.660  26.229  28.393  1.00  0.00     0.202 C 
BRANCH  28  29
ATOM     29  C   UNL A   1      39.344  25.083  27.433  1.00  0.00     0.261 C 
BRANCH  29  30
ATOM     30  O   UNL A   1      40.411  24.893  26.491  1.00  0.00    -0.460 OA
BRANCH  30  31
ATOM     31  C   UNL A   1      41.460  24.189  26.975  1.00  0.00     0.338 C 
ATOM     32  O   UNL A   1      41.471  23.039  27.365  1.00  0.00    -0.246 OA
BRANCH  31  33
ATOM     33  C   UNL A   1      42.690  24.967  26.771  1.00  0.00     0.060 A 
ATOM     34  C   UNL A   1      43.364  25.390  27.922  1.00  0.00     0.016 A 
ATOM     35  C   UNL A   1      43.124  25.347  25.500  1.00  0.00     0.016 A 
ATOM     36  C   UNL A   1      44.469  26.218  27.814  1.00  0.00     0.010 A 
ATOM     37  C   UNL A   1      44.209  26.219  25.393  1.00  0.00     0.010 A 
ATOM     38  C   UNL A   1      44.855  26.681  26.553  1.00  0.00    -0.014 A 
BRANCH  38  39
ATOM     39  C   UNL A   1      45.782  27.827  26.495  1.00  0.00     0.031 A 
ATOM     40  C   UNL A   1      47.241  27.545  26.285  1.00  0.00     0.074 A 
ATOM     41  C   UNL A   1      45.317  29.085  26.543  1.00  0.00     0.049 A 
ATOM     42  N   UNL A   1      48.244  28.379  26.214  1.00  0.00    -0.248 NA
ATOM     43  C   UNL A   1      47.619  26.131  26.123  1.00  0.00     0.031 C 
ATOM     44  C   UNL A   1      43.909  29.463  26.649  1.00  0.00     0.029 A 
ATOM     45  N   UNL A   1      45.989  30.277  26.505  1.00  0.00    -0.354 N 
ATOM     46  C   UNL A   1      49.370  27.593  26.008  1.00  0.00     0.074 A 
ATOM     47  C   UNL A   1      48.933  26.215  25.986  1.00  0.00     0.031 C 
ATOM     48  C   UNL A   1      43.822  30.803  26.681  1.00  0.00     0.029 A 
ATOM     49  C   UNL A   1      45.170  31.369  26.642  1.00  0.00     0.049 A 
ATOM     50  H   UNL A   1      46.965  30.345  26.392  1.00  0.00     0.167 HD
ATOM     51  C   UNL A   1      50.656  27.987  25.853  1.00  0.00     0.031 A 
ATOM     52  C   UNL A   1      45.484  32.673  26.758  1.00  0.00     0.031 A 
ATOM     53  C   UNL A   1      51.077  29.360  25.905  1.00  0.00     0.049 A 
ATOM     54  C   UNL A   1      46.934  33.076  26.713  1.00  0.00     0.074 A 
ATOM     55  C   UNL A   1      52.352  29.877  25.766  1.00  0.00     0.029 A 
ATOM     56  N   UNL A   1      50.229  30.434  26.129  1.00  0.00    -0.354 N 
ATOM     57  N   UNL A   1      47.993  32.330  26.510  1.00  0.00    -0.248 NA
ATOM     58  C   UNL A   1      47.230  34.499  26.921  1.00  0.00     0.031 C 
ATOM     59  C   UNL A   1      52.284  31.257  25.978  1.00  0.00     0.029 A 
ATOM     60  C   UNL A   1      50.958  31.608  26.180  1.00  0.00     0.049 A 
ATOM     61  H   UNL A   1      49.253  30.370  26.235  1.00  0.00     0.167 HD
ATOM     62  C   UNL A   1      49.080  33.194  26.548  1.00  0.00     0.074 A 
ATOM     63  C   UNL A   1      48.548  34.523  26.769  1.00  0.00     0.031 C 
ATOM     64  C   UNL A   1      50.402  32.916  26.416  1.00  0.00     0.031 A 
BRANCH  51  65
ATOM     65  C   UNL A   1      51.694  26.913  25.681  1.00  0.00    -0.014 A 
ATOM     66  C   UNL A   1      52.229  26.222  26.780  1.00  0.00     0.009 A 
ATOM     67  C   UNL A   1      52.133  26.579  24.391  1.00  0.00     0.009 A 
ATOM     68  C   UNL A   1      53.207  25.244  26.591  1.00  0.00     0.001 A 
ATOM     69  C   UNL A   1      53.088  25.579  24.202  1.00  0.00     0.001 A 
ATOM     70  C   UNL A   1      53.632  24.920  25.303  1.00  0.00     0.000 A 
ENDBRANCH  51  65
BRANCH  52  71
ATOM     71  C   UNL A   1      44.413  33.679  26.982  1.00  0.00    -0.014 A 
ATOM     72  C   UNL A   1      43.954  33.968  28.275  1.00  0.00     0.009 A 
ATOM     73  C   UNL A   1      43.835  34.352  25.892  1.00  0.00     0.009 A 
ATOM     74  C   UNL A   1      42.926  34.894  28.469  1.00  0.00     0.001 A 
ATOM     75  C   UNL A   1      42.830  35.300  26.092  1.00  0.00     0.001 A 
ATOM     76  C   UNL A   1      42.369  35.563  27.379  1.00  0.00     0.000 A 
ENDBRANCH  52  71
BRANCH  64  77
ATOM     77  C   UNL A   1      51.357  34.074  26.500  1.00  0.00    -0.014 A 
ATOM     78  C   UNL A   1      51.953  34.435  27.718  1.00  0.00     0.009 A 
ATOM     79  C   UNL A   1      51.709  34.774  25.335  1.00  0.00     0.009 A 
ATOM     80  C   UNL A   1      52.859  35.495  27.772  1.00  0.00     0.001 A 
ATOM     81  C   UNL A   1      52.640  35.811  25.387  1.00  0.00     0.001 A 
ATOM     82  C   UNL A   1      53.208  36.176  26.606  1.00  0.00     0.000 A 
ENDBRANCH  64  77
ENDBRANCH  38  39
ENDBRANCH  31  33
ENDBRANCH  30  31
ENDBRANCH  29  30
ENDBRANCH  28  29
ENDBRANCH  27  28
ENDBRANCH  26  27
ENDBRANCH  25  26
ENDBRANCH  24  25
ENDBRANCH  23  24
ENDBRANCH   1  23
TORSDOF 25
ENDMDL
