MODEL 1
REMARK VINA RESULT:      -9.2      0.000      0.000
REMARK SMILES CCOc1cccc(-c2ccc([C@@H](C)C(=O)OCCOCCOCCOCCOC(=O)c3ccc(-c4c5nc(c(-c6ccccc6)c6ccc([nH]6)c(-c6ccccc6)c6nc(c(-c7ccccc7)c7ccc4[nH]7)C=C6)C=C5)cc3)cc2F)c1
REMARK SMILES IDX 22 1 21 2 20 3 19 4 18 5 17 6 15 7 16 8 13 9 14 10 12 11
REMARK SMILES IDX 9 12 10 13 81 14 11 15 80 16 82 17 8 18 4 19 5 20 83 21 6 22
REMARK SMILES IDX 7 23 3 24 2 25 1 26 23 27 24 28 25 29 26 30 27 31 28 32
REMARK SMILES IDX 29 33 30 34 31 35 32 36 33 37 79 38 34 39 78 40 35 41 36 42
REMARK SMILES IDX 37 43 72 44 38 45 77 46 71 47 73 48 39 49 76 50 70 51 69 52
REMARK SMILES IDX 40 54 62 55 47 56 61 57 48 58 51 59 60 60 74 61 49 62 50 63
REMARK SMILES IDX 59 65 75 66 52 67 41 68 42 69 46 70 43 71 45 72 44 73 63 74
REMARK SMILES IDX 64 75 68 76 65 77 67 78 66 79 53 80 54 81 58 82 55 83 57 84
REMARK SMILES IDX 56 85
REMARK H PARENT 73 53 51 64
REMARK Flexibility Score: inf
ROOT
ATOM      1  C   UNL A   1      34.666  23.328  24.141  1.00  0.00     0.188 C 
ENDROOT
BRANCH   1   2
ATOM      2  C   UNL A   1      33.215  23.178  23.663  1.00  0.00     0.188 C 
BRANCH   2   3
ATOM      3  O   UNL A   1      32.150  23.097  24.597  1.00  0.00    -0.376 OA
BRANCH   3   4
ATOM      4  C   UNL A   1      32.290  23.605  25.916  1.00  0.00     0.202 C 
BRANCH   4   5
ATOM      5  C   UNL A   1      31.864  25.034  26.306  1.00  0.00     0.261 C 
BRANCH   5   6
ATOM      6  O   UNL A   1      31.025  25.754  25.382  1.00  0.00    -0.463 OA
BRANCH   6   7
ATOM      7  C   UNL A   1      31.607  26.784  24.729  1.00  0.00     0.313 C 
ATOM      8  O   UNL A   1      32.454  26.630  23.850  1.00  0.00    -0.252 OA
BRANCH   7   9
ATOM      9  C   UNL A   1      31.172  28.185  25.151  1.00  0.00     0.126 C 
ATOM     10  C   UNL A   1      30.622  28.901  23.923  1.00  0.00     0.025 C 
BRANCH   9  11
ATOM     11  C   UNL A   1      32.086  29.106  25.961  1.00  0.00    -0.031 A 
ATOM     12  C   UNL A   1      33.712  30.963  27.449  1.00  0.00     0.018 A 
ATOM     13  C   UNL A   1      34.108  29.628  27.237  1.00  0.00     0.012 A 
ATOM     14  C   UNL A   1      32.482  31.339  26.897  1.00  0.00     0.131 A 
ATOM     15  C   UNL A   1      33.314  28.715  26.507  1.00  0.00     0.005 A 
ATOM     16  C   UNL A   1      31.695  30.446  26.160  1.00  0.00     0.044 A 
ATOM     17  F   UNL A   1      32.023  32.591  27.055  1.00  0.00    -0.206 F 
BRANCH  12  18
ATOM     18  C   UNL A   1      34.567  31.925  28.186  1.00  0.00    -0.012 A 
ATOM     19  C   UNL A   1      34.877  33.651  29.895  1.00  0.00     0.119 A 
ATOM     20  C   UNL A   1      36.200  33.828  29.508  1.00  0.00     0.046 A 
ATOM     21  C   UNL A   1      34.063  32.722  29.232  1.00  0.00     0.055 A 
ATOM     22  C   UNL A   1      36.719  33.060  28.470  1.00  0.00     0.004 A 
ATOM     23  C   UNL A   1      35.912  32.118  27.819  1.00  0.00     0.009 A 
BRANCH  19  24
ATOM     24  O   UNL A   1      34.364  34.527  30.812  1.00  0.00    -0.494 OA
BRANCH  24  25
ATOM     25  C   UNL A   1      33.302  35.340  30.305  1.00  0.00     0.226 C 
ATOM     26  C   UNL A   1      32.954  36.426  31.299  1.00  0.00     0.049 C 
ENDBRANCH  24  25
ENDBRANCH  19  24
ENDBRANCH  12  18
ENDBRANCH   9  11
ENDBRANCH   7   9
ENDBRANCH   6   7
ENDBRANCH   5   6
ENDBRANCH   4   5
ENDBRANCH   3   4
ENDBRANCH   2   3
ENDBRANCH   1   2
BRANCH   1  27
ATOM     27  O   UNL A   1      35.470  22.180  23.967  1.00  0.00    -0.377 OA
BRANCH  27  28
ATOM     28  C   UNL A   1      35.561  21.276  25.056  1.00  0.00     0.188 C 
BRANCH  28  29
ATOM     29  C   UNL A   1      36.302  19.942  24.842  1.00  0.00     0.188 C 
BRANCH  29  30
ATOM     30  O   UNL A   1      37.634  19.928  25.336  1.00  0.00    -0.376 OA
BRANCH  30  31
ATOM     31  C   UNL A   1      38.344  21.155  25.375  1.00  0.00     0.202 C 
BRANCH  31  32
ATOM     32  C   UNL A   1      39.672  21.194  26.140  1.00  0.00     0.261 C 
BRANCH  32  33
ATOM     33  O   UNL A   1      40.408  19.966  26.261  1.00  0.00    -0.460 OA
BRANCH  33  34
ATOM     34  C   UNL A   1      41.725  19.967  25.973  1.00  0.00     0.338 C 
ATOM     35  O   UNL A   1      42.339  19.118  25.352  1.00  0.00    -0.246 OA
BRANCH  34  36
ATOM     36  C   UNL A   1      42.268  21.288  26.369  1.00  0.00     0.060 A 
ATOM     37  C   UNL A   1      42.487  21.551  27.728  1.00  0.00     0.016 A 
ATOM     38  C   UNL A   1      42.590  22.251  25.410  1.00  0.00     0.016 A 
ATOM     39  C   UNL A   1      43.027  22.776  28.134  1.00  0.00     0.010 A 
ATOM     40  C   UNL A   1      43.099  23.491  25.820  1.00  0.00     0.010 A 
ATOM     41  C   UNL A   1      43.308  23.767  27.184  1.00  0.00    -0.014 A 
BRANCH  41  42
ATOM     42  C   UNL A   1      43.694  25.134  27.617  1.00  0.00     0.031 A 
ATOM     43  C   UNL A   1      42.634  26.052  28.160  1.00  0.00     0.074 A 
ATOM     44  C   UNL A   1      44.967  25.563  27.527  1.00  0.00     0.049 A 
ATOM     45  N   UNL A   1      42.722  27.310  28.508  1.00  0.00    -0.248 NA
ATOM     46  C   UNL A   1      41.294  25.469  28.335  1.00  0.00     0.031 C 
ATOM     47  C   UNL A   1      46.103  24.761  27.078  1.00  0.00     0.029 A 
ATOM     48  N   UNL A   1      45.511  26.796  27.798  1.00  0.00    -0.354 N 
ATOM     49  C   UNL A   1      41.449  27.675  28.929  1.00  0.00     0.074 A 
ATOM     50  C   UNL A   1      40.604  26.511  28.775  1.00  0.00     0.031 C 
ATOM     51  C   UNL A   1      47.208  25.528  27.086  1.00  0.00     0.029 A 
ATOM     52  C   UNL A   1      46.849  26.885  27.497  1.00  0.00     0.049 A 
ATOM     53  H   UNL A   1      44.992  27.544  28.173  1.00  0.00     0.167 HD
ATOM     54  C   UNL A   1      41.021  28.871  29.399  1.00  0.00     0.031 A 
ATOM     55  C   UNL A   1      47.680  27.947  27.514  1.00  0.00     0.031 A 
ATOM     56  C   UNL A   1      41.856  30.037  29.531  1.00  0.00     0.049 A 
ATOM     57  C   UNL A   1      47.152  29.297  27.932  1.00  0.00     0.074 A 
ATOM     58  C   UNL A   1      41.515  31.289  30.011  1.00  0.00     0.029 A 
ATOM     59  N   UNL A   1      43.191  30.099  29.165  1.00  0.00    -0.354 N 
ATOM     60  N   UNL A   1      45.955  29.623  28.355  1.00  0.00    -0.248 NA
ATOM     61  C   UNL A   1      48.094  30.426  27.871  1.00  0.00     0.031 C 
ATOM     62  C   UNL A   1      42.624  32.128  29.868  1.00  0.00     0.029 A 
ATOM     63  C   UNL A   1      43.676  31.380  29.366  1.00  0.00     0.049 A 
ATOM     64  H   UNL A   1      43.716  29.343  28.814  1.00  0.00     0.167 HD
ATOM     65  C   UNL A   1      46.007  30.985  28.632  1.00  0.00     0.074 A 
ATOM     66  C   UNL A   1      47.359  31.420  28.350  1.00  0.00     0.031 C 
ATOM     67  C   UNL A   1      45.022  31.803  29.076  1.00  0.00     0.031 A 
BRANCH  54  68
ATOM     68  C   UNL A   1      39.568  28.995  29.761  1.00  0.00    -0.014 A 
ATOM     69  C   UNL A   1      38.603  29.369  28.813  1.00  0.00     0.009 A 
ATOM     70  C   UNL A   1      39.151  28.689  31.067  1.00  0.00     0.009 A 
ATOM     71  C   UNL A   1      37.258  29.467  29.174  1.00  0.00     0.001 A 
ATOM     72  C   UNL A   1      37.802  28.756  31.417  1.00  0.00     0.001 A 
ATOM     73  C   UNL A   1      36.857  29.155  30.473  1.00  0.00     0.000 A 
ENDBRANCH  54  68
BRANCH  55  74
ATOM     74  C   UNL A   1      49.094  27.799  27.074  1.00  0.00    -0.014 A 
ATOM     75  C   UNL A   1      50.103  27.470  27.992  1.00  0.00     0.009 A 
ATOM     76  C   UNL A   1      49.451  28.028  25.734  1.00  0.00     0.009 A 
ATOM     77  C   UNL A   1      51.438  27.397  27.585  1.00  0.00     0.001 A 
ATOM     78  C   UNL A   1      50.780  27.922  25.323  1.00  0.00     0.001 A 
ATOM     79  C   UNL A   1      51.775  27.618  26.250  1.00  0.00     0.000 A 
ENDBRANCH  55  74
BRANCH  67  80
ATOM     80  C   UNL A   1      45.369  33.249  29.311  1.00  0.00    -0.014 A 
ATOM     81  C   UNL A   1      44.901  34.259  28.457  1.00  0.00     0.009 A 
ATOM     82  C   UNL A   1      46.128  33.610  30.436  1.00  0.00     0.009 A 
ATOM     83  C   UNL A   1      45.211  35.598  28.708  1.00  0.00     0.001 A 
ATOM     84  C   UNL A   1      46.408  34.952  30.703  1.00  0.00     0.001 A 
ATOM     85  C   UNL A   1      45.957  35.943  29.835  1.00  0.00     0.000 A 
ENDBRANCH  67  80
ENDBRANCH  41  42
ENDBRANCH  34  36
ENDBRANCH  33  34
ENDBRANCH  32  33
ENDBRANCH  31  32
ENDBRANCH  30  31
ENDBRANCH  29  30
ENDBRANCH  28  29
ENDBRANCH  27  28
ENDBRANCH   1  27
TORSDOF 24
ENDMDL
MODEL 2
REMARK VINA RESULT:      -9.1      2.613      7.366
REMARK SMILES CCOc1cccc(-c2ccc([C@@H](C)C(=O)OCCOCCOCCOCCOC(=O)c3ccc(-c4c5nc(c(-c6ccccc6)c6ccc([nH]6)c(-c6ccccc6)c6nc(c(-c7ccccc7)c7ccc4[nH]7)C=C6)C=C5)cc3)cc2F)c1
REMARK SMILES IDX 22 1 21 2 20 3 19 4 18 5 17 6 15 7 16 8 13 9 14 10 12 11
REMARK SMILES IDX 9 12 10 13 81 14 11 15 80 16 82 17 8 18 4 19 5 20 83 21 6 22
REMARK SMILES IDX 7 23 3 24 2 25 1 26 23 27 24 28 25 29 26 30 27 31 28 32
REMARK SMILES IDX 29 33 30 34 31 35 32 36 33 37 79 38 34 39 78 40 35 41 36 42
REMARK SMILES IDX 37 43 72 44 38 45 77 46 71 47 73 48 39 49 76 50 70 51 69 52
REMARK SMILES IDX 40 54 62 55 47 56 61 57 48 58 51 59 60 60 74 61 49 62 50 63
REMARK SMILES IDX 59 65 75 66 52 67 41 68 42 69 46 70 43 71 45 72 44 73 63 74
REMARK SMILES IDX 64 75 68 76 65 77 67 78 66 79 53 80 54 81 58 82 55 83 57 84
REMARK SMILES IDX 56 85
REMARK H PARENT 73 53 51 64
REMARK Flexibility Score: inf
ROOT
ATOM      1  C   UNL A   1      39.175  23.580  26.255  1.00  0.00     0.188 C 
ENDROOT
BRANCH   1   2
ATOM      2  C   UNL A   1      38.278  22.393  25.877  1.00  0.00     0.188 C 
BRANCH   2   3
ATOM      3  O   UNL A   1      37.609  22.362  24.625  1.00  0.00    -0.376 OA
BRANCH   3   4
ATOM      4  C   UNL A   1      36.210  22.135  24.547  1.00  0.00     0.202 C 
BRANCH   4   5
ATOM      5  C   UNL A   1      35.566  20.779  24.900  1.00  0.00     0.261 C 
BRANCH   5   6
ATOM      6  O   UNL A   1      34.276  20.802  25.541  1.00  0.00    -0.463 OA
BRANCH   6   7
ATOM      7  C   UNL A   1      33.347  19.958  25.037  1.00  0.00     0.313 C 
ATOM      8  O   UNL A   1      33.388  18.739  25.199  1.00  0.00    -0.252 OA
BRANCH   7   9
ATOM      9  C   UNL A   1      32.226  20.595  24.221  1.00  0.00     0.126 C 
ATOM     10  C   UNL A   1      32.227  19.959  22.836  1.00  0.00     0.025 C 
BRANCH   9  11
ATOM     11  C   UNL A   1      32.054  22.112  24.128  1.00  0.00    -0.031 A 
ATOM     12  C   UNL A   1      31.834  24.971  23.834  1.00  0.00     0.018 A 
ATOM     13  C   UNL A   1      31.225  24.282  24.901  1.00  0.00     0.012 A 
ATOM     14  C   UNL A   1      32.552  24.190  22.921  1.00  0.00     0.131 A 
ATOM     15  C   UNL A   1      31.331  22.880  25.049  1.00  0.00     0.005 A 
ATOM     16  C   UNL A   1      32.676  22.803  23.068  1.00  0.00     0.044 A 
ATOM     17  F   UNL A   1      33.160  24.763  21.870  1.00  0.00    -0.206 F 
BRANCH  12  18
ATOM     18  C   UNL A   1      31.747  26.446  23.705  1.00  0.00    -0.012 A 
ATOM     19  C   UNL A   1      32.351  28.704  24.434  1.00  0.00     0.119 A 
ATOM     20  C   UNL A   1      31.482  29.261  23.503  1.00  0.00     0.046 A 
ATOM     21  C   UNL A   1      32.472  27.312  24.546  1.00  0.00     0.055 A 
ATOM     22  C   UNL A   1      30.747  28.426  22.667  1.00  0.00     0.004 A 
ATOM     23  C   UNL A   1      30.881  27.035  22.766  1.00  0.00     0.009 A 
BRANCH  19  24
ATOM     24  O   UNL A   1      32.938  29.550  25.336  1.00  0.00    -0.494 OA
BRANCH  24  25
ATOM     25  C   UNL A   1      33.090  28.987  26.642  1.00  0.00     0.226 C 
ATOM     26  C   UNL A   1      34.321  29.555  27.315  1.00  0.00     0.049 C 
ENDBRANCH  24  25
ENDBRANCH  19  24
ENDBRANCH  12  18
ENDBRANCH   9  11
ENDBRANCH   7   9
ENDBRANCH   6   7
ENDBRANCH   5   6
ENDBRANCH   4   5
ENDBRANCH   3   4
ENDBRANCH   2   3
ENDBRANCH   1   2
BRANCH   1  27
ATOM     27  O   UNL A   1      39.578  23.612  27.608  1.00  0.00    -0.377 OA
BRANCH  27  28
ATOM     28  C   UNL A   1      40.856  23.080  27.921  1.00  0.00     0.188 C 
BRANCH  28  29
ATOM     29  C   UNL A   1      41.011  21.551  28.015  1.00  0.00     0.188 C 
BRANCH  29  30
ATOM     30  O   UNL A   1      42.217  21.049  27.456  1.00  0.00    -0.376 OA
BRANCH  30  31
ATOM     31  C   UNL A   1      42.189  19.767  26.852  1.00  0.00     0.202 C 
BRANCH  31  32
ATOM     32  C   UNL A   1      42.774  19.623  25.442  1.00  0.00     0.261 C 
BRANCH  32  33
ATOM     33  O   UNL A   1      44.068  19.012  25.316  1.00  0.00    -0.460 OA
BRANCH  33  34
ATOM     34  C   UNL A   1      44.939  19.513  24.417  1.00  0.00     0.338 C 
ATOM     35  O   UNL A   1      45.368  18.954  23.423  1.00  0.00    -0.246 OA
BRANCH  34  36
ATOM     36  C   UNL A   1      45.134  20.948  24.736  1.00  0.00     0.060 A 
ATOM     37  C   UNL A   1      45.542  21.306  26.028  1.00  0.00     0.016 A 
ATOM     38  C   UNL A   1      44.947  21.933  23.764  1.00  0.00     0.016 A 
ATOM     39  C   UNL A   1      45.764  22.648  26.352  1.00  0.00     0.010 A 
ATOM     40  C   UNL A   1      45.137  23.280  24.099  1.00  0.00     0.010 A 
ATOM     41  C   UNL A   1      45.533  23.648  25.399  1.00  0.00    -0.014 A 
BRANCH  41  42
ATOM     42  C   UNL A   1      45.576  25.081  25.787  1.00  0.00     0.031 A 
ATOM     43  C   UNL A   1      46.903  25.789  25.806  1.00  0.00     0.074 A 
ATOM     44  C   UNL A   1      44.458  25.748  26.124  1.00  0.00     0.049 A 
ATOM     45  N   UNL A   1      47.191  27.003  26.200  1.00  0.00    -0.248 NA
ATOM     46  C   UNL A   1      48.058  25.024  25.313  1.00  0.00     0.031 C 
ATOM     47  C   UNL A   1      43.102  25.204  26.090  1.00  0.00     0.029 A 
ATOM     48  N   UNL A   1      44.293  27.035  26.578  1.00  0.00    -0.354 N 
ATOM     49  C   UNL A   1      48.561  27.143  26.017  1.00  0.00     0.074 A 
ATOM     50  C   UNL A   1      49.049  25.886  25.494  1.00  0.00     0.031 C 
ATOM     51  C   UNL A   1      42.244  26.144  26.525  1.00  0.00     0.029 A 
ATOM     52  C   UNL A   1      42.994  27.340  26.910  1.00  0.00     0.049 A 
ATOM     53  H   UNL A   1      45.034  27.678  26.659  1.00  0.00     0.167 HD
ATOM     54  C   UNL A   1      49.344  28.221  26.262  1.00  0.00     0.031 A 
ATOM     55  C   UNL A   1      42.475  28.440  27.491  1.00  0.00     0.031 A 
ATOM     56  C   UNL A   1      48.865  29.466  26.804  1.00  0.00     0.049 A 
ATOM     57  C   UNL A   1      43.385  29.584  27.861  1.00  0.00     0.074 A 
ATOM     58  C   UNL A   1      49.581  30.620  27.074  1.00  0.00     0.029 A 
ATOM     59  N   UNL A   1      47.553  29.714  27.174  1.00  0.00    -0.354 N 
ATOM     60  N   UNL A   1      44.674  29.717  27.657  1.00  0.00    -0.248 NA
ATOM     61  C   UNL A   1      42.767  30.730  28.548  1.00  0.00     0.031 C 
ATOM     62  C   UNL A   1      48.716  31.539  27.674  1.00  0.00     0.029 A 
ATOM     63  C   UNL A   1      47.447  30.985  27.712  1.00  0.00     0.049 A 
ATOM     64  H   UNL A   1      46.807  29.080  27.070  1.00  0.00     0.167 HD
ATOM     65  C   UNL A   1      45.013  30.966  28.166  1.00  0.00     0.074 A 
ATOM     66  C   UNL A   1      43.793  31.560  28.669  1.00  0.00     0.031 C 
ATOM     67  C   UNL A   1      46.228  31.565  28.216  1.00  0.00     0.031 A 
BRANCH  54  68
ATOM     68  C   UNL A   1      50.817  28.085  25.993  1.00  0.00    -0.014 A 
ATOM     69  C   UNL A   1      51.370  28.419  24.747  1.00  0.00     0.009 A 
ATOM     70  C   UNL A   1      51.673  27.657  27.021  1.00  0.00     0.009 A 
ATOM     71  C   UNL A   1      52.743  28.293  24.526  1.00  0.00     0.001 A 
ATOM     72  C   UNL A   1      53.049  27.563  26.808  1.00  0.00     0.001 A 
ATOM     73  C   UNL A   1      53.581  27.872  25.558  1.00  0.00     0.000 A 
ENDBRANCH  54  68
BRANCH  55  74
ATOM     74  C   UNL A   1      41.023  28.505  27.811  1.00  0.00    -0.014 A 
ATOM     75  C   UNL A   1      40.113  29.081  26.912  1.00  0.00     0.009 A 
ATOM     76  C   UNL A   1      40.543  28.024  29.041  1.00  0.00     0.009 A 
ATOM     77  C   UNL A   1      38.761  29.198  27.248  1.00  0.00     0.001 A 
ATOM     78  C   UNL A   1      39.187  28.111  29.360  1.00  0.00     0.001 A 
ATOM     79  C   UNL A   1      38.298  28.708  28.468  1.00  0.00     0.000 A 
ENDBRANCH  55  74
BRANCH  67  80
ATOM     80  C   UNL A   1      46.301  32.945  28.812  1.00  0.00    -0.014 A 
ATOM     81  C   UNL A   1      46.402  33.135  30.199  1.00  0.00     0.009 A 
ATOM     82  C   UNL A   1      46.326  34.068  27.970  1.00  0.00     0.009 A 
ATOM     83  C   UNL A   1      46.498  34.423  30.731  1.00  0.00     0.001 A 
ATOM     84  C   UNL A   1      46.456  35.353  28.502  1.00  0.00     0.001 A 
ATOM     85  C   UNL A   1      46.532  35.529  29.882  1.00  0.00     0.000 A 
ENDBRANCH  67  80
ENDBRANCH  41  42
ENDBRANCH  34  36
ENDBRANCH  33  34
ENDBRANCH  32  33
ENDBRANCH  31  32
ENDBRANCH  30  31
ENDBRANCH  29  30
ENDBRANCH  28  29
ENDBRANCH  27  28
ENDBRANCH   1  27
TORSDOF 24
ENDMDL
MODEL 3
REMARK VINA RESULT:      -8.6      2.920      5.217
REMARK SMILES CCOc1cccc(-c2ccc([C@@H](C)C(=O)OCCOCCOCCOCCOC(=O)c3ccc(-c4c5nc(c(-c6ccccc6)c6ccc([nH]6)c(-c6ccccc6)c6nc(c(-c7ccccc7)c7ccc4[nH]7)C=C6)C=C5)cc3)cc2F)c1
REMARK SMILES IDX 22 1 21 2 20 3 19 4 18 5 17 6 15 7 16 8 13 9 14 10 12 11
REMARK SMILES IDX 9 12 10 13 81 14 11 15 80 16 82 17 8 18 4 19 5 20 83 21 6 22
REMARK SMILES IDX 7 23 3 24 2 25 1 26 23 27 24 28 25 29 26 30 27 31 28 32
REMARK SMILES IDX 29 33 30 34 31 35 32 36 33 37 79 38 34 39 78 40 35 41 36 42
REMARK SMILES IDX 37 43 72 44 38 45 77 46 71 47 73 48 39 49 76 50 70 51 69 52
REMARK SMILES IDX 40 54 62 55 47 56 61 57 48 58 51 59 60 60 74 61 49 62 50 63
REMARK SMILES IDX 59 65 75 66 52 67 41 68 42 69 46 70 43 71 45 72 44 73 63 74
REMARK SMILES IDX 64 75 68 76 65 77 67 78 66 79 53 80 54 81 58 82 55 83 57 84
REMARK SMILES IDX 56 85
REMARK H PARENT 73 53 51 64
REMARK Flexibility Score: inf
ROOT
ATOM      1  C   UNL A   1      37.783  22.019  25.630  1.00  0.00     0.188 C 
ENDROOT
BRANCH   1   2
ATOM      2  C   UNL A   1      36.744  21.085  24.995  1.00  0.00     0.188 C 
BRANCH   2   3
ATOM      3  O   UNL A   1      35.389  21.117  25.416  1.00  0.00    -0.376 OA
BRANCH   3   4
ATOM      4  C   UNL A   1      34.488  22.093  24.913  1.00  0.00     0.202 C 
BRANCH   4   5
ATOM      5  C   UNL A   1      32.975  22.057  25.208  1.00  0.00     0.261 C 
BRANCH   5   6
ATOM      6  O   UNL A   1      32.342  23.295  25.587  1.00  0.00    -0.463 OA
BRANCH   6   7
ATOM      7  C   UNL A   1      31.540  23.861  24.656  1.00  0.00     0.313 C 
ATOM      8  O   UNL A   1      31.381  23.391  23.530  1.00  0.00    -0.252 OA
BRANCH   7   9
ATOM      9  C   UNL A   1      30.836  25.152  25.065  1.00  0.00     0.126 C 
ATOM     10  C   UNL A   1      29.952  25.598  23.906  1.00  0.00     0.025 C 
BRANCH   9  11
ATOM     11  C   UNL A   1      31.599  26.336  25.661  1.00  0.00    -0.031 A 
ATOM     12  C   UNL A   1      33.142  28.552  26.668  1.00  0.00     0.018 A 
ATOM     13  C   UNL A   1      32.050  28.019  27.380  1.00  0.00     0.012 A 
ATOM     14  C   UNL A   1      33.437  27.946  25.441  1.00  0.00     0.131 A 
ATOM     15  C   UNL A   1      31.292  26.932  26.890  1.00  0.00     0.005 A 
ATOM     16  C   UNL A   1      32.701  26.859  24.954  1.00  0.00     0.044 A 
ATOM     17  F   UNL A   1      34.457  28.394  24.692  1.00  0.00    -0.206 F 
BRANCH  12  18
ATOM     18  C   UNL A   1      33.955  29.670  27.205  1.00  0.00    -0.012 A 
ATOM     19  C   UNL A   1      36.004  30.537  28.228  1.00  0.00     0.119 A 
ATOM     20  C   UNL A   1      35.447  31.807  28.320  1.00  0.00     0.046 A 
ATOM     21  C   UNL A   1      35.263  29.476  27.692  1.00  0.00     0.055 A 
ATOM     22  C   UNL A   1      34.153  32.023  27.855  1.00  0.00     0.004 A 
ATOM     23  C   UNL A   1      33.418  30.967  27.301  1.00  0.00     0.009 A 
BRANCH  19  24
ATOM     24  O   UNL A   1      37.215  30.333  28.833  1.00  0.00    -0.494 OA
BRANCH  24  25
ATOM     25  C   UNL A   1      37.277  29.135  29.613  1.00  0.00     0.226 C 
ATOM     26  C   UNL A   1      38.655  28.977  30.218  1.00  0.00     0.049 C 
ENDBRANCH  24  25
ENDBRANCH  19  24
ENDBRANCH  12  18
ENDBRANCH   9  11
ENDBRANCH   7   9
ENDBRANCH   6   7
ENDBRANCH   5   6
ENDBRANCH   4   5
ENDBRANCH   3   4
ENDBRANCH   2   3
ENDBRANCH   1   2
BRANCH   1  27
ATOM     27  O   UNL A   1      39.109  21.533  25.612  1.00  0.00    -0.377 OA
BRANCH  27  28
ATOM     28  C   UNL A   1      39.330  20.221  26.103  1.00  0.00     0.188 C 
BRANCH  28  29
ATOM     29  C   UNL A   1      40.772  19.681  26.132  1.00  0.00     0.188 C 
BRANCH  29  30
ATOM     30  O   UNL A   1      41.499  20.018  27.305  1.00  0.00    -0.376 OA
BRANCH  30  31
ATOM     31  C   UNL A   1      42.437  21.078  27.226  1.00  0.00     0.202 C 
BRANCH  31  32
ATOM     32  C   UNL A   1      42.924  21.508  25.837  1.00  0.00     0.261 C 
BRANCH  32  33
ATOM     33  O   UNL A   1      42.557  22.819  25.379  1.00  0.00    -0.460 OA
BRANCH  33  34
ATOM     34  C   UNL A   1      42.043  23.696  26.264  1.00  0.00     0.338 C 
ATOM     35  O   UNL A   1      41.063  23.535  26.970  1.00  0.00    -0.246 OA
BRANCH  34  36
ATOM     36  C   UNL A   1      42.998  24.824  26.382  1.00  0.00     0.060 A 
ATOM     37  C   UNL A   1      43.271  25.603  25.250  1.00  0.00     0.016 A 
ATOM     38  C   UNL A   1      43.598  25.134  27.605  1.00  0.00     0.016 A 
ATOM     39  C   UNL A   1      44.145  26.692  25.334  1.00  0.00     0.010 A 
ATOM     40  C   UNL A   1      44.499  26.204  27.681  1.00  0.00     0.010 A 
ATOM     41  C   UNL A   1      44.789  26.982  26.544  1.00  0.00    -0.014 A 
BRANCH  41  42
ATOM     42  C   UNL A   1      45.861  28.008  26.597  1.00  0.00     0.031 A 
ATOM     43  C   UNL A   1      45.475  29.457  26.722  1.00  0.00     0.074 A 
ATOM     44  C   UNL A   1      47.161  27.667  26.528  1.00  0.00     0.049 A 
ATOM     45  N   UNL A   1      46.231  30.523  26.693  1.00  0.00    -0.248 NA
ATOM     46  C   UNL A   1      44.043  29.736  26.908  1.00  0.00     0.031 C 
ATOM     47  C   UNL A   1      47.677  26.302  26.467  1.00  0.00     0.029 A 
ATOM     48  N   UNL A   1      48.286  28.455  26.485  1.00  0.00    -0.354 N 
ATOM     49  C   UNL A   1      45.367  31.602  26.841  1.00  0.00     0.074 A 
ATOM     50  C   UNL A   1      44.030  31.061  26.942  1.00  0.00     0.031 C 
ATOM     51  C   UNL A   1      49.019  26.347  26.374  1.00  0.00     0.029 A 
ATOM     52  C   UNL A   1      49.451  27.743  26.324  1.00  0.00     0.049 A 
ATOM     53  H   UNL A   1      48.261  29.437  26.562  1.00  0.00     0.167 HD
ATOM     54  C   UNL A   1      45.660  32.924  26.888  1.00  0.00     0.031 A 
ATOM     55  C   UNL A   1      50.715  28.168  26.122  1.00  0.00     0.031 A 
ATOM     56  C   UNL A   1      46.988  33.466  26.765  1.00  0.00     0.049 A 
ATOM     57  C   UNL A   1      51.000  29.648  26.063  1.00  0.00     0.074 A 
ATOM     58  C   UNL A   1      47.386  34.791  26.814  1.00  0.00     0.029 A 
ATOM     59  N   UNL A   1      48.132  32.713  26.550  1.00  0.00    -0.354 N 
ATOM     60  N   UNL A   1      50.180  30.657  26.233  1.00  0.00    -0.248 NA
ATOM     61  C   UNL A   1      52.388  30.046  25.779  1.00  0.00     0.031 C 
ATOM     62  C   UNL A   1      48.759  34.845  26.557  1.00  0.00     0.029 A 
ATOM     63  C   UNL A   1      49.228  33.549  26.419  1.00  0.00     0.049 A 
ATOM     64  H   UNL A   1      48.160  31.731  26.498  1.00  0.00     0.167 HD
ATOM     65  C   UNL A   1      50.956  31.804  26.102  1.00  0.00     0.074 A 
ATOM     66  C   UNL A   1      52.315  31.367  25.859  1.00  0.00     0.031 C 
ATOM     67  C   UNL A   1      50.576  33.104  26.172  1.00  0.00     0.031 A 
BRANCH  54  68
ATOM     68  C   UNL A   1      44.513  33.884  27.031  1.00  0.00    -0.014 A 
ATOM     69  C   UNL A   1      44.041  34.281  28.292  1.00  0.00     0.009 A 
ATOM     70  C   UNL A   1      43.924  34.436  25.882  1.00  0.00     0.009 A 
ATOM     71  C   UNL A   1      42.980  35.184  28.397  1.00  0.00     0.001 A 
ATOM     72  C   UNL A   1      42.885  35.362  25.990  1.00  0.00     0.001 A 
ATOM     73  C   UNL A   1      42.407  35.727  27.248  1.00  0.00     0.000 A 
ENDBRANCH  54  68
BRANCH  55  74
ATOM     74  C   UNL A   1      51.811  27.185  25.908  1.00  0.00    -0.014 A 
ATOM     75  C   UNL A   1      52.570  26.707  26.987  1.00  0.00     0.009 A 
ATOM     76  C   UNL A   1      52.132  26.748  24.612  1.00  0.00     0.009 A 
ATOM     77  C   UNL A   1      53.640  25.834  26.771  1.00  0.00     0.001 A 
ATOM     78  C   UNL A   1      53.180  25.850  24.402  1.00  0.00     0.001 A 
ATOM     79  C   UNL A   1      53.941  25.403  25.480  1.00  0.00     0.000 A 
ENDBRANCH  55  74
BRANCH  67  80
ATOM     80  C   UNL A   1      51.643  34.152  26.009  1.00  0.00    -0.014 A 
ATOM     81  C   UNL A   1      52.416  34.581  27.100  1.00  0.00     0.009 A 
ATOM     82  C   UNL A   1      51.919  34.675  24.736  1.00  0.00     0.009 A 
ATOM     83  C   UNL A   1      53.421  35.533  26.923  1.00  0.00     0.001 A 
ATOM     84  C   UNL A   1      52.948  35.602  24.556  1.00  0.00     0.001 A 
ATOM     85  C   UNL A   1      53.691  36.037  25.650  1.00  0.00     0.000 A 
ENDBRANCH  67  80
ENDBRANCH  41  42
ENDBRANCH  34  36
ENDBRANCH  33  34
ENDBRANCH  32  33
ENDBRANCH  31  32
ENDBRANCH  30  31
ENDBRANCH  29  30
ENDBRANCH  28  29
ENDBRANCH  27  28
ENDBRANCH   1  27
TORSDOF 24
ENDMDL
