MODEL 1
REMARK VINA RESULT:     -10.7      0.000      0.000
REMARK SMILES C[NH+]1CCC([NH+]2CCC(Oc3ccc4ccccc4c3)(C(=O)OCCOCCOCCOCCOC(=O)c3ccc(-c4c5nc(c(-c6ccccc6)c6ccc([nH]6)c(-c6ccccc6)c6nc(c(-c7ccccc7)c7ccc4[nH]7)C=C6)C=C5)cc3)CC2)CC1
REMARK SMILES IDX 29 1 28 2 27 3 26 4 25 5 24 6 23 7 21 8 22 9 9 10 6 11 7 12
REMARK SMILES IDX 87 13 8 15 86 16 5 17 1 18 2 19 3 20 89 21 4 23 88 24 10 25
REMARK SMILES IDX 11 26 12 27 20 28 13 29 19 30 14 31 18 32 15 33 17 34 16 35
REMARK SMILES IDX 30 36 31 37 32 38 33 39 34 40 35 41 36 42 37 43 38 44 39 45
REMARK SMILES IDX 85 46 40 47 84 48 41 49 42 50 43 51 78 52 44 53 83 54 77 55
REMARK SMILES IDX 79 56 45 57 82 58 76 59 75 60 46 62 68 63 53 64 67 65 54 66
REMARK SMILES IDX 57 67 66 68 80 69 55 70 56 71 65 73 81 74 58 75 47 76 48 77
REMARK SMILES IDX 52 78 49 79 51 80 50 81 69 82 70 83 74 84 71 85 73 86 72 87
REMARK SMILES IDX 59 88 60 89 64 90 61 91 63 92 62 93
REMARK H PARENT 6 14 2 22 79 61 57 72
REMARK Flexibility Score: inf
ROOT
ATOM      1  O   UNL A   1      33.127  27.642  26.863  1.00  0.00    -0.377 OA
ENDROOT
BRANCH   1   2
ATOM      2  C   UNL A   1      31.730  27.490  26.986  1.00  0.00     0.188 C 
BRANCH   2   3
ATOM      3  C   UNL A   1      31.118  26.175  26.492  1.00  0.00     0.188 C 
BRANCH   3   4
ATOM      4  O   UNL A   1      31.655  24.938  26.928  1.00  0.00    -0.376 OA
BRANCH   4   5
ATOM      5  C   UNL A   1      31.401  23.761  26.177  1.00  0.00     0.202 C 
BRANCH   5   6
ATOM      6  C   UNL A   1      32.191  22.464  26.463  1.00  0.00     0.261 C 
BRANCH   6   7
ATOM      7  O   UNL A   1      33.612  22.445  26.174  1.00  0.00    -0.460 OA
BRANCH   7   8
ATOM      8  C   UNL A   1      33.980  21.971  24.948  1.00  0.00     0.351 C 
ATOM      9  O   UNL A   1      33.758  20.812  24.598  1.00  0.00    -0.247 OA
BRANCH   8  10
ATOM     10  C   UNL A   1      34.776  22.982  24.063  1.00  0.00     0.216 C 
ATOM     11  N   UNL A   1      33.422  25.613  23.380  1.00  0.00    -0.332 N 
ATOM     12  C   UNL A   1      34.385  25.581  24.480  1.00  0.00     0.267 C 
ATOM     13  C   UNL A   1      32.844  24.305  23.069  1.00  0.00     0.267 C 
ATOM     14  H   UNL A   1      33.978  25.852  22.560  1.00  0.00     0.348 HD
ATOM     15  C   UNL A   1      35.256  24.320  24.664  1.00  0.00     0.122 C 
ATOM     16  C   UNL A   1      33.937  23.259  22.797  1.00  0.00     0.122 C 
BRANCH  11  17
ATOM     17  C   UNL A   1      32.415  26.727  23.468  1.00  0.00     0.195 C 
ATOM     18  C   UNL A   1      29.890  29.875  21.811  1.00  0.00     0.332 C 
ATOM     19  N   UNL A   1      30.828  28.786  22.082  1.00  0.00    -0.337 N 
ATOM     20  C   UNL A   1      30.142  27.612  22.633  1.00  0.00     0.268 C 
ATOM     21  C   UNL A   1      31.880  29.207  23.011  1.00  0.00     0.268 C 
ATOM     22  H   UNL A   1      31.252  28.536  21.189  1.00  0.00     0.347 HD
ATOM     23  C   UNL A   1      31.112  26.428  22.682  1.00  0.00     0.126 C 
ATOM     24  C   UNL A   1      32.961  28.126  23.107  1.00  0.00     0.126 C 
ENDBRANCH  11  17
BRANCH  10  25
ATOM     25  O   UNL A   1      35.929  22.088  23.901  1.00  0.00    -0.475 OA
BRANCH  25  26
ATOM     26  C   UNL A   1      36.990  22.269  24.730  1.00  0.00     0.121 A 
ATOM     27  C   UNL A   1      37.132  23.436  25.472  1.00  0.00     0.047 A 
ATOM     28  C   UNL A   1      37.848  21.195  24.937  1.00  0.00     0.055 A 
ATOM     29  C   UNL A   1      38.226  23.597  26.316  1.00  0.00     0.012 A 
ATOM     30  C   UNL A   1      38.917  21.315  25.835  1.00  0.00    -0.015 A 
ATOM     31  C   UNL A   1      39.129  22.545  26.502  1.00  0.00    -0.018 A 
ATOM     32  C   UNL A   1      39.772  20.237  26.098  1.00  0.00     0.009 A 
ATOM     33  C   UNL A   1      40.219  22.683  27.370  1.00  0.00     0.009 A 
ATOM     34  C   UNL A   1      40.834  20.379  26.993  1.00  0.00     0.001 A 
ATOM     35  C   UNL A   1      41.065  21.603  27.615  1.00  0.00     0.001 A 
ENDBRANCH  25  26
ENDBRANCH  10  25
ENDBRANCH   8  10
ENDBRANCH   7   8
ENDBRANCH   6   7
ENDBRANCH   5   6
ENDBRANCH   4   5
ENDBRANCH   3   4
ENDBRANCH   2   3
ENDBRANCH   1   2
BRANCH   1  36
ATOM     36  C   UNL A   1      33.594  28.975  26.734  1.00  0.00     0.188 C 
BRANCH  36  37
ATOM     37  C   UNL A   1      32.517  30.065  26.594  1.00  0.00     0.188 C 
BRANCH  37  38
ATOM     38  O   UNL A   1      32.807  31.278  27.283  1.00  0.00    -0.376 OA
BRANCH  38  39
ATOM     39  C   UNL A   1      31.916  32.380  27.154  1.00  0.00     0.202 C 
BRANCH  39  40
ATOM     40  C   UNL A   1      32.504  33.789  27.350  1.00  0.00     0.261 C 
BRANCH  40  41
ATOM     41  O   UNL A   1      32.377  34.311  28.678  1.00  0.00    -0.460 OA
BRANCH  41  42
ATOM     42  C   UNL A   1      33.397  35.058  29.139  1.00  0.00     0.338 C 
ATOM     43  O   UNL A   1      33.369  36.223  29.503  1.00  0.00    -0.246 OA
BRANCH  42  44
ATOM     44  C   UNL A   1      34.523  34.142  29.360  1.00  0.00     0.060 A 
ATOM     45  C   UNL A   1      34.282  32.963  30.077  1.00  0.00     0.016 A 
ATOM     46  C   UNL A   1      35.786  34.422  28.834  1.00  0.00     0.016 A 
ATOM     47  C   UNL A   1      35.316  32.064  30.290  1.00  0.00     0.010 A 
ATOM     48  C   UNL A   1      36.834  33.539  29.085  1.00  0.00     0.010 A 
ATOM     49  C   UNL A   1      36.605  32.378  29.842  1.00  0.00    -0.014 A 
BRANCH  49  50
ATOM     50  C   UNL A   1      37.738  31.616  30.401  1.00  0.00     0.031 A 
ATOM     51  C   UNL A   1      38.048  31.806  31.858  1.00  0.00     0.074 A 
ATOM     52  C   UNL A   1      38.415  30.732  29.653  1.00  0.00     0.049 A 
ATOM     53  N   UNL A   1      38.972  31.242  32.590  1.00  0.00    -0.248 NA
ATOM     54  C   UNL A   1      37.192  32.757  32.592  1.00  0.00     0.031 C 
ATOM     55  C   UNL A   1      38.145  30.423  28.249  1.00  0.00     0.029 A 
ATOM     56  N   UNL A   1      39.470  29.923  29.983  1.00  0.00    -0.354 N 
ATOM     57  C   UNL A   1      38.810  31.772  33.864  1.00  0.00     0.074 A 
ATOM     58  C   UNL A   1      37.723  32.721  33.802  1.00  0.00     0.031 C 
ATOM     59  C   UNL A   1      39.020  29.490  27.836  1.00  0.00     0.029 A 
ATOM     60  C   UNL A   1      39.927  29.164  28.934  1.00  0.00     0.049 A 
ATOM     61  H   UNL A   1      39.863  29.888  30.885  1.00  0.00     0.167 HD
ATOM     62  C   UNL A   1      39.507  31.488  34.988  1.00  0.00     0.031 A 
ATOM     63  C   UNL A   1      40.974  28.319  28.875  1.00  0.00     0.031 A 
ATOM     64  C   UNL A   1      40.605  30.563  35.029  1.00  0.00     0.049 A 
ATOM     65  C   UNL A   1      41.798  28.096  30.116  1.00  0.00     0.074 A 
ATOM     66  C   UNL A   1      41.389  30.203  36.109  1.00  0.00     0.029 A 
ATOM     67  N   UNL A   1      41.081  29.861  33.932  1.00  0.00    -0.354 N 
ATOM     68  N   UNL A   1      41.631  28.589  31.321  1.00  0.00    -0.248 NA
ATOM     69  C   UNL A   1      42.951  27.194  29.989  1.00  0.00     0.031 C 
ATOM     70  C   UNL A   1      42.382  29.331  35.650  1.00  0.00     0.029 A 
ATOM     71  C   UNL A   1      42.169  29.092  34.301  1.00  0.00     0.049 A 
ATOM     72  H   UNL A   1      40.700  29.902  33.024  1.00  0.00     0.167 HD
ATOM     73  C   UNL A   1      42.637  28.033  32.103  1.00  0.00     0.074 A 
ATOM     74  C   UNL A   1      43.397  27.153  31.237  1.00  0.00     0.031 C 
ATOM     75  C   UNL A   1      42.909  28.226  33.417  1.00  0.00     0.031 A 
BRANCH  62  76
ATOM     76  C   UNL A   1      39.131  32.231  36.238  1.00  0.00    -0.014 A 
ATOM     77  C   UNL A   1      39.741  33.449  36.582  1.00  0.00     0.009 A 
ATOM     78  C   UNL A   1      38.142  31.706  37.083  1.00  0.00     0.009 A 
ATOM     79  C   UNL A   1      39.393  34.105  37.765  1.00  0.00     0.001 A 
ATOM     80  C   UNL A   1      37.772  32.379  38.248  1.00  0.00     0.001 A 
ATOM     81  C   UNL A   1      38.405  33.572  38.593  1.00  0.00     0.000 A 
ENDBRANCH  62  76
BRANCH  63  82
ATOM     82  C   UNL A   1      41.320  27.647  27.595  1.00  0.00    -0.014 A 
ATOM     83  C   UNL A   1      42.201  28.246  26.681  1.00  0.00     0.009 A 
ATOM     84  C   UNL A   1      40.750  26.406  27.269  1.00  0.00     0.009 A 
ATOM     85  C   UNL A   1      42.479  27.629  25.458  1.00  0.00     0.001 A 
ATOM     86  C   UNL A   1      41.056  25.776  26.061  1.00  0.00     0.001 A 
ATOM     87  C   UNL A   1      41.911  26.394  25.151  1.00  0.00     0.000 A 
ENDBRANCH  63  82
BRANCH  75  88
ATOM     88  C   UNL A   1      44.048  27.443  34.007  1.00  0.00    -0.014 A 
ATOM     89  C   UNL A   1      43.862  26.152  34.523  1.00  0.00     0.009 A 
ATOM     90  C   UNL A   1      45.341  27.994  34.000  1.00  0.00     0.009 A 
ATOM     91  C   UNL A   1      44.942  25.444  35.055  1.00  0.00     0.001 A 
ATOM     92  C   UNL A   1      46.423  27.269  34.500  1.00  0.00     0.001 A 
ATOM     93  C   UNL A   1      46.221  26.000  35.037  1.00  0.00     0.000 A 
ENDBRANCH  75  88
ENDBRANCH  49  50
ENDBRANCH  42  44
ENDBRANCH  41  42
ENDBRANCH  40  41
ENDBRANCH  39  40
ENDBRANCH  38  39
ENDBRANCH  37  38
ENDBRANCH  36  37
ENDBRANCH   1  36
TORSDOF 23
ENDMDL
MODEL 2
REMARK VINA RESULT:     -10.5      0.541      5.500
REMARK SMILES C[NH+]1CCC([NH+]2CCC(Oc3ccc4ccccc4c3)(C(=O)OCCOCCOCCOCCOC(=O)c3ccc(-c4c5nc(c(-c6ccccc6)c6ccc([nH]6)c(-c6ccccc6)c6nc(c(-c7ccccc7)c7ccc4[nH]7)C=C6)C=C5)cc3)CC2)CC1
REMARK SMILES IDX 29 1 28 2 27 3 26 4 25 5 24 6 23 7 21 8 22 9 9 10 6 11 7 12
REMARK SMILES IDX 87 13 8 15 86 16 5 17 1 18 2 19 3 20 89 21 4 23 88 24 10 25
REMARK SMILES IDX 11 26 12 27 20 28 13 29 19 30 14 31 18 32 15 33 17 34 16 35
REMARK SMILES IDX 30 36 31 37 32 38 33 39 34 40 35 41 36 42 37 43 38 44 39 45
REMARK SMILES IDX 85 46 40 47 84 48 41 49 42 50 43 51 78 52 44 53 83 54 77 55
REMARK SMILES IDX 79 56 45 57 82 58 76 59 75 60 46 62 68 63 53 64 67 65 54 66
REMARK SMILES IDX 57 67 66 68 80 69 55 70 56 71 65 73 81 74 58 75 47 76 48 77
REMARK SMILES IDX 52 78 49 79 51 80 50 81 69 82 70 83 74 84 71 85 73 86 72 87
REMARK SMILES IDX 59 88 60 89 64 90 61 91 63 92 62 93
REMARK H PARENT 6 14 2 22 79 61 57 72
REMARK Flexibility Score: inf
ROOT
ATOM      1  O   UNL A   1      33.225  27.659  26.894  1.00  0.00    -0.377 OA
ENDROOT
BRANCH   1   2
ATOM      2  C   UNL A   1      31.820  27.629  27.026  1.00  0.00     0.188 C 
BRANCH   2   3
ATOM      3  C   UNL A   1      31.093  26.370  26.541  1.00  0.00     0.188 C 
BRANCH   3   4
ATOM      4  O   UNL A   1      31.549  25.091  26.946  1.00  0.00    -0.376 OA
BRANCH   4   5
ATOM      5  C   UNL A   1      31.266  23.958  26.138  1.00  0.00     0.202 C 
BRANCH   5   6
ATOM      6  C   UNL A   1      31.961  22.607  26.414  1.00  0.00     0.261 C 
BRANCH   6   7
ATOM      7  O   UNL A   1      33.375  22.485  26.115  1.00  0.00    -0.460 OA
BRANCH   7   8
ATOM      8  C   UNL A   1      33.698  21.994  24.883  1.00  0.00     0.351 C 
ATOM      9  O   UNL A   1      33.404  20.851  24.533  1.00  0.00    -0.247 OA
BRANCH   8  10
ATOM     10  C   UNL A   1      34.541  22.959  23.990  1.00  0.00     0.216 C 
ATOM     11  N   UNL A   1      33.331  25.663  23.323  1.00  0.00    -0.332 N 
ATOM     12  C   UNL A   1      34.302  25.575  24.412  1.00  0.00     0.267 C 
ATOM     13  C   UNL A   1      32.677  24.390  23.018  1.00  0.00     0.267 C 
ATOM     14  H   UNL A   1      33.891  25.871  22.496  1.00  0.00     0.348 HD
ATOM     15  C   UNL A   1      35.102  24.267  24.586  1.00  0.00     0.122 C 
ATOM     16  C   UNL A   1      33.706  23.284  22.733  1.00  0.00     0.122 C 
BRANCH  11  17
ATOM     17  C   UNL A   1      32.391  26.832  23.422  1.00  0.00     0.195 C 
ATOM     18  C   UNL A   1      29.789  29.927  21.782  1.00  0.00     0.332 C 
ATOM     19  N   UNL A   1      30.712  28.823  22.043  1.00  0.00    -0.337 N 
ATOM     20  C   UNL A   1      30.062  27.748  22.802  1.00  0.00     0.268 C 
ATOM     21  C   UNL A   1      31.896  29.279  22.776  1.00  0.00     0.268 C 
ATOM     22  H   UNL A   1      31.001  28.461  21.134  1.00  0.00     0.347 HD
ATOM     23  C   UNL A   1      30.982  26.525  22.850  1.00  0.00     0.126 C 
ATOM     24  C   UNL A   1      32.936  28.156  22.845  1.00  0.00     0.126 C 
ENDBRANCH  11  17
BRANCH  10  25
ATOM     25  O   UNL A   1      35.640  22.001  23.815  1.00  0.00    -0.475 OA
BRANCH  25  26
ATOM     26  C   UNL A   1      36.735  22.145  24.606  1.00  0.00     0.121 A 
ATOM     27  C   UNL A   1      36.918  23.284  25.382  1.00  0.00     0.047 A 
ATOM     28  C   UNL A   1      37.591  21.058  24.741  1.00  0.00     0.055 A 
ATOM     29  C   UNL A   1      38.046  23.407  26.185  1.00  0.00     0.012 A 
ATOM     30  C   UNL A   1      38.697  21.139  25.598  1.00  0.00    -0.015 A 
ATOM     31  C   UNL A   1      38.947  22.343  26.298  1.00  0.00    -0.018 A 
ATOM     32  C   UNL A   1      39.551  20.045  25.789  1.00  0.00     0.009 A 
ATOM     33  C   UNL A   1      40.072  22.442  27.125  1.00  0.00     0.009 A 
ATOM     34  C   UNL A   1      40.650  20.148  26.644  1.00  0.00     0.001 A 
ATOM     35  C   UNL A   1      40.917  21.348  27.298  1.00  0.00     0.001 A 
ENDBRANCH  25  26
ENDBRANCH  10  25
ENDBRANCH   8  10
ENDBRANCH   7   8
ENDBRANCH   6   7
ENDBRANCH   5   6
ENDBRANCH   4   5
ENDBRANCH   3   4
ENDBRANCH   2   3
ENDBRANCH   1   2
BRANCH   1  36
ATOM     36  C   UNL A   1      33.809  28.947  26.807  1.00  0.00     0.188 C 
BRANCH  36  37
ATOM     37  C   UNL A   1      32.894  30.081  26.310  1.00  0.00     0.188 C 
BRANCH  37  38
ATOM     38  O   UNL A   1      32.778  31.185  27.203  1.00  0.00    -0.376 OA
BRANCH  38  39
ATOM     39  C   UNL A   1      31.797  32.184  26.947  1.00  0.00     0.202 C 
BRANCH  39  40
ATOM     40  C   UNL A   1      32.222  33.652  27.132  1.00  0.00     0.261 C 
BRANCH  40  41
ATOM     41  O   UNL A   1      32.318  34.079  28.496  1.00  0.00    -0.460 OA
BRANCH  41  42
ATOM     42  C   UNL A   1      33.315  34.930  28.799  1.00  0.00     0.338 C 
ATOM     43  O   UNL A   1      33.256  36.145  28.914  1.00  0.00    -0.246 OA
BRANCH  42  44
ATOM     44  C   UNL A   1      34.460  34.108  29.210  1.00  0.00     0.060 A 
ATOM     45  C   UNL A   1      34.217  33.015  30.051  1.00  0.00     0.016 A 
ATOM     46  C   UNL A   1      35.746  34.388  28.743  1.00  0.00     0.016 A 
ATOM     47  C   UNL A   1      35.270  32.203  30.447  1.00  0.00     0.010 A 
ATOM     48  C   UNL A   1      36.809  33.598  29.175  1.00  0.00     0.010 A 
ATOM     49  C   UNL A   1      36.574  32.527  30.053  1.00  0.00    -0.014 A 
BRANCH  49  50
ATOM     50  C   UNL A   1      37.694  31.899  30.781  1.00  0.00     0.031 A 
ATOM     51  C   UNL A   1      38.508  30.874  30.046  1.00  0.00     0.074 A 
ATOM     52  C   UNL A   1      38.016  32.285  32.024  1.00  0.00     0.049 A 
ATOM     53  N   UNL A   1      39.549  30.196  30.450  1.00  0.00    -0.248 NA
ATOM     54  C   UNL A   1      38.097  30.580  28.660  1.00  0.00     0.031 C 
ATOM     55  C   UNL A   1      37.331  33.322  32.796  1.00  0.00     0.029 A 
ATOM     56  N   UNL A   1      39.015  31.848  32.852  1.00  0.00    -0.354 N 
ATOM     57  C   UNL A   1      39.912  29.396  29.374  1.00  0.00     0.074 A 
ATOM     58  C   UNL A   1      38.967  29.648  28.310  1.00  0.00     0.031 C 
ATOM     59  C   UNL A   1      37.933  33.437  33.993  1.00  0.00     0.029 A 
ATOM     60  C   UNL A   1      39.018  32.463  34.080  1.00  0.00     0.049 A 
ATOM     61  H   UNL A   1      39.669  31.160  32.592  1.00  0.00     0.167 HD
ATOM     62  C   UNL A   1      40.946  28.529  29.281  1.00  0.00     0.031 A 
ATOM     63  C   UNL A   1      39.800  32.240  35.153  1.00  0.00     0.031 A 
ATOM     64  C   UNL A   1      41.861  28.266  30.356  1.00  0.00     0.049 A 
ATOM     65  C   UNL A   1      40.882  31.195  35.058  1.00  0.00     0.074 A 
ATOM     66  C   UNL A   1      42.940  27.403  30.378  1.00  0.00     0.029 A 
ATOM     67  N   UNL A   1      41.793  28.861  31.607  1.00  0.00    -0.354 N 
ATOM     68  N   UNL A   1      41.229  30.452  34.033  1.00  0.00    -0.248 NA
ATOM     69  C   UNL A   1      41.684  30.965  36.267  1.00  0.00     0.031 C 
ATOM     70  C   UNL A   1      43.485  27.426  31.666  1.00  0.00     0.029 A 
ATOM     71  C   UNL A   1      42.792  28.360  32.421  1.00  0.00     0.049 A 
ATOM     72  H   UNL A   1      41.132  29.540  31.876  1.00  0.00     0.167 HD
ATOM     73  C   UNL A   1      42.309  29.691  34.463  1.00  0.00     0.074 A 
ATOM     74  C   UNL A   1      42.568  30.075  35.836  1.00  0.00     0.031 C 
ATOM     75  C   UNL A   1      43.026  28.759  33.786  1.00  0.00     0.031 A 
BRANCH  62  76
ATOM     76  C   UNL A   1      41.095  27.770  27.992  1.00  0.00    -0.014 A 
ATOM     77  C   UNL A   1      40.487  26.518  27.802  1.00  0.00     0.009 A 
ATOM     78  C   UNL A   1      41.852  28.323  26.949  1.00  0.00     0.009 A 
ATOM     79  C   UNL A   1      40.665  25.821  26.605  1.00  0.00     0.001 A 
ATOM     80  C   UNL A   1      42.002  27.639  25.741  1.00  0.00     0.001 A 
ATOM     81  C   UNL A   1      41.417  26.384  25.574  1.00  0.00     0.000 A 
ENDBRANCH  62  76
BRANCH  63  82
ATOM     82  C   UNL A   1      39.574  32.995  36.413  1.00  0.00    -0.014 A 
ATOM     83  C   UNL A   1      38.709  32.503  37.403  1.00  0.00     0.009 A 
ATOM     84  C   UNL A   1      40.207  34.230  36.623  1.00  0.00     0.009 A 
ATOM     85  C   UNL A   1      38.463  33.245  38.561  1.00  0.00     0.001 A 
ATOM     86  C   UNL A   1      39.986  34.955  37.796  1.00  0.00     0.001 A 
ATOM     87  C   UNL A   1      39.104  34.467  38.759  1.00  0.00     0.000 A 
ENDBRANCH  63  82
BRANCH  75  88
ATOM     88  C   UNL A   1      44.182  28.123  34.507  1.00  0.00    -0.014 A 
ATOM     89  C   UNL A   1      45.462  28.696  34.489  1.00  0.00     0.009 A 
ATOM     90  C   UNL A   1      43.969  26.954  35.256  1.00  0.00     0.009 A 
ATOM     91  C   UNL A   1      46.515  28.089  35.177  1.00  0.00     0.001 A 
ATOM     92  C   UNL A   1      45.015  26.370  35.971  1.00  0.00     0.001 A 
ATOM     93  C   UNL A   1      46.289  26.931  35.921  1.00  0.00     0.000 A 
ENDBRANCH  75  88
ENDBRANCH  49  50
ENDBRANCH  42  44
ENDBRANCH  41  42
ENDBRANCH  40  41
ENDBRANCH  39  40
ENDBRANCH  38  39
ENDBRANCH  37  38
ENDBRANCH  36  37
ENDBRANCH   1  36
TORSDOF 23
ENDMDL
MODEL 3
REMARK VINA RESULT:      -9.8      1.576      2.358
REMARK SMILES C[NH+]1CCC([NH+]2CCC(Oc3ccc4ccccc4c3)(C(=O)OCCOCCOCCOCCOC(=O)c3ccc(-c4c5nc(c(-c6ccccc6)c6ccc([nH]6)c(-c6ccccc6)c6nc(c(-c7ccccc7)c7ccc4[nH]7)C=C6)C=C5)cc3)CC2)CC1
REMARK SMILES IDX 29 1 28 2 27 3 26 4 25 5 24 6 23 7 21 8 22 9 9 10 6 11 7 12
REMARK SMILES IDX 87 13 8 15 86 16 5 17 1 18 2 19 3 20 89 21 4 23 88 24 10 25
REMARK SMILES IDX 11 26 12 27 20 28 13 29 19 30 14 31 18 32 15 33 17 34 16 35
REMARK SMILES IDX 30 36 31 37 32 38 33 39 34 40 35 41 36 42 37 43 38 44 39 45
REMARK SMILES IDX 85 46 40 47 84 48 41 49 42 50 43 51 78 52 44 53 83 54 77 55
REMARK SMILES IDX 79 56 45 57 82 58 76 59 75 60 46 62 68 63 53 64 67 65 54 66
REMARK SMILES IDX 57 67 66 68 80 69 55 70 56 71 65 73 81 74 58 75 47 76 48 77
REMARK SMILES IDX 52 78 49 79 51 80 50 81 69 82 70 83 74 84 71 85 73 86 72 87
REMARK SMILES IDX 59 88 60 89 64 90 61 91 63 92 62 93
REMARK H PARENT 6 14 2 22 79 61 57 72
REMARK Flexibility Score: inf
ROOT
ATOM      1  O   UNL A   1      33.519  28.798  27.220  1.00  0.00    -0.377 OA
ENDROOT
BRANCH   1   2
ATOM      2  C   UNL A   1      32.118  28.823  27.052  1.00  0.00     0.188 C 
BRANCH   2   3
ATOM      3  C   UNL A   1      31.458  27.578  26.449  1.00  0.00     0.188 C 
BRANCH   3   4
ATOM      4  O   UNL A   1      31.964  26.291  26.757  1.00  0.00    -0.376 OA
BRANCH   4   5
ATOM      5  C   UNL A   1      31.206  25.140  26.413  1.00  0.00     0.202 C 
BRANCH   5   6
ATOM      6  C   UNL A   1      31.697  23.731  26.814  1.00  0.00     0.261 C 
BRANCH   6   7
ATOM      7  O   UNL A   1      33.082  23.385  26.558  1.00  0.00    -0.460 OA
BRANCH   7   8
ATOM      8  C   UNL A   1      33.311  22.477  25.565  1.00  0.00     0.351 C 
ATOM      9  O   UNL A   1      32.934  21.308  25.645  1.00  0.00    -0.247 OA
BRANCH   8  10
ATOM     10  C   UNL A   1      34.158  23.010  24.367  1.00  0.00     0.216 C 
ATOM     11  N   UNL A   1      33.029  25.344  22.784  1.00  0.00    -0.332 N 
ATOM     12  C   UNL A   1      34.034  25.610  23.813  1.00  0.00     0.267 C 
ATOM     13  C   UNL A   1      32.316  24.080  22.976  1.00  0.00     0.267 C 
ATOM     14  H   UNL A   1      33.567  25.211  21.928  1.00  0.00     0.348 HD
ATOM     15  C   UNL A   1      34.789  24.417  24.436  1.00  0.00     0.122 C 
ATOM     16  C   UNL A   1      33.291  22.898  23.093  1.00  0.00     0.122 C 
BRANCH  11  17
ATOM     17  C   UNL A   1      32.138  26.514  22.470  1.00  0.00     0.195 C 
ATOM     18  C   UNL A   1      29.696  29.978  23.506  1.00  0.00     0.332 C 
ATOM     19  N   UNL A   1      30.550  28.791  23.456  1.00  0.00    -0.337 N 
ATOM     20  C   UNL A   1      31.795  29.056  22.725  1.00  0.00     0.268 C 
ATOM     21  C   UNL A   1      29.857  27.661  22.831  1.00  0.00     0.268 C 
ATOM     22  H   UNL A   1      30.775  28.552  24.422  1.00  0.00     0.347 HD
ATOM     23  C   UNL A   1      32.751  27.873  22.896  1.00  0.00     0.126 C 
ATOM     24  C   UNL A   1      30.689  26.384  22.986  1.00  0.00     0.126 C 
ENDBRANCH  11  17
BRANCH  10  25
ATOM     25  O   UNL A   1      35.212  22.002  24.531  1.00  0.00    -0.475 OA
BRANCH  25  26
ATOM     26  C   UNL A   1      36.375  22.394  25.115  1.00  0.00     0.121 A 
ATOM     27  C   UNL A   1      36.478  23.621  25.761  1.00  0.00     0.047 A 
ATOM     28  C   UNL A   1      37.413  21.472  25.187  1.00  0.00     0.055 A 
ATOM     29  C   UNL A   1      37.678  23.999  26.353  1.00  0.00     0.012 A 
ATOM     30  C   UNL A   1      38.606  21.811  25.839  1.00  0.00    -0.015 A 
ATOM     31  C   UNL A   1      38.752  23.104  26.395  1.00  0.00    -0.018 A 
ATOM     32  C   UNL A   1      39.652  20.888  25.968  1.00  0.00     0.009 A 
ATOM     33  C   UNL A   1      39.957  23.460  27.013  1.00  0.00     0.009 A 
ATOM     34  C   UNL A   1      40.835  21.246  26.617  1.00  0.00     0.001 A 
ATOM     35  C   UNL A   1      40.992  22.533  27.125  1.00  0.00     0.001 A 
ENDBRANCH  25  26
ENDBRANCH  10  25
ENDBRANCH   8  10
ENDBRANCH   7   8
ENDBRANCH   6   7
ENDBRANCH   5   6
ENDBRANCH   4   5
ENDBRANCH   3   4
ENDBRANCH   2   3
ENDBRANCH   1   2
BRANCH   1  36
ATOM     36  C   UNL A   1      34.175  30.051  27.118  1.00  0.00     0.188 C 
BRANCH  36  37
ATOM     37  C   UNL A   1      33.414  31.268  27.672  1.00  0.00     0.188 C 
BRANCH  37  38
ATOM     38  O   UNL A   1      34.246  32.315  28.163  1.00  0.00    -0.376 OA
BRANCH  38  39
ATOM     39  C   UNL A   1      33.663  33.574  28.479  1.00  0.00     0.202 C 
BRANCH  39  40
ATOM     40  C   UNL A   1      33.938  34.145  29.883  1.00  0.00     0.261 C 
BRANCH  40  41
ATOM     41  O   UNL A   1      32.955  35.074  30.354  1.00  0.00    -0.460 OA
BRANCH  41  42
ATOM     42  C   UNL A   1      32.986  35.380  31.665  1.00  0.00     0.338 C 
ATOM     43  O   UNL A   1      32.118  35.926  32.328  1.00  0.00    -0.246 OA
BRANCH  42  44
ATOM     44  C   UNL A   1      34.171  34.718  32.224  1.00  0.00     0.060 A 
ATOM     45  C   UNL A   1      35.415  35.335  32.047  1.00  0.00     0.016 A 
ATOM     46  C   UNL A   1      34.051  33.527  32.944  1.00  0.00     0.016 A 
ATOM     47  C   UNL A   1      36.556  34.749  32.576  1.00  0.00     0.010 A 
ATOM     48  C   UNL A   1      35.203  32.918  33.439  1.00  0.00     0.010 A 
ATOM     49  C   UNL A   1      36.457  33.513  33.224  1.00  0.00    -0.014 A 
BRANCH  49  50
ATOM     50  C   UNL A   1      37.696  32.738  33.433  1.00  0.00     0.031 A 
ATOM     51  C   UNL A   1      38.449  32.968  34.711  1.00  0.00     0.074 A 
ATOM     52  C   UNL A   1      38.091  31.811  32.548  1.00  0.00     0.049 A 
ATOM     53  N   UNL A   1      39.546  32.403  35.141  1.00  0.00    -0.248 NA
ATOM     54  C   UNL A   1      37.880  33.966  35.636  1.00  0.00     0.031 C 
ATOM     55  C   UNL A   1      37.391  31.464  31.311  1.00  0.00     0.029 A 
ATOM     56  N   UNL A   1      39.182  30.984  32.564  1.00  0.00    -0.354 N 
ATOM     57  C   UNL A   1      39.799  32.980  36.379  1.00  0.00     0.074 A 
ATOM     58  C   UNL A   1      38.762  33.956  36.622  1.00  0.00     0.031 C 
ATOM     59  C   UNL A   1      38.077  30.493  30.684  1.00  0.00     0.029 A 
ATOM     60  C   UNL A   1      39.276  30.178  31.457  1.00  0.00     0.049 A 
ATOM     61  H   UNL A   1      39.837  30.969  33.300  1.00  0.00     0.167 HD
ATOM     62  C   UNL A   1      40.808  32.713  37.240  1.00  0.00     0.031 A 
ATOM     63  C   UNL A   1      40.238  29.303  31.108  1.00  0.00     0.031 A 
ATOM     64  C   UNL A   1      41.848  31.760  36.975  1.00  0.00     0.049 A 
ATOM     65  C   UNL A   1      41.405  29.098  32.038  1.00  0.00     0.074 A 
ATOM     66  C   UNL A   1      42.925  31.414  37.770  1.00  0.00     0.029 A 
ATOM     67  N   UNL A   1      41.946  31.008  35.813  1.00  0.00    -0.354 N 
ATOM     68  N   UNL A   1      41.632  29.636  33.215  1.00  0.00    -0.248 NA
ATOM     69  C   UNL A   1      42.446  28.160  31.596  1.00  0.00     0.031 C 
ATOM     70  C   UNL A   1      43.710  30.500  37.060  1.00  0.00     0.029 A 
ATOM     71  C   UNL A   1      43.082  30.222  35.856  1.00  0.00     0.049 A 
ATOM     72  H   UNL A   1      41.301  31.030  35.069  1.00  0.00     0.167 HD
ATOM     73  C   UNL A   1      42.822  29.077  33.666  1.00  0.00     0.074 A 
ATOM     74  C   UNL A   1      43.259  28.149  32.643  1.00  0.00     0.031 C 
ATOM     75  C   UNL A   1      43.494  29.307  34.821  1.00  0.00     0.031 A 
BRANCH  62  76
ATOM     76  C   UNL A   1      40.853  33.508  38.515  1.00  0.00    -0.014 A 
ATOM     77  C   UNL A   1      41.540  34.731  38.596  1.00  0.00     0.009 A 
ATOM     78  C   UNL A   1      40.190  33.027  39.654  1.00  0.00     0.009 A 
ATOM     79  C   UNL A   1      41.590  35.435  39.800  1.00  0.00     0.001 A 
ATOM     80  C   UNL A   1      40.214  33.749  40.848  1.00  0.00     0.001 A 
ATOM     81  C   UNL A   1      40.923  34.947  40.923  1.00  0.00     0.000 A 
ENDBRANCH  62  76
BRANCH  63  82
ATOM     82  C   UNL A   1      40.156  28.579  29.812  1.00  0.00    -0.014 A 
ATOM     83  C   UNL A   1      40.659  29.151  28.634  1.00  0.00     0.009 A 
ATOM     84  C   UNL A   1      39.550  27.314  29.744  1.00  0.00     0.009 A 
ATOM     85  C   UNL A   1      40.530  28.484  27.412  1.00  0.00     0.001 A 
ATOM     86  C   UNL A   1      39.452  26.635  28.528  1.00  0.00     0.001 A 
ATOM     87  C   UNL A   1      39.932  27.226  27.361  1.00  0.00     0.000 A 
ENDBRANCH  63  82
BRANCH  75  88
ATOM     88  C   UNL A   1      44.748  28.512  35.057  1.00  0.00    -0.014 A 
ATOM     89  C   UNL A   1      44.714  27.254  35.676  1.00  0.00     0.009 A 
ATOM     90  C   UNL A   1      45.980  29.016  34.607  1.00  0.00     0.009 A 
ATOM     91  C   UNL A   1      45.894  26.533  35.873  1.00  0.00     0.001 A 
ATOM     92  C   UNL A   1      47.152  28.278  34.773  1.00  0.00     0.001 A 
ATOM     93  C   UNL A   1      47.109  27.043  35.416  1.00  0.00     0.000 A 
ENDBRANCH  75  88
ENDBRANCH  49  50
ENDBRANCH  42  44
ENDBRANCH  41  42
ENDBRANCH  40  41
ENDBRANCH  39  40
ENDBRANCH  38  39
ENDBRANCH  37  38
ENDBRANCH  36  37
ENDBRANCH   1  36
TORSDOF 23
ENDMDL
