MODEL 1
REMARK VINA RESULT:     -10.5      0.000      0.000
REMARK SMILES Cc1c(CC(=O)OCCOCCOCCOCCOC(=O)c2ccc(-c3c4nc(c(-c5ccccc5)c5ccc([nH]5)c(-c5ccccc5)c5nc(c(-c6ccccc6)c6ccc3[nH]6)C=C5)C=C4)cc2)cccc1-c1ccn(C(F)F)c(=O)c1
REMARK SMILES IDX 12 1 11 2 10 3 9 4 8 5 7 6 5 7 6 8 4 9 3 10 1 11 2 12 73 13
REMARK SMILES IDX 70 14 72 15 71 16 74 17 75 18 83 19 76 20 81 21 77 22 82 23
REMARK SMILES IDX 78 24 79 25 80 26 13 27 14 28 15 29 16 30 17 31 18 32 19 33
REMARK SMILES IDX 20 34 21 35 22 36 23 37 69 38 24 39 68 40 25 41 26 42 27 43
REMARK SMILES IDX 62 44 28 45 67 46 61 47 63 48 29 49 66 50 60 51 59 52 30 54
REMARK SMILES IDX 52 55 37 56 51 57 38 58 41 59 50 60 64 61 39 62 40 63 49 65
REMARK SMILES IDX 65 66 42 67 31 68 32 69 36 70 33 71 35 72 34 73 53 74 54 75
REMARK SMILES IDX 58 76 55 77 57 78 56 79 43 80 44 81 48 82 45 83 47 84 46 85
REMARK H PARENT 63 53 41 64
REMARK Flexibility Score: inf
ROOT
ATOM      1  C   UNL A   1      33.660  25.655  26.120  1.00  0.00     0.188 C 
ENDROOT
BRANCH   1   2
ATOM      2  C   UNL A   1      34.641  25.242  25.000  1.00  0.00     0.188 C 
BRANCH   2   3
ATOM      3  O   UNL A   1      35.542  24.164  25.222  1.00  0.00    -0.376 OA
BRANCH   3   4
ATOM      4  C   UNL A   1      34.953  22.951  25.637  1.00  0.00     0.202 C 
BRANCH   4   5
ATOM      5  C   UNL A   1      35.031  21.956  24.489  1.00  0.00     0.261 C 
BRANCH   5   6
ATOM      6  O   UNL A   1      33.737  21.667  23.921  1.00  0.00    -0.463 OA
BRANCH   6   7
ATOM      7  C   UNL A   1      33.282  22.568  23.013  1.00  0.00     0.310 C 
ATOM      8  O   UNL A   1      33.985  23.260  22.285  1.00  0.00    -0.252 OA
BRANCH   7   9
ATOM      9  C   UNL A   1      31.776  22.694  23.047  1.00  0.00     0.158 C 
BRANCH   9  10
ATOM     10  C   UNL A   1      31.190  23.785  23.928  1.00  0.00    -0.033 A 
ATOM     11  C   UNL A   1      31.426  25.508  22.084  1.00  0.00     0.045 C 
ATOM     12  C   UNL A   1      31.010  25.116  23.482  1.00  0.00    -0.039 A 
ATOM     13  C   UNL A   1      30.374  26.056  24.339  1.00  0.00    -0.015 A 
ATOM     14  C   UNL A   1      30.752  23.446  25.224  1.00  0.00     0.004 A 
ATOM     15  C   UNL A   1      30.078  25.723  25.665  1.00  0.00     0.009 A 
ATOM     16  C   UNL A   1      30.252  24.416  26.100  1.00  0.00     0.001 A 
BRANCH  13  17
ATOM     17  C   UNL A   1      29.695  27.244  23.775  1.00  0.00    -0.011 A 
ATOM     18  C   UNL A   1      30.527  28.304  23.235  1.00  0.00     0.027 A 
ATOM     19  C   UNL A   1      28.358  27.361  23.706  1.00  0.00     0.080 A 
ATOM     20  C   UNL A   1      29.990  29.431  22.773  1.00  0.00     0.095 A 
ATOM     21  C   UNL A   1      27.740  28.609  23.154  1.00  0.00     0.255 A 
ATOM     22  N   UNL A   1      28.623  29.604  22.757  1.00  0.00    -0.258 N 
ATOM     23  O   UNL A   1      26.517  28.683  23.102  1.00  0.00    -0.269 OA
BRANCH  22  24
ATOM     24  C   UNL A   1      28.071  30.861  22.323  1.00  0.00     0.451 C 
ATOM     25  F   UNL A   1      27.496  31.530  23.350  1.00  0.00    -0.185 F 
ATOM     26  F   UNL A   1      29.031  31.651  21.785  1.00  0.00    -0.185 F 
ENDBRANCH  22  24
ENDBRANCH  13  17
ENDBRANCH   9  10
ENDBRANCH   7   9
ENDBRANCH   6   7
ENDBRANCH   5   6
ENDBRANCH   4   5
ENDBRANCH   3   4
ENDBRANCH   2   3
ENDBRANCH   1   2
BRANCH   1  27
ATOM     27  O   UNL A   1      33.157  26.975  26.302  1.00  0.00    -0.377 OA
BRANCH  27  28
ATOM     28  C   UNL A   1      33.575  27.919  25.347  1.00  0.00     0.188 C 
BRANCH  28  29
ATOM     29  C   UNL A   1      33.018  29.307  25.455  1.00  0.00     0.188 C 
BRANCH  29  30
ATOM     30  O   UNL A   1      33.712  29.874  26.553  1.00  0.00    -0.376 OA
BRANCH  30  31
ATOM     31  C   UNL A   1      33.196  31.082  27.064  1.00  0.00     0.202 C 
BRANCH  31  32
ATOM     32  C   UNL A   1      34.130  31.740  28.085  1.00  0.00     0.261 C 
BRANCH  32  33
ATOM     33  O   UNL A   1      33.902  33.171  28.054  1.00  0.00    -0.460 OA
BRANCH  33  34
ATOM     34  C   UNL A   1      33.684  33.787  29.243  1.00  0.00     0.338 C 
ATOM     35  O   UNL A   1      32.712  34.497  29.506  1.00  0.00    -0.246 OA
BRANCH  34  36
ATOM     36  C   UNL A   1      34.923  33.756  30.083  1.00  0.00     0.060 A 
ATOM     37  C   UNL A   1      36.142  34.212  29.545  1.00  0.00     0.016 A 
ATOM     38  C   UNL A   1      34.948  32.983  31.240  1.00  0.00     0.016 A 
ATOM     39  C   UNL A   1      37.374  33.724  30.033  1.00  0.00     0.010 A 
ATOM     40  C   UNL A   1      36.165  32.477  31.690  1.00  0.00     0.010 A 
ATOM     41  C   UNL A   1      37.389  32.759  31.040  1.00  0.00    -0.014 A 
BRANCH  41  42
ATOM     42  C   UNL A   1      38.525  31.834  31.338  1.00  0.00     0.031 A 
ATOM     43  C   UNL A   1      38.585  30.521  30.608  1.00  0.00     0.074 A 
ATOM     44  C   UNL A   1      39.657  32.274  31.972  1.00  0.00     0.049 A 
ATOM     45  N   UNL A   1      39.558  29.680  30.686  1.00  0.00    -0.248 NA
ATOM     46  C   UNL A   1      37.555  30.054  29.679  1.00  0.00     0.031 C 
ATOM     47  C   UNL A   1      41.016  31.726  31.859  1.00  0.00     0.029 A 
ATOM     48  N   UNL A   1      39.873  33.372  32.810  1.00  0.00    -0.354 N 
ATOM     49  C   UNL A   1      39.452  28.759  29.669  1.00  0.00     0.074 A 
ATOM     50  C   UNL A   1      38.156  29.011  29.094  1.00  0.00     0.031 C 
ATOM     51  C   UNL A   1      41.886  32.388  32.636  1.00  0.00     0.029 A 
ATOM     52  C   UNL A   1      41.085  33.195  33.516  1.00  0.00     0.049 A 
ATOM     53  H   UNL A   1      39.274  34.150  32.896  1.00  0.00     0.167 HD
ATOM     54  C   UNL A   1      40.527  27.964  29.385  1.00  0.00     0.031 A 
ATOM     55  C   UNL A   1      41.086  33.090  34.874  1.00  0.00     0.031 A 
ATOM     56  C   UNL A   1      41.572  28.062  30.429  1.00  0.00     0.049 A 
ATOM     57  C   UNL A   1      41.393  31.647  35.228  1.00  0.00     0.074 A 
ATOM     58  C   UNL A   1      42.931  28.331  30.442  1.00  0.00     0.029 A 
ATOM     59  N   UNL A   1      41.187  28.042  31.776  1.00  0.00    -0.354 N 
ATOM     60  N   UNL A   1      41.180  30.655  34.391  1.00  0.00    -0.248 NA
ATOM     61  C   UNL A   1      42.132  31.213  36.409  1.00  0.00     0.031 C 
ATOM     62  C   UNL A   1      43.297  28.681  31.778  1.00  0.00     0.029 A 
ATOM     63  C   UNL A   1      42.195  28.496  32.603  1.00  0.00     0.049 A 
ATOM     64  H   UNL A   1      40.306  27.740  32.095  1.00  0.00     0.167 HD
ATOM     65  C   UNL A   1      41.864  29.555  34.800  1.00  0.00     0.074 A 
ATOM     66  C   UNL A   1      42.376  29.921  36.112  1.00  0.00     0.031 C 
ATOM     67  C   UNL A   1      42.051  28.430  34.053  1.00  0.00     0.031 A 
BRANCH  54  68
ATOM     68  C   UNL A   1      40.717  27.192  28.080  1.00  0.00    -0.014 A 
ATOM     69  C   UNL A   1      40.135  25.917  27.926  1.00  0.00     0.009 A 
ATOM     70  C   UNL A   1      41.511  27.611  26.993  1.00  0.00     0.009 A 
ATOM     71  C   UNL A   1      40.343  25.117  26.787  1.00  0.00     0.001 A 
ATOM     72  C   UNL A   1      41.697  26.834  25.835  1.00  0.00     0.001 A 
ATOM     73  C   UNL A   1      41.118  25.579  25.735  1.00  0.00     0.000 A 
ENDBRANCH  54  68
BRANCH  55  74
ATOM     74  C   UNL A   1      40.190  34.143  35.456  1.00  0.00    -0.014 A 
ATOM     75  C   UNL A   1      39.714  33.826  36.758  1.00  0.00     0.009 A 
ATOM     76  C   UNL A   1      40.401  35.498  35.155  1.00  0.00     0.009 A 
ATOM     77  C   UNL A   1      39.749  34.775  37.789  1.00  0.00     0.001 A 
ATOM     78  C   UNL A   1      40.394  36.453  36.191  1.00  0.00     0.001 A 
ATOM     79  C   UNL A   1      40.144  36.077  37.513  1.00  0.00     0.000 A 
ENDBRANCH  55  74
BRANCH  67  80
ATOM     80  C   UNL A   1      42.105  27.074  34.693  1.00  0.00    -0.014 A 
ATOM     81  C   UNL A   1      41.068  26.600  35.507  1.00  0.00     0.009 A 
ATOM     82  C   UNL A   1      43.085  26.146  34.280  1.00  0.00     0.009 A 
ATOM     83  C   UNL A   1      41.039  25.273  35.935  1.00  0.00     0.001 A 
ATOM     84  C   UNL A   1      43.029  24.809  34.665  1.00  0.00     0.001 A 
ATOM     85  C   UNL A   1      42.013  24.377  35.506  1.00  0.00     0.000 A 
ENDBRANCH  67  80
ENDBRANCH  41  42
ENDBRANCH  34  36
ENDBRANCH  33  34
ENDBRANCH  32  33
ENDBRANCH  31  32
ENDBRANCH  30  31
ENDBRANCH  29  30
ENDBRANCH  28  29
ENDBRANCH  27  28
ENDBRANCH   1  27
TORSDOF 23
ENDMDL
MODEL 2
REMARK VINA RESULT:     -10.0      3.795      5.997
REMARK SMILES Cc1c(CC(=O)OCCOCCOCCOCCOC(=O)c2ccc(-c3c4nc(c(-c5ccccc5)c5ccc([nH]5)c(-c5ccccc5)c5nc(c(-c6ccccc6)c6ccc3[nH]6)C=C5)C=C4)cc2)cccc1-c1ccn(C(F)F)c(=O)c1
REMARK SMILES IDX 12 1 11 2 10 3 9 4 8 5 7 6 5 7 6 8 4 9 3 10 1 11 2 12 73 13
REMARK SMILES IDX 70 14 72 15 71 16 74 17 75 18 83 19 76 20 81 21 77 22 82 23
REMARK SMILES IDX 78 24 79 25 80 26 13 27 14 28 15 29 16 30 17 31 18 32 19 33
REMARK SMILES IDX 20 34 21 35 22 36 23 37 69 38 24 39 68 40 25 41 26 42 27 43
REMARK SMILES IDX 62 44 28 45 67 46 61 47 63 48 29 49 66 50 60 51 59 52 30 54
REMARK SMILES IDX 52 55 37 56 51 57 38 58 41 59 50 60 64 61 39 62 40 63 49 65
REMARK SMILES IDX 65 66 42 67 31 68 32 69 36 70 33 71 35 72 34 73 53 74 54 75
REMARK SMILES IDX 58 76 55 77 57 78 56 79 43 80 44 81 48 82 45 83 47 84 46 85
REMARK H PARENT 63 53 41 64
REMARK Flexibility Score: inf
ROOT
ATOM      1  C   UNL A   1      31.200  27.443  26.361  1.00  0.00     0.188 C 
ENDROOT
BRANCH   1   2
ATOM      2  C   UNL A   1      30.482  26.124  25.995  1.00  0.00     0.188 C 
BRANCH   2   3
ATOM      3  O   UNL A   1      29.827  26.011  24.737  1.00  0.00    -0.376 OA
BRANCH   3   4
ATOM      4  C   UNL A   1      30.319  25.004  23.881  1.00  0.00     0.202 C 
BRANCH   4   5
ATOM      5  C   UNL A   1      30.942  25.664  22.661  1.00  0.00     0.261 C 
BRANCH   5   6
ATOM      6  O   UNL A   1      32.093  26.467  22.996  1.00  0.00    -0.463 OA
BRANCH   6   7
ATOM      7  C   UNL A   1      33.260  26.094  22.409  1.00  0.00     0.310 C 
ATOM      8  O   UNL A   1      33.462  26.047  21.201  1.00  0.00    -0.252 OA
BRANCH   7   9
ATOM      9  C   UNL A   1      34.288  25.653  23.425  1.00  0.00     0.158 C 
BRANCH   9  10
ATOM     10  C   UNL A   1      33.887  24.545  24.383  1.00  0.00    -0.033 A 
ATOM     11  C   UNL A   1      33.767  22.852  22.500  1.00  0.00     0.045 C 
ATOM     12  C   UNL A   1      33.648  23.215  23.961  1.00  0.00    -0.039 A 
ATOM     13  C   UNL A   1      33.362  22.218  24.934  1.00  0.00    -0.015 A 
ATOM     14  C   UNL A   1      33.806  24.837  25.760  1.00  0.00     0.004 A 
ATOM     15  C   UNL A   1      33.154  22.568  26.272  1.00  0.00     0.009 A 
ATOM     16  C   UNL A   1      33.392  23.873  26.685  1.00  0.00     0.001 A 
BRANCH  13  17
ATOM     17  C   UNL A   1      33.628  20.792  24.645  1.00  0.00    -0.011 A 
ATOM     18  C   UNL A   1      32.558  20.012  24.049  1.00  0.00     0.027 A 
ATOM     19  C   UNL A   1      34.817  20.207  24.871  1.00  0.00     0.080 A 
ATOM     20  C   UNL A   1      32.701  18.708  23.824  1.00  0.00     0.095 A 
ATOM     21  C   UNL A   1      35.004  18.749  24.586  1.00  0.00     0.255 A 
ATOM     22  N   UNL A   1      33.888  18.070  24.113  1.00  0.00    -0.258 N 
ATOM     23  O   UNL A   1      36.103  18.246  24.800  1.00  0.00    -0.269 OA
BRANCH  22  24
ATOM     24  C   UNL A   1      33.993  16.647  23.931  1.00  0.00     0.451 C 
ATOM     25  F   UNL A   1      32.848  16.016  24.283  1.00  0.00    -0.185 F 
ATOM     26  F   UNL A   1      34.266  16.342  22.638  1.00  0.00    -0.185 F 
ENDBRANCH  22  24
ENDBRANCH  13  17
ENDBRANCH   9  10
ENDBRANCH   7   9
ENDBRANCH   6   7
ENDBRANCH   5   6
ENDBRANCH   4   5
ENDBRANCH   3   4
ENDBRANCH   2   3
ENDBRANCH   1   2
BRANCH   1  27
ATOM     27  O   UNL A   1      31.979  28.213  25.452  1.00  0.00    -0.377 OA
BRANCH  27  28
ATOM     28  C   UNL A   1      31.500  29.509  25.190  1.00  0.00     0.188 C 
BRANCH  28  29
ATOM     29  C   UNL A   1      32.038  30.629  26.029  1.00  0.00     0.188 C 
BRANCH  29  30
ATOM     30  O   UNL A   1      33.377  30.249  26.296  1.00  0.00    -0.376 OA
BRANCH  30  31
ATOM     31  C   UNL A   1      33.879  30.577  27.572  1.00  0.00     0.202 C 
BRANCH  31  32
ATOM     32  C   UNL A   1      34.321  32.041  27.675  1.00  0.00     0.261 C 
BRANCH  32  33
ATOM     33  O   UNL A   1      35.762  32.071  27.821  1.00  0.00    -0.460 OA
BRANCH  33  34
ATOM     34  C   UNL A   1      36.270  31.678  29.016  1.00  0.00     0.338 C 
ATOM     35  O   UNL A   1      36.358  32.390  30.019  1.00  0.00    -0.246 OA
BRANCH  34  36
ATOM     36  C   UNL A   1      36.998  30.378  28.873  1.00  0.00     0.060 A 
ATOM     37  C   UNL A   1      36.883  29.398  29.878  1.00  0.00     0.016 A 
ATOM     38  C   UNL A   1      38.030  30.269  27.945  1.00  0.00     0.016 A 
ATOM     39  C   UNL A   1      37.908  28.449  30.081  1.00  0.00     0.010 A 
ATOM     40  C   UNL A   1      39.055  29.355  28.177  1.00  0.00     0.010 A 
ATOM     41  C   UNL A   1      39.063  28.495  29.299  1.00  0.00    -0.014 A 
BRANCH  41  42
ATOM     42  C   UNL A   1      40.383  27.897  29.665  1.00  0.00     0.031 A 
ATOM     43  C   UNL A   1      40.774  26.592  29.029  1.00  0.00     0.074 A 
ATOM     44  C   UNL A   1      41.361  28.640  30.270  1.00  0.00     0.049 A 
ATOM     45  N   UNL A   1      41.920  26.020  29.168  1.00  0.00    -0.248 NA
ATOM     46  C   UNL A   1      39.907  25.827  28.131  1.00  0.00     0.031 C 
ATOM     47  C   UNL A   1      42.815  28.433  30.201  1.00  0.00     0.029 A 
ATOM     48  N   UNL A   1      41.288  29.811  31.031  1.00  0.00    -0.354 N 
ATOM     49  C   UNL A   1      42.061  25.036  28.217  1.00  0.00     0.074 A 
ATOM     50  C   UNL A   1      40.755  24.925  27.622  1.00  0.00     0.031 C 
ATOM     51  C   UNL A   1      43.482  29.337  30.932  1.00  0.00     0.029 A 
ATOM     52  C   UNL A   1      42.492  29.981  31.752  1.00  0.00     0.049 A 
ATOM     53  H   UNL A   1      40.516  30.424  31.061  1.00  0.00     0.167 HD
ATOM     54  C   UNL A   1      43.303  24.508  27.993  1.00  0.00     0.031 A 
ATOM     55  C   UNL A   1      42.491  29.971  33.113  1.00  0.00     0.031 A 
ATOM     56  C   UNL A   1      44.271  24.927  29.031  1.00  0.00     0.049 A 
ATOM     57  C   UNL A   1      43.131  28.673  33.568  1.00  0.00     0.074 A 
ATOM     58  C   UNL A   1      45.524  25.519  29.030  1.00  0.00     0.029 A 
ATOM     59  N   UNL A   1      43.875  24.904  30.375  1.00  0.00    -0.354 N 
ATOM     60  N   UNL A   1      43.182  27.606  32.802  1.00  0.00    -0.248 NA
ATOM     61  C   UNL A   1      43.930  28.512  34.779  1.00  0.00     0.031 C 
ATOM     62  C   UNL A   1      45.767  26.036  30.340  1.00  0.00     0.029 A 
ATOM     63  C   UNL A   1      44.726  25.644  31.172  1.00  0.00     0.049 A 
ATOM     64  H   UNL A   1      43.088  24.419  30.711  1.00  0.00     0.167 HD
ATOM     65  C   UNL A   1      44.104  26.735  33.288  1.00  0.00     0.074 A 
ATOM     66  C   UNL A   1      44.486  27.301  34.574  1.00  0.00     0.031 C 
ATOM     67  C   UNL A   1      44.573  25.641  32.622  1.00  0.00     0.031 A 
BRANCH  54  68
ATOM     68  C   UNL A   1      43.700  23.720  26.745  1.00  0.00    -0.014 A 
ATOM     69  C   UNL A   1      44.391  24.363  25.698  1.00  0.00     0.009 A 
ATOM     70  C   UNL A   1      43.367  22.375  26.491  1.00  0.00     0.009 A 
ATOM     71  C   UNL A   1      44.708  23.721  24.487  1.00  0.00     0.001 A 
ATOM     72  C   UNL A   1      43.710  21.712  25.298  1.00  0.00     0.001 A 
ATOM     73  C   UNL A   1      44.375  22.390  24.289  1.00  0.00     0.000 A 
ENDBRANCH  54  68
BRANCH  55  74
ATOM     74  C   UNL A   1      41.355  30.811  33.618  1.00  0.00    -0.014 A 
ATOM     75  C   UNL A   1      40.084  30.191  33.475  1.00  0.00     0.009 A 
ATOM     76  C   UNL A   1      41.539  31.665  34.717  1.00  0.00     0.009 A 
ATOM     77  C   UNL A   1      39.165  30.179  34.533  1.00  0.00     0.001 A 
ATOM     78  C   UNL A   1      40.590  31.678  35.759  1.00  0.00     0.001 A 
ATOM     79  C   UNL A   1      39.446  30.880  35.698  1.00  0.00     0.000 A 
ENDBRANCH  55  74
BRANCH  67  80
ATOM     80  C   UNL A   1      44.942  24.385  33.356  1.00  0.00    -0.014 A 
ATOM     81  C   UNL A   1      46.223  24.192  33.889  1.00  0.00     0.009 A 
ATOM     82  C   UNL A   1      43.931  23.484  33.747  1.00  0.00     0.009 A 
ATOM     83  C   UNL A   1      46.496  23.116  34.732  1.00  0.00     0.001 A 
ATOM     84  C   UNL A   1      44.190  22.437  34.629  1.00  0.00     0.001 A 
ATOM     85  C   UNL A   1      45.478  22.245  35.109  1.00  0.00     0.000 A 
ENDBRANCH  67  80
ENDBRANCH  41  42
ENDBRANCH  34  36
ENDBRANCH  33  34
ENDBRANCH  32  33
ENDBRANCH  31  32
ENDBRANCH  30  31
ENDBRANCH  29  30
ENDBRANCH  28  29
ENDBRANCH  27  28
ENDBRANCH   1  27
TORSDOF 23
ENDMDL
MODEL 3
REMARK VINA RESULT:      -9.8      3.178      5.143
REMARK SMILES Cc1c(CC(=O)OCCOCCOCCOCCOC(=O)c2ccc(-c3c4nc(c(-c5ccccc5)c5ccc([nH]5)c(-c5ccccc5)c5nc(c(-c6ccccc6)c6ccc3[nH]6)C=C5)C=C4)cc2)cccc1-c1ccn(C(F)F)c(=O)c1
REMARK SMILES IDX 12 1 11 2 10 3 9 4 8 5 7 6 5 7 6 8 4 9 3 10 1 11 2 12 73 13
REMARK SMILES IDX 70 14 72 15 71 16 74 17 75 18 83 19 76 20 81 21 77 22 82 23
REMARK SMILES IDX 78 24 79 25 80 26 13 27 14 28 15 29 16 30 17 31 18 32 19 33
REMARK SMILES IDX 20 34 21 35 22 36 23 37 69 38 24 39 68 40 25 41 26 42 27 43
REMARK SMILES IDX 62 44 28 45 67 46 61 47 63 48 29 49 66 50 60 51 59 52 30 54
REMARK SMILES IDX 52 55 37 56 51 57 38 58 41 59 50 60 64 61 39 62 40 63 49 65
REMARK SMILES IDX 65 66 42 67 31 68 32 69 36 70 33 71 35 72 34 73 53 74 54 75
REMARK SMILES IDX 58 76 55 77 57 78 56 79 43 80 44 81 48 82 45 83 47 84 46 85
REMARK H PARENT 63 53 41 64
REMARK Flexibility Score: inf
ROOT
ATOM      1  C   UNL A   1      34.879  31.723  28.540  1.00  0.00     0.188 C 
ENDROOT
BRANCH   1   2
ATOM      2  C   UNL A   1      34.679  30.574  27.525  1.00  0.00     0.188 C 
BRANCH   2   3
ATOM      3  O   UNL A   1      34.047  29.371  27.947  1.00  0.00    -0.376 OA
BRANCH   3   4
ATOM      4  C   UNL A   1      33.111  28.825  27.044  1.00  0.00     0.202 C 
BRANCH   4   5
ATOM      5  C   UNL A   1      32.912  29.805  25.898  1.00  0.00     0.261 C 
BRANCH   5   6
ATOM      6  O   UNL A   1      32.642  29.142  24.646  1.00  0.00    -0.463 OA
BRANCH   6   7
ATOM      7  C   UNL A   1      31.338  28.844  24.410  1.00  0.00     0.310 C 
ATOM      8  O   UNL A   1      30.458  29.659  24.158  1.00  0.00    -0.252 OA
BRANCH   7   9
ATOM      9  C   UNL A   1      31.057  27.368  24.572  1.00  0.00     0.158 C 
BRANCH   9  10
ATOM     10  C   UNL A   1      31.832  26.411  23.681  1.00  0.00    -0.033 A 
ATOM     11  C   UNL A   1      33.342  25.726  25.598  1.00  0.00     0.045 C 
ATOM     12  C   UNL A   1      32.907  25.623  24.156  1.00  0.00    -0.039 A 
ATOM     13  C   UNL A   1      33.523  24.688  23.280  1.00  0.00    -0.015 A 
ATOM     14  C   UNL A   1      31.427  26.257  22.340  1.00  0.00     0.004 A 
ATOM     15  C   UNL A   1      33.189  24.659  21.921  1.00  0.00     0.009 A 
ATOM     16  C   UNL A   1      32.132  25.431  21.458  1.00  0.00     0.001 A 
BRANCH  13  17
ATOM     17  C   UNL A   1      34.239  23.512  23.822  1.00  0.00    -0.011 A 
ATOM     18  C   UNL A   1      35.686  23.488  23.701  1.00  0.00     0.027 A 
ATOM     19  C   UNL A   1      33.617  22.499  24.449  1.00  0.00     0.080 A 
ATOM     20  C   UNL A   1      36.392  22.434  24.104  1.00  0.00     0.095 A 
ATOM     21  C   UNL A   1      34.404  21.324  24.942  1.00  0.00     0.255 A 
ATOM     22  N   UNL A   1      35.769  21.352  24.687  1.00  0.00    -0.258 N 
ATOM     23  O   UNL A   1      33.807  20.418  25.514  1.00  0.00    -0.269 OA
BRANCH  22  24
ATOM     24  C   UNL A   1      36.545  20.193  25.045  1.00  0.00     0.451 C 
ATOM     25  F   UNL A   1      36.057  19.072  24.466  1.00  0.00    -0.185 F 
ATOM     26  F   UNL A   1      37.838  20.340  24.666  1.00  0.00    -0.185 F 
ENDBRANCH  22  24
ENDBRANCH  13  17
ENDBRANCH   9  10
ENDBRANCH   7   9
ENDBRANCH   6   7
ENDBRANCH   5   6
ENDBRANCH   4   5
ENDBRANCH   3   4
ENDBRANCH   2   3
ENDBRANCH   1   2
BRANCH   1  27
ATOM     27  O   UNL A   1      35.443  32.990  28.218  1.00  0.00    -0.377 OA
BRANCH  27  28
ATOM     28  C   UNL A   1      35.022  34.063  29.025  1.00  0.00     0.188 C 
BRANCH  28  29
ATOM     29  C   UNL A   1      33.970  34.976  28.470  1.00  0.00     0.188 C 
BRANCH  29  30
ATOM     30  O   UNL A   1      32.942  34.952  29.445  1.00  0.00    -0.376 OA
BRANCH  30  31
ATOM     31  C   UNL A   1      32.786  36.119  30.220  1.00  0.00     0.202 C 
BRANCH  31  32
ATOM     32  C   UNL A   1      32.712  35.827  31.722  1.00  0.00     0.261 C 
BRANCH  32  33
ATOM     33  O   UNL A   1      34.047  35.516  32.191  1.00  0.00    -0.460 OA
BRANCH  33  34
ATOM     34  C   UNL A   1      34.247  34.276  32.705  1.00  0.00     0.338 C 
ATOM     35  O   UNL A   1      33.355  33.479  33.002  1.00  0.00    -0.246 OA
BRANCH  34  36
ATOM     36  C   UNL A   1      35.665  34.121  33.160  1.00  0.00     0.060 A 
ATOM     37  C   UNL A   1      36.716  34.550  32.327  1.00  0.00     0.016 A 
ATOM     38  C   UNL A   1      35.955  33.268  34.221  1.00  0.00     0.016 A 
ATOM     39  C   UNL A   1      37.998  33.965  32.423  1.00  0.00     0.010 A 
ATOM     40  C   UNL A   1      37.210  32.668  34.283  1.00  0.00     0.010 A 
ATOM     41  C   UNL A   1      38.223  32.931  33.332  1.00  0.00    -0.014 A 
BRANCH  41  42
ATOM     42  C   UNL A   1      39.330  31.930  33.249  1.00  0.00     0.031 A 
ATOM     43  C   UNL A   1      39.197  30.802  32.264  1.00  0.00     0.074 A 
ATOM     44  C   UNL A   1      40.568  32.189  33.773  1.00  0.00     0.049 A 
ATOM     45  N   UNL A   1      40.116  29.934  32.012  1.00  0.00    -0.248 NA
ATOM     46  C   UNL A   1      38.014  30.576  31.433  1.00  0.00     0.031 C 
ATOM     47  C   UNL A   1      41.859  31.637  33.337  1.00  0.00     0.029 A 
ATOM     48  N   UNL A   1      40.976  33.075  34.775  1.00  0.00    -0.354 N 
ATOM     49  C   UNL A   1      39.803  29.256  30.857  1.00  0.00     0.074 A 
ATOM     50  C   UNL A   1      38.455  29.664  30.558  1.00  0.00     0.031 C 
ATOM     51  C   UNL A   1      42.874  32.090  34.086  1.00  0.00     0.029 A 
ATOM     52  C   UNL A   1      42.265  32.714  35.229  1.00  0.00     0.049 A 
ATOM     53  H   UNL A   1      40.446  33.835  35.114  1.00  0.00     0.167 HD
ATOM     54  C   UNL A   1      40.772  28.507  30.248  1.00  0.00     0.031 A 
ATOM     55  C   UNL A   1      42.461  32.321  36.518  1.00  0.00     0.031 A 
ATOM     56  C   UNL A   1      41.964  28.347  31.111  1.00  0.00     0.049 A 
ATOM     57  C   UNL A   1      42.724  30.828  36.513  1.00  0.00     0.074 A 
ATOM     58  C   UNL A   1      43.324  28.566  30.965  1.00  0.00     0.029 A 
ATOM     59  N   UNL A   1      41.782  28.052  32.469  1.00  0.00    -0.354 N 
ATOM     60  N   UNL A   1      42.327  30.045  35.535  1.00  0.00    -0.248 NA
ATOM     61  C   UNL A   1      43.602  30.129  37.448  1.00  0.00     0.031 C 
ATOM     62  C   UNL A   1      43.905  28.611  32.269  1.00  0.00     0.029 A 
ATOM     63  C   UNL A   1      42.927  28.288  33.202  1.00  0.00     0.049 A 
ATOM     64  H   UNL A   1      40.940  27.716  32.854  1.00  0.00     0.167 HD
ATOM     65  C   UNL A   1      42.993  28.862  35.594  1.00  0.00     0.074 A 
ATOM     66  C   UNL A   1      43.716  28.923  36.856  1.00  0.00     0.031 C 
ATOM     67  C   UNL A   1      42.995  27.917  34.611  1.00  0.00     0.031 A 
BRANCH  54  68
ATOM     68  C   UNL A   1      40.716  28.026  28.798  1.00  0.00    -0.014 A 
ATOM     69  C   UNL A   1      40.328  26.701  28.511  1.00  0.00     0.009 A 
ATOM     70  C   UNL A   1      41.102  28.783  27.674  1.00  0.00     0.009 A 
ATOM     71  C   UNL A   1      40.341  26.170  27.209  1.00  0.00     0.001 A 
ATOM     72  C   UNL A   1      41.085  28.272  26.363  1.00  0.00     0.001 A 
ATOM     73  C   UNL A   1      40.712  26.958  26.131  1.00  0.00     0.000 A 
ENDBRANCH  54  68
BRANCH  55  74
ATOM     74  C   UNL A   1      41.729  33.253  37.439  1.00  0.00    -0.014 A 
ATOM     75  C   UNL A   1      42.251  34.575  37.442  1.00  0.00     0.009 A 
ATOM     76  C   UNL A   1      40.350  33.101  37.651  1.00  0.00     0.009 A 
ATOM     77  C   UNL A   1      41.402  35.685  37.347  1.00  0.00     0.001 A 
ATOM     78  C   UNL A   1      39.505  34.227  37.596  1.00  0.00     0.001 A 
ATOM     79  C   UNL A   1      40.025  35.504  37.368  1.00  0.00     0.000 A 
ENDBRANCH  55  74
BRANCH  67  80
ATOM     80  C   UNL A   1      43.058  26.455  34.941  1.00  0.00    -0.014 A 
ATOM     81  C   UNL A   1      41.979  25.784  35.532  1.00  0.00     0.009 A 
ATOM     82  C   UNL A   1      44.110  25.669  34.427  1.00  0.00     0.009 A 
ATOM     83  C   UNL A   1      41.975  24.396  35.653  1.00  0.00     0.001 A 
ATOM     84  C   UNL A   1      44.084  24.278  34.502  1.00  0.00     0.001 A 
ATOM     85  C   UNL A   1      43.022  23.643  35.130  1.00  0.00     0.000 A 
ENDBRANCH  67  80
ENDBRANCH  41  42
ENDBRANCH  34  36
ENDBRANCH  33  34
ENDBRANCH  32  33
ENDBRANCH  31  32
ENDBRANCH  30  31
ENDBRANCH  29  30
ENDBRANCH  28  29
ENDBRANCH  27  28
ENDBRANCH   1  27
TORSDOF 23
ENDMDL
