MODEL 1
REMARK VINA RESULT:     -10.9      0.000      0.000
REMARK SMILES C[NH+]1CCC(C(=O)N2C[C@@H](C(=O)OCCOCCOCCOCCOC(=O)c3ccc(-c4c5nc(c(-c6ccccc6)c6ccc([nH]6)c(-c6ccccc6)c6nc(c(-c7ccccc7)c7ccc4[nH]7)C=C6)C=C5)cc3)[C@H](c3ccc4c(c3)OCO4)C2)CC1
REMARK SMILES IDX 19 1 18 2 17 3 16 4 15 5 14 6 13 7 11 8 12 9 10 10 8 11 9 12
REMARK SMILES IDX 86 13 76 14 6 15 7 16 5 17 1 18 2 19 3 20 88 21 4 23 87 24
REMARK SMILES IDX 77 25 78 26 82 27 79 28 81 29 80 30 83 31 85 32 84 33 20 34
REMARK SMILES IDX 21 35 22 36 23 37 24 38 25 39 26 40 27 41 28 42 29 43 75 44
REMARK SMILES IDX 30 45 74 46 31 47 32 48 33 49 68 50 34 51 73 52 67 53 69 54
REMARK SMILES IDX 35 55 72 56 66 57 65 58 36 60 58 61 43 62 57 63 44 64 47 65
REMARK SMILES IDX 56 66 70 67 45 68 46 69 55 71 71 72 48 73 37 74 38 75 42 76
REMARK SMILES IDX 39 77 41 78 40 79 59 80 60 81 64 82 61 83 63 84 62 85 49 86
REMARK SMILES IDX 50 87 54 88 51 89 53 90 52 91
REMARK H PARENT 2 22 69 59 47 70
REMARK Flexibility Score: inf
ROOT
ATOM      1  O   UNL A   1      39.489  19.977  25.732  1.00  0.00    -0.377 OA
ENDROOT
BRANCH   1   2
ATOM      2  C   UNL A   1      38.603  21.063  25.534  1.00  0.00     0.188 C 
BRANCH   2   3
ATOM      3  C   UNL A   1      39.087  22.376  26.190  1.00  0.00     0.188 C 
BRANCH   3   4
ATOM      4  O   UNL A   1      38.257  23.525  26.186  1.00  0.00    -0.376 OA
BRANCH   4   5
ATOM      5  C   UNL A   1      36.842  23.475  26.304  1.00  0.00     0.202 C 
BRANCH   5   6
ATOM      6  C   UNL A   1      35.844  24.310  25.491  1.00  0.00     0.261 C 
BRANCH   6   7
ATOM      7  O   UNL A   1      35.372  23.736  24.282  1.00  0.00    -0.463 OA
BRANCH   7   8
ATOM      8  C   UNL A   1      34.832  22.496  24.344  1.00  0.00     0.311 C 
ATOM      9  O   UNL A   1      35.451  21.444  24.347  1.00  0.00    -0.252 OA
BRANCH   8  10
ATOM     10  C   UNL A   1      33.337  22.633  24.421  1.00  0.00     0.128 C 
ATOM     11  N   UNL A   1      31.589  23.827  25.319  1.00  0.00    -0.341 N 
ATOM     12  C   UNL A   1      32.931  24.025  24.840  1.00  0.00     0.135 C 
ATOM     13  C   UNL A   1      31.510  22.525  25.982  1.00  0.00     0.128 C 
ATOM     14  C   UNL A   1      32.707  21.685  25.461  1.00  0.00     0.055 C 
BRANCH  11  15
ATOM     15  C   UNL A   1      30.733  24.856  25.647  1.00  0.00     0.226 C 
ATOM     16  O   UNL A   1      29.911  24.730  26.558  1.00  0.00    -0.275 OA
BRANCH  15  17
ATOM     17  C   UNL A   1      30.631  26.058  24.692  1.00  0.00     0.090 C 
ATOM     18  C   UNL A   1      29.902  29.966  23.045  1.00  0.00     0.332 C 
ATOM     19  N   UNL A   1      29.859  28.756  23.870  1.00  0.00    -0.337 N 
ATOM     20  C   UNL A   1      31.169  28.522  24.491  1.00  0.00     0.262 C 
ATOM     21  C   UNL A   1      29.443  27.589  23.075  1.00  0.00     0.262 C 
ATOM     22  H   UNL A   1      29.167  28.892  24.606  1.00  0.00     0.347 HD
ATOM     23  C   UNL A   1      31.116  27.315  25.426  1.00  0.00     0.075 C 
ATOM     24  C   UNL A   1      29.311  26.348  23.975  1.00  0.00     0.075 C 
ENDBRANCH  15  17
ENDBRANCH  11  15
BRANCH  14  25
ATOM     25  C   UNL A   1      32.484  20.338  24.767  1.00  0.00    -0.038 A 
ATOM     26  C   UNL A   1      32.204  20.203  23.391  1.00  0.00     0.008 A 
ATOM     27  C   UNL A   1      32.768  19.168  25.509  1.00  0.00     0.054 A 
ATOM     28  C   UNL A   1      32.334  18.964  22.744  1.00  0.00     0.051 A 
ATOM     29  C   UNL A   1      32.990  17.991  24.831  1.00  0.00     0.166 A 
ATOM     30  C   UNL A   1      32.793  17.895  23.479  1.00  0.00     0.165 A 
ATOM     31  O   UNL A   1      33.512  16.853  25.365  1.00  0.00    -0.454 OA
ATOM     32  O   UNL A   1      33.158  16.675  22.997  1.00  0.00    -0.454 OA
ATOM     33  C   UNL A   1      33.841  16.143  24.153  1.00  0.00     0.468 C 
ENDBRANCH  14  25
ENDBRANCH   8  10
ENDBRANCH   7   8
ENDBRANCH   6   7
ENDBRANCH   5   6
ENDBRANCH   4   5
ENDBRANCH   3   4
ENDBRANCH   2   3
ENDBRANCH   1   2
BRANCH   1  34
ATOM     34  C   UNL A   1      40.691  20.259  26.438  1.00  0.00     0.188 C 
BRANCH  34  35
ATOM     35  C   UNL A   1      41.868  19.262  26.355  1.00  0.00     0.188 C 
BRANCH  35  36
ATOM     36  O   UNL A   1      42.628  19.360  25.159  1.00  0.00    -0.376 OA
BRANCH  36  37
ATOM     37  C   UNL A   1      44.023  19.596  25.238  1.00  0.00     0.202 C 
BRANCH  37  38
ATOM     38  C   UNL A   1      44.489  21.057  25.182  1.00  0.00     0.261 C 
BRANCH  38  39
ATOM     39  O   UNL A   1      43.680  22.003  25.894  1.00  0.00    -0.460 OA
BRANCH  39  40
ATOM     40  C   UNL A   1      43.609  23.257  25.401  1.00  0.00     0.338 C 
ATOM     41  O   UNL A   1      43.593  23.589  24.227  1.00  0.00    -0.246 OA
BRANCH  40  42
ATOM     42  C   UNL A   1      43.356  24.167  26.536  1.00  0.00     0.060 A 
ATOM     43  C   UNL A   1      42.474  23.767  27.549  1.00  0.00     0.016 A 
ATOM     44  C   UNL A   1      43.999  25.404  26.604  1.00  0.00     0.016 A 
ATOM     45  C   UNL A   1      42.211  24.619  28.622  1.00  0.00     0.010 A 
ATOM     46  C   UNL A   1      43.715  26.267  27.665  1.00  0.00     0.010 A 
ATOM     47  C   UNL A   1      42.795  25.891  28.662  1.00  0.00    -0.014 A 
BRANCH  47  48
ATOM     48  C   UNL A   1      42.303  26.900  29.628  1.00  0.00     0.031 A 
ATOM     49  C   UNL A   1      43.011  27.024  30.951  1.00  0.00     0.074 A 
ATOM     50  C   UNL A   1      41.256  27.694  29.343  1.00  0.00     0.049 A 
ATOM     51  N   UNL A   1      42.720  27.775  31.980  1.00  0.00    -0.248 NA
ATOM     52  C   UNL A   1      44.206  26.184  31.135  1.00  0.00     0.031 C 
ATOM     53  C   UNL A   1      40.517  27.705  28.081  1.00  0.00     0.029 A 
ATOM     54  N   UNL A   1      40.623  28.638  30.114  1.00  0.00    -0.354 N 
ATOM     55  C   UNL A   1      43.680  27.481  32.942  1.00  0.00     0.074 A 
ATOM     56  C   UNL A   1      44.552  26.474  32.380  1.00  0.00     0.031 C 
ATOM     57  C   UNL A   1      39.516  28.600  28.173  1.00  0.00     0.029 A 
ATOM     58  C   UNL A   1      39.520  29.191  29.510  1.00  0.00     0.049 A 
ATOM     59  H   UNL A   1      40.931  28.893  31.014  1.00  0.00     0.167 HD
ATOM     60  C   UNL A   1      43.820  28.003  34.182  1.00  0.00     0.031 A 
ATOM     61  C   UNL A   1      38.601  30.048  29.996  1.00  0.00     0.031 A 
ATOM     62  C   UNL A   1      42.948  28.999  34.742  1.00  0.00     0.049 A 
ATOM     63  C   UNL A   1      38.740  30.558  31.409  1.00  0.00     0.074 A 
ATOM     64  C   UNL A   1      43.028  29.614  35.979  1.00  0.00     0.029 A 
ATOM     65  N   UNL A   1      41.830  29.517  34.108  1.00  0.00    -0.354 N 
ATOM     66  N   UNL A   1      39.674  30.306  32.293  1.00  0.00    -0.248 NA
ATOM     67  C   UNL A   1      37.697  31.480  31.887  1.00  0.00     0.031 C 
ATOM     68  C   UNL A   1      41.916  30.448  36.123  1.00  0.00     0.029 A 
ATOM     69  C   UNL A   1      41.188  30.413  34.944  1.00  0.00     0.049 A 
ATOM     70  H   UNL A   1      41.535  29.281  33.199  1.00  0.00     0.167 HD
ATOM     71  C   UNL A   1      39.349  31.060  33.417  1.00  0.00     0.074 A 
ATOM     72  C   UNL A   1      38.144  31.793  33.095  1.00  0.00     0.031 C 
ATOM     73  C   UNL A   1      39.990  31.139  34.609  1.00  0.00     0.031 A 
BRANCH  60  74
ATOM     74  C   UNL A   1      44.931  27.471  35.044  1.00  0.00    -0.014 A 
ATOM     75  C   UNL A   1      44.742  26.368  35.891  1.00  0.00     0.009 A 
ATOM     76  C   UNL A   1      46.205  28.053  34.960  1.00  0.00     0.009 A 
ATOM     77  C   UNL A   1      45.803  25.874  36.652  1.00  0.00     0.001 A 
ATOM     78  C   UNL A   1      47.271  27.539  35.699  1.00  0.00     0.001 A 
ATOM     79  C   UNL A   1      47.069  26.454  36.549  1.00  0.00     0.000 A 
ENDBRANCH  60  74
BRANCH  61  80
ATOM     80  C   UNL A   1      37.432  30.448  29.165  1.00  0.00    -0.014 A 
ATOM     81  C   UNL A   1      37.274  31.774  28.731  1.00  0.00     0.009 A 
ATOM     82  C   UNL A   1      36.439  29.509  28.843  1.00  0.00     0.009 A 
ATOM     83  C   UNL A   1      36.127  32.157  28.028  1.00  0.00     0.001 A 
ATOM     84  C   UNL A   1      35.312  29.886  28.109  1.00  0.00     0.001 A 
ATOM     85  C   UNL A   1      35.151  31.212  27.715  1.00  0.00     0.000 A 
ENDBRANCH  61  80
BRANCH  73  86
ATOM     86  C   UNL A   1      39.431  32.082  35.639  1.00  0.00    -0.014 A 
ATOM     87  C   UNL A   1      40.047  33.311  35.922  1.00  0.00     0.009 A 
ATOM     88  C   UNL A   1      38.238  31.752  36.304  1.00  0.00     0.009 A 
ATOM     89  C   UNL A   1      39.500  34.172  36.877  1.00  0.00     0.001 A 
ATOM     90  C   UNL A   1      37.675  32.630  37.230  1.00  0.00     0.001 A 
ATOM     91  C   UNL A   1      38.313  33.834  37.524  1.00  0.00     0.000 A 
ENDBRANCH  73  86
ENDBRANCH  47  48
ENDBRANCH  40  42
ENDBRANCH  39  40
ENDBRANCH  38  39
ENDBRANCH  37  38
ENDBRANCH  36  37
ENDBRANCH  35  36
ENDBRANCH  34  35
ENDBRANCH   1  34
TORSDOF 23
ENDMDL
MODEL 2
REMARK VINA RESULT:     -10.4      1.351      2.059
REMARK SMILES C[NH+]1CCC(C(=O)N2C[C@@H](C(=O)OCCOCCOCCOCCOC(=O)c3ccc(-c4c5nc(c(-c6ccccc6)c6ccc([nH]6)c(-c6ccccc6)c6nc(c(-c7ccccc7)c7ccc4[nH]7)C=C6)C=C5)cc3)[C@H](c3ccc4c(c3)OCO4)C2)CC1
REMARK SMILES IDX 19 1 18 2 17 3 16 4 15 5 14 6 13 7 11 8 12 9 10 10 8 11 9 12
REMARK SMILES IDX 86 13 76 14 6 15 7 16 5 17 1 18 2 19 3 20 88 21 4 23 87 24
REMARK SMILES IDX 77 25 78 26 82 27 79 28 81 29 80 30 83 31 85 32 84 33 20 34
REMARK SMILES IDX 21 35 22 36 23 37 24 38 25 39 26 40 27 41 28 42 29 43 75 44
REMARK SMILES IDX 30 45 74 46 31 47 32 48 33 49 68 50 34 51 73 52 67 53 69 54
REMARK SMILES IDX 35 55 72 56 66 57 65 58 36 60 58 61 43 62 57 63 44 64 47 65
REMARK SMILES IDX 56 66 70 67 45 68 46 69 55 71 71 72 48 73 37 74 38 75 42 76
REMARK SMILES IDX 39 77 41 78 40 79 59 80 60 81 64 82 61 83 63 84 62 85 49 86
REMARK SMILES IDX 50 87 54 88 51 89 53 90 52 91
REMARK H PARENT 2 22 69 59 47 70
REMARK Flexibility Score: inf
ROOT
ATOM      1  O   UNL A   1      38.329  20.966  25.309  1.00  0.00    -0.377 OA
ENDROOT
BRANCH   1   2
ATOM      2  C   UNL A   1      37.307  21.880  24.955  1.00  0.00     0.188 C 
BRANCH   2   3
ATOM      3  C   UNL A   1      37.487  23.277  25.589  1.00  0.00     0.188 C 
BRANCH   3   4
ATOM      4  O   UNL A   1      36.469  24.255  25.464  1.00  0.00    -0.376 OA
BRANCH   4   5
ATOM      5  C   UNL A   1      35.091  23.942  25.317  1.00  0.00     0.202 C 
BRANCH   5   6
ATOM      6  C   UNL A   1      33.933  24.947  25.377  1.00  0.00     0.261 C 
BRANCH   6   7
ATOM      7  O   UNL A   1      33.767  25.795  24.251  1.00  0.00    -0.463 OA
BRANCH   7   8
ATOM      8  C   UNL A   1      33.367  25.225  23.089  1.00  0.00     0.311 C 
ATOM      9  O   UNL A   1      34.089  24.929  22.151  1.00  0.00    -0.252 OA
BRANCH   8  10
ATOM     10  C   UNL A   1      31.881  25.006  23.155  1.00  0.00     0.128 C 
ATOM     11  N   UNL A   1      29.857  25.918  23.757  1.00  0.00    -0.341 N 
ATOM     12  C   UNL A   1      31.132  26.315  23.221  1.00  0.00     0.135 C 
ATOM     13  C   UNL A   1      30.067  24.840  24.725  1.00  0.00     0.128 C 
ATOM     14  C   UNL A   1      31.453  24.218  24.409  1.00  0.00     0.055 C 
BRANCH  11  15
ATOM     15  C   UNL A   1      28.765  26.753  23.834  1.00  0.00     0.226 C 
ATOM     16  O   UNL A   1      27.687  26.347  24.273  1.00  0.00    -0.275 OA
BRANCH  15  17
ATOM     17  C   UNL A   1      28.830  28.113  23.116  1.00  0.00     0.090 C 
ATOM     18  C   UNL A   1      29.113  32.323  22.277  1.00  0.00     0.332 C 
ATOM     19  N   UNL A   1      28.879  31.031  22.923  1.00  0.00    -0.337 N 
ATOM     20  C   UNL A   1      30.137  30.277  23.016  1.00  0.00     0.262 C 
ATOM     21  C   UNL A   1      27.859  30.255  22.201  1.00  0.00     0.262 C 
ATOM     22  H   UNL A   1      28.529  31.200  23.866  1.00  0.00     0.347 HD
ATOM     23  C   UNL A   1      29.927  28.965  23.768  1.00  0.00     0.075 C 
ATOM     24  C   UNL A   1      27.556  28.943  22.945  1.00  0.00     0.075 C 
ENDBRANCH  15  17
ENDBRANCH  11  15
BRANCH  14  25
ATOM     25  C   UNL A   1      31.593  22.729  24.076  1.00  0.00    -0.038 A 
ATOM     26  C   UNL A   1      31.683  22.226  22.761  1.00  0.00     0.008 A 
ATOM     27  C   UNL A   1      31.843  21.842  25.150  1.00  0.00     0.054 A 
ATOM     28  C   UNL A   1      32.136  20.921  22.515  1.00  0.00     0.051 A 
ATOM     29  C   UNL A   1      32.383  20.607  24.876  1.00  0.00     0.166 A 
ATOM     30  C   UNL A   1      32.540  20.162  23.590  1.00  0.00     0.165 A 
ATOM     31  O   UNL A   1      32.907  19.748  25.793  1.00  0.00    -0.454 OA
ATOM     32  O   UNL A   1      33.176  18.959  23.541  1.00  0.00    -0.454 OA
ATOM     33  C   UNL A   1      33.618  18.854  24.912  1.00  0.00     0.468 C 
ENDBRANCH  14  25
ENDBRANCH   8  10
ENDBRANCH   7   8
ENDBRANCH   6   7
ENDBRANCH   5   6
ENDBRANCH   4   5
ENDBRANCH   3   4
ENDBRANCH   2   3
ENDBRANCH   1   2
BRANCH   1  34
ATOM     34  C   UNL A   1      39.460  21.508  25.980  1.00  0.00     0.188 C 
BRANCH  34  35
ATOM     35  C   UNL A   1      40.539  20.553  26.536  1.00  0.00     0.188 C 
BRANCH  35  36
ATOM     36  O   UNL A   1      41.389  19.997  25.543  1.00  0.00    -0.376 OA
BRANCH  36  37
ATOM     37  C   UNL A   1      42.788  19.967  25.762  1.00  0.00     0.202 C 
BRANCH  37  38
ATOM     38  C   UNL A   1      43.614  21.116  25.167  1.00  0.00     0.261 C 
BRANCH  38  39
ATOM     39  O   UNL A   1      42.932  22.369  25.018  1.00  0.00    -0.460 OA
BRANCH  39  40
ATOM     40  C   UNL A   1      43.682  23.490  25.025  1.00  0.00     0.338 C 
ATOM     41  O   UNL A   1      44.631  23.750  24.302  1.00  0.00    -0.246 OA
BRANCH  40  42
ATOM     42  C   UNL A   1      43.036  24.451  25.941  1.00  0.00     0.060 A 
ATOM     43  C   UNL A   1      43.333  25.815  25.822  1.00  0.00     0.016 A 
ATOM     44  C   UNL A   1      42.129  24.005  26.905  1.00  0.00     0.016 A 
ATOM     45  C   UNL A   1      42.744  26.736  26.688  1.00  0.00     0.010 A 
ATOM     46  C   UNL A   1      41.560  24.925  27.788  1.00  0.00     0.010 A 
ATOM     47  C   UNL A   1      41.889  26.291  27.704  1.00  0.00    -0.014 A 
BRANCH  47  48
ATOM     48  C   UNL A   1      41.494  27.212  28.795  1.00  0.00     0.031 A 
ATOM     49  C   UNL A   1      42.299  27.197  30.066  1.00  0.00     0.074 A 
ATOM     50  C   UNL A   1      40.448  28.046  28.665  1.00  0.00     0.049 A 
ATOM     51  N   UNL A   1      42.102  27.850  31.181  1.00  0.00    -0.248 NA
ATOM     52  C   UNL A   1      43.485  26.322  30.080  1.00  0.00     0.031 C 
ATOM     53  C   UNL A   1      39.619  28.191  27.470  1.00  0.00     0.029 A 
ATOM     54  N   UNL A   1      39.896  28.923  29.568  1.00  0.00    -0.354 N 
ATOM     55  C   UNL A   1      43.123  27.450  32.035  1.00  0.00     0.074 A 
ATOM     56  C   UNL A   1      43.928  26.486  31.318  1.00  0.00     0.031 C 
ATOM     57  C   UNL A   1      38.649  29.089  27.720  1.00  0.00     0.029 A 
ATOM     58  C   UNL A   1      38.766  29.550  29.103  1.00  0.00     0.049 A 
ATOM     59  H   UNL A   1      40.275  29.086  30.461  1.00  0.00     0.167 HD
ATOM     60  C   UNL A   1      43.366  27.848  33.305  1.00  0.00     0.031 A 
ATOM     61  C   UNL A   1      37.905  30.371  29.735  1.00  0.00     0.031 A 
ATOM     62  C   UNL A   1      42.561  28.800  34.021  1.00  0.00     0.049 A 
ATOM     63  C   UNL A   1      38.159  30.742  31.175  1.00  0.00     0.074 A 
ATOM     64  C   UNL A   1      42.747  29.293  35.301  1.00  0.00     0.029 A 
ATOM     65  N   UNL A   1      41.413  29.395  33.524  1.00  0.00    -0.354 N 
ATOM     66  N   UNL A   1      39.149  30.391  31.959  1.00  0.00    -0.248 NA
ATOM     67  C   UNL A   1      37.176  31.631  31.815  1.00  0.00     0.031 C 
ATOM     68  C   UNL A   1      41.668  30.128  35.606  1.00  0.00     0.029 A 
ATOM     69  C   UNL A   1      40.855  30.218  34.487  1.00  0.00     0.049 A 
ATOM     70  H   UNL A   1      41.047  29.252  32.621  1.00  0.00     0.167 HD
ATOM     71  C   UNL A   1      38.926  31.039  33.170  1.00  0.00     0.074 A 
ATOM     72  C   UNL A   1      37.717  31.819  33.011  1.00  0.00     0.031 C 
ATOM     73  C   UNL A   1      39.654  30.992  34.312  1.00  0.00     0.031 A 
BRANCH  60  74
ATOM     74  C   UNL A   1      44.524  27.217  34.027  1.00  0.00    -0.014 A 
ATOM     75  C   UNL A   1      44.379  26.024  34.752  1.00  0.00     0.009 A 
ATOM     76  C   UNL A   1      45.796  27.801  33.929  1.00  0.00     0.009 A 
ATOM     77  C   UNL A   1      45.481  25.443  35.382  1.00  0.00     0.001 A 
ATOM     78  C   UNL A   1      46.902  27.203  34.535  1.00  0.00     0.001 A 
ATOM     79  C   UNL A   1      46.743  26.028  35.266  1.00  0.00     0.000 A 
ENDBRANCH  60  74
BRANCH  61  80
ATOM     80  C   UNL A   1      36.688  30.869  29.036  1.00  0.00    -0.014 A 
ATOM     81  C   UNL A   1      35.762  29.977  28.473  1.00  0.00     0.009 A 
ATOM     82  C   UNL A   1      36.474  32.249  28.885  1.00  0.00     0.009 A 
ATOM     83  C   UNL A   1      34.671  30.456  27.742  1.00  0.00     0.001 A 
ATOM     84  C   UNL A   1      35.364  32.725  28.185  1.00  0.00     0.001 A 
ATOM     85  C   UNL A   1      34.471  31.829  27.603  1.00  0.00     0.000 A 
ENDBRANCH  61  80
BRANCH  73  86
ATOM     86  C   UNL A   1      39.194  31.841  35.466  1.00  0.00    -0.014 A 
ATOM     87  C   UNL A   1      38.303  31.350  36.432  1.00  0.00     0.009 A 
ATOM     88  C   UNL A   1      39.702  33.143  35.612  1.00  0.00     0.009 A 
ATOM     89  C   UNL A   1      37.901  32.158  37.499  1.00  0.00     0.001 A 
ATOM     90  C   UNL A   1      39.327  33.934  36.699  1.00  0.00     0.001 A 
ATOM     91  C   UNL A   1      38.418  33.445  37.634  1.00  0.00     0.000 A 
ENDBRANCH  73  86
ENDBRANCH  47  48
ENDBRANCH  40  42
ENDBRANCH  39  40
ENDBRANCH  38  39
ENDBRANCH  37  38
ENDBRANCH  36  37
ENDBRANCH  35  36
ENDBRANCH  34  35
ENDBRANCH   1  34
TORSDOF 23
ENDMDL
MODEL 3
REMARK VINA RESULT:      -9.6      6.248     13.551
REMARK SMILES C[NH+]1CCC(C(=O)N2C[C@@H](C(=O)OCCOCCOCCOCCOC(=O)c3ccc(-c4c5nc(c(-c6ccccc6)c6ccc([nH]6)c(-c6ccccc6)c6nc(c(-c7ccccc7)c7ccc4[nH]7)C=C6)C=C5)cc3)[C@H](c3ccc4c(c3)OCO4)C2)CC1
REMARK SMILES IDX 19 1 18 2 17 3 16 4 15 5 14 6 13 7 11 8 12 9 10 10 8 11 9 12
REMARK SMILES IDX 86 13 76 14 6 15 7 16 5 17 1 18 2 19 3 20 88 21 4 23 87 24
REMARK SMILES IDX 77 25 78 26 82 27 79 28 81 29 80 30 83 31 85 32 84 33 20 34
REMARK SMILES IDX 21 35 22 36 23 37 24 38 25 39 26 40 27 41 28 42 29 43 75 44
REMARK SMILES IDX 30 45 74 46 31 47 32 48 33 49 68 50 34 51 73 52 67 53 69 54
REMARK SMILES IDX 35 55 72 56 66 57 65 58 36 60 58 61 43 62 57 63 44 64 47 65
REMARK SMILES IDX 56 66 70 67 45 68 46 69 55 71 71 72 48 73 37 74 38 75 42 76
REMARK SMILES IDX 39 77 41 78 40 79 59 80 60 81 64 82 61 83 63 84 62 85 49 86
REMARK SMILES IDX 50 87 54 88 51 89 53 90 52 91
REMARK H PARENT 2 22 69 59 47 70
REMARK Flexibility Score: inf
ROOT
ATOM      1  O   UNL A   1      33.157  36.763  32.096  1.00  0.00    -0.377 OA
ENDROOT
BRANCH   1   2
ATOM      2  C   UNL A   1      34.021  36.130  33.022  1.00  0.00     0.188 C 
BRANCH   2   3
ATOM      3  C   UNL A   1      34.425  34.698  32.606  1.00  0.00     0.188 C 
BRANCH   3   4
ATOM      4  O   UNL A   1      34.537  33.676  33.581  1.00  0.00    -0.376 OA
BRANCH   4   5
ATOM      5  C   UNL A   1      35.777  33.162  34.044  1.00  0.00     0.202 C 
BRANCH   5   6
ATOM      6  C   UNL A   1      36.868  33.966  34.764  1.00  0.00     0.261 C 
BRANCH   6   7
ATOM      7  O   UNL A   1      37.700  34.780  33.951  1.00  0.00    -0.463 OA
BRANCH   7   8
ATOM      8  C   UNL A   1      38.652  34.164  33.211  1.00  0.00     0.311 C 
ATOM      9  O   UNL A   1      38.514  33.743  32.074  1.00  0.00    -0.252 OA
BRANCH   8  10
ATOM     10  C   UNL A   1      39.915  34.099  34.023  1.00  0.00     0.128 C 
ATOM     11  N   UNL A   1      41.915  35.130  34.502  1.00  0.00    -0.341 N 
ATOM     12  C   UNL A   1      40.557  35.459  34.157  1.00  0.00     0.135 C 
ATOM     13  C   UNL A   1      42.302  33.911  33.788  1.00  0.00     0.128 C 
ATOM     14  C   UNL A   1      40.987  33.194  33.382  1.00  0.00     0.055 C 
BRANCH  11  15
ATOM     15  C   UNL A   1      42.849  36.059  34.902  1.00  0.00     0.226 C 
ATOM     16  O   UNL A   1      43.405  35.965  35.999  1.00  0.00    -0.275 OA
BRANCH  15  17
ATOM     17  C   UNL A   1      42.990  37.356  34.086  1.00  0.00     0.090 C 
ATOM     18  C   UNL A   1      44.561  40.590  31.722  1.00  0.00     0.332 C 
ATOM     19  N   UNL A   1      44.420  39.459  32.641  1.00  0.00    -0.337 N 
ATOM     20  C   UNL A   1      43.915  38.282  31.921  1.00  0.00     0.262 C 
ATOM     21  C   UNL A   1      43.535  39.799  33.767  1.00  0.00     0.262 C 
ATOM     22  H   UNL A   1      45.339  39.238  33.025  1.00  0.00     0.347 HD
ATOM     23  C   UNL A   1      43.848  37.070  32.846  1.00  0.00     0.075 C 
ATOM     24  C   UNL A   1      43.475  38.635  34.771  1.00  0.00     0.075 C 
ENDBRANCH  15  17
ENDBRANCH  11  15
BRANCH  14  25
ATOM     25  C   UNL A   1      40.697  31.760  33.834  1.00  0.00    -0.038 A 
ATOM     26  C   UNL A   1      40.301  30.727  32.958  1.00  0.00     0.008 A 
ATOM     27  C   UNL A   1      41.034  31.416  35.164  1.00  0.00     0.054 A 
ATOM     28  C   UNL A   1      40.367  29.381  33.350  1.00  0.00     0.051 A 
ATOM     29  C   UNL A   1      41.190  30.087  35.485  1.00  0.00     0.166 A 
ATOM     30  C   UNL A   1      40.879  29.093  34.595  1.00  0.00     0.165 A 
ATOM     31  O   UNL A   1      41.747  29.606  36.630  1.00  0.00    -0.454 OA
ATOM     32  O   UNL A   1      41.194  27.860  35.077  1.00  0.00    -0.454 OA
ATOM     33  C   UNL A   1      41.968  28.235  36.237  1.00  0.00     0.468 C 
ENDBRANCH  14  25
ENDBRANCH   8  10
ENDBRANCH   7   8
ENDBRANCH   6   7
ENDBRANCH   5   6
ENDBRANCH   4   5
ENDBRANCH   3   4
ENDBRANCH   2   3
ENDBRANCH   1   2
BRANCH   1  34
ATOM     34  C   UNL A   1      32.636  35.945  31.054  1.00  0.00     0.188 C 
BRANCH  34  35
ATOM     35  C   UNL A   1      33.229  36.063  29.632  1.00  0.00     0.188 C 
BRANCH  35  36
ATOM     36  O   UNL A   1      32.951  34.950  28.794  1.00  0.00    -0.376 OA
BRANCH  36  37
ATOM     37  C   UNL A   1      33.991  34.044  28.473  1.00  0.00     0.202 C 
BRANCH  37  38
ATOM     38  C   UNL A   1      33.583  32.608  28.120  1.00  0.00     0.261 C 
BRANCH  38  39
ATOM     39  O   UNL A   1      34.585  31.601  28.324  1.00  0.00    -0.460 OA
BRANCH  39  40
ATOM     40  C   UNL A   1      35.202  31.572  29.523  1.00  0.00     0.338 C 
ATOM     41  O   UNL A   1      34.774  31.994  30.585  1.00  0.00    -0.246 OA
BRANCH  40  42
ATOM     42  C   UNL A   1      36.424  30.757  29.373  1.00  0.00     0.060 A 
ATOM     43  C   UNL A   1      36.987  30.154  30.506  1.00  0.00     0.016 A 
ATOM     44  C   UNL A   1      37.004  30.579  28.115  1.00  0.00     0.016 A 
ATOM     45  C   UNL A   1      38.150  29.394  30.388  1.00  0.00     0.010 A 
ATOM     46  C   UNL A   1      38.182  29.839  28.001  1.00  0.00     0.010 A 
ATOM     47  C   UNL A   1      38.778  29.269  29.142  1.00  0.00    -0.014 A 
BRANCH  47  48
ATOM     48  C   UNL A   1      40.150  28.717  29.057  1.00  0.00     0.031 A 
ATOM     49  C   UNL A   1      41.309  29.653  29.267  1.00  0.00     0.074 A 
ATOM     50  C   UNL A   1      40.368  27.415  28.802  1.00  0.00     0.049 A 
ATOM     51  N   UNL A   1      42.592  29.422  29.167  1.00  0.00    -0.248 NA
ATOM     52  C   UNL A   1      40.972  31.039  29.638  1.00  0.00     0.031 C 
ATOM     53  C   UNL A   1      39.333  26.398  28.627  1.00  0.00     0.029 A 
ATOM     54  N   UNL A   1      41.547  26.731  28.630  1.00  0.00    -0.354 N 
ATOM     55  C   UNL A   1      43.213  30.635  29.438  1.00  0.00     0.074 A 
ATOM     56  C   UNL A   1      42.170  31.603  29.692  1.00  0.00     0.031 C 
ATOM     57  C   UNL A   1      39.924  25.220  28.352  1.00  0.00     0.029 A 
ATOM     58  C   UNL A   1      41.372  25.411  28.292  1.00  0.00     0.049 A 
ATOM     59  H   UNL A   1      42.432  27.147  28.740  1.00  0.00     0.167 HD
ATOM     60  C   UNL A   1      44.536  30.917  29.470  1.00  0.00     0.031 A 
ATOM     61  C   UNL A   1      42.275  24.477  27.938  1.00  0.00     0.031 A 
ATOM     62  C   UNL A   1      45.573  29.956  29.210  1.00  0.00     0.049 A 
ATOM     63  C   UNL A   1      43.740  24.838  27.911  1.00  0.00     0.074 A 
ATOM     64  C   UNL A   1      46.945  30.139  29.251  1.00  0.00     0.029 A 
ATOM     65  N   UNL A   1      45.355  28.637  28.848  1.00  0.00    -0.354 N 
ATOM     66  N   UNL A   1      44.319  25.975  28.210  1.00  0.00    -0.248 NA
ATOM     67  C   UNL A   1      44.677  23.779  27.502  1.00  0.00     0.031 C 
ATOM     68  C   UNL A   1      47.554  28.950  28.841  1.00  0.00     0.029 A 
ATOM     69  C   UNL A   1      46.565  28.004  28.623  1.00  0.00     0.049 A 
ATOM     70  H   UNL A   1      44.470  28.213  28.763  1.00  0.00     0.167 HD
ATOM     71  C   UNL A   1      45.685  25.760  28.057  1.00  0.00     0.074 A 
ATOM     72  C   UNL A   1      45.849  24.379  27.658  1.00  0.00     0.031 C 
ATOM     73  C   UNL A   1      46.712  26.627  28.230  1.00  0.00     0.031 A 
BRANCH  60  74
ATOM     74  C   UNL A   1      44.943  32.337  29.750  1.00  0.00    -0.014 A 
ATOM     75  C   UNL A   1      45.281  33.224  28.715  1.00  0.00     0.009 A 
ATOM     76  C   UNL A   1      44.929  32.809  31.071  1.00  0.00     0.009 A 
ATOM     77  C   UNL A   1      45.620  34.547  29.004  1.00  0.00     0.001 A 
ATOM     78  C   UNL A   1      45.239  34.140  31.354  1.00  0.00     0.001 A 
ATOM     79  C   UNL A   1      45.589  35.007  30.321  1.00  0.00     0.000 A 
ENDBRANCH  60  74
BRANCH  61  80
ATOM     80  C   UNL A   1      41.830  23.115  27.530  1.00  0.00    -0.014 A 
ATOM     81  C   UNL A   1      41.802  22.057  28.451  1.00  0.00     0.009 A 
ATOM     82  C   UNL A   1      41.477  22.859  26.195  1.00  0.00     0.009 A 
ATOM     83  C   UNL A   1      41.469  20.764  28.036  1.00  0.00     0.001 A 
ATOM     84  C   UNL A   1      41.109  21.574  25.790  1.00  0.00     0.001 A 
ATOM     85  C   UNL A   1      41.119  20.526  26.707  1.00  0.00     0.000 A 
ENDBRANCH  61  80
BRANCH  73  86
ATOM     86  C   UNL A   1      48.108  26.100  28.036  1.00  0.00    -0.014 A 
ATOM     87  C   UNL A   1      48.723  26.094  26.774  1.00  0.00     0.009 A 
ATOM     88  C   UNL A   1      48.837  25.646  29.147  1.00  0.00     0.009 A 
ATOM     89  C   UNL A   1      50.025  25.608  26.625  1.00  0.00     0.001 A 
ATOM     90  C   UNL A   1      50.150  25.196  29.001  1.00  0.00     0.001 A 
ATOM     91  C   UNL A   1      50.738  25.166  27.737  1.00  0.00     0.000 A 
ENDBRANCH  73  86
ENDBRANCH  47  48
ENDBRANCH  40  42
ENDBRANCH  39  40
ENDBRANCH  38  39
ENDBRANCH  37  38
ENDBRANCH  36  37
ENDBRANCH  35  36
ENDBRANCH  34  35
ENDBRANCH   1  34
TORSDOF 23
ENDMDL
