MODEL 1
REMARK VINA RESULT:     -10.0      0.000      0.000
REMARK SMILES Cc1cc(Cl)ccc1Oc1cc(C)c(N)c(C(=O)OCCOCCOCCOCCOC(=O)c2ccc(-c3c4nc(c(-c5ccccc5)c5ccc([nH]5)c(-c5ccccc5)c5nc(c(-c6ccccc6)c6ccc3[nH]6)C=C5)C=C4)cc2)c1
REMARK SMILES IDX 25 1 24 2 23 3 22 4 21 5 20 6 19 7 17 8 18 9 16 10 10 11
REMARK SMILES IDX 11 12 82 13 12 14 13 15 14 16 9 17 8 18 1 19 2 20 3 21 4 22
REMARK SMILES IDX 7 23 5 24 6 25 15 26 26 29 27 30 28 31 29 32 30 33 31 34
REMARK SMILES IDX 32 35 33 36 34 37 35 38 81 39 36 40 80 41 37 42 38 43 39 44
REMARK SMILES IDX 74 45 40 46 79 47 73 48 75 49 41 50 78 51 72 52 71 53 42 55
REMARK SMILES IDX 64 56 49 57 63 58 50 59 53 60 62 61 76 62 51 63 52 64 61 66
REMARK SMILES IDX 77 67 54 68 43 69 44 70 48 71 45 72 47 73 46 74 65 75 66 76
REMARK SMILES IDX 70 77 67 78 69 79 68 80 55 81 56 82 60 83 57 84 59 85 58 86
REMARK H PARENT 15 27 15 28 75 54 53 65
REMARK Flexibility Score: inf
ROOT
ATOM      1  O   UNL A   1      41.923  19.619  25.833  1.00  0.00    -0.377 OA
ENDROOT
BRANCH   1   2
ATOM      2  C   UNL A   1      41.658  19.892  27.205  1.00  0.00     0.188 C 
BRANCH   2   3
ATOM      3  C   UNL A   1      41.459  21.345  27.689  1.00  0.00     0.188 C 
BRANCH   3   4
ATOM      4  O   UNL A   1      40.105  21.760  27.752  1.00  0.00    -0.376 OA
BRANCH   4   5
ATOM      5  C   UNL A   1      39.608  22.583  26.714  1.00  0.00     0.202 C 
BRANCH   5   6
ATOM      6  C   UNL A   1      38.603  21.961  25.736  1.00  0.00     0.261 C 
BRANCH   6   7
ATOM      7  O   UNL A   1      37.257  22.452  25.822  1.00  0.00    -0.460 OA
BRANCH   7   8
ATOM      8  C   UNL A   1      36.505  22.386  24.699  1.00  0.00     0.340 C 
ATOM      9  O   UNL A   1      36.923  22.441  23.553  1.00  0.00    -0.246 OA
BRANCH   8  10
ATOM     10  C   UNL A   1      35.102  22.044  25.073  1.00  0.00     0.086 A 
ATOM     11  C   UNL A   1      32.940  22.753  25.915  1.00  0.00     0.128 A 
ATOM     12  C   UNL A   1      32.455  21.462  25.737  1.00  0.00     0.052 A 
ATOM     13  C   UNL A   1      34.243  23.057  25.521  1.00  0.00     0.065 A 
ATOM     14  C   UNL A   1      33.325  20.417  25.375  1.00  0.00    -0.024 A 
ATOM     15  C   UNL A   1      32.803  19.005  25.425  1.00  0.00     0.047 C 
ATOM     16  C   UNL A   1      34.671  20.697  25.051  1.00  0.00     0.049 A 
BRANCH  11  17
ATOM     17  O   UNL A   1      32.215  23.799  26.414  1.00  0.00    -0.457 OA
BRANCH  17  18
ATOM     18  C   UNL A   1      31.779  24.863  25.651  1.00  0.00     0.130 A 
ATOM     19  C   UNL A   1      30.921  23.666  23.513  1.00  0.00     0.048 C 
ATOM     20  C   UNL A   1      31.179  24.869  24.377  1.00  0.00    -0.007 A 
ATOM     21  C   UNL A   1      30.778  26.110  23.828  1.00  0.00     0.027 A 
ATOM     22  C   UNL A   1      30.892  27.296  24.551  1.00  0.00     0.041 A 
ATOM     23  C   UNL A   1      31.872  26.073  26.367  1.00  0.00     0.049 A 
ATOM     24  Cl  UNL A   1      30.341  28.774  23.865  1.00  0.00    -0.084 Cl
ATOM     25  C   UNL A   1      31.427  27.281  25.829  1.00  0.00     0.024 A 
ENDBRANCH  17  18
ENDBRANCH  11  17
BRANCH  16  26
ATOM     26  N   UNL A   1      35.587  19.651  24.913  1.00  0.00    -0.398 N 
ATOM     27  H   UNL A   1      35.528  18.864  25.500  1.00  0.00     0.156 HD
ATOM     28  H   UNL A   1      36.293  19.702  24.229  1.00  0.00     0.156 HD
ENDBRANCH  16  26
ENDBRANCH   8  10
ENDBRANCH   7   8
ENDBRANCH   6   7
ENDBRANCH   5   6
ENDBRANCH   4   5
ENDBRANCH   3   4
ENDBRANCH   2   3
ENDBRANCH   1   2
BRANCH   1  29
ATOM     29  C   UNL A   1      43.252  19.335  25.407  1.00  0.00     0.188 C 
BRANCH  29  30
ATOM     30  C   UNL A   1      44.297  20.467  25.275  1.00  0.00     0.188 C 
BRANCH  30  31
ATOM     31  O   UNL A   1      44.614  20.821  23.940  1.00  0.00    -0.376 OA
BRANCH  31  32
ATOM     32  C   UNL A   1      44.615  22.195  23.598  1.00  0.00     0.202 C 
BRANCH  32  33
ATOM     33  C   UNL A   1      45.746  23.064  24.169  1.00  0.00     0.261 C 
BRANCH  33  34
ATOM     34  O   UNL A   1      45.341  24.165  24.996  1.00  0.00    -0.460 OA
BRANCH  34  35
ATOM     35  C   UNL A   1      45.729  24.136  26.285  1.00  0.00     0.338 C 
ATOM     36  O   UNL A   1      46.763  23.665  26.736  1.00  0.00    -0.246 OA
BRANCH  35  37
ATOM     37  C   UNL A   1      44.780  24.953  27.067  1.00  0.00     0.060 A 
ATOM     38  C   UNL A   1      44.990  26.336  27.147  1.00  0.00     0.016 A 
ATOM     39  C   UNL A   1      43.697  24.360  27.721  1.00  0.00     0.016 A 
ATOM     40  C   UNL A   1      44.148  27.122  27.929  1.00  0.00     0.010 A 
ATOM     41  C   UNL A   1      42.864  25.147  28.521  1.00  0.00     0.010 A 
ATOM     42  C   UNL A   1      43.117  26.523  28.666  1.00  0.00    -0.014 A 
BRANCH  42  43
ATOM     43  C   UNL A   1      42.454  27.312  29.730  1.00  0.00     0.031 A 
ATOM     44  C   UNL A   1      43.121  27.408  31.074  1.00  0.00     0.074 A 
ATOM     45  C   UNL A   1      41.321  27.993  29.486  1.00  0.00     0.049 A 
ATOM     46  N   UNL A   1      42.774  28.105  32.126  1.00  0.00    -0.248 NA
ATOM     47  C   UNL A   1      44.344  26.611  31.257  1.00  0.00     0.031 C 
ATOM     48  C   UNL A   1      40.596  28.003  28.218  1.00  0.00     0.029 A 
ATOM     49  N   UNL A   1      40.590  28.817  30.304  1.00  0.00    -0.354 N 
ATOM     50  C   UNL A   1      43.729  27.823  33.096  1.00  0.00     0.074 A 
ATOM     51  C   UNL A   1      44.648  26.866  32.520  1.00  0.00     0.031 C 
ATOM     52  C   UNL A   1      39.521  28.800  28.341  1.00  0.00     0.029 A 
ATOM     53  C   UNL A   1      39.471  29.334  29.701  1.00  0.00     0.049 A 
ATOM     54  H   UNL A   1      40.844  29.020  31.234  1.00  0.00     0.167 HD
ATOM     55  C   UNL A   1      43.837  28.321  34.350  1.00  0.00     0.031 A 
ATOM     56  C   UNL A   1      38.509  30.138  30.194  1.00  0.00     0.031 A 
ATOM     57  C   UNL A   1      42.909  29.258  34.927  1.00  0.00     0.049 A 
ATOM     58  C   UNL A   1      38.620  30.643  31.608  1.00  0.00     0.074 A 
ATOM     59  C   UNL A   1      42.947  29.848  36.178  1.00  0.00     0.029 A 
ATOM     60  N   UNL A   1      41.769  29.730  34.296  1.00  0.00    -0.354 N 
ATOM     61  N   UNL A   1      39.556  30.412  32.498  1.00  0.00    -0.248 NA
ATOM     62  C   UNL A   1      37.552  31.535  32.077  1.00  0.00     0.031 C 
ATOM     63  C   UNL A   1      41.789  30.616  36.332  1.00  0.00     0.029 A 
ATOM     64  C   UNL A   1      41.073  30.573  35.147  1.00  0.00     0.049 A 
ATOM     65  H   UNL A   1      41.493  29.498  33.380  1.00  0.00     0.167 HD
ATOM     66  C   UNL A   1      39.207  31.154  33.620  1.00  0.00     0.074 A 
ATOM     67  C   UNL A   1      37.981  31.853  33.291  1.00  0.00     0.031 C 
ATOM     68  C   UNL A   1      39.847  31.254  34.813  1.00  0.00     0.031 A 
BRANCH  55  69
ATOM     69  C   UNL A   1      44.968  27.808  35.199  1.00  0.00    -0.014 A 
ATOM     70  C   UNL A   1      46.278  28.295  35.060  1.00  0.00     0.009 A 
ATOM     71  C   UNL A   1      44.713  26.820  36.164  1.00  0.00     0.009 A 
ATOM     72  C   UNL A   1      47.315  27.769  35.835  1.00  0.00     0.001 A 
ATOM     73  C   UNL A   1      45.746  26.322  36.962  1.00  0.00     0.001 A 
ATOM     74  C   UNL A   1      47.048  26.787  36.787  1.00  0.00     0.000 A 
ENDBRANCH  55  69
BRANCH  56  75
ATOM     75  C   UNL A   1      37.350  30.507  29.339  1.00  0.00    -0.014 A 
ATOM     76  C   UNL A   1      37.211  31.804  28.822  1.00  0.00     0.009 A 
ATOM     77  C   UNL A   1      36.374  29.545  29.025  1.00  0.00     0.009 A 
ATOM     78  C   UNL A   1      36.112  32.134  28.025  1.00  0.00     0.001 A 
ATOM     79  C   UNL A   1      35.295  29.870  28.202  1.00  0.00     0.001 A 
ATOM     80  C   UNL A   1      35.160  31.165  27.709  1.00  0.00     0.000 A 
ENDBRANCH  56  75
BRANCH  68  81
ATOM     81  C   UNL A   1      39.256  32.185  35.838  1.00  0.00    -0.014 A 
ATOM     82  C   UNL A   1      38.273  31.759  36.745  1.00  0.00     0.009 A 
ATOM     83  C   UNL A   1      39.721  33.508  35.917  1.00  0.00     0.009 A 
ATOM     84  C   UNL A   1      37.735  32.651  37.675  1.00  0.00     0.001 A 
ATOM     85  C   UNL A   1      39.208  34.387  36.872  1.00  0.00     0.001 A 
ATOM     86  C   UNL A   1      38.206  33.963  37.741  1.00  0.00     0.000 A 
ENDBRANCH  68  81
ENDBRANCH  42  43
ENDBRANCH  35  37
ENDBRANCH  34  35
ENDBRANCH  33  34
ENDBRANCH  32  33
ENDBRANCH  31  32
ENDBRANCH  30  31
ENDBRANCH  29  30
ENDBRANCH   1  29
TORSDOF 23
ENDMDL
MODEL 2
REMARK VINA RESULT:      -9.8      4.974     10.686
REMARK SMILES Cc1cc(Cl)ccc1Oc1cc(C)c(N)c(C(=O)OCCOCCOCCOCCOC(=O)c2ccc(-c3c4nc(c(-c5ccccc5)c5ccc([nH]5)c(-c5ccccc5)c5nc(c(-c6ccccc6)c6ccc3[nH]6)C=C5)C=C4)cc2)c1
REMARK SMILES IDX 25 1 24 2 23 3 22 4 21 5 20 6 19 7 17 8 18 9 16 10 10 11
REMARK SMILES IDX 11 12 82 13 12 14 13 15 14 16 9 17 8 18 1 19 2 20 3 21 4 22
REMARK SMILES IDX 7 23 5 24 6 25 15 26 26 29 27 30 28 31 29 32 30 33 31 34
REMARK SMILES IDX 32 35 33 36 34 37 35 38 81 39 36 40 80 41 37 42 38 43 39 44
REMARK SMILES IDX 74 45 40 46 79 47 73 48 75 49 41 50 78 51 72 52 71 53 42 55
REMARK SMILES IDX 64 56 49 57 63 58 50 59 53 60 62 61 76 62 51 63 52 64 61 66
REMARK SMILES IDX 77 67 54 68 43 69 44 70 48 71 45 72 47 73 46 74 65 75 66 76
REMARK SMILES IDX 70 77 67 78 69 79 68 80 55 81 56 82 60 83 57 84 59 85 58 86
REMARK H PARENT 15 27 15 28 75 54 53 65
REMARK Flexibility Score: inf
ROOT
ATOM      1  O   UNL A   1      32.674  35.351  30.276  1.00  0.00    -0.377 OA
ENDROOT
BRANCH   1   2
ATOM      2  C   UNL A   1      33.800  34.946  29.505  1.00  0.00     0.188 C 
BRANCH   2   3
ATOM      3  C   UNL A   1      33.657  33.841  28.435  1.00  0.00     0.188 C 
BRANCH   3   4
ATOM      4  O   UNL A   1      34.110  32.563  28.850  1.00  0.00    -0.376 OA
BRANCH   4   5
ATOM      5  C   UNL A   1      35.032  31.878  28.023  1.00  0.00     0.202 C 
BRANCH   5   6
ATOM      6  C   UNL A   1      34.768  30.391  27.750  1.00  0.00     0.261 C 
BRANCH   6   7
ATOM      7  O   UNL A   1      34.139  30.086  26.496  1.00  0.00    -0.460 OA
BRANCH   7   8
ATOM      8  C   UNL A   1      32.803  29.871  26.514  1.00  0.00     0.340 C 
ATOM      9  O   UNL A   1      31.970  30.592  27.040  1.00  0.00    -0.246 OA
BRANCH   8  10
ATOM     10  C   UNL A   1      32.484  28.715  25.628  1.00  0.00     0.086 A 
ATOM     11  C   UNL A   1      32.994  26.466  24.876  1.00  0.00     0.128 A 
ATOM     12  C   UNL A   1      31.894  26.508  24.025  1.00  0.00     0.052 A 
ATOM     13  C   UNL A   1      33.249  27.543  25.723  1.00  0.00     0.065 A 
ATOM     14  C   UNL A   1      31.173  27.703  23.852  1.00  0.00    -0.024 A 
ATOM     15  C   UNL A   1      30.146  27.763  22.752  1.00  0.00     0.047 C 
ATOM     16  C   UNL A   1      31.472  28.832  24.647  1.00  0.00     0.049 A 
BRANCH  11  17
ATOM     17  O   UNL A   1      33.850  25.407  24.995  1.00  0.00    -0.457 OA
BRANCH  17  18
ATOM     18  C   UNL A   1      33.454  24.087  24.910  1.00  0.00     0.130 A 
ATOM     19  C   UNL A   1      31.770  23.911  26.878  1.00  0.00     0.048 C 
ATOM     20  C   UNL A   1      32.526  23.375  25.694  1.00  0.00    -0.007 A 
ATOM     21  C   UNL A   1      32.265  22.024  25.365  1.00  0.00     0.027 A 
ATOM     22  C   UNL A   1      32.841  21.422  24.248  1.00  0.00     0.041 A 
ATOM     23  C   UNL A   1      34.014  23.461  23.779  1.00  0.00     0.049 A 
ATOM     24  Cl  UNL A   1      32.453  19.793  23.855  1.00  0.00    -0.084 Cl
ATOM     25  C   UNL A   1      33.708  22.143  23.442  1.00  0.00     0.024 A 
ENDBRANCH  17  18
ENDBRANCH  11  17
BRANCH  16  26
ATOM     26  N   UNL A   1      30.920  30.076  24.327  1.00  0.00    -0.398 N 
ATOM     27  H   UNL A   1      30.363  30.550  24.985  1.00  0.00     0.156 HD
ATOM     28  H   UNL A   1      31.088  30.477  23.444  1.00  0.00     0.156 HD
ENDBRANCH  16  26
ENDBRANCH   8  10
ENDBRANCH   7   8
ENDBRANCH   6   7
ENDBRANCH   5   6
ENDBRANCH   4   5
ENDBRANCH   3   4
ENDBRANCH   2   3
ENDBRANCH   1   2
BRANCH   1  29
ATOM     29  C   UNL A   1      32.728  36.553  31.037  1.00  0.00     0.188 C 
BRANCH  29  30
ATOM     30  C   UNL A   1      33.802  36.746  32.132  1.00  0.00     0.188 C 
BRANCH  30  31
ATOM     31  O   UNL A   1      33.675  35.871  33.240  1.00  0.00    -0.376 OA
BRANCH  31  32
ATOM     32  C   UNL A   1      34.506  34.726  33.283  1.00  0.00     0.202 C 
BRANCH  32  33
ATOM     33  C   UNL A   1      35.838  34.790  32.521  1.00  0.00     0.261 C 
BRANCH  33  34
ATOM     34  O   UNL A   1      36.990  34.291  33.219  1.00  0.00    -0.460 OA
BRANCH  34  35
ATOM     35  C   UNL A   1      36.941  33.014  33.642  1.00  0.00     0.338 C 
ATOM     36  O   UNL A   1      36.249  32.558  34.542  1.00  0.00    -0.246 OA
BRANCH  35  37
ATOM     37  C   UNL A   1      37.728  32.190  32.704  1.00  0.00     0.060 A 
ATOM     38  C   UNL A   1      38.815  31.458  33.200  1.00  0.00     0.016 A 
ATOM     39  C   UNL A   1      37.403  32.145  31.346  1.00  0.00     0.016 A 
ATOM     40  C   UNL A   1      39.613  30.724  32.328  1.00  0.00     0.010 A 
ATOM     41  C   UNL A   1      38.216  31.422  30.469  1.00  0.00     0.010 A 
ATOM     42  C   UNL A   1      39.352  30.749  30.951  1.00  0.00    -0.014 A 
BRANCH  42  43
ATOM     43  C   UNL A   1      40.389  30.241  30.023  1.00  0.00     0.031 A 
ATOM     44  C   UNL A   1      41.581  31.111  29.732  1.00  0.00     0.074 A 
ATOM     45  C   UNL A   1      40.313  29.002  29.508  1.00  0.00     0.049 A 
ATOM     46  N   UNL A   1      42.648  30.848  29.022  1.00  0.00    -0.248 NA
ATOM     47  C   UNL A   1      41.567  32.460  30.320  1.00  0.00     0.031 C 
ATOM     48  C   UNL A   1      39.225  28.055  29.738  1.00  0.00     0.029 A 
ATOM     49  N   UNL A   1      41.183  28.330  28.687  1.00  0.00    -0.354 N 
ATOM     50  C   UNL A   1      43.425  31.999  29.071  1.00  0.00     0.074 A 
ATOM     51  C   UNL A   1      42.693  32.973  29.849  1.00  0.00     0.031 C 
ATOM     52  C   UNL A   1      39.495  26.918  29.074  1.00  0.00     0.029 A 
ATOM     53  C   UNL A   1      40.758  27.068  28.355  1.00  0.00     0.049 A 
ATOM     54  H   UNL A   1      42.031  28.715  28.367  1.00  0.00     0.167 HD
ATOM     55  C   UNL A   1      44.644  32.223  28.524  1.00  0.00     0.031 A 
ATOM     56  C   UNL A   1      41.320  26.142  27.554  1.00  0.00     0.031 A 
ATOM     57  C   UNL A   1      45.362  31.259  27.734  1.00  0.00     0.049 A 
ATOM     58  C   UNL A   1      42.654  26.429  26.915  1.00  0.00     0.074 A 
ATOM     59  C   UNL A   1      46.616  31.377  27.163  1.00  0.00     0.029 A 
ATOM     60  N   UNL A   1      44.881  30.005  27.391  1.00  0.00    -0.354 N 
ATOM     61  N   UNL A   1      43.405  27.501  27.013  1.00  0.00    -0.248 NA
ATOM     62  C   UNL A   1      43.225  25.370  26.073  1.00  0.00     0.031 C 
ATOM     63  C   UNL A   1      46.862  30.224  26.410  1.00  0.00     0.029 A 
ATOM     64  C   UNL A   1      45.798  29.352  26.583  1.00  0.00     0.049 A 
ATOM     65  H   UNL A   1      44.017  29.633  27.678  1.00  0.00     0.167 HD
ATOM     66  C   UNL A   1      44.549  27.233  26.270  1.00  0.00     0.074 A 
ATOM     67  C   UNL A   1      44.398  25.892  25.742  1.00  0.00     0.031 C 
ATOM     68  C   UNL A   1      45.631  28.023  26.052  1.00  0.00     0.031 A 
BRANCH  55  69
ATOM     69  C   UNL A   1      45.243  33.590  28.716  1.00  0.00    -0.014 A 
ATOM     70  C   UNL A   1      45.093  34.606  27.757  1.00  0.00     0.009 A 
ATOM     71  C   UNL A   1      45.967  33.868  29.886  1.00  0.00     0.009 A 
ATOM     72  C   UNL A   1      45.696  35.852  27.944  1.00  0.00     0.001 A 
ATOM     73  C   UNL A   1      46.539  35.126  30.087  1.00  0.00     0.001 A 
ATOM     74  C   UNL A   1      46.415  36.112  29.110  1.00  0.00     0.000 A 
ENDBRANCH  55  69
BRANCH  56  75
ATOM     75  C   UNL A   1      40.614  24.858  27.305  1.00  0.00    -0.014 A 
ATOM     76  C   UNL A   1      41.067  23.658  27.873  1.00  0.00     0.009 A 
ATOM     77  C   UNL A   1      39.463  24.834  26.500  1.00  0.00     0.009 A 
ATOM     78  C   UNL A   1      40.393  22.459  27.624  1.00  0.00     0.001 A 
ATOM     79  C   UNL A   1      38.774  23.641  26.280  1.00  0.00     0.001 A 
ATOM     80  C   UNL A   1      39.244  22.453  26.835  1.00  0.00     0.000 A 
ENDBRANCH  56  75
BRANCH  68  81
ATOM     81  C   UNL A   1      46.758  27.441  25.239  1.00  0.00    -0.014 A 
ATOM     82  C   UNL A   1      47.007  27.853  23.920  1.00  0.00     0.009 A 
ATOM     83  C   UNL A   1      47.607  26.487  25.822  1.00  0.00     0.009 A 
ATOM     84  C   UNL A   1      48.052  27.284  23.188  1.00  0.00     0.001 A 
ATOM     85  C   UNL A   1      48.674  25.948  25.100  1.00  0.00     0.001 A 
ATOM     86  C   UNL A   1      48.887  26.336  23.780  1.00  0.00     0.000 A 
ENDBRANCH  68  81
ENDBRANCH  42  43
ENDBRANCH  35  37
ENDBRANCH  34  35
ENDBRANCH  33  34
ENDBRANCH  32  33
ENDBRANCH  31  32
ENDBRANCH  30  31
ENDBRANCH  29  30
ENDBRANCH   1  29
TORSDOF 23
ENDMDL
MODEL 3
REMARK VINA RESULT:      -9.4      6.020     10.596
REMARK SMILES Cc1cc(Cl)ccc1Oc1cc(C)c(N)c(C(=O)OCCOCCOCCOCCOC(=O)c2ccc(-c3c4nc(c(-c5ccccc5)c5ccc([nH]5)c(-c5ccccc5)c5nc(c(-c6ccccc6)c6ccc3[nH]6)C=C5)C=C4)cc2)c1
REMARK SMILES IDX 25 1 24 2 23 3 22 4 21 5 20 6 19 7 17 8 18 9 16 10 10 11
REMARK SMILES IDX 11 12 82 13 12 14 13 15 14 16 9 17 8 18 1 19 2 20 3 21 4 22
REMARK SMILES IDX 7 23 5 24 6 25 15 26 26 29 27 30 28 31 29 32 30 33 31 34
REMARK SMILES IDX 32 35 33 36 34 37 35 38 81 39 36 40 80 41 37 42 38 43 39 44
REMARK SMILES IDX 74 45 40 46 79 47 73 48 75 49 41 50 78 51 72 52 71 53 42 55
REMARK SMILES IDX 64 56 49 57 63 58 50 59 53 60 62 61 76 62 51 63 52 64 61 66
REMARK SMILES IDX 77 67 54 68 43 69 44 70 48 71 45 72 47 73 46 74 65 75 66 76
REMARK SMILES IDX 70 77 67 78 69 79 68 80 55 81 56 82 60 83 57 84 59 85 58 86
REMARK H PARENT 15 27 15 28 75 54 53 65
REMARK Flexibility Score: inf
ROOT
ATOM      1  O   UNL A   1      35.275  32.729  28.418  1.00  0.00    -0.377 OA
ENDROOT
BRANCH   1   2
ATOM      2  C   UNL A   1      35.528  31.341  28.609  1.00  0.00     0.188 C 
BRANCH   2   3
ATOM      3  C   UNL A   1      35.204  30.326  27.491  1.00  0.00     0.188 C 
BRANCH   3   4
ATOM      4  O   UNL A   1      33.876  29.829  27.520  1.00  0.00    -0.376 OA
BRANCH   4   5
ATOM      5  C   UNL A   1      33.320  29.334  26.317  1.00  0.00     0.202 C 
BRANCH   5   6
ATOM      6  C   UNL A   1      31.817  29.022  26.307  1.00  0.00     0.261 C 
BRANCH   6   7
ATOM      7  O   UNL A   1      31.466  27.630  26.337  1.00  0.00    -0.460 OA
BRANCH   7   8
ATOM      8  C   UNL A   1      31.222  27.031  25.149  1.00  0.00     0.340 C 
ATOM      9  O   UNL A   1      31.037  27.601  24.085  1.00  0.00    -0.246 OA
BRANCH   8  10
ATOM     10  C   UNL A   1      31.400  25.558  25.301  1.00  0.00     0.086 A 
ATOM     11  C   UNL A   1      32.600  23.534  24.714  1.00  0.00     0.128 A 
ATOM     12  C   UNL A   1      31.802  22.813  25.595  1.00  0.00     0.052 A 
ATOM     13  C   UNL A   1      32.442  24.916  24.617  1.00  0.00     0.065 A 
ATOM     14  C   UNL A   1      30.698  23.422  26.219  1.00  0.00    -0.024 A 
ATOM     15  C   UNL A   1      29.733  22.547  26.973  1.00  0.00     0.047 C 
ATOM     16  C   UNL A   1      30.475  24.809  26.065  1.00  0.00     0.049 A 
BRANCH  11  17
ATOM     17  O   UNL A   1      33.594  23.000  23.942  1.00  0.00    -0.457 OA
BRANCH  17  18
ATOM     18  C   UNL A   1      34.778  22.505  24.450  1.00  0.00     0.130 A 
ATOM     19  C   UNL A   1      34.198  19.999  24.799  1.00  0.00     0.048 C 
ATOM     20  C   UNL A   1      35.115  21.190  24.825  1.00  0.00    -0.007 A 
ATOM     21  C   UNL A   1      36.431  20.937  25.281  1.00  0.00     0.027 A 
ATOM     22  C   UNL A   1      37.403  21.935  25.287  1.00  0.00     0.041 A 
ATOM     23  C   UNL A   1      35.782  23.494  24.454  1.00  0.00     0.049 A 
ATOM     24  Cl  UNL A   1      39.004  21.569  25.798  1.00  0.00    -0.084 Cl
ATOM     25  C   UNL A   1      37.086  23.215  24.860  1.00  0.00     0.024 A 
ENDBRANCH  17  18
ENDBRANCH  11  17
BRANCH  16  26
ATOM     26  N   UNL A   1      29.269  25.372  26.490  1.00  0.00    -0.398 N 
ATOM     27  H   UNL A   1      29.275  26.152  27.092  1.00  0.00     0.156 HD
ATOM     28  H   UNL A   1      28.414  24.989  26.189  1.00  0.00     0.156 HD
ENDBRANCH  16  26
ENDBRANCH   8  10
ENDBRANCH   7   8
ENDBRANCH   6   7
ENDBRANCH   5   6
ENDBRANCH   4   5
ENDBRANCH   3   4
ENDBRANCH   2   3
ENDBRANCH   1   2
BRANCH   1  29
ATOM     29  C   UNL A   1      33.944  33.187  28.201  1.00  0.00     0.188 C 
BRANCH  29  30
ATOM     30  C   UNL A   1      33.574  34.671  28.428  1.00  0.00     0.188 C 
BRANCH  30  31
ATOM     31  O   UNL A   1      32.576  34.884  29.411  1.00  0.00    -0.376 OA
BRANCH  31  32
ATOM     32  C   UNL A   1      32.899  35.692  30.526  1.00  0.00     0.202 C 
BRANCH  32  33
ATOM     33  C   UNL A   1      34.038  35.214  31.439  1.00  0.00     0.261 C 
BRANCH  33  34
ATOM     34  O   UNL A   1      33.680  34.260  32.450  1.00  0.00    -0.460 OA
BRANCH  34  35
ATOM     35  C   UNL A   1      34.350  33.092  32.451  1.00  0.00     0.338 C 
ATOM     36  O   UNL A   1      34.280  32.198  31.620  1.00  0.00    -0.246 OA
BRANCH  35  37
ATOM     37  C   UNL A   1      35.350  33.140  33.535  1.00  0.00     0.060 A 
ATOM     38  C   UNL A   1      35.226  34.126  34.524  1.00  0.00     0.016 A 
ATOM     39  C   UNL A   1      36.406  32.225  33.575  1.00  0.00     0.016 A 
ATOM     40  C   UNL A   1      36.190  34.234  35.521  1.00  0.00     0.010 A 
ATOM     41  C   UNL A   1      37.383  32.347  34.566  1.00  0.00     0.010 A 
ATOM     42  C   UNL A   1      37.303  33.383  35.514  1.00  0.00    -0.014 A 
BRANCH  42  43
ATOM     43  C   UNL A   1      38.462  33.723  36.372  1.00  0.00     0.031 A 
ATOM     44  C   UNL A   1      38.466  33.242  37.797  1.00  0.00     0.074 A 
ATOM     45  C   UNL A   1      39.525  34.380  35.876  1.00  0.00     0.049 A 
ATOM     46  N   UNL A   1      39.402  33.346  38.705  1.00  0.00    -0.248 NA
ATOM     47  C   UNL A   1      37.252  32.552  38.259  1.00  0.00     0.031 C 
ATOM     48  C   UNL A   1      39.652  34.872  34.506  1.00  0.00     0.029 A 
ATOM     49  N   UNL A   1      40.705  34.737  36.477  1.00  0.00    -0.354 N 
ATOM     50  C   UNL A   1      38.886  32.743  39.847  1.00  0.00     0.074 A 
ATOM     51  C   UNL A   1      37.544  32.310  39.527  1.00  0.00     0.031 C 
ATOM     52  C   UNL A   1      40.850  35.466  34.369  1.00  0.00     0.029 A 
ATOM     53  C   UNL A   1      41.560  35.417  35.647  1.00  0.00     0.049 A 
ATOM     54  H   UNL A   1      40.920  34.525  37.415  1.00  0.00     0.167 HD
ATOM     55  C   UNL A   1      39.477  32.560  41.051  1.00  0.00     0.031 A 
ATOM     56  C   UNL A   1      42.772  35.950  35.892  1.00  0.00     0.031 A 
ATOM     57  C   UNL A   1      40.806  33.010  41.372  1.00  0.00     0.049 A 
ATOM     58  C   UNL A   1      43.394  35.778  37.252  1.00  0.00     0.074 A 
ATOM     59  C   UNL A   1      41.509  32.846  42.552  1.00  0.00     0.029 A 
ATOM     60  N   UNL A   1      41.625  33.727  40.514  1.00  0.00    -0.354 N 
ATOM     61  N   UNL A   1      42.918  35.160  38.307  1.00  0.00    -0.248 NA
ATOM     62  C   UNL A   1      44.728  36.360  37.448  1.00  0.00     0.031 C 
ATOM     63  C   UNL A   1      42.723  33.529  42.435  1.00  0.00     0.029 A 
ATOM     64  C   UNL A   1      42.813  34.047  41.152  1.00  0.00     0.049 A 
ATOM     65  H   UNL A   1      41.396  33.974  39.589  1.00  0.00     0.167 HD
ATOM     66  C   UNL A   1      43.907  35.252  39.281  1.00  0.00     0.074 A 
ATOM     67  C   UNL A   1      45.012  35.973  38.684  1.00  0.00     0.031 C 
ATOM     68  C   UNL A   1      43.901  34.776  40.552  1.00  0.00     0.031 A 
BRANCH  55  69
ATOM     69  C   UNL A   1      38.660  31.895  42.125  1.00  0.00    -0.014 A 
ATOM     70  C   UNL A   1      38.691  30.505  42.326  1.00  0.00     0.009 A 
ATOM     71  C   UNL A   1      37.846  32.680  42.958  1.00  0.00     0.009 A 
ATOM     72  C   UNL A   1      37.890  29.912  43.305  1.00  0.00     0.001 A 
ATOM     73  C   UNL A   1      37.073  32.088  43.959  1.00  0.00     0.001 A 
ATOM     74  C   UNL A   1      37.085  30.704  44.122  1.00  0.00     0.000 A 
ENDBRANCH  55  69
BRANCH  56  75
ATOM     75  C   UNL A   1      43.474  36.705  34.820  1.00  0.00    -0.014 A 
ATOM     76  C   UNL A   1      44.389  36.073  33.966  1.00  0.00     0.009 A 
ATOM     77  C   UNL A   1      43.215  38.074  34.641  1.00  0.00     0.009 A 
ATOM     78  C   UNL A   1      45.043  36.800  32.967  1.00  0.00     0.001 A 
ATOM     79  C   UNL A   1      43.846  38.790  33.623  1.00  0.00     0.001 A 
ATOM     80  C   UNL A   1      44.765  38.155  32.792  1.00  0.00     0.000 A 
ENDBRANCH  56  75
BRANCH  68  81
ATOM     81  C   UNL A   1      45.148  34.983  41.372  1.00  0.00    -0.014 A 
ATOM     82  C   UNL A   1      46.200  34.054  41.363  1.00  0.00     0.009 A 
ATOM     83  C   UNL A   1      45.281  36.149  42.142  1.00  0.00     0.009 A 
ATOM     84  C   UNL A   1      47.338  34.268  42.146  1.00  0.00     0.001 A 
ATOM     85  C   UNL A   1      46.435  36.378  42.894  1.00  0.00     0.001 A 
ATOM     86  C   UNL A   1      47.456  35.431  42.906  1.00  0.00     0.000 A 
ENDBRANCH  68  81
ENDBRANCH  42  43
ENDBRANCH  35  37
ENDBRANCH  34  35
ENDBRANCH  33  34
ENDBRANCH  32  33
ENDBRANCH  31  32
ENDBRANCH  30  31
ENDBRANCH  29  30
ENDBRANCH   1  29
TORSDOF 23
ENDMDL
