MODEL 1
REMARK VINA RESULT:      -9.5      0.000      0.000
REMARK SMILES O=C(OCCOCCOCCOCCOC(=O)c1nn(-c2ccc([N+](=O)[O-])cc2)cc1CCO)c1ccc(-c2c3nc(c(-c4ccccc4)c4ccc([nH]4)c(-c4ccccc4)c4nc(c(-c5ccccc5)c5ccc2[nH]5)C=C4)C=C3)cc1
REMARK SMILES IDX 10 1 9 2 8 3 7 4 6 5 5 6 4 7 3 8 2 9 1 10 35 11 36 12 82 13
REMARK SMILES IDX 37 14 81 15 38 16 39 17 40 18 75 19 41 20 80 21 74 22 76 23
REMARK SMILES IDX 42 24 79 25 73 26 72 27 43 29 65 30 50 31 64 32 51 33 54 34
REMARK SMILES IDX 63 35 77 36 52 37 53 38 62 40 78 41 55 42 44 43 45 44 49 45
REMARK SMILES IDX 46 46 48 47 47 48 66 49 67 50 71 51 68 52 70 53 69 54 56 55
REMARK SMILES IDX 57 56 61 57 58 58 60 59 59 60 11 61 12 62 13 63 14 64 15 65
REMARK SMILES IDX 16 66 17 67 18 68 19 69 31 70 20 71 30 72 32 73 33 74 34 75
REMARK SMILES IDX 21 77 22 78 29 79 23 80 28 81 24 82 25 83 26 84 27 85
REMARK H PARENT 76 28 54 39 34 76
REMARK Flexibility Score: inf
ROOT
ATOM      1  C   UNL A   1      29.587  30.384  23.704  1.00  0.00     0.188 C 
ENDROOT
BRANCH   1   2
ATOM      2  O   UNL A   1      30.621  30.581  24.634  1.00  0.00    -0.377 OA
BRANCH   2   3
ATOM      3  C   UNL A   1      31.516  29.486  24.716  1.00  0.00     0.188 C 
BRANCH   3   4
ATOM      4  C   UNL A   1      32.665  29.583  25.737  1.00  0.00     0.188 C 
BRANCH   4   5
ATOM      5  O   UNL A   1      33.002  30.666  26.603  1.00  0.00    -0.376 OA
BRANCH   5   6
ATOM      6  C   UNL A   1      33.862  30.739  27.718  1.00  0.00     0.202 C 
BRANCH   6   7
ATOM      7  C   UNL A   1      35.339  31.077  27.551  1.00  0.00     0.261 C 
BRANCH   7   8
ATOM      8  O   UNL A   1      36.111  31.023  28.742  1.00  0.00    -0.460 OA
BRANCH   8   9
ATOM      9  C   UNL A   1      36.519  29.922  29.403  1.00  0.00     0.338 C 
ATOM     10  O   UNL A   1      35.934  29.613  30.440  1.00  0.00    -0.246 OA
BRANCH   9  11
ATOM     11  C   UNL A   1      37.714  29.119  29.028  1.00  0.00     0.060 A 
ATOM     12  C   UNL A   1      38.242  28.041  29.742  1.00  0.00     0.016 A 
ATOM     13  C   UNL A   1      38.385  29.569  27.873  1.00  0.00     0.016 A 
ATOM     14  C   UNL A   1      39.489  27.548  29.427  1.00  0.00     0.010 A 
ATOM     15  C   UNL A   1      39.624  29.063  27.537  1.00  0.00     0.010 A 
ATOM     16  C   UNL A   1      40.204  28.135  28.389  1.00  0.00    -0.014 A 
BRANCH  16  17
ATOM     17  C   UNL A   1      41.613  27.812  28.325  1.00  0.00     0.031 A 
ATOM     18  C   UNL A   1      41.941  26.532  27.658  1.00  0.00     0.074 A 
ATOM     19  C   UNL A   1      42.513  28.642  28.885  1.00  0.00     0.049 A 
ATOM     20  N   UNL A   1      42.518  25.495  28.168  1.00  0.00    -0.248 NA
ATOM     21  C   UNL A   1      41.450  26.340  26.286  1.00  0.00     0.031 C 
ATOM     22  C   UNL A   1      42.301  30.008  29.376  1.00  0.00     0.029 A 
ATOM     23  N   UNL A   1      43.852  28.473  29.022  1.00  0.00    -0.354 N 
ATOM     24  C   UNL A   1      42.631  24.576  27.128  1.00  0.00     0.074 A 
ATOM     25  C   UNL A   1      41.836  25.088  26.041  1.00  0.00     0.031 C 
ATOM     26  C   UNL A   1      43.496  30.626  29.493  1.00  0.00     0.029 A 
ATOM     27  C   UNL A   1      44.544  29.657  29.230  1.00  0.00     0.049 A 
ATOM     28  H   UNL A   1      44.292  27.593  28.979  1.00  0.00     0.167 HD
ATOM     29  C   UNL A   1      43.574  23.595  27.148  1.00  0.00     0.031 A 
ATOM     30  C   UNL A   1      45.878  29.840  29.094  1.00  0.00     0.031 A 
ATOM     31  C   UNL A   1      44.027  23.312  28.484  1.00  0.00     0.049 A 
ATOM     32  C   UNL A   1      46.522  28.507  29.154  1.00  0.00     0.074 A 
ATOM     33  C   UNL A   1      43.426  22.858  29.640  1.00  0.00     0.029 A 
ATOM     34  N   UNL A   1      45.233  23.845  28.873  1.00  0.00    -0.354 N 
ATOM     35  N   UNL A   1      46.562  27.780  30.234  1.00  0.00    -0.248 NA
ATOM     36  C   UNL A   1      46.713  27.780  27.908  1.00  0.00     0.031 C 
ATOM     37  C   UNL A   1      44.070  23.567  30.694  1.00  0.00     0.029 A 
ATOM     38  C   UNL A   1      45.064  24.366  30.128  1.00  0.00     0.049 A 
ATOM     39  H   UNL A   1      46.064  23.851  28.346  1.00  0.00     0.167 HD
ATOM     40  C   UNL A   1      46.340  26.481  29.796  1.00  0.00     0.074 A 
ATOM     41  C   UNL A   1      46.546  26.530  28.349  1.00  0.00     0.031 C 
ATOM     42  C   UNL A   1      45.734  25.558  30.601  1.00  0.00     0.031 A 
BRANCH  29  43
ATOM     43  C   UNL A   1      44.397  23.250  25.927  1.00  0.00    -0.014 A 
ATOM     44  C   UNL A   1      44.462  21.907  25.515  1.00  0.00     0.009 A 
ATOM     45  C   UNL A   1      45.347  24.127  25.365  1.00  0.00     0.009 A 
ATOM     46  C   UNL A   1      45.490  21.449  24.683  1.00  0.00     0.001 A 
ATOM     47  C   UNL A   1      46.350  23.681  24.502  1.00  0.00     0.001 A 
ATOM     48  C   UNL A   1      46.444  22.334  24.192  1.00  0.00     0.000 A 
ENDBRANCH  29  43
BRANCH  30  49
ATOM     49  C   UNL A   1      46.559  31.043  28.574  1.00  0.00    -0.014 A 
ATOM     50  C   UNL A   1      47.734  31.521  29.171  1.00  0.00     0.009 A 
ATOM     51  C   UNL A   1      46.191  31.584  27.327  1.00  0.00     0.009 A 
ATOM     52  C   UNL A   1      48.524  32.484  28.528  1.00  0.00     0.001 A 
ATOM     53  C   UNL A   1      46.976  32.547  26.688  1.00  0.00     0.001 A 
ATOM     54  C   UNL A   1      48.152  32.987  27.284  1.00  0.00     0.000 A 
ENDBRANCH  30  49
BRANCH  42  55
ATOM     55  C   UNL A   1      45.503  25.926  32.046  1.00  0.00    -0.014 A 
ATOM     56  C   UNL A   1      44.324  26.552  32.493  1.00  0.00     0.009 A 
ATOM     57  C   UNL A   1      46.427  25.486  33.004  1.00  0.00     0.009 A 
ATOM     58  C   UNL A   1      44.098  26.760  33.858  1.00  0.00     0.001 A 
ATOM     59  C   UNL A   1      46.190  25.675  34.368  1.00  0.00     0.001 A 
ATOM     60  C   UNL A   1      45.030  26.317  34.794  1.00  0.00     0.000 A 
ENDBRANCH  42  55
ENDBRANCH  16  17
ENDBRANCH   9  11
ENDBRANCH   8   9
ENDBRANCH   7   8
ENDBRANCH   6   7
ENDBRANCH   5   6
ENDBRANCH   4   5
ENDBRANCH   3   4
ENDBRANCH   2   3
ENDBRANCH   1   2
BRANCH   1  61
ATOM     61  C   UNL A   1      30.113  29.941  22.325  1.00  0.00     0.188 C 
BRANCH  61  62
ATOM     62  O   UNL A   1      29.919  28.621  21.863  1.00  0.00    -0.376 OA
BRANCH  62  63
ATOM     63  C   UNL A   1      30.191  27.521  22.707  1.00  0.00     0.202 C 
BRANCH  63  64
ATOM     64  C   UNL A   1      31.131  26.371  22.296  1.00  0.00     0.261 C 
BRANCH  64  65
ATOM     65  O   UNL A   1      32.282  26.106  23.104  1.00  0.00    -0.458 OA
BRANCH  65  66
ATOM     66  C   UNL A   1      33.221  25.224  22.631  1.00  0.00     0.359 C 
ATOM     67  O   UNL A   1      33.688  25.215  21.511  1.00  0.00    -0.244 OA
BRANCH  66  68
ATOM     68  C   UNL A   1      33.679  24.334  23.713  1.00  0.00     0.174 A 
ATOM     69  N   UNL A   1      34.999  24.197  23.900  1.00  0.00    -0.161 NA
ATOM     70  C   UNL A   1      32.945  23.518  24.644  1.00  0.00     0.008 A 
ATOM     71  N   UNL A   1      35.134  23.222  24.810  1.00  0.00    -0.240 N 
ATOM     72  C   UNL A   1      33.927  22.731  25.225  1.00  0.00     0.119 A 
BRANCH  70  73
ATOM     73  C   UNL A   1      31.479  23.375  24.937  1.00  0.00     0.068 C 
BRANCH  73  74
ATOM     74  C   UNL A   1      30.834  24.515  25.726  1.00  0.00     0.161 C 
BRANCH  74  75
ATOM     75  O   UNL A   1      29.759  24.082  26.542  1.00  0.00    -0.396 OA
ATOM     76  H   UNL A   1      28.994  24.661  26.401  1.00  0.00     0.210 HD
ENDBRANCH  74  75
ENDBRANCH  73  74
ENDBRANCH  70  73
BRANCH  71  77
ATOM     77  C   UNL A   1      36.417  22.878  25.280  1.00  0.00     0.065 A 
ATOM     78  C   UNL A   1      36.855  21.562  25.062  1.00  0.00     0.035 A 
ATOM     79  C   UNL A   1      37.237  23.813  25.921  1.00  0.00     0.035 A 
ATOM     80  C   UNL A   1      38.133  21.180  25.454  1.00  0.00     0.088 A 
ATOM     81  C   UNL A   1      38.502  23.413  26.366  1.00  0.00     0.088 A 
ATOM     82  C   UNL A   1      38.948  22.105  26.116  1.00  0.00     0.269 A 
BRANCH  82  83
ATOM     83  N   UNL A   1      40.287  21.691  26.549  1.00  0.00     0.062 N 
ATOM     84  O   UNL A   1      41.160  21.562  25.680  1.00  0.00    -0.258 OA
ATOM     85  O   UNL A   1      40.466  21.502  27.760  1.00  0.00    -0.258 OA
ENDBRANCH  82  83
ENDBRANCH  71  77
ENDBRANCH  66  68
ENDBRANCH  65  66
ENDBRANCH  64  65
ENDBRANCH  63  64
ENDBRANCH  62  63
ENDBRANCH  61  62
ENDBRANCH   1  61
TORSDOF 25
ENDMDL
MODEL 2
REMARK VINA RESULT:      -9.2      2.442      2.967
REMARK SMILES O=C(OCCOCCOCCOCCOC(=O)c1nn(-c2ccc([N+](=O)[O-])cc2)cc1CCO)c1ccc(-c2c3nc(c(-c4ccccc4)c4ccc([nH]4)c(-c4ccccc4)c4nc(c(-c5ccccc5)c5ccc2[nH]5)C=C4)C=C3)cc1
REMARK SMILES IDX 10 1 9 2 8 3 7 4 6 5 5 6 4 7 3 8 2 9 1 10 35 11 36 12 82 13
REMARK SMILES IDX 37 14 81 15 38 16 39 17 40 18 75 19 41 20 80 21 74 22 76 23
REMARK SMILES IDX 42 24 79 25 73 26 72 27 43 29 65 30 50 31 64 32 51 33 54 34
REMARK SMILES IDX 63 35 77 36 52 37 53 38 62 40 78 41 55 42 44 43 45 44 49 45
REMARK SMILES IDX 46 46 48 47 47 48 66 49 67 50 71 51 68 52 70 53 69 54 56 55
REMARK SMILES IDX 57 56 61 57 58 58 60 59 59 60 11 61 12 62 13 63 14 64 15 65
REMARK SMILES IDX 16 66 17 67 18 68 19 69 31 70 20 71 30 72 32 73 33 74 34 75
REMARK SMILES IDX 21 77 22 78 29 79 23 80 28 81 24 82 25 83 26 84 27 85
REMARK H PARENT 76 28 54 39 34 76
REMARK Flexibility Score: inf
ROOT
ATOM      1  C   UNL A   1      30.437  29.292  23.490  1.00  0.00     0.188 C 
ENDROOT
BRANCH   1   2
ATOM      2  O   UNL A   1      30.622  30.160  24.580  1.00  0.00    -0.377 OA
BRANCH   2   3
ATOM      3  C   UNL A   1      31.446  29.615  25.594  1.00  0.00     0.188 C 
BRANCH   3   4
ATOM      4  C   UNL A   1      32.854  30.217  25.764  1.00  0.00     0.188 C 
BRANCH   4   5
ATOM      5  O   UNL A   1      33.495  30.670  26.955  1.00  0.00    -0.376 OA
BRANCH   5   6
ATOM      6  C   UNL A   1      34.732  30.331  27.539  1.00  0.00     0.202 C 
BRANCH   6   7
ATOM      7  C   UNL A   1      35.700  31.409  28.012  1.00  0.00     0.261 C 
BRANCH   7   8
ATOM      8  O   UNL A   1      36.202  31.237  29.330  1.00  0.00    -0.460 OA
BRANCH   8   9
ATOM      9  C   UNL A   1      36.543  30.080  29.931  1.00  0.00     0.338 C 
ATOM     10  O   UNL A   1      35.964  29.769  30.971  1.00  0.00    -0.246 OA
BRANCH   9  11
ATOM     11  C   UNL A   1      37.661  29.206  29.485  1.00  0.00     0.060 A 
ATOM     12  C   UNL A   1      38.317  28.245  30.256  1.00  0.00     0.016 A 
ATOM     13  C   UNL A   1      38.116  29.457  28.174  1.00  0.00     0.016 A 
ATOM     14  C   UNL A   1      39.495  27.686  29.811  1.00  0.00     0.010 A 
ATOM     15  C   UNL A   1      39.282  28.883  27.711  1.00  0.00     0.010 A 
ATOM     16  C   UNL A   1      40.011  28.090  28.585  1.00  0.00    -0.014 A 
BRANCH  16  17
ATOM     17  C   UNL A   1      41.390  27.736  28.328  1.00  0.00     0.031 A 
ATOM     18  C   UNL A   1      41.603  26.394  27.742  1.00  0.00     0.074 A 
ATOM     19  C   UNL A   1      42.371  28.597  28.656  1.00  0.00     0.049 A 
ATOM     20  N   UNL A   1      42.250  25.398  28.250  1.00  0.00    -0.248 NA
ATOM     21  C   UNL A   1      40.897  26.085  26.490  1.00  0.00     0.031 C 
ATOM     22  C   UNL A   1      42.246  30.008  29.044  1.00  0.00     0.029 A 
ATOM     23  N   UNL A   1      43.715  28.418  28.594  1.00  0.00    -0.354 N 
ATOM     24  C   UNL A   1      42.192  24.385  27.297  1.00  0.00     0.074 A 
ATOM     25  C   UNL A   1      41.234  24.809  26.306  1.00  0.00     0.031 C 
ATOM     26  C   UNL A   1      43.446  30.611  28.910  1.00  0.00     0.029 A 
ATOM     27  C   UNL A   1      44.436  29.602  28.576  1.00  0.00     0.049 A 
ATOM     28  H   UNL A   1      44.139  27.529  28.565  1.00  0.00     0.167 HD
ATOM     29  C   UNL A   1      43.122  23.392  27.258  1.00  0.00     0.031 A 
ATOM     30  C   UNL A   1      45.731  29.746  28.212  1.00  0.00     0.031 A 
ATOM     31  C   UNL A   1      43.783  23.226  28.526  1.00  0.00     0.049 A 
ATOM     32  C   UNL A   1      46.372  28.413  28.295  1.00  0.00     0.074 A 
ATOM     33  C   UNL A   1      43.373  22.892  29.801  1.00  0.00     0.029 A 
ATOM     34  N   UNL A   1      45.037  23.770  28.665  1.00  0.00    -0.354 N 
ATOM     35  N   UNL A   1      46.581  27.789  29.419  1.00  0.00    -0.248 NA
ATOM     36  C   UNL A   1      46.357  27.570  27.109  1.00  0.00     0.031 C 
ATOM     37  C   UNL A   1      44.181  23.684  30.667  1.00  0.00     0.029 A 
ATOM     38  C   UNL A   1      45.074  24.409  29.877  1.00  0.00     0.049 A 
ATOM     39  H   UNL A   1      45.773  23.712  28.015  1.00  0.00     0.167 HD
ATOM     40  C   UNL A   1      46.287  26.459  29.147  1.00  0.00     0.074 A 
ATOM     41  C   UNL A   1      46.259  26.369  27.688  1.00  0.00     0.031 C 
ATOM     42  C   UNL A   1      45.815  25.627  30.122  1.00  0.00     0.031 A 
BRANCH  29  43
ATOM     43  C   UNL A   1      43.737  22.920  25.960  1.00  0.00    -0.014 A 
ATOM     44  C   UNL A   1      43.857  21.537  25.735  1.00  0.00     0.009 A 
ATOM     45  C   UNL A   1      44.478  23.763  25.107  1.00  0.00     0.009 A 
ATOM     46  C   UNL A   1      44.756  21.028  24.790  1.00  0.00     0.001 A 
ATOM     47  C   UNL A   1      45.345  23.260  24.135  1.00  0.00     0.001 A 
ATOM     48  C   UNL A   1      45.512  21.891  24.003  1.00  0.00     0.000 A 
ENDBRANCH  29  43
BRANCH  30  49
ATOM     49  C   UNL A   1      46.325  30.883  27.479  1.00  0.00    -0.014 A 
ATOM     50  C   UNL A   1      45.514  31.851  26.870  1.00  0.00     0.009 A 
ATOM     51  C   UNL A   1      47.702  31.157  27.591  1.00  0.00     0.009 A 
ATOM     52  C   UNL A   1      46.060  33.059  26.416  1.00  0.00     0.001 A 
ATOM     53  C   UNL A   1      48.247  32.360  27.133  1.00  0.00     0.001 A 
ATOM     54  C   UNL A   1      47.421  33.318  26.558  1.00  0.00     0.000 A 
ENDBRANCH  30  49
BRANCH  42  55
ATOM     55  C   UNL A   1      45.820  26.131  31.544  1.00  0.00    -0.014 A 
ATOM     56  C   UNL A   1      46.937  26.010  32.390  1.00  0.00     0.009 A 
ATOM     57  C   UNL A   1      44.727  26.889  31.989  1.00  0.00     0.009 A 
ATOM     58  C   UNL A   1      46.943  26.603  33.658  1.00  0.00     0.001 A 
ATOM     59  C   UNL A   1      44.742  27.498  33.246  1.00  0.00     0.001 A 
ATOM     60  C   UNL A   1      45.846  27.351  34.081  1.00  0.00     0.000 A 
ENDBRANCH  42  55
ENDBRANCH  16  17
ENDBRANCH   9  11
ENDBRANCH   8   9
ENDBRANCH   7   8
ENDBRANCH   6   7
ENDBRANCH   5   6
ENDBRANCH   4   5
ENDBRANCH   3   4
ENDBRANCH   2   3
ENDBRANCH   1   2
BRANCH   1  61
ATOM     61  C   UNL A   1      31.749  29.015  22.730  1.00  0.00     0.188 C 
BRANCH  61  62
ATOM     62  O   UNL A   1      32.013  27.744  22.176  1.00  0.00    -0.376 OA
BRANCH  62  63
ATOM     63  C   UNL A   1      32.508  26.699  22.988  1.00  0.00     0.202 C 
BRANCH  63  64
ATOM     64  C   UNL A   1      33.833  25.970  22.687  1.00  0.00     0.261 C 
BRANCH  64  65
ATOM     65  O   UNL A   1      34.015  24.645  23.195  1.00  0.00    -0.458 OA
BRANCH  65  66
ATOM     66  C   UNL A   1      33.387  23.608  22.551  1.00  0.00     0.359 C 
ATOM     67  O   UNL A   1      33.306  23.463  21.348  1.00  0.00    -0.244 OA
BRANCH  66  68
ATOM     68  C   UNL A   1      32.902  22.616  23.527  1.00  0.00     0.174 A 
ATOM     69  N   UNL A   1      33.349  21.358  23.420  1.00  0.00    -0.161 NA
ATOM     70  C   UNL A   1      31.973  22.736  24.619  1.00  0.00     0.008 A 
ATOM     71  N   UNL A   1      32.634  20.645  24.302  1.00  0.00    -0.240 N 
ATOM     72  C   UNL A   1      31.740  21.421  24.988  1.00  0.00     0.119 A 
BRANCH  70  73
ATOM     73  C   UNL A   1      31.271  23.913  25.233  1.00  0.00     0.068 C 
BRANCH  73  74
ATOM     74  C   UNL A   1      30.570  23.660  26.569  1.00  0.00     0.161 C 
BRANCH  74  75
ATOM     75  O   UNL A   1      29.324  24.326  26.673  1.00  0.00    -0.396 OA
ATOM     76  H   UNL A   1      29.472  25.284  26.710  1.00  0.00     0.210 HD
ENDBRANCH  74  75
ENDBRANCH  73  74
ENDBRANCH  70  73
BRANCH  71  77
ATOM     77  C   UNL A   1      32.912  19.276  24.485  1.00  0.00     0.065 A 
ATOM     78  C   UNL A   1      32.623  18.719  25.740  1.00  0.00     0.035 A 
ATOM     79  C   UNL A   1      33.437  18.492  23.452  1.00  0.00     0.035 A 
ATOM     80  C   UNL A   1      32.824  17.361  25.962  1.00  0.00     0.088 A 
ATOM     81  C   UNL A   1      33.692  17.137  23.692  1.00  0.00     0.088 A 
ATOM     82  C   UNL A   1      33.369  16.577  24.939  1.00  0.00     0.269 A 
BRANCH  82  83
ATOM     83  N   UNL A   1      33.603  15.150  25.185  1.00  0.00     0.062 N 
ATOM     84  O   UNL A   1      34.774  14.776  25.339  1.00  0.00    -0.258 OA
ATOM     85  O   UNL A   1      32.614  14.405  25.229  1.00  0.00    -0.258 OA
ENDBRANCH  82  83
ENDBRANCH  71  77
ENDBRANCH  66  68
ENDBRANCH  65  66
ENDBRANCH  64  65
ENDBRANCH  63  64
ENDBRANCH  62  63
ENDBRANCH  61  62
ENDBRANCH   1  61
TORSDOF 25
ENDMDL
MODEL 3
REMARK VINA RESULT:      -8.7      2.864      6.395
REMARK SMILES O=C(OCCOCCOCCOCCOC(=O)c1nn(-c2ccc([N+](=O)[O-])cc2)cc1CCO)c1ccc(-c2c3nc(c(-c4ccccc4)c4ccc([nH]4)c(-c4ccccc4)c4nc(c(-c5ccccc5)c5ccc2[nH]5)C=C4)C=C3)cc1
REMARK SMILES IDX 10 1 9 2 8 3 7 4 6 5 5 6 4 7 3 8 2 9 1 10 35 11 36 12 82 13
REMARK SMILES IDX 37 14 81 15 38 16 39 17 40 18 75 19 41 20 80 21 74 22 76 23
REMARK SMILES IDX 42 24 79 25 73 26 72 27 43 29 65 30 50 31 64 32 51 33 54 34
REMARK SMILES IDX 63 35 77 36 52 37 53 38 62 40 78 41 55 42 44 43 45 44 49 45
REMARK SMILES IDX 46 46 48 47 47 48 66 49 67 50 71 51 68 52 70 53 69 54 56 55
REMARK SMILES IDX 57 56 61 57 58 58 60 59 59 60 11 61 12 62 13 63 14 64 15 65
REMARK SMILES IDX 16 66 17 67 18 68 19 69 31 70 20 71 30 72 32 73 33 74 34 75
REMARK SMILES IDX 21 77 22 78 29 79 23 80 28 81 24 82 25 83 26 84 27 85
REMARK H PARENT 76 28 54 39 34 76
REMARK Flexibility Score: inf
ROOT
ATOM      1  C   UNL A   1      31.409  28.807  25.195  1.00  0.00     0.188 C 
ENDROOT
BRANCH   1   2
ATOM      2  O   UNL A   1      32.579  29.576  25.313  1.00  0.00    -0.377 OA
BRANCH   2   3
ATOM      3  C   UNL A   1      32.462  30.632  26.248  1.00  0.00     0.188 C 
BRANCH   3   4
ATOM      4  C   UNL A   1      33.481  30.674  27.403  1.00  0.00     0.188 C 
BRANCH   4   5
ATOM      5  O   UNL A   1      34.400  31.710  27.747  1.00  0.00    -0.376 OA
BRANCH   5   6
ATOM      6  C   UNL A   1      34.420  32.624  28.820  1.00  0.00     0.202 C 
BRANCH   6   7
ATOM      7  C   UNL A   1      35.728  33.004  29.505  1.00  0.00     0.261 C 
BRANCH   7   8
ATOM      8  O   UNL A   1      35.741  32.846  30.916  1.00  0.00    -0.460 OA
BRANCH   8   9
ATOM      9  C   UNL A   1      36.257  31.819  31.620  1.00  0.00     0.338 C 
ATOM     10  O   UNL A   1      35.928  31.694  32.799  1.00  0.00    -0.246 OA
BRANCH   9  11
ATOM     11  C   UNL A   1      37.297  30.891  31.099  1.00  0.00     0.060 A 
ATOM     12  C   UNL A   1      37.164  29.511  30.931  1.00  0.00     0.016 A 
ATOM     13  C   UNL A   1      38.542  31.495  30.830  1.00  0.00     0.016 A 
ATOM     14  C   UNL A   1      38.274  28.733  30.684  1.00  0.00     0.010 A 
ATOM     15  C   UNL A   1      39.654  30.725  30.558  1.00  0.00     0.010 A 
ATOM     16  C   UNL A   1      39.519  29.345  30.600  1.00  0.00    -0.014 A 
BRANCH  16  17
ATOM     17  C   UNL A   1      40.666  28.466  30.679  1.00  0.00     0.031 A 
ATOM     18  C   UNL A   1      41.356  28.439  31.989  1.00  0.00     0.074 A 
ATOM     19  C   UNL A   1      41.052  27.775  29.591  1.00  0.00     0.049 A 
ATOM     20  N   UNL A   1      42.573  28.783  32.253  1.00  0.00    -0.248 NA
ATOM     21  C   UNL A   1      40.547  28.107  33.171  1.00  0.00     0.031 C 
ATOM     22  C   UNL A   1      40.320  27.584  28.333  1.00  0.00     0.029 A 
ATOM     23  N   UNL A   1      42.146  26.988  29.429  1.00  0.00    -0.354 N 
ATOM     24  C   UNL A   1      42.747  28.538  33.613  1.00  0.00     0.074 A 
ATOM     25  C   UNL A   1      41.438  28.262  34.150  1.00  0.00     0.031 C 
ATOM     26  C   UNL A   1      40.850  26.535  27.668  1.00  0.00     0.029 A 
ATOM     27  C   UNL A   1      42.034  26.088  28.380  1.00  0.00     0.049 A 
ATOM     28  H   UNL A   1      42.944  27.050  30.002  1.00  0.00     0.167 HD
ATOM     29  C   UNL A   1      43.982  28.327  34.143  1.00  0.00     0.031 A 
ATOM     30  C   UNL A   1      42.806  24.996  28.176  1.00  0.00     0.031 A 
ATOM     31  C   UNL A   1      45.024  28.878  33.316  1.00  0.00     0.049 A 
ATOM     32  C   UNL A   1      44.053  25.174  28.956  1.00  0.00     0.074 A 
ATOM     33  C   UNL A   1      45.348  30.145  32.875  1.00  0.00     0.029 A 
ATOM     34  N   UNL A   1      45.723  28.010  32.512  1.00  0.00    -0.354 N 
ATOM     35  N   UNL A   1      44.952  26.072  28.672  1.00  0.00    -0.248 NA
ATOM     36  C   UNL A   1      44.084  24.675  30.323  1.00  0.00     0.031 C 
ATOM     37  C   UNL A   1      45.832  29.961  31.548  1.00  0.00     0.029 A 
ATOM     38  C   UNL A   1      45.830  28.592  31.277  1.00  0.00     0.049 A 
ATOM     39  H   UNL A   1      46.081  27.132  32.776  1.00  0.00     0.167 HD
ATOM     40  C   UNL A   1      45.363  26.566  29.902  1.00  0.00     0.074 A 
ATOM     41  C   UNL A   1      44.873  25.597  30.881  1.00  0.00     0.031 C 
ATOM     42  C   UNL A   1      45.809  27.851  30.035  1.00  0.00     0.031 A 
BRANCH  29  43
ATOM     43  C   UNL A   1      44.247  27.227  35.146  1.00  0.00    -0.014 A 
ATOM     44  C   UNL A   1      44.872  27.559  36.362  1.00  0.00     0.009 A 
ATOM     45  C   UNL A   1      44.195  25.857  34.819  1.00  0.00     0.009 A 
ATOM     46  C   UNL A   1      45.510  26.588  37.142  1.00  0.00     0.001 A 
ATOM     47  C   UNL A   1      44.796  24.880  35.616  1.00  0.00     0.001 A 
ATOM     48  C   UNL A   1      45.486  25.251  36.758  1.00  0.00     0.000 A 
ENDBRANCH  29  43
BRANCH  30  49
ATOM     49  C   UNL A   1      42.371  23.691  27.637  1.00  0.00    -0.014 A 
ATOM     50  C   UNL A   1      41.615  22.805  28.416  1.00  0.00     0.009 A 
ATOM     51  C   UNL A   1      42.488  23.418  26.259  1.00  0.00     0.009 A 
ATOM     52  C   UNL A   1      40.975  21.703  27.831  1.00  0.00     0.001 A 
ATOM     53  C   UNL A   1      41.855  22.316  25.677  1.00  0.00     0.001 A 
ATOM     54  C   UNL A   1      41.086  21.466  26.463  1.00  0.00     0.000 A 
ENDBRANCH  30  49
BRANCH  42  55
ATOM     55  C   UNL A   1      46.040  28.651  28.776  1.00  0.00    -0.014 A 
ATOM     56  C   UNL A   1      47.244  28.595  28.049  1.00  0.00     0.009 A 
ATOM     57  C   UNL A   1      44.961  29.354  28.222  1.00  0.00     0.009 A 
ATOM     58  C   UNL A   1      47.370  29.254  26.821  1.00  0.00     0.001 A 
ATOM     59  C   UNL A   1      45.081  29.994  26.986  1.00  0.00     0.001 A 
ATOM     60  C   UNL A   1      46.286  29.949  26.290  1.00  0.00     0.000 A 
ENDBRANCH  42  55
ENDBRANCH  16  17
ENDBRANCH   9  11
ENDBRANCH   8   9
ENDBRANCH   7   8
ENDBRANCH   6   7
ENDBRANCH   5   6
ENDBRANCH   4   5
ENDBRANCH   3   4
ENDBRANCH   2   3
ENDBRANCH   1   2
BRANCH   1  61
ATOM     61  C   UNL A   1      30.652  29.085  23.882  1.00  0.00     0.188 C 
BRANCH  61  62
ATOM     62  O   UNL A   1      29.802  28.112  23.313  1.00  0.00    -0.376 OA
BRANCH  62  63
ATOM     63  C   UNL A   1      30.272  26.799  23.085  1.00  0.00     0.202 C 
BRANCH  63  64
ATOM     64  C   UNL A   1      30.108  25.668  24.118  1.00  0.00     0.261 C 
BRANCH  64  65
ATOM     65  O   UNL A   1      30.809  24.439  23.904  1.00  0.00    -0.458 OA
BRANCH  65  66
ATOM     66  C   UNL A   1      31.038  23.623  24.984  1.00  0.00     0.359 C 
ATOM     67  O   UNL A   1      30.354  23.558  25.985  1.00  0.00    -0.244 OA
BRANCH  66  68
ATOM     68  C   UNL A   1      32.188  22.740  24.724  1.00  0.00     0.174 A 
ATOM     69  N   UNL A   1      32.036  21.426  24.941  1.00  0.00    -0.161 NA
ATOM     70  C   UNL A   1      33.527  23.030  24.280  1.00  0.00     0.008 A 
ATOM     71  N   UNL A   1      33.257  20.893  24.796  1.00  0.00    -0.240 N 
ATOM     72  C   UNL A   1      34.197  21.833  24.475  1.00  0.00     0.119 A 
BRANCH  70  73
ATOM     73  C   UNL A   1      34.190  24.291  23.805  1.00  0.00     0.068 C 
BRANCH  73  74
ATOM     74  C   UNL A   1      34.255  25.440  24.812  1.00  0.00     0.161 C 
BRANCH  74  75
ATOM     75  O   UNL A   1      33.690  26.641  24.316  1.00  0.00    -0.396 OA
ATOM     76  H   UNL A   1      33.883  27.367  24.931  1.00  0.00     0.210 HD
ENDBRANCH  74  75
ENDBRANCH  73  74
ENDBRANCH  70  73
BRANCH  71  77
ATOM     77  C   UNL A   1      33.427  19.498  24.897  1.00  0.00     0.065 A 
ATOM     78  C   UNL A   1      34.569  18.940  24.302  1.00  0.00     0.035 A 
ATOM     79  C   UNL A   1      32.506  18.695  25.580  1.00  0.00     0.035 A 
ATOM     80  C   UNL A   1      34.819  17.577  24.417  1.00  0.00     0.088 A 
ATOM     81  C   UNL A   1      32.727  17.316  25.647  1.00  0.00     0.088 A 
ATOM     82  C   UNL A   1      33.890  16.767  25.080  1.00  0.00     0.269 A 
BRANCH  82  83
ATOM     83  N   UNL A   1      34.144  15.327  25.178  1.00  0.00     0.062 N 
ATOM     84  O   UNL A   1      35.323  14.953  25.254  1.00  0.00    -0.258 OA
ATOM     85  O   UNL A   1      33.164  14.569  25.185  1.00  0.00    -0.258 OA
ENDBRANCH  82  83
ENDBRANCH  71  77
ENDBRANCH  66  68
ENDBRANCH  65  66
ENDBRANCH  64  65
ENDBRANCH  63  64
ENDBRANCH  62  63
ENDBRANCH  61  62
ENDBRANCH   1  61
TORSDOF 25
ENDMDL
