MODEL 1
REMARK VINA RESULT:      -9.4      0.000      0.000
REMARK SMILES O=C(C[C@H](NC(=O)[C@]12C[C@H]3C[C@H](C[C@H](C3)C1)C2)c1cccc([N+](=O)[O-])c1)OCCOCCOCCOCCOC(=O)c1ccc(-c2c3nc(c(-c4ccccc4)c4ccc([nH]4)c(-c4ccccc4)c4nc(c(-c5ccccc5)c5ccc2[nH]5)C=C4)C=C3)cc1
REMARK SMILES IDX 32 1 31 2 30 3 29 4 28 5 27 6 2 7 1 8 3 9 4 10 18 11 19 12
REMARK SMILES IDX 26 13 20 14 22 15 21 16 23 17 24 18 25 19 5 20 6 21 7 23
REMARK SMILES IDX 8 24 9 25 16 26 17 27 10 28 14 29 12 30 11 31 15 32 13 33
REMARK SMILES IDX 33 34 34 35 35 36 36 37 37 38 38 39 39 40 40 41 41 42 42 43
REMARK SMILES IDX 43 44 89 45 44 46 88 47 45 48 46 49 47 50 82 51 48 52 87 53
REMARK SMILES IDX 81 54 83 55 49 56 86 57 80 58 79 59 50 61 72 62 57 63 71 64
REMARK SMILES IDX 58 65 61 66 70 67 84 68 59 69 60 70 69 72 85 73 62 74 51 75
REMARK SMILES IDX 52 76 56 77 53 78 55 79 54 80 73 81 74 82 78 83 75 84 77 85
REMARK SMILES IDX 76 86 63 87 64 88 68 89 65 90 67 91 66 92
REMARK H PARENT 5 22 83 60 61 71
REMARK Flexibility Score: inf
ROOT
ATOM      1  C   UNL A   1      32.742  30.437  26.831  1.00  0.00     0.188 C 
ENDROOT
BRANCH   1   2
ATOM      2  C   UNL A   1      33.509  29.409  26.009  1.00  0.00     0.188 C 
BRANCH   2   3
ATOM      3  O   UNL A   1      33.316  29.371  24.605  1.00  0.00    -0.376 OA
BRANCH   3   4
ATOM      4  C   UNL A   1      33.973  28.503  23.706  1.00  0.00     0.202 C 
BRANCH   4   5
ATOM      5  C   UNL A   1      33.405  28.109  22.350  1.00  0.00     0.261 C 
BRANCH   5   6
ATOM      6  O   UNL A   1      33.071  26.735  22.105  1.00  0.00    -0.463 OA
BRANCH   6   7
ATOM      7  C   UNL A   1      31.893  26.173  21.800  1.00  0.00     0.308 C 
ATOM      8  O   UNL A   1      31.550  26.120  20.619  1.00  0.00    -0.252 OA
BRANCH   7   9
ATOM      9  C   UNL A   1      30.969  25.680  22.881  1.00  0.00     0.152 C 
BRANCH   9  10
ATOM     10  C   UNL A   1      30.706  26.645  24.044  1.00  0.00     0.123 C 
BRANCH  10  11
ATOM     11  C   UNL A   1      29.681  27.691  23.627  1.00  0.00    -0.018 A 
ATOM     12  C   UNL A   1      28.347  27.256  23.453  1.00  0.00     0.006 A 
ATOM     13  C   UNL A   1      29.947  29.064  23.539  1.00  0.00     0.091 A 
ATOM     14  C   UNL A   1      27.305  28.158  23.243  1.00  0.00     0.007 A 
ATOM     15  C   UNL A   1      28.893  29.966  23.310  1.00  0.00     0.269 A 
ATOM     16  C   UNL A   1      27.574  29.521  23.171  1.00  0.00     0.085 A 
BRANCH  15  17
ATOM     17  N   UNL A   1      29.177  31.405  23.243  1.00  0.00     0.062 N 
ATOM     18  O   UNL A   1      28.992  31.979  22.161  1.00  0.00    -0.258 OA
ATOM     19  O   UNL A   1      29.588  31.958  24.274  1.00  0.00    -0.258 OA
ENDBRANCH  15  17
ENDBRANCH  10  11
BRANCH  10  20
ATOM     20  N   UNL A   1      30.419  25.929  25.283  1.00  0.00    -0.348 N 
ATOM     21  C   UNL A   1      31.003  24.846  25.868  1.00  0.00     0.226 C 
ATOM     22  H   UNL A   1      29.661  26.298  25.792  1.00  0.00     0.164 HD
ATOM     23  O   UNL A   1      30.339  24.345  26.785  1.00  0.00    -0.274 OA
BRANCH  21  24
ATOM     24  C   UNL A   1      32.412  24.303  25.525  1.00  0.00     0.050 C 
ATOM     25  C   UNL A   1      33.531  25.329  25.237  1.00  0.00     0.020 C 
ATOM     26  C   UNL A   1      32.323  23.414  24.240  1.00  0.00     0.020 C 
ATOM     27  C   UNL A   1      32.824  23.391  26.703  1.00  0.00     0.020 C 
ATOM     28  C   UNL A   1      34.881  24.636  24.982  1.00  0.00    -0.010 C 
ATOM     29  C   UNL A   1      33.662  22.709  23.950  1.00  0.00    -0.010 C 
ATOM     30  C   UNL A   1      34.162  22.697  26.420  1.00  0.00    -0.010 C 
ATOM     31  C   UNL A   1      35.240  23.770  26.202  1.00  0.00     0.007 C 
ATOM     32  C   UNL A   1      34.766  23.754  23.736  1.00  0.00     0.007 C 
ATOM     33  C   UNL A   1      34.034  21.831  25.156  1.00  0.00     0.007 C 
ENDBRANCH  21  24
ENDBRANCH  10  20
ENDBRANCH   9  10
ENDBRANCH   7   9
ENDBRANCH   6   7
ENDBRANCH   5   6
ENDBRANCH   4   5
ENDBRANCH   3   4
ENDBRANCH   2   3
ENDBRANCH   1   2
BRANCH   1  34
ATOM     34  O   UNL A   1      33.527  31.144  27.781  1.00  0.00    -0.377 OA
BRANCH  34  35
ATOM     35  C   UNL A   1      34.886  30.733  27.840  1.00  0.00     0.188 C 
BRANCH  35  36
ATOM     36  C   UNL A   1      35.892  31.898  27.922  1.00  0.00     0.188 C 
BRANCH  36  37
ATOM     37  O   UNL A   1      35.312  33.165  27.634  1.00  0.00    -0.376 OA
BRANCH  37  38
ATOM     38  C   UNL A   1      35.448  34.148  28.654  1.00  0.00     0.202 C 
BRANCH  38  39
ATOM     39  C   UNL A   1      34.368  34.115  29.746  1.00  0.00     0.261 C 
BRANCH  39  40
ATOM     40  O   UNL A   1      34.355  32.941  30.582  1.00  0.00    -0.460 OA
BRANCH  40  41
ATOM     41  C   UNL A   1      34.442  33.082  31.923  1.00  0.00     0.338 C 
ATOM     42  O   UNL A   1      33.574  32.867  32.749  1.00  0.00    -0.246 OA
BRANCH  41  43
ATOM     43  C   UNL A   1      35.878  33.300  32.240  1.00  0.00     0.060 A 
ATOM     44  C   UNL A   1      36.287  34.560  32.704  1.00  0.00     0.016 A 
ATOM     45  C   UNL A   1      36.785  32.236  32.210  1.00  0.00     0.016 A 
ATOM     46  C   UNL A   1      37.604  34.756  33.138  1.00  0.00     0.010 A 
ATOM     47  C   UNL A   1      38.107  32.441  32.616  1.00  0.00     0.010 A 
ATOM     48  C   UNL A   1      38.528  33.705  33.066  1.00  0.00    -0.014 A 
BRANCH  48  49
ATOM     49  C   UNL A   1      39.979  33.957  33.249  1.00  0.00     0.031 A 
ATOM     50  C   UNL A   1      40.813  34.156  32.013  1.00  0.00     0.074 A 
ATOM     51  C   UNL A   1      40.563  33.963  34.461  1.00  0.00     0.049 A 
ATOM     52  N   UNL A   1      42.110  34.278  31.896  1.00  0.00    -0.248 NA
ATOM     53  C   UNL A   1      40.082  34.220  30.735  1.00  0.00     0.031 C 
ATOM     54  C   UNL A   1      39.874  33.821  35.742  1.00  0.00     0.029 A 
ATOM     55  N   UNL A   1      41.890  34.075  34.804  1.00  0.00    -0.354 N 
ATOM     56  C   UNL A   1      42.349  34.421  30.536  1.00  0.00     0.074 A 
ATOM     57  C   UNL A   1      41.070  34.361  29.865  1.00  0.00     0.031 C 
ATOM     58  C   UNL A   1      40.788  33.829  36.731  1.00  0.00     0.029 A 
ATOM     59  C   UNL A   1      42.127  33.938  36.151  1.00  0.00     0.049 A 
ATOM     60  H   UNL A   1      42.604  34.238  34.146  1.00  0.00     0.167 HD
ATOM     61  C   UNL A   1      43.530  34.584  29.897  1.00  0.00     0.031 A 
ATOM     62  C   UNL A   1      43.289  33.872  36.830  1.00  0.00     0.031 A 
ATOM     63  C   UNL A   1      44.807  34.623  30.550  1.00  0.00     0.049 A 
ATOM     64  C   UNL A   1      44.598  33.957  36.080  1.00  0.00     0.074 A 
ATOM     65  C   UNL A   1      46.055  34.816  29.983  1.00  0.00     0.029 A 
ATOM     66  N   UNL A   1      45.003  34.448  31.908  1.00  0.00    -0.354 N 
ATOM     67  N   UNL A   1      44.809  34.147  34.801  1.00  0.00    -0.248 NA
ATOM     68  C   UNL A   1      45.829  33.810  36.874  1.00  0.00     0.031 C 
ATOM     69  C   UNL A   1      47.014  34.696  30.994  1.00  0.00     0.029 A 
ATOM     70  C   UNL A   1      46.356  34.483  32.194  1.00  0.00     0.049 A 
ATOM     71  H   UNL A   1      44.287  34.317  32.571  1.00  0.00     0.167 HD
ATOM     72  C   UNL A   1      46.191  34.162  34.642  1.00  0.00     0.074 A 
ATOM     73  C   UNL A   1      46.769  33.983  35.956  1.00  0.00     0.031 C 
ATOM     74  C   UNL A   1      46.918  34.305  33.507  1.00  0.00     0.031 A 
BRANCH  61  75
ATOM     75  C   UNL A   1      43.498  34.690  28.402  1.00  0.00    -0.014 A 
ATOM     76  C   UNL A   1      43.888  33.615  27.589  1.00  0.00     0.009 A 
ATOM     77  C   UNL A   1      43.021  35.865  27.802  1.00  0.00     0.009 A 
ATOM     78  C   UNL A   1      43.816  33.722  26.200  1.00  0.00     0.001 A 
ATOM     79  C   UNL A   1      42.929  35.961  26.413  1.00  0.00     0.001 A 
ATOM     80  C   UNL A   1      43.330  34.892  25.614  1.00  0.00     0.000 A 
ENDBRANCH  61  75
BRANCH  62  81
ATOM     81  C   UNL A   1      43.299  33.648  38.302  1.00  0.00    -0.014 A 
ATOM     82  C   UNL A   1      43.270  32.348  38.832  1.00  0.00     0.009 A 
ATOM     83  C   UNL A   1      43.257  34.738  39.185  1.00  0.00     0.009 A 
ATOM     84  C   UNL A   1      43.167  32.146  40.211  1.00  0.00     0.001 A 
ATOM     85  C   UNL A   1      43.185  34.533  40.565  1.00  0.00     0.001 A 
ATOM     86  C   UNL A   1      43.126  33.238  41.076  1.00  0.00     0.000 A 
ENDBRANCH  62  81
BRANCH  74  87
ATOM     87  C   UNL A   1      48.414  34.297  33.632  1.00  0.00    -0.014 A 
ATOM     88  C   UNL A   1      49.144  33.103  33.527  1.00  0.00     0.009 A 
ATOM     89  C   UNL A   1      49.109  35.507  33.790  1.00  0.00     0.009 A 
ATOM     90  C   UNL A   1      50.538  33.119  33.605  1.00  0.00     0.001 A 
ATOM     91  C   UNL A   1      50.503  35.523  33.839  1.00  0.00     0.001 A 
ATOM     92  C   UNL A   1      51.216  34.328  33.754  1.00  0.00     0.000 A 
ENDBRANCH  74  87
ENDBRANCH  48  49
ENDBRANCH  41  43
ENDBRANCH  40  41
ENDBRANCH  39  40
ENDBRANCH  38  39
ENDBRANCH  37  38
ENDBRANCH  36  37
ENDBRANCH  35  36
ENDBRANCH  34  35
ENDBRANCH   1  34
TORSDOF 25
ENDMDL
MODEL 2
REMARK VINA RESULT:      -9.2      3.578      7.870
REMARK SMILES O=C(C[C@H](NC(=O)[C@]12C[C@H]3C[C@H](C[C@H](C3)C1)C2)c1cccc([N+](=O)[O-])c1)OCCOCCOCCOCCOC(=O)c1ccc(-c2c3nc(c(-c4ccccc4)c4ccc([nH]4)c(-c4ccccc4)c4nc(c(-c5ccccc5)c5ccc2[nH]5)C=C4)C=C3)cc1
REMARK SMILES IDX 32 1 31 2 30 3 29 4 28 5 27 6 2 7 1 8 3 9 4 10 18 11 19 12
REMARK SMILES IDX 26 13 20 14 22 15 21 16 23 17 24 18 25 19 5 20 6 21 7 23
REMARK SMILES IDX 8 24 9 25 16 26 17 27 10 28 14 29 12 30 11 31 15 32 13 33
REMARK SMILES IDX 33 34 34 35 35 36 36 37 37 38 38 39 39 40 40 41 41 42 42 43
REMARK SMILES IDX 43 44 89 45 44 46 88 47 45 48 46 49 47 50 82 51 48 52 87 53
REMARK SMILES IDX 81 54 83 55 49 56 86 57 80 58 79 59 50 61 72 62 57 63 71 64
REMARK SMILES IDX 58 65 61 66 70 67 84 68 59 69 60 70 69 72 85 73 62 74 51 75
REMARK SMILES IDX 52 76 56 77 53 78 55 79 54 80 73 81 74 82 78 83 75 84 77 85
REMARK SMILES IDX 76 86 63 87 64 88 68 89 65 90 67 91 66 92
REMARK H PARENT 5 22 83 60 61 71
REMARK Flexibility Score: inf
ROOT
ATOM      1  C   UNL A   1      33.839  27.215  25.014  1.00  0.00     0.188 C 
ENDROOT
BRANCH   1   2
ATOM      2  C   UNL A   1      33.740  26.127  26.077  1.00  0.00     0.188 C 
BRANCH   2   3
ATOM      3  O   UNL A   1      34.257  24.838  25.789  1.00  0.00    -0.376 OA
BRANCH   3   4
ATOM      4  C   UNL A   1      35.027  24.045  26.667  1.00  0.00     0.202 C 
BRANCH   4   5
ATOM      5  C   UNL A   1      34.489  22.809  27.374  1.00  0.00     0.261 C 
BRANCH   5   6
ATOM      6  O   UNL A   1      33.082  22.716  27.643  1.00  0.00    -0.463 OA
BRANCH   6   7
ATOM      7  C   UNL A   1      32.032  23.014  26.866  1.00  0.00     0.308 C 
ATOM      8  O   UNL A   1      31.445  24.080  27.047  1.00  0.00    -0.252 OA
BRANCH   7   9
ATOM      9  C   UNL A   1      31.529  22.036  25.838  1.00  0.00     0.152 C 
BRANCH   9  10
ATOM     10  C   UNL A   1      32.234  22.055  24.476  1.00  0.00     0.123 C 
BRANCH  10  11
ATOM     11  C   UNL A   1      31.819  23.296  23.697  1.00  0.00    -0.018 A 
ATOM     12  C   UNL A   1      30.619  23.933  24.085  1.00  0.00     0.006 A 
ATOM     13  C   UNL A   1      32.612  23.916  22.722  1.00  0.00     0.091 A 
ATOM     14  C   UNL A   1      30.240  25.165  23.556  1.00  0.00     0.007 A 
ATOM     15  C   UNL A   1      32.215  25.152  22.180  1.00  0.00     0.269 A 
ATOM     16  C   UNL A   1      31.039  25.783  22.600  1.00  0.00     0.085 A 
BRANCH  15  17
ATOM     17  N   UNL A   1      33.063  25.806  21.177  1.00  0.00     0.062 N 
ATOM     18  O   UNL A   1      32.988  25.403  20.007  1.00  0.00    -0.258 OA
ATOM     19  O   UNL A   1      33.807  26.720  21.562  1.00  0.00    -0.258 OA
ENDBRANCH  15  17
ENDBRANCH  10  11
BRANCH  10  20
ATOM     20  N   UNL A   1      33.670  21.837  24.610  1.00  0.00    -0.348 N 
ATOM     21  C   UNL A   1      34.408  20.708  24.807  1.00  0.00     0.226 C 
ATOM     22  H   UNL A   1      34.207  22.659  24.548  1.00  0.00     0.164 HD
ATOM     23  O   UNL A   1      35.582  20.920  25.135  1.00  0.00    -0.274 OA
BRANCH  21  24
ATOM     24  C   UNL A   1      33.905  19.264  24.562  1.00  0.00     0.050 C 
ATOM     25  C   UNL A   1      33.001  19.013  23.333  1.00  0.00     0.020 C 
ATOM     26  C   UNL A   1      33.067  18.795  25.797  1.00  0.00     0.020 C 
ATOM     27  C   UNL A   1      35.165  18.374  24.479  1.00  0.00     0.020 C 
ATOM     28  C   UNL A   1      32.644  17.523  23.190  1.00  0.00    -0.010 C 
ATOM     29  C   UNL A   1      32.684  17.306  25.683  1.00  0.00    -0.010 C 
ATOM     30  C   UNL A   1      34.786  16.893  24.356  1.00  0.00    -0.010 C 
ATOM     31  C   UNL A   1      33.941  16.703  23.087  1.00  0.00     0.007 C 
ATOM     32  C   UNL A   1      31.845  17.078  24.419  1.00  0.00     0.007 C 
ATOM     33  C   UNL A   1      33.969  16.468  25.587  1.00  0.00     0.007 C 
ENDBRANCH  21  24
ENDBRANCH  10  20
ENDBRANCH   9  10
ENDBRANCH   7   9
ENDBRANCH   6   7
ENDBRANCH   5   6
ENDBRANCH   4   5
ENDBRANCH   3   4
ENDBRANCH   2   3
ENDBRANCH   1   2
BRANCH   1  34
ATOM     34  O   UNL A   1      33.032  28.358  25.258  1.00  0.00    -0.377 OA
BRANCH  34  35
ATOM     35  C   UNL A   1      33.078  28.834  26.596  1.00  0.00     0.188 C 
BRANCH  35  36
ATOM     36  C   UNL A   1      33.913  30.117  26.779  1.00  0.00     0.188 C 
BRANCH  36  37
ATOM     37  O   UNL A   1      34.553  30.197  28.047  1.00  0.00    -0.376 OA
BRANCH  37  38
ATOM     38  C   UNL A   1      34.832  31.513  28.511  1.00  0.00     0.202 C 
BRANCH  38  39
ATOM     39  C   UNL A   1      36.011  31.628  29.489  1.00  0.00     0.261 C 
BRANCH  39  40
ATOM     40  O   UNL A   1      35.720  31.317  30.866  1.00  0.00    -0.460 OA
BRANCH  40  41
ATOM     41  C   UNL A   1      35.102  32.239  31.637  1.00  0.00     0.338 C 
ATOM     42  O   UNL A   1      33.926  32.551  31.620  1.00  0.00    -0.246 OA
BRANCH  41  43
ATOM     43  C   UNL A   1      36.065  32.626  32.700  1.00  0.00     0.060 A 
ATOM     44  C   UNL A   1      35.894  33.855  33.357  1.00  0.00     0.016 A 
ATOM     45  C   UNL A   1      37.045  31.730  33.137  1.00  0.00     0.016 A 
ATOM     46  C   UNL A   1      36.701  34.187  34.452  1.00  0.00     0.010 A 
ATOM     47  C   UNL A   1      37.871  32.075  34.212  1.00  0.00     0.010 A 
ATOM     48  C   UNL A   1      37.715  33.311  34.864  1.00  0.00    -0.014 A 
BRANCH  48  49
ATOM     49  C   UNL A   1      38.756  33.754  35.825  1.00  0.00     0.031 A 
ATOM     50  C   UNL A   1      38.515  33.484  37.285  1.00  0.00     0.074 A 
ATOM     51  C   UNL A   1      39.860  34.417  35.437  1.00  0.00     0.049 A 
ATOM     52  N   UNL A   1      39.209  33.867  38.326  1.00  0.00    -0.248 NA
ATOM     53  C   UNL A   1      37.326  32.678  37.614  1.00  0.00     0.031 C 
ATOM     54  C   UNL A   1      40.238  34.714  34.057  1.00  0.00     0.029 A 
ATOM     55  N   UNL A   1      40.862  34.984  36.189  1.00  0.00    -0.354 N 
ATOM     56  C   UNL A   1      38.536  33.358  39.428  1.00  0.00     0.074 A 
ATOM     57  C   UNL A   1      37.375  32.650  38.936  1.00  0.00     0.031 C 
ATOM     58  C   UNL A   1      41.379  35.431  34.062  1.00  0.00     0.029 A 
ATOM     59  C   UNL A   1      41.789  35.675  35.445  1.00  0.00     0.049 A 
ATOM     60  H   UNL A   1      40.911  34.902  37.169  1.00  0.00     0.167 HD
ATOM     61  C   UNL A   1      38.851  33.474  40.739  1.00  0.00     0.031 A 
ATOM     62  C   UNL A   1      42.823  36.445  35.838  1.00  0.00     0.031 A 
ATOM     63  C   UNL A   1      39.987  34.192  41.241  1.00  0.00     0.049 A 
ATOM     64  C   UNL A   1      43.094  36.637  37.311  1.00  0.00     0.074 A 
ATOM     65  C   UNL A   1      40.401  34.334  42.553  1.00  0.00     0.029 A 
ATOM     66  N   UNL A   1      40.878  34.903  40.457  1.00  0.00    -0.354 N 
ATOM     67  N   UNL A   1      42.483  36.108  38.343  1.00  0.00    -0.248 NA
ATOM     68  C   UNL A   1      44.197  37.544  37.671  1.00  0.00     0.031 C 
ATOM     69  C   UNL A   1      41.511  35.185  42.569  1.00  0.00     0.029 A 
ATOM     70  C   UNL A   1      41.816  35.524  41.261  1.00  0.00     0.049 A 
ATOM     71  H   UNL A   1      40.848  34.958  39.474  1.00  0.00     0.167 HD
ATOM     72  C   UNL A   1      43.138  36.600  39.467  1.00  0.00     0.074 A 
ATOM     73  C   UNL A   1      44.206  37.453  38.994  1.00  0.00     0.031 C 
ATOM     74  C   UNL A   1      42.875  36.370  40.776  1.00  0.00     0.031 A 
BRANCH  61  75
ATOM     75  C   UNL A   1      37.923  32.838  41.731  1.00  0.00    -0.014 A 
ATOM     76  C   UNL A   1      36.768  33.501  42.172  1.00  0.00     0.009 A 
ATOM     77  C   UNL A   1      38.184  31.539  42.189  1.00  0.00     0.009 A 
ATOM     78  C   UNL A   1      35.899  32.877  43.067  1.00  0.00     0.001 A 
ATOM     79  C   UNL A   1      37.302  30.909  43.067  1.00  0.00     0.001 A 
ATOM     80  C   UNL A   1      36.163  31.580  43.508  1.00  0.00     0.000 A 
ENDBRANCH  61  75
BRANCH  62  81
ATOM     81  C   UNL A   1      43.660  37.162  34.837  1.00  0.00    -0.014 A 
ATOM     82  C   UNL A   1      43.234  38.379  34.282  1.00  0.00     0.009 A 
ATOM     83  C   UNL A   1      44.856  36.591  34.374  1.00  0.00     0.009 A 
ATOM     84  C   UNL A   1      43.969  38.990  33.262  1.00  0.00     0.001 A 
ATOM     85  C   UNL A   1      45.605  37.220  33.376  1.00  0.00     0.001 A 
ATOM     86  C   UNL A   1      45.154  38.411  32.812  1.00  0.00     0.000 A 
ENDBRANCH  62  81
BRANCH  74  87
ATOM     87  C   UNL A   1      43.764  37.029  41.792  1.00  0.00    -0.014 A 
ATOM     88  C   UNL A   1      43.382  38.223  42.423  1.00  0.00     0.009 A 
ATOM     89  C   UNL A   1      44.967  36.413  42.171  1.00  0.00     0.009 A 
ATOM     90  C   UNL A   1      44.202  38.801  43.394  1.00  0.00     0.001 A 
ATOM     91  C   UNL A   1      45.771  36.978  43.162  1.00  0.00     0.001 A 
ATOM     92  C   UNL A   1      45.391  38.175  43.768  1.00  0.00     0.000 A 
ENDBRANCH  74  87
ENDBRANCH  48  49
ENDBRANCH  41  43
ENDBRANCH  40  41
ENDBRANCH  39  40
ENDBRANCH  38  39
ENDBRANCH  37  38
ENDBRANCH  36  37
ENDBRANCH  35  36
ENDBRANCH  34  35
ENDBRANCH   1  34
TORSDOF 25
ENDMDL
MODEL 3
REMARK VINA RESULT:      -9.0      6.585      9.762
REMARK SMILES O=C(C[C@H](NC(=O)[C@]12C[C@H]3C[C@H](C[C@H](C3)C1)C2)c1cccc([N+](=O)[O-])c1)OCCOCCOCCOCCOC(=O)c1ccc(-c2c3nc(c(-c4ccccc4)c4ccc([nH]4)c(-c4ccccc4)c4nc(c(-c5ccccc5)c5ccc2[nH]5)C=C4)C=C3)cc1
REMARK SMILES IDX 32 1 31 2 30 3 29 4 28 5 27 6 2 7 1 8 3 9 4 10 18 11 19 12
REMARK SMILES IDX 26 13 20 14 22 15 21 16 23 17 24 18 25 19 5 20 6 21 7 23
REMARK SMILES IDX 8 24 9 25 16 26 17 27 10 28 14 29 12 30 11 31 15 32 13 33
REMARK SMILES IDX 33 34 34 35 35 36 36 37 37 38 38 39 39 40 40 41 41 42 42 43
REMARK SMILES IDX 43 44 89 45 44 46 88 47 45 48 46 49 47 50 82 51 48 52 87 53
REMARK SMILES IDX 81 54 83 55 49 56 86 57 80 58 79 59 50 61 72 62 57 63 71 64
REMARK SMILES IDX 58 65 61 66 70 67 84 68 59 69 60 70 69 72 85 73 62 74 51 75
REMARK SMILES IDX 52 76 56 77 53 78 55 79 54 80 73 81 74 82 78 83 75 84 77 85
REMARK SMILES IDX 76 86 63 87 64 88 68 89 65 90 67 91 66 92
REMARK H PARENT 5 22 83 60 61 71
REMARK Flexibility Score: inf
ROOT
ATOM      1  C   UNL A   1      33.178  29.348  25.877  1.00  0.00     0.188 C 
ENDROOT
BRANCH   1   2
ATOM      2  C   UNL A   1      31.905  28.682  25.366  1.00  0.00     0.188 C 
BRANCH   2   3
ATOM      3  O   UNL A   1      31.900  27.279  25.163  1.00  0.00    -0.376 OA
BRANCH   3   4
ATOM      4  C   UNL A   1      32.162  26.303  26.149  1.00  0.00     0.202 C 
BRANCH   4   5
ATOM      5  C   UNL A   1      33.365  25.371  26.111  1.00  0.00     0.261 C 
BRANCH   5   6
ATOM      6  O   UNL A   1      33.194  23.995  26.478  1.00  0.00    -0.463 OA
BRANCH   6   7
ATOM      7  C   UNL A   1      32.074  23.285  26.674  1.00  0.00     0.308 C 
ATOM      8  O   UNL A   1      31.349  23.573  27.626  1.00  0.00    -0.252 OA
BRANCH   7   9
ATOM      9  C   UNL A   1      31.740  22.110  25.794  1.00  0.00     0.152 C 
BRANCH   9  10
ATOM     10  C   UNL A   1      32.426  22.069  24.423  1.00  0.00     0.123 C 
BRANCH  10  11
ATOM     11  C   UNL A   1      31.952  23.240  23.572  1.00  0.00    -0.018 A 
ATOM     12  C   UNL A   1      30.653  23.736  23.821  1.00  0.00     0.006 A 
ATOM     13  C   UNL A   1      32.765  23.934  22.665  1.00  0.00     0.091 A 
ATOM     14  C   UNL A   1      30.191  24.907  23.224  1.00  0.00     0.007 A 
ATOM     15  C   UNL A   1      32.285  25.105  22.053  1.00  0.00     0.269 A 
ATOM     16  C   UNL A   1      31.006  25.600  22.336  1.00  0.00     0.085 A 
BRANCH  15  17
ATOM     17  N   UNL A   1      33.150  25.839  21.122  1.00  0.00     0.062 N 
ATOM     18  O   UNL A   1      33.793  26.800  21.567  1.00  0.00    -0.258 OA
ATOM     19  O   UNL A   1      33.182  25.454  19.943  1.00  0.00    -0.258 OA
ENDBRANCH  15  17
ENDBRANCH  10  11
BRANCH  10  20
ATOM     20  N   UNL A   1      33.871  21.915  24.548  1.00  0.00    -0.348 N 
ATOM     21  C   UNL A   1      34.656  20.827  24.794  1.00  0.00     0.226 C 
ATOM     22  H   UNL A   1      34.375  22.753  24.434  1.00  0.00     0.164 HD
ATOM     23  O   UNL A   1      35.825  21.103  25.095  1.00  0.00    -0.274 OA
BRANCH  21  24
ATOM     24  C   UNL A   1      34.208  19.354  24.634  1.00  0.00     0.050 C 
ATOM     25  C   UNL A   1      35.307  18.275  24.502  1.00  0.00     0.020 C 
ATOM     26  C   UNL A   1      33.336  19.219  23.342  1.00  0.00     0.020 C 
ATOM     27  C   UNL A   1      33.306  19.041  25.848  1.00  0.00     0.020 C 
ATOM     28  C   UNL A   1      34.705  16.862  24.420  1.00  0.00    -0.010 C 
ATOM     29  C   UNL A   1      32.722  17.810  23.223  1.00  0.00    -0.010 C 
ATOM     30  C   UNL A   1      32.702  17.635  25.737  1.00  0.00    -0.010 C 
ATOM     31  C   UNL A   1      33.844  16.610  25.669  1.00  0.00     0.007 C 
ATOM     32  C   UNL A   1      33.837  16.758  23.162  1.00  0.00     0.007 C 
ATOM     33  C   UNL A   1      31.850  17.542  24.461  1.00  0.00     0.007 C 
ENDBRANCH  21  24
ENDBRANCH  10  20
ENDBRANCH   9  10
ENDBRANCH   7   9
ENDBRANCH   6   7
ENDBRANCH   5   6
ENDBRANCH   4   5
ENDBRANCH   3   4
ENDBRANCH   2   3
ENDBRANCH   1   2
BRANCH   1  34
ATOM     34  O   UNL A   1      32.966  30.402  26.805  1.00  0.00    -0.377 OA
BRANCH  34  35
ATOM     35  C   UNL A   1      34.075  30.669  27.653  1.00  0.00     0.188 C 
BRANCH  35  36
ATOM     36  C   UNL A   1      35.057  29.488  27.793  1.00  0.00     0.188 C 
BRANCH  36  37
ATOM     37  O   UNL A   1      36.076  29.715  28.760  1.00  0.00    -0.376 OA
BRANCH  37  38
ATOM     38  C   UNL A   1      37.411  29.646  28.272  1.00  0.00     0.202 C 
BRANCH  38  39
ATOM     39  C   UNL A   1      38.334  28.673  29.021  1.00  0.00     0.261 C 
BRANCH  39  40
ATOM     40  O   UNL A   1      39.182  27.848  28.196  1.00  0.00    -0.460 OA
BRANCH  40  41
ATOM     41  C   UNL A   1      40.032  28.435  27.325  1.00  0.00     0.338 C 
ATOM     42  O   UNL A   1      39.774  29.298  26.506  1.00  0.00    -0.246 OA
BRANCH  41  43
ATOM     43  C   UNL A   1      41.404  28.025  27.720  1.00  0.00     0.060 A 
ATOM     44  C   UNL A   1      41.767  26.673  27.614  1.00  0.00     0.016 A 
ATOM     45  C   UNL A   1      42.364  28.982  28.062  1.00  0.00     0.016 A 
ATOM     46  C   UNL A   1      43.089  26.278  27.849  1.00  0.00     0.010 A 
ATOM     47  C   UNL A   1      43.678  28.583  28.326  1.00  0.00     0.010 A 
ATOM     48  C   UNL A   1      44.044  27.228  28.237  1.00  0.00    -0.014 A 
BRANCH  48  49
ATOM     49  C   UNL A   1      45.366  26.804  28.762  1.00  0.00     0.031 A 
ATOM     50  C   UNL A   1      45.434  26.347  30.193  1.00  0.00     0.074 A 
ATOM     51  C   UNL A   1      46.488  26.862  28.021  1.00  0.00     0.049 A 
ATOM     52  N   UNL A   1      46.477  26.035  30.917  1.00  0.00    -0.248 NA
ATOM     53  C   UNL A   1      44.148  26.230  30.904  1.00  0.00     0.031 C 
ATOM     54  C   UNL A   1      46.564  27.250  26.614  1.00  0.00     0.029 A 
ATOM     55  N   UNL A   1      47.794  26.612  28.372  1.00  0.00    -0.354 N 
ATOM     56  C   UNL A   1      45.975  25.699  32.167  1.00  0.00     0.074 A 
ATOM     57  C   UNL A   1      44.539  25.852  32.110  1.00  0.00     0.031 C 
ATOM     58  C   UNL A   1      47.854  27.236  26.227  1.00  0.00     0.029 A 
ATOM     59  C   UNL A   1      48.696  26.876  27.369  1.00  0.00     0.049 A 
ATOM     60  H   UNL A   1      48.058  26.276  29.258  1.00  0.00     0.167 HD
ATOM     61  C   UNL A   1      46.650  25.301  33.270  1.00  0.00     0.031 A 
ATOM     62  C   UNL A   1      50.044  26.863  27.383  1.00  0.00     0.031 A 
ATOM     63  C   UNL A   1      48.076  25.166  33.345  1.00  0.00     0.049 A 
ATOM     64  C   UNL A   1      50.774  26.511  28.657  1.00  0.00     0.074 A 
ATOM     65  C   UNL A   1      48.843  24.738  34.415  1.00  0.00     0.029 A 
ATOM     66  N   UNL A   1      48.951  25.474  32.319  1.00  0.00    -0.354 N 
ATOM     67  N   UNL A   1      50.288  26.143  29.817  1.00  0.00    -0.248 NA
ATOM     68  C   UNL A   1      52.245  26.582  28.621  1.00  0.00     0.031 C 
ATOM     69  C   UNL A   1      50.189  24.846  34.055  1.00  0.00     0.029 A 
ATOM     70  C   UNL A   1      50.254  25.289  32.744  1.00  0.00     0.049 A 
ATOM     71  H   UNL A   1      48.686  25.780  31.421  1.00  0.00     0.167 HD
ATOM     72  C   UNL A   1      51.388  25.920  30.638  1.00  0.00     0.074 A 
ATOM     73  C   UNL A   1      52.568  26.174  29.840  1.00  0.00     0.031 C 
ATOM     74  C   UNL A   1      51.419  25.544  31.939  1.00  0.00     0.031 A 
BRANCH  61  75
ATOM     75  C   UNL A   1      45.848  25.022  34.507  1.00  0.00    -0.014 A 
ATOM     76  C   UNL A   1      45.352  23.737  34.775  1.00  0.00     0.009 A 
ATOM     77  C   UNL A   1      45.634  26.048  35.438  1.00  0.00     0.009 A 
ATOM     78  C   UNL A   1      44.640  23.492  35.950  1.00  0.00     0.001 A 
ATOM     79  C   UNL A   1      44.941  25.794  36.622  1.00  0.00     0.001 A 
ATOM     80  C   UNL A   1      44.441  24.517  36.875  1.00  0.00     0.000 A 
ENDBRANCH  61  75
BRANCH  62  81
ATOM     81  C   UNL A   1      50.821  27.259  26.175  1.00  0.00    -0.014 A 
ATOM     82  C   UNL A   1      51.259  26.294  25.254  1.00  0.00     0.009 A 
ATOM     83  C   UNL A   1      51.194  28.598  25.980  1.00  0.00     0.009 A 
ATOM     84  C   UNL A   1      52.081  26.657  24.184  1.00  0.00     0.001 A 
ATOM     85  C   UNL A   1      51.990  28.962  24.892  1.00  0.00     0.001 A 
ATOM     86  C   UNL A   1      52.444  27.990  24.003  1.00  0.00     0.000 A 
ENDBRANCH  62  81
BRANCH  74  87
ATOM     87  C   UNL A   1      52.766  25.362  32.580  1.00  0.00    -0.014 A 
ATOM     88  C   UNL A   1      53.400  26.422  33.247  1.00  0.00     0.009 A 
ATOM     89  C   UNL A   1      53.377  24.099  32.575  1.00  0.00     0.009 A 
ATOM     90  C   UNL A   1      54.633  26.225  33.873  1.00  0.00     0.001 A 
ATOM     91  C   UNL A   1      54.596  23.898  33.224  1.00  0.00     0.001 A 
ATOM     92  C   UNL A   1      55.226  24.963  33.867  1.00  0.00     0.000 A 
ENDBRANCH  74  87
ENDBRANCH  48  49
ENDBRANCH  41  43
ENDBRANCH  40  41
ENDBRANCH  39  40
ENDBRANCH  38  39
ENDBRANCH  37  38
ENDBRANCH  36  37
ENDBRANCH  35  36
ENDBRANCH  34  35
ENDBRANCH   1  34
TORSDOF 25
ENDMDL
