MODEL 1
REMARK VINA RESULT:      -9.3      0.000      0.000
REMARK SMILES CC1=NC(=O)[C@H](CC(=O)OCCOCCOCCOCCOC(=O)c2ccc(-c3c4nc(c(-c5ccccc5)c5ccc([nH]5)c(-c5ccccc5)c5nc(c(-c6ccccc6)c6ccc3[nH]6)C=C5)C=C4)cc2)CS1
REMARK SMILES IDX 17 1 16 2 15 3 14 4 13 5 12 6 11 7 10 8 8 9 9 10 7 11 6 12
REMARK SMILES IDX 1 13 2 14 3 15 74 16 4 17 73 18 5 19 18 20 19 21 20 22 21 23
REMARK SMILES IDX 22 24 23 25 24 26 25 27 26 28 72 29 27 30 71 31 28 32 29 33
REMARK SMILES IDX 30 34 65 35 31 36 70 37 64 38 66 39 32 40 69 41 63 42 62 43
REMARK SMILES IDX 33 45 55 46 40 47 54 48 41 49 44 50 53 51 67 52 42 53 43 54
REMARK SMILES IDX 52 56 68 57 45 58 34 59 35 60 39 61 36 62 38 63 37 64 56 65
REMARK SMILES IDX 57 66 61 67 58 68 60 69 59 70 46 71 47 72 51 73 48 74 50 75
REMARK SMILES IDX 49 76
REMARK H PARENT 66 44 44 55
REMARK Flexibility Score: inf
ROOT
ATOM      1  C   UNL A   1      44.024  18.785  25.379  1.00  0.00     0.188 C 
ENDROOT
BRANCH   1   2
ATOM      2  O   UNL A   1      42.796  19.438  25.132  1.00  0.00    -0.377 OA
BRANCH   2   3
ATOM      3  C   UNL A   1      41.833  19.335  26.160  1.00  0.00     0.188 C 
BRANCH   3   4
ATOM      4  C   UNL A   1      41.170  20.673  26.550  1.00  0.00     0.188 C 
BRANCH   4   5
ATOM      5  O   UNL A   1      40.135  21.221  25.747  1.00  0.00    -0.376 OA
BRANCH   5   6
ATOM      6  C   UNL A   1      39.169  22.064  26.347  1.00  0.00     0.202 C 
BRANCH   6   7
ATOM      7  C   UNL A   1      37.819  22.286  25.634  1.00  0.00     0.261 C 
BRANCH   7   8
ATOM      8  O   UNL A   1      36.652  21.562  26.100  1.00  0.00    -0.463 OA
BRANCH   8   9
ATOM      9  C   UNL A   1      35.471  21.848  25.490  1.00  0.00     0.306 C 
ATOM     10  O   UNL A   1      35.217  21.556  24.328  1.00  0.00    -0.252 OA
BRANCH   9  11
ATOM     11  C   UNL A   1      34.494  22.661  26.339  1.00  0.00     0.137 C 
BRANCH  11  12
ATOM     12  C   UNL A   1      33.221  23.293  25.727  1.00  0.00     0.102 C 
ATOM     13  C   UNL A   1      31.016  27.109  26.197  1.00  0.00     0.075 C 
ATOM     14  C   UNL A   1      31.867  25.873  26.267  1.00  0.00     0.074 C 
ATOM     15  N   UNL A   1      31.387  24.744  26.663  1.00  0.00    -0.211 NA
ATOM     16  S   UNL A   1      33.521  26.058  25.746  1.00  0.00    -0.110 SA
ATOM     17  C   UNL A   1      32.228  23.665  26.839  1.00  0.00     0.250 C 
ATOM     18  C   UNL A   1      33.510  24.499  24.831  1.00  0.00     0.090 C 
ATOM     19  O   UNL A   1      32.127  22.953  27.835  1.00  0.00    -0.272 OA
ENDBRANCH  11  12
ENDBRANCH   9  11
ENDBRANCH   8   9
ENDBRANCH   7   8
ENDBRANCH   6   7
ENDBRANCH   5   6
ENDBRANCH   4   5
ENDBRANCH   3   4
ENDBRANCH   2   3
ENDBRANCH   1   2
BRANCH   1  20
ATOM     20  C   UNL A   1      45.080  18.916  24.272  1.00  0.00     0.188 C 
BRANCH  20  21
ATOM     21  O   UNL A   1      45.436  20.271  24.025  1.00  0.00    -0.376 OA
BRANCH  21  22
ATOM     22  C   UNL A   1      45.898  21.091  25.081  1.00  0.00     0.202 C 
BRANCH  22  23
ATOM     23  C   UNL A   1      46.022  22.607  24.854  1.00  0.00     0.261 C 
BRANCH  23  24
ATOM     24  O   UNL A   1      45.154  23.461  25.607  1.00  0.00    -0.460 OA
BRANCH  24  25
ATOM     25  C   UNL A   1      43.897  23.649  25.142  1.00  0.00     0.338 C 
ATOM     26  O   UNL A   1      43.350  23.041  24.251  1.00  0.00    -0.246 OA
BRANCH  25  27
ATOM     27  C   UNL A   1      43.230  24.600  26.065  1.00  0.00     0.060 A 
ATOM     28  C   UNL A   1      43.661  25.933  26.086  1.00  0.00     0.016 A 
ATOM     29  C   UNL A   1      42.160  24.192  26.865  1.00  0.00     0.016 A 
ATOM     30  C   UNL A   1      43.030  26.861  26.915  1.00  0.00     0.010 A 
ATOM     31  C   UNL A   1      41.554  25.112  27.724  1.00  0.00     0.010 A 
ATOM     32  C   UNL A   1      42.005  26.443  27.773  1.00  0.00    -0.014 A 
BRANCH  32  33
ATOM     33  C   UNL A   1      41.568  27.331  28.875  1.00  0.00     0.031 A 
ATOM     34  C   UNL A   1      42.319  27.255  30.177  1.00  0.00     0.074 A 
ATOM     35  C   UNL A   1      40.549  28.195  28.728  1.00  0.00     0.049 A 
ATOM     36  N   UNL A   1      42.103  27.890  31.300  1.00  0.00    -0.248 NA
ATOM     37  C   UNL A   1      43.468  26.334  30.213  1.00  0.00     0.031 C 
ATOM     38  C   UNL A   1      39.781  28.403  27.503  1.00  0.00     0.029 A 
ATOM     39  N   UNL A   1      39.983  29.059  29.633  1.00  0.00    -0.354 N 
ATOM     40  C   UNL A   1      43.083  27.438  32.176  1.00  0.00     0.074 A 
ATOM     41  C   UNL A   1      43.872  26.455  31.467  1.00  0.00     0.031 C 
ATOM     42  C   UNL A   1      38.833  29.329  27.737  1.00  0.00     0.029 A 
ATOM     43  C   UNL A   1      38.905  29.750  29.135  1.00  0.00     0.049 A 
ATOM     44  H   UNL A   1      40.317  29.172  30.552  1.00  0.00     0.167 HD
ATOM     45  C   UNL A   1      43.307  27.809  33.458  1.00  0.00     0.031 A 
ATOM     46  C   UNL A   1      38.063  30.604  29.749  1.00  0.00     0.031 A 
ATOM     47  C   UNL A   1      42.505  28.766  34.169  1.00  0.00     0.049 A 
ATOM     48  C   UNL A   1      38.274  30.929  31.206  1.00  0.00     0.074 A 
ATOM     49  C   UNL A   1      42.652  29.216  35.469  1.00  0.00     0.029 A 
ATOM     50  N   UNL A   1      41.396  29.411  33.643  1.00  0.00    -0.354 N 
ATOM     51  N   UNL A   1      39.217  30.517  32.019  1.00  0.00    -0.248 NA
ATOM     52  C   UNL A   1      37.307  31.847  31.827  1.00  0.00     0.031 C 
ATOM     53  C   UNL A   1      41.591  30.082  35.750  1.00  0.00     0.029 A 
ATOM     54  C   UNL A   1      40.830  30.232  34.602  1.00  0.00     0.049 A 
ATOM     55  H   UNL A   1      41.062  29.300  32.724  1.00  0.00     0.167 HD
ATOM     56  C   UNL A   1      38.979  31.152  33.233  1.00  0.00     0.074 A 
ATOM     57  C   UNL A   1      37.811  31.986  33.046  1.00  0.00     0.031 C 
ATOM     58  C   UNL A   1      39.668  31.059  34.397  1.00  0.00     0.031 A 
BRANCH  45  59
ATOM     59  C   UNL A   1      44.440  27.137  34.183  1.00  0.00    -0.014 A 
ATOM     60  C   UNL A   1      45.698  27.749  34.306  1.00  0.00     0.009 A 
ATOM     61  C   UNL A   1      44.238  25.878  34.770  1.00  0.00     0.009 A 
ATOM     62  C   UNL A   1      46.740  27.097  34.970  1.00  0.00     0.001 A 
ATOM     63  C   UNL A   1      45.271  25.243  35.461  1.00  0.00     0.001 A 
ATOM     64  C   UNL A   1      46.524  25.849  35.552  1.00  0.00     0.000 A 
ENDBRANCH  45  59
BRANCH  46  65
ATOM     65  C   UNL A   1      36.921  31.200  29.001  1.00  0.00    -0.014 A 
ATOM     66  C   UNL A   1      36.927  32.557  28.644  1.00  0.00     0.009 A 
ATOM     67  C   UNL A   1      35.803  30.419  28.668  1.00  0.00     0.009 A 
ATOM     68  C   UNL A   1      35.826  33.124  27.996  1.00  0.00     0.001 A 
ATOM     69  C   UNL A   1      34.719  30.981  27.991  1.00  0.00     0.001 A 
ATOM     70  C   UNL A   1      34.726  32.336  27.665  1.00  0.00     0.000 A 
ENDBRANCH  46  65
BRANCH  58  71
ATOM     71  C   UNL A   1      39.214  31.918  35.547  1.00  0.00    -0.014 A 
ATOM     72  C   UNL A   1      39.677  33.232  35.712  1.00  0.00     0.009 A 
ATOM     73  C   UNL A   1      38.262  31.415  36.448  1.00  0.00     0.009 A 
ATOM     74  C   UNL A   1      39.221  34.012  36.778  1.00  0.00     0.001 A 
ATOM     75  C   UNL A   1      37.782  32.208  37.491  1.00  0.00     0.001 A 
ATOM     76  C   UNL A   1      38.269  33.502  37.661  1.00  0.00     0.000 A 
ENDBRANCH  58  71
ENDBRANCH  32  33
ENDBRANCH  25  27
ENDBRANCH  24  25
ENDBRANCH  23  24
ENDBRANCH  22  23
ENDBRANCH  21  22
ENDBRANCH  20  21
ENDBRANCH   1  20
TORSDOF 21
ENDMDL
MODEL 2
REMARK VINA RESULT:      -8.9      4.236      9.413
REMARK SMILES CC1=NC(=O)[C@H](CC(=O)OCCOCCOCCOCCOC(=O)c2ccc(-c3c4nc(c(-c5ccccc5)c5ccc([nH]5)c(-c5ccccc5)c5nc(c(-c6ccccc6)c6ccc3[nH]6)C=C5)C=C4)cc2)CS1
REMARK SMILES IDX 17 1 16 2 15 3 14 4 13 5 12 6 11 7 10 8 8 9 9 10 7 11 6 12
REMARK SMILES IDX 1 13 2 14 3 15 74 16 4 17 73 18 5 19 18 20 19 21 20 22 21 23
REMARK SMILES IDX 22 24 23 25 24 26 25 27 26 28 72 29 27 30 71 31 28 32 29 33
REMARK SMILES IDX 30 34 65 35 31 36 70 37 64 38 66 39 32 40 69 41 63 42 62 43
REMARK SMILES IDX 33 45 55 46 40 47 54 48 41 49 44 50 53 51 67 52 42 53 43 54
REMARK SMILES IDX 52 56 68 57 45 58 34 59 35 60 39 61 36 62 38 63 37 64 56 65
REMARK SMILES IDX 57 66 61 67 58 68 60 69 59 70 46 71 47 72 51 73 48 74 50 75
REMARK SMILES IDX 49 76
REMARK H PARENT 66 44 44 55
REMARK Flexibility Score: inf
ROOT
ATOM      1  C   UNL A   1      30.325  28.019  23.883  1.00  0.00     0.188 C 
ENDROOT
BRANCH   1   2
ATOM      2  O   UNL A   1      30.685  27.321  22.709  1.00  0.00    -0.377 OA
BRANCH   2   3
ATOM      3  C   UNL A   1      32.072  27.168  22.492  1.00  0.00     0.188 C 
BRANCH   3   4
ATOM      4  C   UNL A   1      32.726  26.038  23.316  1.00  0.00     0.188 C 
BRANCH   4   5
ATOM      5  O   UNL A   1      33.531  26.347  24.444  1.00  0.00    -0.376 OA
BRANCH   5   6
ATOM      6  C   UNL A   1      33.235  25.744  25.690  1.00  0.00     0.202 C 
BRANCH   6   7
ATOM      7  C   UNL A   1      31.799  25.835  26.247  1.00  0.00     0.261 C 
BRANCH   7   8
ATOM      8  O   UNL A   1      30.835  24.818  25.870  1.00  0.00    -0.463 OA
BRANCH   8   9
ATOM      9  C   UNL A   1      31.046  23.566  26.355  1.00  0.00     0.306 C 
ATOM     10  O   UNL A   1      30.724  23.209  27.482  1.00  0.00    -0.252 OA
BRANCH   9  11
ATOM     11  C   UNL A   1      31.817  22.638  25.415  1.00  0.00     0.137 C 
BRANCH  11  12
ATOM     12  C   UNL A   1      32.813  21.584  25.956  1.00  0.00     0.102 C 
ATOM     13  C   UNL A   1      36.960  20.342  25.009  1.00  0.00     0.075 C 
ATOM     14  C   UNL A   1      35.556  20.867  25.094  1.00  0.00     0.074 C 
ATOM     15  N   UNL A   1      34.537  20.111  24.860  1.00  0.00    -0.211 NA
ATOM     16  S   UNL A   1      35.395  22.539  25.562  1.00  0.00    -0.110 SA
ATOM     17  C   UNL A   1      33.273  20.659  24.817  1.00  0.00     0.250 C 
ATOM     18  C   UNL A   1      34.015  22.196  26.678  1.00  0.00     0.090 C 
ATOM     19  O   UNL A   1      32.486  20.344  23.928  1.00  0.00    -0.272 OA
ENDBRANCH  11  12
ENDBRANCH   9  11
ENDBRANCH   8   9
ENDBRANCH   7   8
ENDBRANCH   6   7
ENDBRANCH   5   6
ENDBRANCH   4   5
ENDBRANCH   3   4
ENDBRANCH   2   3
ENDBRANCH   1   2
BRANCH   1  20
ATOM     20  C   UNL A   1      31.039  29.361  24.103  1.00  0.00     0.188 C 
BRANCH  20  21
ATOM     21  O   UNL A   1      31.413  29.556  25.462  1.00  0.00    -0.376 OA
BRANCH  21  22
ATOM     22  C   UNL A   1      32.779  29.620  25.823  1.00  0.00     0.202 C 
BRANCH  22  23
ATOM     23  C   UNL A   1      33.170  30.252  27.171  1.00  0.00     0.261 C 
BRANCH  23  24
ATOM     24  O   UNL A   1      34.378  31.018  27.216  1.00  0.00    -0.460 OA
BRANCH  24  25
ATOM     25  C   UNL A   1      34.894  31.306  28.433  1.00  0.00     0.338 C 
ATOM     26  O   UNL A   1      34.360  31.924  29.325  1.00  0.00    -0.246 OA
BRANCH  25  27
ATOM     27  C   UNL A   1      36.163  30.546  28.558  1.00  0.00     0.060 A 
ATOM     28  C   UNL A   1      36.447  29.905  29.771  1.00  0.00     0.016 A 
ATOM     29  C   UNL A   1      37.036  30.427  27.475  1.00  0.00     0.016 A 
ATOM     30  C   UNL A   1      37.613  29.151  29.909  1.00  0.00     0.010 A 
ATOM     31  C   UNL A   1      38.223  29.704  27.625  1.00  0.00     0.010 A 
ATOM     32  C   UNL A   1      38.529  29.087  28.852  1.00  0.00    -0.014 A 
BRANCH  32  33
ATOM     33  C   UNL A   1      39.898  28.578  29.101  1.00  0.00     0.031 A 
ATOM     34  C   UNL A   1      40.874  29.498  29.782  1.00  0.00     0.074 A 
ATOM     35  C   UNL A   1      40.266  27.333  28.754  1.00  0.00     0.049 A 
ATOM     36  N   UNL A   1      42.136  29.307  30.069  1.00  0.00    -0.248 NA
ATOM     37  C   UNL A   1      40.353  30.812  30.193  1.00  0.00     0.031 C 
ATOM     38  C   UNL A   1      39.398  26.330  28.140  1.00  0.00     0.029 A 
ATOM     39  N   UNL A   1      41.482  26.705  28.867  1.00  0.00    -0.354 N 
ATOM     40  C   UNL A   1      42.559  30.479  30.684  1.00  0.00     0.074 A 
ATOM     41  C   UNL A   1      41.433  31.384  30.702  1.00  0.00     0.031 C 
ATOM     42  C   UNL A   1      40.115  25.213  27.919  1.00  0.00     0.029 A 
ATOM     43  C   UNL A   1      41.497  25.436  28.341  1.00  0.00     0.049 A 
ATOM     44  H   UNL A   1      42.268  27.125  29.284  1.00  0.00     0.167 HD
ATOM     45  C   UNL A   1      43.778  30.774  31.192  1.00  0.00     0.031 A 
ATOM     46  C   UNL A   1      42.517  24.568  28.199  1.00  0.00     0.031 A 
ATOM     47  C   UNL A   1      44.904  29.883  31.149  1.00  0.00     0.049 A 
ATOM     48  C   UNL A   1      43.891  24.958  28.685  1.00  0.00     0.074 A 
ATOM     49  C   UNL A   1      46.182  30.085  31.641  1.00  0.00     0.029 A 
ATOM     50  N   UNL A   1      44.890  28.623  30.570  1.00  0.00    -0.354 N 
ATOM     51  N   UNL A   1      44.276  26.057  29.287  1.00  0.00    -0.248 NA
ATOM     52  C   UNL A   1      44.969  23.979  28.477  1.00  0.00     0.031 C 
ATOM     53  C   UNL A   1      46.959  28.974  31.297  1.00  0.00     0.029 A 
ATOM     54  C   UNL A   1      46.145  28.048  30.663  1.00  0.00     0.049 A 
ATOM     55  H   UNL A   1      44.104  28.201  30.154  1.00  0.00     0.167 HD
ATOM     56  C   UNL A   1      45.628  25.887  29.564  1.00  0.00     0.074 A 
ATOM     57  C   UNL A   1      45.993  24.574  29.074  1.00  0.00     0.031 C 
ATOM     58  C   UNL A   1      46.490  26.738  30.173  1.00  0.00     0.031 A 
BRANCH  45  59
ATOM     59  C   UNL A   1      43.963  32.141  31.793  1.00  0.00    -0.014 A 
ATOM     60  C   UNL A   1      43.708  32.384  33.152  1.00  0.00     0.009 A 
ATOM     61  C   UNL A   1      44.418  33.196  30.988  1.00  0.00     0.009 A 
ATOM     62  C   UNL A   1      43.871  33.666  33.683  1.00  0.00     0.001 A 
ATOM     63  C   UNL A   1      44.611  34.469  31.528  1.00  0.00     0.001 A 
ATOM     64  C   UNL A   1      44.328  34.705  32.873  1.00  0.00     0.000 A 
ENDBRANCH  45  59
BRANCH  46  65
ATOM     65  C   UNL A   1      42.295  23.249  27.545  1.00  0.00    -0.014 A 
ATOM     66  C   UNL A   1      41.688  22.194  28.245  1.00  0.00     0.009 A 
ATOM     67  C   UNL A   1      42.718  23.028  26.225  1.00  0.00     0.009 A 
ATOM     68  C   UNL A   1      41.538  20.940  27.646  1.00  0.00     0.001 A 
ATOM     69  C   UNL A   1      42.536  21.783  25.618  1.00  0.00     0.001 A 
ATOM     70  C   UNL A   1      41.956  20.737  26.333  1.00  0.00     0.000 A 
ENDBRANCH  46  65
BRANCH  58  71
ATOM     71  C   UNL A   1      47.900  26.260  30.396  1.00  0.00    -0.014 A 
ATOM     72  C   UNL A   1      48.300  25.685  31.612  1.00  0.00     0.009 A 
ATOM     73  C   UNL A   1      48.829  26.340  29.346  1.00  0.00     0.009 A 
ATOM     74  C   UNL A   1      49.610  25.233  31.781  1.00  0.00     0.001 A 
ATOM     75  C   UNL A   1      50.127  25.856  29.506  1.00  0.00     0.001 A 
ATOM     76  C   UNL A   1      50.520  25.311  30.727  1.00  0.00     0.000 A 
ENDBRANCH  58  71
ENDBRANCH  32  33
ENDBRANCH  25  27
ENDBRANCH  24  25
ENDBRANCH  23  24
ENDBRANCH  22  23
ENDBRANCH  21  22
ENDBRANCH  20  21
ENDBRANCH   1  20
TORSDOF 21
ENDMDL
MODEL 3
REMARK VINA RESULT:      -8.8      4.211      9.245
REMARK SMILES CC1=NC(=O)[C@H](CC(=O)OCCOCCOCCOCCOC(=O)c2ccc(-c3c4nc(c(-c5ccccc5)c5ccc([nH]5)c(-c5ccccc5)c5nc(c(-c6ccccc6)c6ccc3[nH]6)C=C5)C=C4)cc2)CS1
REMARK SMILES IDX 17 1 16 2 15 3 14 4 13 5 12 6 11 7 10 8 8 9 9 10 7 11 6 12
REMARK SMILES IDX 1 13 2 14 3 15 74 16 4 17 73 18 5 19 18 20 19 21 20 22 21 23
REMARK SMILES IDX 22 24 23 25 24 26 25 27 26 28 72 29 27 30 71 31 28 32 29 33
REMARK SMILES IDX 30 34 65 35 31 36 70 37 64 38 66 39 32 40 69 41 63 42 62 43
REMARK SMILES IDX 33 45 55 46 40 47 54 48 41 49 44 50 53 51 67 52 42 53 43 54
REMARK SMILES IDX 52 56 68 57 45 58 34 59 35 60 39 61 36 62 38 63 37 64 56 65
REMARK SMILES IDX 57 66 61 67 58 68 60 69 59 70 46 71 47 72 51 73 48 74 50 75
REMARK SMILES IDX 49 76
REMARK H PARENT 66 44 44 55
REMARK Flexibility Score: inf
ROOT
ATOM      1  C   UNL A   1      30.611  27.625  23.456  1.00  0.00     0.188 C 
ENDROOT
BRANCH   1   2
ATOM      2  O   UNL A   1      31.043  26.357  23.009  1.00  0.00    -0.377 OA
BRANCH   2   3
ATOM      3  C   UNL A   1      31.675  26.338  21.747  1.00  0.00     0.188 C 
BRANCH   3   4
ATOM      4  C   UNL A   1      32.735  25.228  21.580  1.00  0.00     0.188 C 
BRANCH   4   5
ATOM      5  O   UNL A   1      33.952  25.284  22.310  1.00  0.00    -0.376 OA
BRANCH   5   6
ATOM      6  C   UNL A   1      33.952  24.930  23.680  1.00  0.00     0.202 C 
BRANCH   6   7
ATOM      7  C   UNL A   1      34.168  23.453  24.074  1.00  0.00     0.261 C 
BRANCH   7   8
ATOM      8  O   UNL A   1      33.720  22.413  23.169  1.00  0.00    -0.463 OA
BRANCH   8   9
ATOM      9  C   UNL A   1      32.470  21.919  23.375  1.00  0.00     0.306 C 
ATOM     10  O   UNL A   1      31.602  22.507  24.009  1.00  0.00    -0.252 OA
BRANCH   9  11
ATOM     11  C   UNL A   1      32.245  20.506  22.837  1.00  0.00     0.137 C 
BRANCH  11  12
ATOM     12  C   UNL A   1      32.211  19.277  23.777  1.00  0.00     0.102 C 
ATOM     13  C   UNL A   1      35.095  16.165  25.057  1.00  0.00     0.075 C 
ATOM     14  C   UNL A   1      34.278  17.256  24.425  1.00  0.00     0.074 C 
ATOM     15  N   UNL A   1      33.262  16.991  23.676  1.00  0.00    -0.211 NA
ATOM     16  S   UNL A   1      34.768  18.887  24.799  1.00  0.00    -0.110 SA
ATOM     17  C   UNL A   1      32.619  18.012  23.007  1.00  0.00     0.250 C 
ATOM     18  C   UNL A   1      33.066  19.448  25.034  1.00  0.00     0.090 C 
ATOM     19  O   UNL A   1      32.295  17.878  21.830  1.00  0.00    -0.272 OA
ENDBRANCH  11  12
ENDBRANCH   9  11
ENDBRANCH   8   9
ENDBRANCH   7   8
ENDBRANCH   6   7
ENDBRANCH   5   6
ENDBRANCH   4   5
ENDBRANCH   3   4
ENDBRANCH   2   3
ENDBRANCH   1   2
BRANCH   1  20
ATOM     20  C   UNL A   1      31.485  28.813  23.026  1.00  0.00     0.188 C 
BRANCH  20  21
ATOM     21  O   UNL A   1      32.669  28.922  23.809  1.00  0.00    -0.376 OA
BRANCH  21  22
ATOM     22  C   UNL A   1      32.622  28.701  25.205  1.00  0.00     0.202 C 
BRANCH  22  23
ATOM     23  C   UNL A   1      33.940  28.620  25.996  1.00  0.00     0.261 C 
BRANCH  23  24
ATOM     24  O   UNL A   1      33.904  28.987  27.379  1.00  0.00    -0.460 OA
BRANCH  24  25
ATOM     25  C   UNL A   1      34.462  30.168  27.731  1.00  0.00     0.338 C 
ATOM     26  O   UNL A   1      33.905  31.237  27.836  1.00  0.00    -0.246 OA
BRANCH  25  27
ATOM     27  C   UNL A   1      35.849  29.879  28.172  1.00  0.00     0.060 A 
ATOM     28  C   UNL A   1      36.901  30.095  27.272  1.00  0.00     0.016 A 
ATOM     29  C   UNL A   1      36.112  29.447  29.474  1.00  0.00     0.016 A 
ATOM     30  C   UNL A   1      38.219  29.868  27.667  1.00  0.00     0.010 A 
ATOM     31  C   UNL A   1      37.429  29.183  29.858  1.00  0.00     0.010 A 
ATOM     32  C   UNL A   1      38.485  29.366  28.947  1.00  0.00    -0.014 A 
BRANCH  32  33
ATOM     33  C   UNL A   1      39.827  28.815  29.252  1.00  0.00     0.031 A 
ATOM     34  C   UNL A   1      40.780  29.682  30.027  1.00  0.00     0.074 A 
ATOM     35  C   UNL A   1      40.189  27.578  28.872  1.00  0.00     0.049 A 
ATOM     36  N   UNL A   1      42.019  29.450  30.378  1.00  0.00    -0.248 NA
ATOM     37  C   UNL A   1      40.263  30.990  30.465  1.00  0.00     0.031 C 
ATOM     38  C   UNL A   1      39.338  26.622  28.166  1.00  0.00     0.029 A 
ATOM     39  N   UNL A   1      41.383  26.918  29.027  1.00  0.00    -0.354 N 
ATOM     40  C   UNL A   1      42.430  30.585  31.066  1.00  0.00     0.074 A 
ATOM     41  C   UNL A   1      41.323  31.515  31.059  1.00  0.00     0.031 C 
ATOM     42  C   UNL A   1      40.043  25.500  27.938  1.00  0.00     0.029 A 
ATOM     43  C   UNL A   1      41.403  25.672  28.448  1.00  0.00     0.049 A 
ATOM     44  H   UNL A   1      42.153  27.301  29.507  1.00  0.00     0.167 HD
ATOM     45  C   UNL A   1      43.623  30.831  31.656  1.00  0.00     0.031 A 
ATOM     46  C   UNL A   1      42.412  24.788  28.326  1.00  0.00     0.031 A 
ATOM     47  C   UNL A   1      44.731  29.916  31.638  1.00  0.00     0.049 A 
ATOM     48  C   UNL A   1      43.762  25.125  28.906  1.00  0.00     0.074 A 
ATOM     49  C   UNL A   1      45.982  30.067  32.211  1.00  0.00     0.029 A 
ATOM     50  N   UNL A   1      44.725  28.683  31.005  1.00  0.00    -0.354 N 
ATOM     51  N   UNL A   1      44.134  26.188  29.578  1.00  0.00    -0.248 NA
ATOM     52  C   UNL A   1      44.830  24.132  28.718  1.00  0.00     0.031 C 
ATOM     53  C   UNL A   1      46.754  28.955  31.864  1.00  0.00     0.029 A 
ATOM     54  C   UNL A   1      45.960  28.076  31.144  1.00  0.00     0.049 A 
ATOM     55  H   UNL A   1      43.956  28.298  30.526  1.00  0.00     0.167 HD
ATOM     56  C   UNL A   1      45.464  25.976  29.924  1.00  0.00     0.074 A 
ATOM     57  C   UNL A   1      45.830  24.677  29.398  1.00  0.00     0.031 C 
ATOM     58  C   UNL A   1      46.306  26.781  30.618  1.00  0.00     0.031 A 
BRANCH  45  59
ATOM     59  C   UNL A   1      43.800  32.165  32.325  1.00  0.00    -0.014 A 
ATOM     60  C   UNL A   1      43.430  32.369  33.665  1.00  0.00     0.009 A 
ATOM     61  C   UNL A   1      44.365  33.231  31.609  1.00  0.00     0.009 A 
ATOM     62  C   UNL A   1      43.589  33.622  34.260  1.00  0.00     0.001 A 
ATOM     63  C   UNL A   1      44.553  34.474  32.215  1.00  0.00     0.001 A 
ATOM     64  C   UNL A   1      44.156  34.671  33.537  1.00  0.00     0.000 A 
ENDBRANCH  45  59
BRANCH  46  65
ATOM     65  C   UNL A   1      42.201  23.503  27.603  1.00  0.00    -0.014 A 
ATOM     66  C   UNL A   1      41.693  22.378  28.272  1.00  0.00     0.009 A 
ATOM     67  C   UNL A   1      42.537  23.386  26.246  1.00  0.00     0.009 A 
ATOM     68  C   UNL A   1      41.555  21.159  27.603  1.00  0.00     0.001 A 
ATOM     69  C   UNL A   1      42.367  22.175  25.572  1.00  0.00     0.001 A 
ATOM     70  C   UNL A   1      41.886  21.059  26.254  1.00  0.00     0.000 A 
ENDBRANCH  46  65
BRANCH  58  71
ATOM     71  C   UNL A   1      47.691  26.261  30.900  1.00  0.00    -0.014 A 
ATOM     72  C   UNL A   1      48.727  26.376  29.960  1.00  0.00     0.009 A 
ATOM     73  C   UNL A   1      47.973  25.697  32.155  1.00  0.00     0.009 A 
ATOM     74  C   UNL A   1      50.006  25.902  30.260  1.00  0.00     0.001 A 
ATOM     75  C   UNL A   1      49.259  25.257  32.464  1.00  0.00     0.001 A 
ATOM     76  C   UNL A   1      50.274  25.350  31.513  1.00  0.00     0.000 A 
ENDBRANCH  58  71
ENDBRANCH  32  33
ENDBRANCH  25  27
ENDBRANCH  24  25
ENDBRANCH  23  24
ENDBRANCH  22  23
ENDBRANCH  21  22
ENDBRANCH  20  21
ENDBRANCH   1  20
TORSDOF 21
ENDMDL
