MODEL 1
REMARK VINA RESULT:     -11.0      0.000      0.000
REMARK SMILES Cc1cc([N+](=O)[O-])ccc1NC(=O)[C@@H]1[C@@H](C(=O)OCCOCCOCCOCCOC(=O)c2ccc(-c3c4nc(c(-c5ccccc5)c5ccc([nH]5)c(-c5ccccc5)c5nc(c(-c6ccccc6)c6ccc3[nH]6)C=C5)C=C4)cc2)[C@H]2C=C[C@@H]1C2
REMARK SMILES IDX 23 1 22 2 21 3 20 4 19 5 18 6 16 7 17 8 15 9 14 10 84 11
REMARK SMILES IDX 81 12 83 13 85 14 82 15 12 16 11 17 13 19 10 20 1 21 2 22
REMARK SMILES IDX 3 23 4 24 9 25 8 26 5 27 6 28 7 29 24 30 25 31 26 32 27 33
REMARK SMILES IDX 28 34 29 35 30 36 31 37 32 38 33 39 34 40 80 41 35 42 79 43
REMARK SMILES IDX 36 44 37 45 38 46 73 47 39 48 78 49 72 50 74 51 40 52 77 53
REMARK SMILES IDX 71 54 70 55 41 57 63 58 48 59 62 60 49 61 52 62 61 63 75 64
REMARK SMILES IDX 50 65 51 66 60 68 76 69 53 70 42 71 43 72 47 73 44 74 46 75
REMARK SMILES IDX 45 76 64 77 65 78 69 79 66 80 68 81 67 82 54 83 55 84 59 85
REMARK SMILES IDX 56 86 58 87 57 88
REMARK H PARENT 11 18 74 56 52 67
REMARK Flexibility Score: inf
ROOT
ATOM      1  C   UNL A   1      31.336  28.325  25.053  1.00  0.00     0.188 C 
ENDROOT
BRANCH   1   2
ATOM      2  C   UNL A   1      30.442  27.702  23.996  1.00  0.00     0.188 C 
BRANCH   2   3
ATOM      3  O   UNL A   1      29.687  26.537  24.288  1.00  0.00    -0.376 OA
BRANCH   3   4
ATOM      4  C   UNL A   1      30.390  25.286  24.287  1.00  0.00     0.202 C 
BRANCH   4   5
ATOM      5  C   UNL A   1      31.076  24.570  25.513  1.00  0.00     0.261 C 
BRANCH   5   6
ATOM      6  O   UNL A   1      32.457  24.829  25.850  1.00  0.00    -0.463 OA
BRANCH   6   7
ATOM      7  C   UNL A   1      33.122  23.697  25.789  1.00  0.00     0.310 C 
ATOM      8  O   UNL A   1      32.654  22.695  26.324  1.00  0.00    -0.252 OA
BRANCH   7   9
ATOM      9  C   UNL A   1      34.277  23.582  24.849  1.00  0.00     0.119 C 
ATOM     10  C   UNL A   1      34.119  22.094  24.427  1.00  0.00     0.100 C 
ATOM     11  C   UNL A   1      35.557  21.619  24.283  1.00  0.00     0.025 C 
ATOM     12  C   UNL A   1      35.782  23.692  25.134  1.00  0.00     0.027 C 
ATOM     13  C   UNL A   1      36.057  21.498  25.727  1.00  0.00    -0.027 C 
ATOM     14  C   UNL A   1      36.308  22.894  23.914  1.00  0.00     0.017 C 
ATOM     15  C   UNL A   1      36.192  22.741  26.219  1.00  0.00    -0.027 C 
BRANCH  10  16
ATOM     16  C   UNL A   1      33.082  22.044  23.317  1.00  0.00     0.228 C 
ATOM     17  N   UNL A   1      32.273  20.935  23.182  1.00  0.00    -0.326 N 
ATOM     18  H   UNL A   1      31.491  21.052  22.596  1.00  0.00     0.169 HD
ATOM     19  O   UNL A   1      32.892  23.012  22.575  1.00  0.00    -0.274 OA
BRANCH  17  20
ATOM     20  C   UNL A   1      32.409  19.652  23.766  1.00  0.00     0.044 A 
ATOM     21  C   UNL A   1      32.182  18.587  21.461  1.00  0.00     0.047 C 
ATOM     22  C   UNL A   1      32.547  18.551  22.918  1.00  0.00    -0.021 A 
ATOM     23  C   UNL A   1      33.072  17.356  23.454  1.00  0.00     0.091 A 
ATOM     24  C   UNL A   1      33.379  17.251  24.820  1.00  0.00     0.269 A 
ATOM     25  C   UNL A   1      32.512  19.427  25.149  1.00  0.00     0.033 A 
ATOM     26  C   UNL A   1      33.034  18.265  25.689  1.00  0.00     0.088 A 
BRANCH  24  27
ATOM     27  N   UNL A   1      34.073  16.083  25.353  1.00  0.00     0.062 N 
ATOM     28  O   UNL A   1      35.288  15.988  25.137  1.00  0.00    -0.258 OA
ATOM     29  O   UNL A   1      33.405  15.265  26.006  1.00  0.00    -0.258 OA
ENDBRANCH  24  27
ENDBRANCH  17  20
ENDBRANCH  10  16
ENDBRANCH   7   9
ENDBRANCH   6   7
ENDBRANCH   5   6
ENDBRANCH   4   5
ENDBRANCH   3   4
ENDBRANCH   2   3
ENDBRANCH   1   2
BRANCH   1  30
ATOM     30  O   UNL A   1      32.576  28.773  24.484  1.00  0.00    -0.377 OA
BRANCH  30  31
ATOM     31  C   UNL A   1      33.668  28.752  25.397  1.00  0.00     0.188 C 
BRANCH  31  32
ATOM     32  C   UNL A   1      33.169  28.916  26.817  1.00  0.00     0.188 C 
BRANCH  32  33
ATOM     33  O   UNL A   1      34.250  29.390  27.620  1.00  0.00    -0.376 OA
BRANCH  33  34
ATOM     34  C   UNL A   1      34.538  30.777  27.472  1.00  0.00     0.202 C 
BRANCH  34  35
ATOM     35  C   UNL A   1      33.311  31.674  27.677  1.00  0.00     0.261 C 
BRANCH  35  36
ATOM     36  O   UNL A   1      33.734  33.054  27.647  1.00  0.00    -0.460 OA
BRANCH  36  37
ATOM     37  C   UNL A   1      33.507  33.759  28.779  1.00  0.00     0.338 C 
ATOM     38  O   UNL A   1      32.576  34.557  28.943  1.00  0.00    -0.246 OA
BRANCH  37  39
ATOM     39  C   UNL A   1      34.672  33.664  29.699  1.00  0.00     0.060 A 
ATOM     40  C   UNL A   1      35.947  34.072  29.267  1.00  0.00     0.016 A 
ATOM     41  C   UNL A   1      34.557  32.874  30.838  1.00  0.00     0.016 A 
ATOM     42  C   UNL A   1      37.100  33.567  29.885  1.00  0.00     0.010 A 
ATOM     43  C   UNL A   1      35.692  32.285  31.357  1.00  0.00     0.010 A 
ATOM     44  C   UNL A   1      36.975  32.596  30.878  1.00  0.00    -0.014 A 
BRANCH  44  45
ATOM     45  C   UNL A   1      38.057  31.675  31.298  1.00  0.00     0.031 A 
ATOM     46  C   UNL A   1      38.278  30.374  30.541  1.00  0.00     0.074 A 
ATOM     47  C   UNL A   1      39.036  32.275  32.023  1.00  0.00     0.049 A 
ATOM     48  N   UNL A   1      39.205  29.492  30.752  1.00  0.00    -0.248 NA
ATOM     49  C   UNL A   1      37.398  29.953  29.444  1.00  0.00     0.031 C 
ATOM     50  C   UNL A   1      40.457  32.154  31.814  1.00  0.00     0.029 A 
ATOM     51  N   UNL A   1      39.049  33.299  32.933  1.00  0.00    -0.354 N 
ATOM     52  C   UNL A   1      39.256  28.623  29.653  1.00  0.00     0.074 A 
ATOM     53  C   UNL A   1      38.041  28.900  28.931  1.00  0.00     0.031 C 
ATOM     54  C   UNL A   1      41.202  32.823  32.692  1.00  0.00     0.029 A 
ATOM     55  C   UNL A   1      40.269  33.351  33.619  1.00  0.00     0.049 A 
ATOM     56  H   UNL A   1      38.298  33.917  33.085  1.00  0.00     0.167 HD
ATOM     57  C   UNL A   1      40.388  27.889  29.367  1.00  0.00     0.031 A 
ATOM     58  C   UNL A   1      40.366  33.127  34.949  1.00  0.00     0.031 A 
ATOM     59  C   UNL A   1      41.419  28.012  30.429  1.00  0.00     0.049 A 
ATOM     60  C   UNL A   1      40.923  31.719  35.202  1.00  0.00     0.074 A 
ATOM     61  C   UNL A   1      42.780  28.284  30.430  1.00  0.00     0.029 A 
ATOM     62  N   UNL A   1      41.035  28.075  31.775  1.00  0.00    -0.354 N 
ATOM     63  N   UNL A   1      40.963  30.770  34.280  1.00  0.00    -0.248 NA
ATOM     64  C   UNL A   1      41.606  31.297  36.423  1.00  0.00     0.031 C 
ATOM     65  C   UNL A   1      43.152  28.685  31.742  1.00  0.00     0.029 A 
ATOM     66  C   UNL A   1      42.046  28.573  32.572  1.00  0.00     0.049 A 
ATOM     67  H   UNL A   1      40.151  27.798  32.111  1.00  0.00     0.167 HD
ATOM     68  C   UNL A   1      41.658  29.680  34.737  1.00  0.00     0.074 A 
ATOM     69  C   UNL A   1      42.028  30.060  36.093  1.00  0.00     0.031 C 
ATOM     70  C   UNL A   1      41.938  28.542  34.027  1.00  0.00     0.031 A 
BRANCH  57  71
ATOM     71  C   UNL A   1      40.719  27.252  27.986  1.00  0.00    -0.014 A 
ATOM     72  C   UNL A   1      40.550  25.862  27.779  1.00  0.00     0.009 A 
ATOM     73  C   UNL A   1      41.276  27.922  26.878  1.00  0.00     0.009 A 
ATOM     74  C   UNL A   1      40.962  25.190  26.609  1.00  0.00     0.001 A 
ATOM     75  C   UNL A   1      41.655  27.268  25.683  1.00  0.00     0.001 A 
ATOM     76  C   UNL A   1      41.516  25.896  25.555  1.00  0.00     0.000 A 
ENDBRANCH  57  71
BRANCH  58  77
ATOM     77  C   UNL A   1      39.483  34.143  35.623  1.00  0.00    -0.014 A 
ATOM     78  C   UNL A   1      38.601  33.530  36.565  1.00  0.00     0.009 A 
ATOM     79  C   UNL A   1      40.043  35.380  35.999  1.00  0.00     0.009 A 
ATOM     80  C   UNL A   1      38.586  33.932  37.913  1.00  0.00     0.001 A 
ATOM     81  C   UNL A   1      39.988  35.802  37.349  1.00  0.00     0.001 A 
ATOM     82  C   UNL A   1      39.326  35.038  38.314  1.00  0.00     0.000 A 
ENDBRANCH  58  77
BRANCH  70  83
ATOM     83  C   UNL A   1      42.202  27.196  34.669  1.00  0.00    -0.014 A 
ATOM     84  C   UNL A   1      41.190  26.431  35.258  1.00  0.00     0.009 A 
ATOM     85  C   UNL A   1      43.449  26.551  34.473  1.00  0.00     0.009 A 
ATOM     86  C   UNL A   1      41.419  25.114  35.667  1.00  0.00     0.001 A 
ATOM     87  C   UNL A   1      43.667  25.223  34.835  1.00  0.00     0.001 A 
ATOM     88  C   UNL A   1      42.650  24.506  35.444  1.00  0.00     0.000 A 
ENDBRANCH  70  83
ENDBRANCH  44  45
ENDBRANCH  37  39
ENDBRANCH  36  37
ENDBRANCH  35  36
ENDBRANCH  34  35
ENDBRANCH  33  34
ENDBRANCH  32  33
ENDBRANCH  31  32
ENDBRANCH  30  31
ENDBRANCH   1  30
TORSDOF 23
ENDMDL
MODEL 2
REMARK VINA RESULT:     -10.4      1.969      3.132
REMARK SMILES Cc1cc([N+](=O)[O-])ccc1NC(=O)[C@@H]1[C@@H](C(=O)OCCOCCOCCOCCOC(=O)c2ccc(-c3c4nc(c(-c5ccccc5)c5ccc([nH]5)c(-c5ccccc5)c5nc(c(-c6ccccc6)c6ccc3[nH]6)C=C5)C=C4)cc2)[C@H]2C=C[C@@H]1C2
REMARK SMILES IDX 23 1 22 2 21 3 20 4 19 5 18 6 16 7 17 8 15 9 14 10 84 11
REMARK SMILES IDX 81 12 83 13 85 14 82 15 12 16 11 17 13 19 10 20 1 21 2 22
REMARK SMILES IDX 3 23 4 24 9 25 8 26 5 27 6 28 7 29 24 30 25 31 26 32 27 33
REMARK SMILES IDX 28 34 29 35 30 36 31 37 32 38 33 39 34 40 80 41 35 42 79 43
REMARK SMILES IDX 36 44 37 45 38 46 73 47 39 48 78 49 72 50 74 51 40 52 77 53
REMARK SMILES IDX 71 54 70 55 41 57 63 58 48 59 62 60 49 61 52 62 61 63 75 64
REMARK SMILES IDX 50 65 51 66 60 68 76 69 53 70 42 71 43 72 47 73 44 74 46 75
REMARK SMILES IDX 45 76 64 77 65 78 69 79 66 80 68 81 67 82 54 83 55 84 59 85
REMARK SMILES IDX 56 86 58 87 57 88
REMARK H PARENT 11 18 74 56 52 67
REMARK Flexibility Score: inf
ROOT
ATOM      1  C   UNL A   1      30.894  26.726  26.006  1.00  0.00     0.188 C 
ENDROOT
BRANCH   1   2
ATOM      2  C   UNL A   1      30.424  25.302  25.768  1.00  0.00     0.188 C 
BRANCH   2   3
ATOM      3  O   UNL A   1      30.201  24.425  26.860  1.00  0.00    -0.376 OA
BRANCH   3   4
ATOM      4  C   UNL A   1      30.879  23.161  26.832  1.00  0.00     0.202 C 
BRANCH   4   5
ATOM      5  C   UNL A   1      32.266  22.800  27.488  1.00  0.00     0.261 C 
BRANCH   5   6
ATOM      6  O   UNL A   1      33.417  23.659  27.317  1.00  0.00    -0.463 OA
BRANCH   6   7
ATOM      7  C   UNL A   1      34.400  22.944  26.816  1.00  0.00     0.310 C 
ATOM      8  O   UNL A   1      34.522  21.769  27.156  1.00  0.00    -0.252 OA
BRANCH   7   9
ATOM      9  C   UNL A   1      35.169  23.479  25.653  1.00  0.00     0.119 C 
ATOM     10  C   UNL A   1      34.734  22.458  24.565  1.00  0.00     0.100 C 
ATOM     11  C   UNL A   1      35.992  22.286  23.727  1.00  0.00     0.025 C 
ATOM     12  C   UNL A   1      36.688  23.566  25.445  1.00  0.00     0.027 C 
ATOM     13  C   UNL A   1      36.919  21.446  24.612  1.00  0.00    -0.027 C 
ATOM     14  C   UNL A   1      36.707  23.623  23.896  1.00  0.00     0.017 C 
ATOM     15  C   UNL A   1      37.331  22.222  25.628  1.00  0.00    -0.027 C 
BRANCH  10  16
ATOM     16  C   UNL A   1      33.394  22.920  24.019  1.00  0.00     0.228 C 
ATOM     17  N   UNL A   1      32.343  22.029  23.931  1.00  0.00    -0.326 N 
ATOM     18  H   UNL A   1      31.459  22.434  23.780  1.00  0.00     0.169 HD
ATOM     19  O   UNL A   1      33.197  24.101  23.720  1.00  0.00    -0.274 OA
BRANCH  17  20
ATOM     20  C   UNL A   1      32.357  20.617  24.029  1.00  0.00     0.044 A 
ATOM     21  C   UNL A   1      31.813  20.447  21.544  1.00  0.00     0.047 C 
ATOM     22  C   UNL A   1      32.284  19.872  22.850  1.00  0.00    -0.021 A 
ATOM     23  C   UNL A   1      32.691  18.522  22.885  1.00  0.00     0.091 A 
ATOM     24  C   UNL A   1      33.089  17.919  24.090  1.00  0.00     0.269 A 
ATOM     25  C   UNL A   1      32.540  19.916  25.233  1.00  0.00     0.033 A 
ATOM     26  C   UNL A   1      32.948  18.595  25.284  1.00  0.00     0.088 A 
BRANCH  24  27
ATOM     27  N   UNL A   1      33.666  16.578  24.112  1.00  0.00     0.062 N 
ATOM     28  O   UNL A   1      33.973  16.068  23.028  1.00  0.00    -0.258 OA
ATOM     29  O   UNL A   1      33.829  16.041  25.219  1.00  0.00    -0.258 OA
ENDBRANCH  24  27
ENDBRANCH  17  20
ENDBRANCH  10  16
ENDBRANCH   7   9
ENDBRANCH   6   7
ENDBRANCH   5   6
ENDBRANCH   4   5
ENDBRANCH   3   4
ENDBRANCH   2   3
ENDBRANCH   1   2
BRANCH   1  30
ATOM     30  O   UNL A   1      32.020  27.045  25.174  1.00  0.00    -0.377 OA
BRANCH  30  31
ATOM     31  C   UNL A   1      32.683  28.250  25.543  1.00  0.00     0.188 C 
BRANCH  31  32
ATOM     32  C   UNL A   1      33.055  28.218  27.010  1.00  0.00     0.188 C 
BRANCH  32  33
ATOM     33  O   UNL A   1      32.687  29.468  27.593  1.00  0.00    -0.376 OA
BRANCH  33  34
ATOM     34  C   UNL A   1      32.637  30.559  26.679  1.00  0.00     0.202 C 
BRANCH  34  35
ATOM     35  C   UNL A   1      33.146  31.875  27.281  1.00  0.00     0.261 C 
BRANCH  35  36
ATOM     36  O   UNL A   1      34.033  31.572  28.379  1.00  0.00    -0.460 OA
BRANCH  36  37
ATOM     37  C   UNL A   1      35.349  31.783  28.142  1.00  0.00     0.338 C 
ATOM     38  O   UNL A   1      35.822  32.803  27.627  1.00  0.00    -0.246 OA
BRANCH  37  39
ATOM     39  C   UNL A   1      36.123  30.525  28.323  1.00  0.00     0.060 A 
ATOM     40  C   UNL A   1      36.072  29.836  29.548  1.00  0.00     0.016 A 
ATOM     41  C   UNL A   1      37.135  30.231  27.415  1.00  0.00     0.016 A 
ATOM     42  C   UNL A   1      37.111  28.970  29.919  1.00  0.00     0.010 A 
ATOM     43  C   UNL A   1      38.212  29.479  27.839  1.00  0.00     0.010 A 
ATOM     44  C   UNL A   1      38.235  28.860  29.100  1.00  0.00    -0.014 A 
BRANCH  44  45
ATOM     45  C   UNL A   1      39.556  28.359  29.545  1.00  0.00     0.031 A 
ATOM     46  C   UNL A   1      40.109  27.067  28.963  1.00  0.00     0.074 A 
ATOM     47  C   UNL A   1      40.352  29.317  30.084  1.00  0.00     0.049 A 
ATOM     48  N   UNL A   1      41.262  26.524  29.210  1.00  0.00    -0.248 NA
ATOM     49  C   UNL A   1      39.338  26.244  28.022  1.00  0.00     0.031 C 
ATOM     50  C   UNL A   1      41.736  29.566  29.765  1.00  0.00     0.029 A 
ATOM     51  N   UNL A   1      40.110  30.437  30.835  1.00  0.00    -0.354 N 
ATOM     52  C   UNL A   1      41.510  25.539  28.244  1.00  0.00     0.074 A 
ATOM     53  C   UNL A   1      40.234  25.344  27.605  1.00  0.00     0.031 C 
ATOM     54  C   UNL A   1      42.295  30.550  30.468  1.00  0.00     0.029 A 
ATOM     55  C   UNL A   1      41.294  30.938  31.392  1.00  0.00     0.049 A 
ATOM     56  H   UNL A   1      39.220  30.837  30.967  1.00  0.00     0.167 HD
ATOM     57  C   UNL A   1      42.791  25.114  27.963  1.00  0.00     0.031 A 
ATOM     58  C   UNL A   1      41.514  30.969  32.725  1.00  0.00     0.031 A 
ATOM     59  C   UNL A   1      43.791  25.691  28.898  1.00  0.00     0.049 A 
ATOM     60  C   UNL A   1      42.468  29.833  33.123  1.00  0.00     0.074 A 
ATOM     61  C   UNL A   1      45.014  26.328  28.735  1.00  0.00     0.029 A 
ATOM     62  N   UNL A   1      43.470  25.861  30.251  1.00  0.00    -0.354 N 
ATOM     63  N   UNL A   1      42.738  28.796  32.345  1.00  0.00    -0.248 NA
ATOM     64  C   UNL A   1      43.301  29.822  34.324  1.00  0.00     0.031 C 
ATOM     65  C   UNL A   1      45.314  27.024  29.938  1.00  0.00     0.029 A 
ATOM     66  C   UNL A   1      44.329  26.743  30.873  1.00  0.00     0.049 A 
ATOM     67  H   UNL A   1      42.722  25.406  30.702  1.00  0.00     0.167 HD
ATOM     68  C   UNL A   1      43.740  28.034  32.886  1.00  0.00     0.074 A 
ATOM     69  C   UNL A   1      44.048  28.716  34.134  1.00  0.00     0.031 C 
ATOM     70  C   UNL A   1      44.304  26.920  32.321  1.00  0.00     0.031 A 
BRANCH  57  71
ATOM     71  C   UNL A   1      43.227  24.380  26.661  1.00  0.00    -0.014 A 
ATOM     72  C   UNL A   1      42.809  23.050  26.415  1.00  0.00     0.009 A 
ATOM     73  C   UNL A   1      44.106  24.885  25.681  1.00  0.00     0.009 A 
ATOM     74  C   UNL A   1      43.277  22.272  25.335  1.00  0.00     0.001 A 
ATOM     75  C   UNL A   1      44.550  24.130  24.572  1.00  0.00     0.001 A 
ATOM     76  C   UNL A   1      44.151  22.814  24.408  1.00  0.00     0.000 A 
ENDBRANCH  57  71
BRANCH  58  77
ATOM     77  C   UNL A   1      40.408  31.793  33.328  1.00  0.00    -0.014 A 
ATOM     78  C   UNL A   1      39.453  30.975  34.006  1.00  0.00     0.009 A 
ATOM     79  C   UNL A   1      40.737  33.017  33.943  1.00  0.00     0.009 A 
ATOM     80  C   UNL A   1      39.147  31.188  35.362  1.00  0.00     0.001 A 
ATOM     81  C   UNL A   1      40.389  33.245  35.296  1.00  0.00     0.001 A 
ATOM     82  C   UNL A   1      39.662  32.297  36.021  1.00  0.00     0.000 A 
ENDBRANCH  58  77
BRANCH  70  83
ATOM     83  C   UNL A   1      44.978  25.823  33.120  1.00  0.00    -0.014 A 
ATOM     84  C   UNL A   1      46.203  26.010  33.769  1.00  0.00     0.009 A 
ATOM     85  C   UNL A   1      44.264  24.643  33.445  1.00  0.00     0.009 A 
ATOM     86  C   UNL A   1      46.708  25.055  34.657  1.00  0.00     0.001 A 
ATOM     87  C   UNL A   1      44.740  23.712  34.366  1.00  0.00     0.001 A 
ATOM     88  C   UNL A   1      45.972  23.914  34.965  1.00  0.00     0.000 A 
ENDBRANCH  70  83
ENDBRANCH  44  45
ENDBRANCH  37  39
ENDBRANCH  36  37
ENDBRANCH  35  36
ENDBRANCH  34  35
ENDBRANCH  33  34
ENDBRANCH  32  33
ENDBRANCH  31  32
ENDBRANCH  30  31
ENDBRANCH   1  30
TORSDOF 23
ENDMDL
MODEL 3
REMARK VINA RESULT:     -10.0      5.386     10.951
REMARK SMILES Cc1cc([N+](=O)[O-])ccc1NC(=O)[C@@H]1[C@@H](C(=O)OCCOCCOCCOCCOC(=O)c2ccc(-c3c4nc(c(-c5ccccc5)c5ccc([nH]5)c(-c5ccccc5)c5nc(c(-c6ccccc6)c6ccc3[nH]6)C=C5)C=C4)cc2)[C@H]2C=C[C@@H]1C2
REMARK SMILES IDX 23 1 22 2 21 3 20 4 19 5 18 6 16 7 17 8 15 9 14 10 84 11
REMARK SMILES IDX 81 12 83 13 85 14 82 15 12 16 11 17 13 19 10 20 1 21 2 22
REMARK SMILES IDX 3 23 4 24 9 25 8 26 5 27 6 28 7 29 24 30 25 31 26 32 27 33
REMARK SMILES IDX 28 34 29 35 30 36 31 37 32 38 33 39 34 40 80 41 35 42 79 43
REMARK SMILES IDX 36 44 37 45 38 46 73 47 39 48 78 49 72 50 74 51 40 52 77 53
REMARK SMILES IDX 71 54 70 55 41 57 63 58 48 59 62 60 49 61 52 62 61 63 75 64
REMARK SMILES IDX 50 65 51 66 60 68 76 69 53 70 42 71 43 72 47 73 44 74 46 75
REMARK SMILES IDX 45 76 64 77 65 78 69 79 66 80 68 81 67 82 54 83 55 84 59 85
REMARK SMILES IDX 56 86 58 87 57 88
REMARK H PARENT 11 18 74 56 52 67
REMARK Flexibility Score: inf
ROOT
ATOM      1  C   UNL A   1      39.251  23.689  26.205  1.00  0.00     0.188 C 
ENDROOT
BRANCH   1   2
ATOM      2  C   UNL A   1      38.283  22.520  26.162  1.00  0.00     0.188 C 
BRANCH   2   3
ATOM      3  O   UNL A   1      38.155  21.735  24.988  1.00  0.00    -0.376 OA
BRANCH   3   4
ATOM      4  C   UNL A   1      36.886  21.760  24.320  1.00  0.00     0.202 C 
BRANCH   4   5
ATOM      5  C   UNL A   1      35.630  22.645  24.677  1.00  0.00     0.261 C 
BRANCH   5   6
ATOM      6  O   UNL A   1      35.394  23.907  24.012  1.00  0.00    -0.463 OA
BRANCH   6   7
ATOM      7  C   UNL A   1      34.232  24.377  24.409  1.00  0.00     0.310 C 
ATOM      8  O   UNL A   1      34.204  25.311  25.207  1.00  0.00    -0.252 OA
BRANCH   7   9
ATOM      9  C   UNL A   1      32.994  23.963  23.685  1.00  0.00     0.119 C 
ATOM     10  C   UNL A   1      32.258  25.330  23.631  1.00  0.00     0.100 C 
ATOM     11  C   UNL A   1      30.796  24.945  23.797  1.00  0.00     0.025 C 
ATOM     12  C   UNL A   1      31.882  23.000  24.127  1.00  0.00     0.027 C 
ATOM     13  C   UNL A   1      30.675  24.568  25.278  1.00  0.00    -0.027 C 
ATOM     14  C   UNL A   1      30.741  23.533  23.223  1.00  0.00     0.017 C 
ATOM     15  C   UNL A   1      31.321  23.405  25.458  1.00  0.00    -0.027 C 
BRANCH  10  16
ATOM     16  C   UNL A   1      32.814  26.098  22.443  1.00  0.00     0.228 C 
ATOM     17  N   UNL A   1      32.428  27.405  22.228  1.00  0.00    -0.326 N 
ATOM     18  H   UNL A   1      32.979  27.907  21.585  1.00  0.00     0.169 HD
ATOM     19  O   UNL A   1      33.670  25.603  21.704  1.00  0.00    -0.274 OA
BRANCH  17  20
ATOM     20  C   UNL A   1      31.351  28.126  22.799  1.00  0.00     0.044 A 
ATOM     21  C   UNL A   1      32.924  29.046  24.582  1.00  0.00     0.047 C 
ATOM     22  C   UNL A   1      31.635  29.047  23.811  1.00  0.00    -0.021 A 
ATOM     23  C   UNL A   1      30.672  30.035  24.104  1.00  0.00     0.091 A 
ATOM     24  C   UNL A   1      29.429  30.049  23.450  1.00  0.00     0.269 A 
ATOM     25  C   UNL A   1      30.024  28.044  22.345  1.00  0.00     0.033 A 
ATOM     26  C   UNL A   1      29.071  29.010  22.617  1.00  0.00     0.088 A 
BRANCH  24  27
ATOM     27  N   UNL A   1      28.494  31.156  23.624  1.00  0.00     0.062 N 
ATOM     28  O   UNL A   1      27.286  30.909  23.524  1.00  0.00    -0.258 OA
ATOM     29  O   UNL A   1      28.968  32.274  23.879  1.00  0.00    -0.258 OA
ENDBRANCH  24  27
ENDBRANCH  17  20
ENDBRANCH  10  16
ENDBRANCH   7   9
ENDBRANCH   6   7
ENDBRANCH   5   6
ENDBRANCH   4   5
ENDBRANCH   3   4
ENDBRANCH   2   3
ENDBRANCH   1   2
BRANCH   1  30
ATOM     30  O   UNL A   1      40.584  23.247  26.501  1.00  0.00    -0.377 OA
BRANCH  30  31
ATOM     31  C   UNL A   1      40.719  22.645  27.785  1.00  0.00     0.188 C 
BRANCH  31  32
ATOM     32  C   UNL A   1      41.454  21.327  27.673  1.00  0.00     0.188 C 
BRANCH  32  33
ATOM     33  O   UNL A   1      41.492  20.951  26.295  1.00  0.00    -0.376 OA
BRANCH  33  34
ATOM     34  C   UNL A   1      41.906  19.610  26.056  1.00  0.00     0.202 C 
BRANCH  34  35
ATOM     35  C   UNL A   1      43.254  19.514  25.332  1.00  0.00     0.261 C 
BRANCH  35  36
ATOM     36  O   UNL A   1      43.682  20.844  24.968  1.00  0.00    -0.460 OA
BRANCH  36  37
ATOM     37  C   UNL A   1      44.987  20.966  24.631  1.00  0.00     0.338 C 
ATOM     38  O   UNL A   1      45.653  20.104  24.046  1.00  0.00    -0.246 OA
BRANCH  37  39
ATOM     39  C   UNL A   1      45.592  22.151  25.297  1.00  0.00     0.060 A 
ATOM     40  C   UNL A   1      45.387  22.370  26.672  1.00  0.00     0.016 A 
ATOM     41  C   UNL A   1      46.063  23.192  24.503  1.00  0.00     0.016 A 
ATOM     42  C   UNL A   1      45.509  23.658  27.211  1.00  0.00     0.010 A 
ATOM     43  C   UNL A   1      46.058  24.474  25.014  1.00  0.00     0.010 A 
ATOM     44  C   UNL A   1      45.757  24.736  26.361  1.00  0.00    -0.014 A 
BRANCH  44  45
ATOM     45  C   UNL A   1      45.482  26.152  26.693  1.00  0.00     0.031 A 
ATOM     46  C   UNL A   1      44.046  26.652  26.746  1.00  0.00     0.074 A 
ATOM     47  C   UNL A   1      46.493  26.765  27.362  1.00  0.00     0.049 A 
ATOM     48  N   UNL A   1      43.640  27.842  27.066  1.00  0.00    -0.248 NA
ATOM     49  C   UNL A   1      42.909  25.790  26.397  1.00  0.00     0.031 C 
ATOM     50  C   UNL A   1      46.376  27.564  28.555  1.00  0.00     0.029 A 
ATOM     51  N   UNL A   1      47.858  26.653  27.323  1.00  0.00    -0.354 N 
ATOM     52  C   UNL A   1      42.259  27.796  27.302  1.00  0.00     0.074 A 
ATOM     53  C   UNL A   1      41.853  26.521  26.766  1.00  0.00     0.031 C 
ATOM     54  C   UNL A   1      47.525  28.079  28.988  1.00  0.00     0.029 A 
ATOM     55  C   UNL A   1      48.472  27.714  28.000  1.00  0.00     0.049 A 
ATOM     56  H   UNL A   1      48.343  25.922  26.876  1.00  0.00     0.167 HD
ATOM     57  C   UNL A   1      41.628  28.749  28.073  1.00  0.00     0.031 A 
ATOM     58  C   UNL A   1      49.249  28.625  27.372  1.00  0.00     0.031 A 
ATOM     59  C   UNL A   1      42.540  29.859  28.449  1.00  0.00     0.049 A 
ATOM     60  C   UNL A   1      48.469  29.934  27.182  1.00  0.00     0.074 A 
ATOM     61  C   UNL A   1      42.843  30.501  29.642  1.00  0.00     0.029 A 
ATOM     62  N   UNL A   1      43.493  30.324  27.533  1.00  0.00    -0.354 N 
ATOM     63  N   UNL A   1      47.153  30.026  27.295  1.00  0.00    -0.248 NA
ATOM     64  C   UNL A   1      49.076  31.251  27.002  1.00  0.00     0.031 C 
ATOM     65  C   UNL A   1      44.075  31.192  29.473  1.00  0.00     0.029 A 
ATOM     66  C   UNL A   1      44.485  31.055  28.155  1.00  0.00     0.049 A 
ATOM     67  H   UNL A   1      43.460  30.149  26.564  1.00  0.00     0.167 HD
ATOM     68  C   UNL A   1      46.754  31.336  27.238  1.00  0.00     0.074 A 
ATOM     69  C   UNL A   1      47.999  32.061  27.040  1.00  0.00     0.031 C 
ATOM     70  C   UNL A   1      45.470  31.797  27.376  1.00  0.00     0.031 A 
BRANCH  57  71
ATOM     71  C   UNL A   1      40.237  28.577  28.751  1.00  0.00    -0.014 A 
ATOM     72  C   UNL A   1      39.060  29.001  28.088  1.00  0.00     0.009 A 
ATOM     73  C   UNL A   1      40.006  28.097  30.055  1.00  0.00     0.009 A 
ATOM     74  C   UNL A   1      37.785  29.012  28.691  1.00  0.00     0.001 A 
ATOM     75  C   UNL A   1      38.728  28.063  30.657  1.00  0.00     0.001 A 
ATOM     76  C   UNL A   1      37.617  28.540  29.982  1.00  0.00     0.000 A 
ENDBRANCH  57  71
BRANCH  58  77
ATOM     77  C   UNL A   1      50.372  27.861  26.722  1.00  0.00    -0.014 A 
ATOM     78  C   UNL A   1      50.481  28.171  25.332  1.00  0.00     0.009 A 
ATOM     79  C   UNL A   1      51.581  27.706  27.430  1.00  0.00     0.009 A 
ATOM     80  C   UNL A   1      51.685  28.658  24.789  1.00  0.00     0.001 A 
ATOM     81  C   UNL A   1      52.796  28.159  26.862  1.00  0.00     0.001 A 
ATOM     82  C   UNL A   1      52.830  28.702  25.575  1.00  0.00     0.000 A 
ENDBRANCH  58  77
BRANCH  70  83
ATOM     83  C   UNL A   1      44.982  33.107  26.790  1.00  0.00    -0.014 A 
ATOM     84  C   UNL A   1      44.183  33.167  25.644  1.00  0.00     0.009 A 
ATOM     85  C   UNL A   1      45.113  34.306  27.533  1.00  0.00     0.009 A 
ATOM     86  C   UNL A   1      43.585  34.363  25.237  1.00  0.00     0.001 A 
ATOM     87  C   UNL A   1      44.480  35.490  27.158  1.00  0.00     0.001 A 
ATOM     88  C   UNL A   1      43.722  35.520  25.999  1.00  0.00     0.000 A 
ENDBRANCH  70  83
ENDBRANCH  44  45
ENDBRANCH  37  39
ENDBRANCH  36  37
ENDBRANCH  35  36
ENDBRANCH  34  35
ENDBRANCH  33  34
ENDBRANCH  32  33
ENDBRANCH  31  32
ENDBRANCH  30  31
ENDBRANCH   1  30
TORSDOF 23
ENDMDL
