MODEL 1
REMARK VINA RESULT:      -8.9      0.000      0.000
REMARK SMILES O=C(OCCOCCOCCOCCOC(=O)[C@H]1C[C@H]2CCCC[C@@H]2[N@@H+]1CC[C@@H]1CCCO1)c1ccc(-c2c3nc(c(-c4ccccc4)c4ccc([nH]4)c(-c4ccccc4)c4nc(c(-c5ccccc5)c5ccc2[nH]5)C=C4)C=C3)cc1
REMARK SMILES IDX 10 1 9 2 8 3 7 4 6 5 5 6 4 7 3 8 2 9 1 10 34 11 35 12 81 13
REMARK SMILES IDX 36 14 80 15 37 16 38 17 39 18 74 19 40 20 79 21 73 22 75 23
REMARK SMILES IDX 41 24 78 25 72 26 71 27 42 29 64 30 49 31 63 32 50 33 53 34
REMARK SMILES IDX 62 35 76 36 51 37 52 38 61 40 77 41 54 42 43 43 44 44 48 45
REMARK SMILES IDX 45 46 47 47 46 48 65 49 66 50 70 51 67 52 69 53 68 54 55 55
REMARK SMILES IDX 56 56 60 57 57 58 59 59 58 60 11 61 12 62 13 63 14 64 15 65
REMARK SMILES IDX 16 66 17 67 18 68 19 69 26 70 20 71 25 72 21 74 24 75 22 76
REMARK SMILES IDX 23 77 27 78 28 79 29 80 30 81 33 82 31 83 32 84
REMARK H PARENT 75 28 53 39 26 73
REMARK Flexibility Score: inf
ROOT
ATOM      1  C   UNL A   1      39.651  23.616  26.764  1.00  0.00     0.188 C 
ENDROOT
BRANCH   1   2
ATOM      2  O   UNL A   1      40.318  22.569  26.064  1.00  0.00    -0.377 OA
BRANCH   2   3
ATOM      3  C   UNL A   1      41.472  21.983  26.672  1.00  0.00     0.188 C 
BRANCH   3   4
ATOM      4  C   UNL A   1      41.140  20.844  27.632  1.00  0.00     0.188 C 
BRANCH   4   5
ATOM      5  O   UNL A   1      40.955  19.663  26.861  1.00  0.00    -0.376 OA
BRANCH   5   6
ATOM      6  C   UNL A   1      41.844  19.464  25.777  1.00  0.00     0.202 C 
BRANCH   6   7
ATOM      7  C   UNL A   1      42.971  18.471  26.057  1.00  0.00     0.261 C 
BRANCH   7   8
ATOM      8  O   UNL A   1      44.251  18.885  25.538  1.00  0.00    -0.460 OA
BRANCH   8   9
ATOM      9  C   UNL A   1      44.460  19.789  24.544  1.00  0.00     0.338 C 
ATOM     10  O   UNL A   1      44.256  19.488  23.374  1.00  0.00    -0.246 OA
BRANCH   9  11
ATOM     11  C   UNL A   1      44.883  21.175  24.860  1.00  0.00     0.060 A 
ATOM     12  C   UNL A   1      45.653  21.477  25.977  1.00  0.00     0.016 A 
ATOM     13  C   UNL A   1      44.577  22.201  23.963  1.00  0.00     0.016 A 
ATOM     14  C   UNL A   1      45.907  22.789  26.337  1.00  0.00     0.010 A 
ATOM     15  C   UNL A   1      44.957  23.519  24.249  1.00  0.00     0.010 A 
ATOM     16  C   UNL A   1      45.567  23.830  25.475  1.00  0.00    -0.014 A 
BRANCH  16  17
ATOM     17  C   UNL A   1      45.760  25.227  25.936  1.00  0.00     0.031 A 
ATOM     18  C   UNL A   1      44.617  25.923  26.623  1.00  0.00     0.074 A 
ATOM     19  C   UNL A   1      46.974  25.811  25.871  1.00  0.00     0.049 A 
ATOM     20  N   UNL A   1      44.522  27.163  27.023  1.00  0.00    -0.248 NA
ATOM     21  C   UNL A   1      43.417  25.112  26.897  1.00  0.00     0.031 C 
ATOM     22  C   UNL A   1      48.188  25.192  25.330  1.00  0.00     0.029 A 
ATOM     23  N   UNL A   1      47.402  27.037  26.313  1.00  0.00    -0.354 N 
ATOM     24  C   UNL A   1      43.238  27.293  27.537  1.00  0.00     0.074 A 
ATOM     25  C   UNL A   1      42.587  26.012  27.398  1.00  0.00     0.031 C 
ATOM     26  C   UNL A   1      49.233  26.006  25.543  1.00  0.00     0.029 A 
ATOM     27  C   UNL A   1      48.749  27.246  26.136  1.00  0.00     0.049 A 
ATOM     28  H   UNL A   1      46.801  27.703  26.718  1.00  0.00     0.167 HD
ATOM     29  C   UNL A   1      42.653  28.389  28.074  1.00  0.00     0.031 A 
ATOM     30  C   UNL A   1      49.502  28.334  26.390  1.00  0.00     0.031 A 
ATOM     31  C   UNL A   1      43.322  29.649  28.227  1.00  0.00     0.049 A 
ATOM     32  C   UNL A   1      48.816  29.555  26.934  1.00  0.00     0.074 A 
ATOM     33  C   UNL A   1      42.813  30.858  28.660  1.00  0.00     0.029 A 
ATOM     34  N   UNL A   1      44.671  29.846  27.968  1.00  0.00    -0.354 N 
ATOM     35  N   UNL A   1      47.562  29.708  27.291  1.00  0.00    -0.248 NA
ATOM     36  C   UNL A   1      49.639  30.763  27.081  1.00  0.00     0.031 C 
ATOM     37  C   UNL A   1      43.854  31.795  28.641  1.00  0.00     0.029 A 
ATOM     38  C   UNL A   1      45.016  31.157  28.235  1.00  0.00     0.049 A 
ATOM     39  H   UNL A   1      45.290  29.154  27.642  1.00  0.00     0.167 HD
ATOM     40  C   UNL A   1      47.443  31.029  27.696  1.00  0.00     0.074 A 
ATOM     41  C   UNL A   1      48.761  31.621  27.581  1.00  0.00     0.031 C 
ATOM     42  C   UNL A   1      46.341  31.703  28.106  1.00  0.00     0.031 A 
BRANCH  29  43
ATOM     43  C   UNL A   1      41.208  28.260  28.461  1.00  0.00    -0.014 A 
ATOM     44  C   UNL A   1      40.178  28.631  27.582  1.00  0.00     0.009 A 
ATOM     45  C   UNL A   1      40.876  27.811  29.748  1.00  0.00     0.009 A 
ATOM     46  C   UNL A   1      38.845  28.594  28.002  1.00  0.00     0.001 A 
ATOM     47  C   UNL A   1      39.542  27.754  30.157  1.00  0.00     0.001 A 
ATOM     48  C   UNL A   1      38.529  28.156  29.287  1.00  0.00     0.000 A 
ENDBRANCH  29  43
BRANCH  30  49
ATOM     49  C   UNL A   1      50.954  28.345  26.061  1.00  0.00    -0.014 A 
ATOM     50  C   UNL A   1      51.919  28.011  27.023  1.00  0.00     0.009 A 
ATOM     51  C   UNL A   1      51.386  28.710  24.775  1.00  0.00     0.009 A 
ATOM     52  C   UNL A   1      53.281  28.062  26.711  1.00  0.00     0.001 A 
ATOM     53  C   UNL A   1      52.746  28.727  24.455  1.00  0.00     0.001 A 
ATOM     54  C   UNL A   1      53.692  28.414  25.425  1.00  0.00     0.000 A 
ENDBRANCH  30  49
BRANCH  42  55
ATOM     55  C   UNL A   1      46.535  33.145  28.469  1.00  0.00    -0.014 A 
ATOM     56  C   UNL A   1      46.881  33.517  29.777  1.00  0.00     0.009 A 
ATOM     57  C   UNL A   1      46.398  34.134  27.484  1.00  0.00     0.009 A 
ATOM     58  C   UNL A   1      47.055  34.863  30.099  1.00  0.00     0.001 A 
ATOM     59  C   UNL A   1      46.596  35.476  27.806  1.00  0.00     0.001 A 
ATOM     60  C   UNL A   1      46.916  35.840  29.113  1.00  0.00     0.000 A 
ENDBRANCH  42  55
ENDBRANCH  16  17
ENDBRANCH   9  11
ENDBRANCH   8   9
ENDBRANCH   7   8
ENDBRANCH   6   7
ENDBRANCH   5   6
ENDBRANCH   4   5
ENDBRANCH   3   4
ENDBRANCH   2   3
ENDBRANCH   1   2
BRANCH   1  61
ATOM     61  C   UNL A   1      38.141  23.777  26.528  1.00  0.00     0.188 C 
BRANCH  61  62
ATOM     62  O   UNL A   1      37.640  23.034  25.420  1.00  0.00    -0.376 OA
BRANCH  62  63
ATOM     63  C   UNL A   1      36.306  23.395  25.053  1.00  0.00     0.202 C 
BRANCH  63  64
ATOM     64  C   UNL A   1      36.016  23.373  23.540  1.00  0.00     0.261 C 
BRANCH  64  65
ATOM     65  O   UNL A   1      34.866  22.584  23.199  1.00  0.00    -0.459 OA
BRANCH  65  66
ATOM     66  C   UNL A   1      33.716  23.201  22.801  1.00  0.00     0.365 C 
ATOM     67  O   UNL A   1      33.688  24.191  22.085  1.00  0.00    -0.245 OA
BRANCH  66  68
ATOM     68  C   UNL A   1      32.499  22.346  23.239  1.00  0.00     0.295 C 
ATOM     69  C   UNL A   1      32.316  21.080  22.372  1.00  0.00     0.087 C 
ATOM     70  N   UNL A   1      32.637  21.865  24.648  1.00  0.00    -0.320 N 
ATOM     71  C   UNL A   1      32.153  19.964  23.372  1.00  0.00     0.054 C 
ATOM     72  C   UNL A   1      32.998  20.452  24.536  1.00  0.00     0.188 C 
ATOM     73  H   UNL A   1      33.381  22.334  25.164  1.00  0.00     0.349 HD
ATOM     74  C   UNL A   1      32.514  18.559  22.937  1.00  0.00     0.010 C 
ATOM     75  C   UNL A   1      32.971  19.530  25.749  1.00  0.00     0.065 C 
ATOM     76  C   UNL A   1      32.382  17.625  24.144  1.00  0.00     0.001 C 
ATOM     77  C   UNL A   1      33.250  18.083  25.322  1.00  0.00     0.006 C 
BRANCH  70  78
ATOM     78  C   UNL A   1      31.538  22.265  25.545  1.00  0.00     0.265 C 
BRANCH  78  79
ATOM     79  C   UNL A   1      31.404  23.715  26.083  1.00  0.00     0.093 C 
BRANCH  79  80
ATOM     80  C   UNL A   1      32.203  24.766  25.324  1.00  0.00     0.123 C 
ATOM     81  C   UNL A   1      33.287  25.460  26.125  1.00  0.00     0.034 C 
ATOM     82  O   UNL A   1      31.398  25.855  24.855  1.00  0.00    -0.378 OA
ATOM     83  C   UNL A   1      33.632  26.608  25.197  1.00  0.00     0.031 C 
ATOM     84  C   UNL A   1      32.337  26.862  24.432  1.00  0.00     0.160 C 
ENDBRANCH  79  80
ENDBRANCH  78  79
ENDBRANCH  70  78
ENDBRANCH  66  68
ENDBRANCH  65  66
ENDBRANCH  64  65
ENDBRANCH  63  64
ENDBRANCH  62  63
ENDBRANCH  61  62
ENDBRANCH   1  61
TORSDOF 23
ENDMDL
MODEL 2
REMARK VINA RESULT:      -8.7      2.899      8.215
REMARK SMILES O=C(OCCOCCOCCOCCOC(=O)[C@H]1C[C@H]2CCCC[C@@H]2[N@@H+]1CC[C@@H]1CCCO1)c1ccc(-c2c3nc(c(-c4ccccc4)c4ccc([nH]4)c(-c4ccccc4)c4nc(c(-c5ccccc5)c5ccc2[nH]5)C=C4)C=C3)cc1
REMARK SMILES IDX 10 1 9 2 8 3 7 4 6 5 5 6 4 7 3 8 2 9 1 10 34 11 35 12 81 13
REMARK SMILES IDX 36 14 80 15 37 16 38 17 39 18 74 19 40 20 79 21 73 22 75 23
REMARK SMILES IDX 41 24 78 25 72 26 71 27 42 29 64 30 49 31 63 32 50 33 53 34
REMARK SMILES IDX 62 35 76 36 51 37 52 38 61 40 77 41 54 42 43 43 44 44 48 45
REMARK SMILES IDX 45 46 47 47 46 48 65 49 66 50 70 51 67 52 69 53 68 54 55 55
REMARK SMILES IDX 56 56 60 57 57 58 59 59 58 60 11 61 12 62 13 63 14 64 15 65
REMARK SMILES IDX 16 66 17 67 18 68 19 69 26 70 20 71 25 72 21 74 24 75 22 76
REMARK SMILES IDX 23 77 27 78 28 79 29 80 30 81 33 82 31 83 32 84
REMARK H PARENT 75 28 53 39 26 73
REMARK Flexibility Score: inf
ROOT
ATOM      1  C   UNL A   1      34.369  29.050  26.723  1.00  0.00     0.188 C 
ENDROOT
BRANCH   1   2
ATOM      2  O   UNL A   1      33.326  30.020  26.702  1.00  0.00    -0.377 OA
BRANCH   2   3
ATOM      3  C   UNL A   1      33.304  31.004  27.740  1.00  0.00     0.188 C 
BRANCH   3   4
ATOM      4  C   UNL A   1      34.435  32.024  27.633  1.00  0.00     0.188 C 
BRANCH   4   5
ATOM      5  O   UNL A   1      35.203  31.952  28.828  1.00  0.00    -0.376 OA
BRANCH   5   6
ATOM      6  C   UNL A   1      34.967  32.953  29.799  1.00  0.00     0.202 C 
BRANCH   6   7
ATOM      7  C   UNL A   1      34.612  32.420  31.186  1.00  0.00     0.261 C 
BRANCH   7   8
ATOM      8  O   UNL A   1      35.538  31.434  31.685  1.00  0.00    -0.460 OA
BRANCH   8   9
ATOM      9  C   UNL A   1      36.816  31.667  32.090  1.00  0.00     0.338 C 
ATOM     10  O   UNL A   1      37.043  32.395  33.048  1.00  0.00    -0.246 OA
BRANCH   9  11
ATOM     11  C   UNL A   1      37.955  30.997  31.417  1.00  0.00     0.060 A 
ATOM     12  C   UNL A   1      38.841  30.175  32.102  1.00  0.00     0.016 A 
ATOM     13  C   UNL A   1      38.094  31.119  30.031  1.00  0.00     0.016 A 
ATOM     14  C   UNL A   1      39.981  29.684  31.491  1.00  0.00     0.010 A 
ATOM     15  C   UNL A   1      39.169  30.503  29.378  1.00  0.00     0.010 A 
ATOM     16  C   UNL A   1      40.160  29.836  30.117  1.00  0.00    -0.014 A 
BRANCH  16  17
ATOM     17  C   UNL A   1      41.439  29.390  29.512  1.00  0.00     0.031 A 
ATOM     18  C   UNL A   1      41.529  27.989  28.971  1.00  0.00     0.074 A 
ATOM     19  C   UNL A   1      42.451  30.260  29.321  1.00  0.00     0.049 A 
ATOM     20  N   UNL A   1      42.563  27.352  28.489  1.00  0.00    -0.248 NA
ATOM     21  C   UNL A   1      40.286  27.197  28.974  1.00  0.00     0.031 C 
ATOM     22  C   UNL A   1      42.436  31.677  29.701  1.00  0.00     0.029 A 
ATOM     23  N   UNL A   1      43.668  30.098  28.711  1.00  0.00    -0.354 N 
ATOM     24  C   UNL A   1      42.108  26.074  28.189  1.00  0.00     0.074 A 
ATOM     25  C   UNL A   1      40.710  26.020  28.545  1.00  0.00     0.031 C 
ATOM     26  C   UNL A   1      43.552  32.268  29.246  1.00  0.00     0.029 A 
ATOM     27  C   UNL A   1      44.407  31.255  28.639  1.00  0.00     0.049 A 
ATOM     28  H   UNL A   1      43.982  29.235  28.358  1.00  0.00     0.167 HD
ATOM     29  C   UNL A   1      42.800  25.035  27.666  1.00  0.00     0.031 A 
ATOM     30  C   UNL A   1      45.651  31.466  28.170  1.00  0.00     0.031 A 
ATOM     31  C   UNL A   1      44.184  25.112  27.296  1.00  0.00     0.049 A 
ATOM     32  C   UNL A   1      46.418  30.285  27.647  1.00  0.00     0.074 A 
ATOM     33  C   UNL A   1      45.025  24.109  26.854  1.00  0.00     0.029 A 
ATOM     34  N   UNL A   1      44.924  26.286  27.306  1.00  0.00    -0.354 N 
ATOM     35  N   UNL A   1      46.018  29.043  27.495  1.00  0.00    -0.248 NA
ATOM     36  C   UNL A   1      47.814  30.523  27.261  1.00  0.00     0.031 C 
ATOM     37  C   UNL A   1      46.284  24.674  26.616  1.00  0.00     0.029 A 
ATOM     38  C   UNL A   1      46.213  26.035  26.873  1.00  0.00     0.049 A 
ATOM     39  H   UNL A   1      44.582  27.167  27.581  1.00  0.00     0.167 HD
ATOM     40  C   UNL A   1      47.115  28.351  27.004  1.00  0.00     0.074 A 
ATOM     41  C   UNL A   1      48.183  29.319  26.844  1.00  0.00     0.031 C 
ATOM     42  C   UNL A   1      47.242  27.030  26.730  1.00  0.00     0.031 A 
BRANCH  29  43
ATOM     43  C   UNL A   1      42.067  23.731  27.541  1.00  0.00    -0.014 A 
ATOM     44  C   UNL A   1      42.189  22.725  28.513  1.00  0.00     0.009 A 
ATOM     45  C   UNL A   1      41.283  23.487  26.403  1.00  0.00     0.009 A 
ATOM     46  C   UNL A   1      41.573  21.484  28.324  1.00  0.00     0.001 A 
ATOM     47  C   UNL A   1      40.651  22.254  26.229  1.00  0.00     0.001 A 
ATOM     48  C   UNL A   1      40.807  21.250  27.184  1.00  0.00     0.000 A 
ENDBRANCH  29  43
BRANCH  30  49
ATOM     49  C   UNL A   1      46.273  32.817  28.247  1.00  0.00    -0.014 A 
ATOM     50  C   UNL A   1      46.984  33.225  29.385  1.00  0.00     0.009 A 
ATOM     51  C   UNL A   1      46.141  33.720  27.178  1.00  0.00     0.009 A 
ATOM     52  C   UNL A   1      47.531  34.510  29.458  1.00  0.00     0.001 A 
ATOM     53  C   UNL A   1      46.718  34.991  27.239  1.00  0.00     0.001 A 
ATOM     54  C   UNL A   1      47.403  35.389  28.383  1.00  0.00     0.000 A 
ENDBRANCH  30  49
BRANCH  42  55
ATOM     55  C   UNL A   1      48.577  26.578  26.218  1.00  0.00    -0.014 A 
ATOM     56  C   UNL A   1      48.936  26.776  24.876  1.00  0.00     0.009 A 
ATOM     57  C   UNL A   1      49.490  25.975  27.095  1.00  0.00     0.009 A 
ATOM     58  C   UNL A   1      50.180  26.346  24.413  1.00  0.00     0.001 A 
ATOM     59  C   UNL A   1      50.742  25.570  26.634  1.00  0.00     0.001 A 
ATOM     60  C   UNL A   1      51.083  25.748  25.293  1.00  0.00     0.000 A 
ENDBRANCH  42  55
ENDBRANCH  16  17
ENDBRANCH   9  11
ENDBRANCH   8   9
ENDBRANCH   7   8
ENDBRANCH   6   7
ENDBRANCH   5   6
ENDBRANCH   4   5
ENDBRANCH   3   4
ENDBRANCH   2   3
ENDBRANCH   1   2
BRANCH   1  61
ATOM     61  C   UNL A   1      34.227  27.836  25.791  1.00  0.00     0.188 C 
BRANCH  61  62
ATOM     62  O   UNL A   1      33.236  26.897  26.201  1.00  0.00    -0.376 OA
BRANCH  62  63
ATOM     63  C   UNL A   1      31.909  27.276  25.827  1.00  0.00     0.202 C 
BRANCH  63  64
ATOM     64  C   UNL A   1      31.232  26.354  24.796  1.00  0.00     0.261 C 
BRANCH  64  65
ATOM     65  O   UNL A   1      31.839  25.056  24.716  1.00  0.00    -0.459 OA
BRANCH  65  66
ATOM     66  C   UNL A   1      31.345  24.131  23.844  1.00  0.00     0.365 C 
ATOM     67  O   UNL A   1      30.378  24.324  23.122  1.00  0.00    -0.245 OA
BRANCH  66  68
ATOM     68  C   UNL A   1      32.303  22.913  23.792  1.00  0.00     0.295 C 
ATOM     69  C   UNL A   1      33.520  23.150  22.869  1.00  0.00     0.087 C 
ATOM     70  N   UNL A   1      32.866  22.591  25.139  1.00  0.00    -0.320 N 
ATOM     71  C   UNL A   1      34.707  22.743  23.705  1.00  0.00     0.054 C 
ATOM     72  C   UNL A   1      34.241  23.085  25.109  1.00  0.00     0.188 C 
ATOM     73  H   UNL A   1      32.383  23.066  25.902  1.00  0.00     0.349 HD
ATOM     74  C   UNL A   1      36.055  23.349  23.371  1.00  0.00     0.010 C 
ATOM     75  C   UNL A   1      35.240  22.714  26.199  1.00  0.00     0.065 C 
ATOM     76  C   UNL A   1      37.072  22.883  24.417  1.00  0.00     0.001 C 
ATOM     77  C   UNL A   1      36.635  23.244  25.843  1.00  0.00     0.006 C 
BRANCH  70  78
ATOM     78  C   UNL A   1      32.597  21.219  25.607  1.00  0.00     0.265 C 
BRANCH  78  79
ATOM     79  C   UNL A   1      33.685  20.112  25.576  1.00  0.00     0.093 C 
BRANCH  79  80
ATOM     80  C   UNL A   1      33.649  19.198  24.357  1.00  0.00     0.123 C 
ATOM     81  C   UNL A   1      32.374  19.260  23.540  1.00  0.00     0.034 C 
ATOM     82  O   UNL A   1      33.753  17.809  24.692  1.00  0.00    -0.378 OA
ATOM     83  C   UNL A   1      32.552  18.046  22.649  1.00  0.00     0.031 C 
ATOM     84  C   UNL A   1      33.415  17.105  23.482  1.00  0.00     0.160 C 
ENDBRANCH  79  80
ENDBRANCH  78  79
ENDBRANCH  70  78
ENDBRANCH  66  68
ENDBRANCH  65  66
ENDBRANCH  64  65
ENDBRANCH  63  64
ENDBRANCH  62  63
ENDBRANCH  61  62
ENDBRANCH   1  61
TORSDOF 23
ENDMDL
MODEL 3
REMARK VINA RESULT:      -8.7      5.227     10.246
REMARK SMILES O=C(OCCOCCOCCOCCOC(=O)[C@H]1C[C@H]2CCCC[C@@H]2[N@@H+]1CC[C@@H]1CCCO1)c1ccc(-c2c3nc(c(-c4ccccc4)c4ccc([nH]4)c(-c4ccccc4)c4nc(c(-c5ccccc5)c5ccc2[nH]5)C=C4)C=C3)cc1
REMARK SMILES IDX 10 1 9 2 8 3 7 4 6 5 5 6 4 7 3 8 2 9 1 10 34 11 35 12 81 13
REMARK SMILES IDX 36 14 80 15 37 16 38 17 39 18 74 19 40 20 79 21 73 22 75 23
REMARK SMILES IDX 41 24 78 25 72 26 71 27 42 29 64 30 49 31 63 32 50 33 53 34
REMARK SMILES IDX 62 35 76 36 51 37 52 38 61 40 77 41 54 42 43 43 44 44 48 45
REMARK SMILES IDX 45 46 47 47 46 48 65 49 66 50 70 51 67 52 69 53 68 54 55 55
REMARK SMILES IDX 56 56 60 57 57 58 59 59 58 60 11 61 12 62 13 63 14 64 15 65
REMARK SMILES IDX 16 66 17 67 18 68 19 69 26 70 20 71 25 72 21 74 24 75 22 76
REMARK SMILES IDX 23 77 27 78 28 79 29 80 30 81 33 82 31 83 32 84
REMARK H PARENT 75 28 53 39 26 73
REMARK Flexibility Score: inf
ROOT
ATOM      1  C   UNL A   1      31.733  28.537  24.399  1.00  0.00     0.188 C 
ENDROOT
BRANCH   1   2
ATOM      2  O   UNL A   1      32.117  29.807  24.920  1.00  0.00    -0.377 OA
BRANCH   2   3
ATOM      3  C   UNL A   1      31.734  30.127  26.260  1.00  0.00     0.188 C 
BRANCH   3   4
ATOM      4  C   UNL A   1      32.919  30.437  27.171  1.00  0.00     0.188 C 
BRANCH   4   5
ATOM      5  O   UNL A   1      33.328  31.776  26.914  1.00  0.00    -0.376 OA
BRANCH   5   6
ATOM      6  C   UNL A   1      33.661  32.567  28.039  1.00  0.00     0.202 C 
BRANCH   6   7
ATOM      7  C   UNL A   1      32.990  33.939  28.070  1.00  0.00     0.261 C 
BRANCH   7   8
ATOM      8  O   UNL A   1      32.840  34.483  29.396  1.00  0.00    -0.460 OA
BRANCH   8   9
ATOM      9  C   UNL A   1      33.845  34.741  30.276  1.00  0.00     0.338 C 
ATOM     10  O   UNL A   1      33.768  35.685  31.051  1.00  0.00    -0.246 OA
BRANCH   9  11
ATOM     11  C   UNL A   1      35.027  33.848  30.354  1.00  0.00     0.060 A 
ATOM     12  C   UNL A   1      35.008  32.653  31.062  1.00  0.00     0.016 A 
ATOM     13  C   UNL A   1      36.172  34.169  29.619  1.00  0.00     0.016 A 
ATOM     14  C   UNL A   1      36.161  31.912  31.249  1.00  0.00     0.010 A 
ATOM     15  C   UNL A   1      37.303  33.346  29.687  1.00  0.00     0.010 A 
ATOM     16  C   UNL A   1      37.327  32.245  30.560  1.00  0.00    -0.014 A 
BRANCH  16  17
ATOM     17  C   UNL A   1      38.570  31.495  30.861  1.00  0.00     0.031 A 
ATOM     18  C   UNL A   1      39.368  31.881  32.076  1.00  0.00     0.074 A 
ATOM     19  C   UNL A   1      38.903  30.401  30.147  1.00  0.00     0.049 A 
ATOM     20  N   UNL A   1      40.527  31.436  32.482  1.00  0.00    -0.248 NA
ATOM     21  C   UNL A   1      38.781  32.910  32.953  1.00  0.00     0.031 C 
ATOM     22  C   UNL A   1      38.143  29.860  29.015  1.00  0.00     0.029 A 
ATOM     23  N   UNL A   1      39.937  29.513  30.299  1.00  0.00    -0.354 N 
ATOM     24  C   UNL A   1      40.831  32.169  33.622  1.00  0.00     0.074 A 
ATOM     25  C   UNL A   1      39.742  33.090  33.844  1.00  0.00     0.031 C 
ATOM     26  C   UNL A   1      38.691  28.697  28.629  1.00  0.00     0.029 A 
ATOM     27  C   UNL A   1      39.898  28.464  29.411  1.00  0.00     0.049 A 
ATOM     28  H   UNL A   1      40.641  29.618  30.979  1.00  0.00     0.167 HD
ATOM     29  C   UNL A   1      41.928  32.083  34.411  1.00  0.00     0.031 A 
ATOM     30  C   UNL A   1      40.761  27.448  29.225  1.00  0.00     0.031 A 
ATOM     31  C   UNL A   1      42.991  31.146  34.190  1.00  0.00     0.049 A 
ATOM     32  C   UNL A   1      41.998  27.408  30.077  1.00  0.00     0.074 A 
ATOM     33  C   UNL A   1      44.198  31.025  34.852  1.00  0.00     0.029 A 
ATOM     34  N   UNL A   1      42.951  30.142  33.232  1.00  0.00    -0.354 N 
ATOM     35  N   UNL A   1      42.343  28.195  31.070  1.00  0.00    -0.248 NA
ATOM     36  C   UNL A   1      42.981  26.362  29.766  1.00  0.00     0.031 C 
ATOM     37  C   UNL A   1      44.900  29.959  34.277  1.00  0.00     0.029 A 
ATOM     38  C   UNL A   1      44.111  29.392  33.287  1.00  0.00     0.049 A 
ATOM     39  H   UNL A   1      42.207  29.987  32.608  1.00  0.00     0.167 HD
ATOM     40  C   UNL A   1      43.584  27.746  31.496  1.00  0.00     0.074 A 
ATOM     41  C   UNL A   1      43.912  26.592  30.681  1.00  0.00     0.031 C 
ATOM     42  C   UNL A   1      44.395  28.252  32.456  1.00  0.00     0.031 A 
BRANCH  29  43
ATOM     43  C   UNL A   1      42.033  33.080  35.529  1.00  0.00    -0.014 A 
ATOM     44  C   UNL A   1      42.673  34.317  35.351  1.00  0.00     0.009 A 
ATOM     45  C   UNL A   1      41.531  32.750  36.797  1.00  0.00     0.009 A 
ATOM     46  C   UNL A   1      42.844  35.185  36.433  1.00  0.00     0.001 A 
ATOM     47  C   UNL A   1      41.683  33.630  37.871  1.00  0.00     0.001 A 
ATOM     48  C   UNL A   1      42.350  34.840  37.690  1.00  0.00     0.000 A 
ENDBRANCH  29  43
BRANCH  30  49
ATOM     49  C   UNL A   1      40.533  26.444  28.150  1.00  0.00    -0.014 A 
ATOM     50  C   UNL A   1      39.742  25.307  28.374  1.00  0.00     0.009 A 
ATOM     51  C   UNL A   1      41.124  26.612  26.886  1.00  0.00     0.009 A 
ATOM     52  C   UNL A   1      39.566  24.354  27.365  1.00  0.00     0.001 A 
ATOM     53  C   UNL A   1      40.918  25.676  25.869  1.00  0.00     0.001 A 
ATOM     54  C   UNL A   1      40.149  24.543  26.113  1.00  0.00     0.000 A 
ENDBRANCH  30  49
BRANCH  42  55
ATOM     55  C   UNL A   1      45.697  27.541  32.676  1.00  0.00    -0.014 A 
ATOM     56  C   UNL A   1      45.790  26.477  33.585  1.00  0.00     0.009 A 
ATOM     57  C   UNL A   1      46.829  27.925  31.943  1.00  0.00     0.009 A 
ATOM     58  C   UNL A   1      47.010  25.828  33.781  1.00  0.00     0.001 A 
ATOM     59  C   UNL A   1      48.040  27.257  32.124  1.00  0.00     0.001 A 
ATOM     60  C   UNL A   1      48.132  26.216  33.048  1.00  0.00     0.000 A 
ENDBRANCH  42  55
ENDBRANCH  16  17
ENDBRANCH   9  11
ENDBRANCH   8   9
ENDBRANCH   7   8
ENDBRANCH   6   7
ENDBRANCH   5   6
ENDBRANCH   4   5
ENDBRANCH   3   4
ENDBRANCH   2   3
ENDBRANCH   1   2
BRANCH   1  61
ATOM     61  C   UNL A   1      32.314  27.287  25.078  1.00  0.00     0.188 C 
BRANCH  61  62
ATOM     62  O   UNL A   1      31.462  26.144  25.027  1.00  0.00    -0.376 OA
BRANCH  62  63
ATOM     63  C   UNL A   1      31.247  25.542  26.305  1.00  0.00     0.202 C 
BRANCH  63  64
ATOM     64  C   UNL A   1      30.097  24.518  26.359  1.00  0.00     0.261 C 
BRANCH  64  65
ATOM     65  O   UNL A   1      30.511  23.187  26.017  1.00  0.00    -0.459 OA
BRANCH  65  66
ATOM     66  C   UNL A   1      31.789  22.787  26.278  1.00  0.00     0.365 C 
ATOM     67  O   UNL A   1      32.265  22.720  27.402  1.00  0.00    -0.245 OA
BRANCH  66  68
ATOM     68  C   UNL A   1      32.441  22.271  24.970  1.00  0.00     0.295 C 
ATOM     69  C   UNL A   1      33.330  23.336  24.287  1.00  0.00     0.087 C 
ATOM     70  N   UNL A   1      33.327  21.093  25.217  1.00  0.00    -0.320 N 
ATOM     71  C   UNL A   1      34.622  22.613  24.001  1.00  0.00     0.054 C 
ATOM     72  C   UNL A   1      34.690  21.615  25.143  1.00  0.00     0.188 C 
ATOM     73  H   UNL A   1      33.203  20.682  26.143  1.00  0.00     0.349 HD
ATOM     74  C   UNL A   1      35.886  23.438  23.869  1.00  0.00     0.010 C 
ATOM     75  C   UNL A   1      35.893  20.681  25.077  1.00  0.00     0.065 C 
ATOM     76  C   UNL A   1      37.074  22.488  23.699  1.00  0.00     0.001 C 
ATOM     77  C   UNL A   1      37.180  21.488  24.858  1.00  0.00     0.006 C 
BRANCH  70  78
ATOM     78  C   UNL A   1      32.969  19.883  24.454  1.00  0.00     0.265 C 
BRANCH  78  79
ATOM     79  C   UNL A   1      32.239  18.682  25.113  1.00  0.00     0.093 C 
BRANCH  79  80
ATOM     80  C   UNL A   1      33.123  17.487  25.446  1.00  0.00     0.123 C 
ATOM     81  C   UNL A   1      34.309  17.283  24.523  1.00  0.00     0.034 C 
ATOM     82  O   UNL A   1      32.431  16.235  25.366  1.00  0.00    -0.378 OA
ATOM     83  C   UNL A   1      34.747  15.890  24.933  1.00  0.00     0.031 C 
ATOM     84  C   UNL A   1      33.462  15.231  25.422  1.00  0.00     0.160 C 
ENDBRANCH  79  80
ENDBRANCH  78  79
ENDBRANCH  70  78
ENDBRANCH  66  68
ENDBRANCH  65  66
ENDBRANCH  64  65
ENDBRANCH  63  64
ENDBRANCH  62  63
ENDBRANCH  61  62
ENDBRANCH   1  61
TORSDOF 23
ENDMDL
