MODEL 1
REMARK VINA RESULT:     -11.1      0.000      0.000
REMARK SMILES Cc1c(NC(=O)c2ccc(-c3cccc(Cl)c3)o2)cccc1C(=O)OCCOCCOCCOCCOC(=O)c1ccc(-c2c3nc(c(-c4ccccc4)c4ccc([nH]4)c(-c4ccccc4)c4nc(c(-c5ccccc5)c5ccc2[nH]5)C=C4)C=C3)cc1
REMARK SMILES IDX 30 1 29 2 28 3 27 4 26 5 25 6 23 7 24 8 22 9 1 10 2 11 3 12
REMARK SMILES IDX 19 13 21 14 20 15 4 16 5 17 6 19 7 20 8 21 18 22 9 23 10 24
REMARK SMILES IDX 11 25 12 26 17 27 13 28 15 29 14 30 16 31 31 32 32 33 33 34
REMARK SMILES IDX 34 35 35 36 36 37 37 38 38 39 39 40 40 41 41 42 87 43 42 44
REMARK SMILES IDX 86 45 43 46 44 47 45 48 80 49 46 50 85 51 79 52 81 53 47 54
REMARK SMILES IDX 84 55 78 56 77 57 48 59 70 60 55 61 69 62 56 63 59 64 68 65
REMARK SMILES IDX 82 66 57 67 58 68 67 70 83 71 60 72 49 73 50 74 54 75 51 76
REMARK SMILES IDX 53 77 52 78 71 79 72 80 76 81 73 82 75 83 74 84 61 85 62 86
REMARK SMILES IDX 66 87 63 88 65 89 64 90
REMARK H PARENT 4 18 81 58 59 69
REMARK Flexibility Score: inf
ROOT
ATOM      1  C   UNL A   1      40.094  22.301  26.225  1.00  0.00     0.188 C 
ENDROOT
BRANCH   1   2
ATOM      2  C   UNL A   1      38.576  22.365  25.974  1.00  0.00     0.188 C 
BRANCH   2   3
ATOM      3  O   UNL A   1      37.833  23.540  26.247  1.00  0.00    -0.376 OA
BRANCH   3   4
ATOM      4  C   UNL A   1      36.798  23.873  25.331  1.00  0.00     0.202 C 
BRANCH   4   5
ATOM      5  C   UNL A   1      35.364  23.648  25.749  1.00  0.00     0.261 C 
BRANCH   5   6
ATOM      6  O   UNL A   1      34.711  24.906  25.755  1.00  0.00    -0.460 OA
BRANCH   6   7
ATOM      7  C   UNL A   1      34.476  25.356  24.522  1.00  0.00     0.338 C 
ATOM      8  O   UNL A   1      34.412  24.705  23.499  1.00  0.00    -0.246 OA
BRANCH   7   9
ATOM      9  C   UNL A   1      33.932  26.716  24.612  1.00  0.00     0.065 A 
ATOM     10  C   UNL A   1      33.484  27.243  22.128  1.00  0.00     0.047 C 
ATOM     11  C   UNL A   1      33.304  27.475  23.601  1.00  0.00    -0.013 A 
ATOM     12  C   UNL A   1      32.499  28.534  24.035  1.00  0.00     0.045 A 
ATOM     13  C   UNL A   1      32.405  28.768  25.412  1.00  0.00     0.026 A 
ATOM     14  C   UNL A   1      34.070  27.202  25.920  1.00  0.00     0.016 A 
ATOM     15  C   UNL A   1      33.290  28.242  26.332  1.00  0.00     0.003 A 
BRANCH  12  16
ATOM     16  N   UNL A   1      31.782  29.318  23.099  1.00  0.00    -0.319 N 
ATOM     17  C   UNL A   1      30.597  29.042  22.428  1.00  0.00     0.291 C 
ATOM     18  H   UNL A   1      32.184  30.192  22.891  1.00  0.00     0.170 HD
ATOM     19  O   UNL A   1      30.211  29.829  21.564  1.00  0.00    -0.265 OA
BRANCH  17  20
ATOM     20  C   UNL A   1      29.843  27.882  22.846  1.00  0.00     0.192 A 
ATOM     21  C   UNL A   1      28.558  27.775  23.350  1.00  0.00     0.057 A 
ATOM     22  O   UNL A   1      30.522  26.709  23.058  1.00  0.00    -0.451 OA
ATOM     23  C   UNL A   1      28.489  26.519  24.003  1.00  0.00     0.052 A 
ATOM     24  C   UNL A   1      29.720  25.917  23.828  1.00  0.00     0.135 A 
BRANCH  24  25
ATOM     25  C   UNL A   1      30.327  24.712  24.368  1.00  0.00     0.019 A 
ATOM     26  C   UNL A   1      30.347  24.525  25.753  1.00  0.00     0.012 A 
ATOM     27  C   UNL A   1      30.943  23.758  23.541  1.00  0.00     0.032 A 
ATOM     28  C   UNL A   1      30.940  23.393  26.310  1.00  0.00     0.002 A 
ATOM     29  C   UNL A   1      31.550  22.634  24.106  1.00  0.00     0.041 A 
ATOM     30  C   UNL A   1      31.543  22.445  25.486  1.00  0.00     0.020 A 
ATOM     31  Cl  UNL A   1      32.325  21.473  23.097  1.00  0.00    -0.084 Cl
ENDBRANCH  24  25
ENDBRANCH  17  20
ENDBRANCH  12  16
ENDBRANCH   7   9
ENDBRANCH   6   7
ENDBRANCH   5   6
ENDBRANCH   4   5
ENDBRANCH   3   4
ENDBRANCH   2   3
ENDBRANCH   1   2
BRANCH   1  32
ATOM     32  O   UNL A   1      40.646  21.328  27.095  1.00  0.00    -0.377 OA
BRANCH  32  33
ATOM     33  C   UNL A   1      40.860  20.008  26.602  1.00  0.00     0.188 C 
BRANCH  33  34
ATOM     34  C   UNL A   1      42.180  19.322  26.927  1.00  0.00     0.188 C 
BRANCH  34  35
ATOM     35  O   UNL A   1      42.264  18.106  26.187  1.00  0.00    -0.376 OA
BRANCH  35  36
ATOM     36  C   UNL A   1      43.360  18.001  25.282  1.00  0.00     0.202 C 
BRANCH  36  37
ATOM     37  C   UNL A   1      44.555  18.889  25.649  1.00  0.00     0.261 C 
BRANCH  37  38
ATOM     38  O   UNL A   1      44.665  19.966  24.698  1.00  0.00    -0.460 OA
BRANCH  38  39
ATOM     39  C   UNL A   1      45.331  21.067  25.138  1.00  0.00     0.338 C 
ATOM     40  O   UNL A   1      46.497  21.094  25.496  1.00  0.00    -0.246 OA
BRANCH  39  41
ATOM     41  C   UNL A   1      44.362  22.167  25.414  1.00  0.00     0.060 A 
ATOM     42  C   UNL A   1      44.041  23.096  24.410  1.00  0.00     0.016 A 
ATOM     43  C   UNL A   1      44.078  22.472  26.735  1.00  0.00     0.016 A 
ATOM     44  C   UNL A   1      43.643  24.399  24.754  1.00  0.00     0.010 A 
ATOM     45  C   UNL A   1      43.793  23.781  27.059  1.00  0.00     0.010 A 
ATOM     46  C   UNL A   1      43.639  24.782  26.090  1.00  0.00    -0.014 A 
BRANCH  46  47
ATOM     47  C   UNL A   1      43.638  26.177  26.590  1.00  0.00     0.031 A 
ATOM     48  C   UNL A   1      42.318  26.896  26.716  1.00  0.00     0.074 A 
ATOM     49  C   UNL A   1      44.729  26.615  27.282  1.00  0.00     0.049 A 
ATOM     50  N   UNL A   1      42.150  28.052  27.257  1.00  0.00    -0.248 NA
ATOM     51  C   UNL A   1      41.032  26.321  26.309  1.00  0.00     0.031 C 
ATOM     52  C   UNL A   1      44.785  27.693  28.273  1.00  0.00     0.029 A 
ATOM     53  N   UNL A   1      46.047  26.172  27.303  1.00  0.00    -0.354 N 
ATOM     54  C   UNL A   1      40.819  28.191  27.616  1.00  0.00     0.074 A 
ATOM     55  C   UNL A   1      40.151  27.121  26.924  1.00  0.00     0.031 C 
ATOM     56  C   UNL A   1      46.043  27.932  28.667  1.00  0.00     0.029 A 
ATOM     57  C   UNL A   1      46.874  27.214  27.743  1.00  0.00     0.049 A 
ATOM     58  H   UNL A   1      46.351  25.271  27.049  1.00  0.00     0.167 HD
ATOM     59  C   UNL A   1      40.478  29.114  28.570  1.00  0.00     0.031 A 
ATOM     60  C   UNL A   1      47.740  27.864  26.910  1.00  0.00     0.031 A 
ATOM     61  C   UNL A   1      41.633  29.961  28.937  1.00  0.00     0.049 A 
ATOM     62  C   UNL A   1      47.201  29.292  26.692  1.00  0.00     0.074 A 
ATOM     63  C   UNL A   1      42.250  30.313  30.125  1.00  0.00     0.029 A 
ATOM     64  N   UNL A   1      42.473  30.439  27.929  1.00  0.00    -0.354 N 
ATOM     65  N   UNL A   1      45.914  29.591  26.668  1.00  0.00    -0.248 NA
ATOM     66  C   UNL A   1      48.034  30.488  26.844  1.00  0.00     0.031 C 
ATOM     67  C   UNL A   1      43.556  30.805  29.812  1.00  0.00     0.029 A 
ATOM     68  C   UNL A   1      43.692  30.854  28.428  1.00  0.00     0.049 A 
ATOM     69  H   UNL A   1      42.227  30.475  26.976  1.00  0.00     0.167 HD
ATOM     70  C   UNL A   1      45.750  30.911  27.025  1.00  0.00     0.074 A 
ATOM     71  C   UNL A   1      47.108  31.446  27.041  1.00  0.00     0.031 C 
ATOM     72  C   UNL A   1      44.641  31.527  27.550  1.00  0.00     0.031 A 
BRANCH  59  73
ATOM     73  C   UNL A   1      39.151  29.161  29.334  1.00  0.00    -0.014 A 
ATOM     74  C   UNL A   1      38.041  29.823  28.763  1.00  0.00     0.009 A 
ATOM     75  C   UNL A   1      38.932  28.656  30.631  1.00  0.00     0.009 A 
ATOM     76  C   UNL A   1      36.812  29.974  29.432  1.00  0.00     0.001 A 
ATOM     77  C   UNL A   1      37.692  28.771  31.294  1.00  0.00     0.001 A 
ATOM     78  C   UNL A   1      36.632  29.437  30.697  1.00  0.00     0.000 A 
ENDBRANCH  59  73
BRANCH  60  79
ATOM     79  C   UNL A   1      48.474  26.873  26.056  1.00  0.00    -0.014 A 
ATOM     80  C   UNL A   1      48.235  27.045  24.666  1.00  0.00     0.009 A 
ATOM     81  C   UNL A   1      49.738  26.393  26.435  1.00  0.00     0.009 A 
ATOM     82  C   UNL A   1      49.291  27.047  23.743  1.00  0.00     0.001 A 
ATOM     83  C   UNL A   1      50.785  26.349  25.490  1.00  0.00     0.001 A 
ATOM     84  C   UNL A   1      50.580  26.757  24.170  1.00  0.00     0.000 A 
ENDBRANCH  60  79
BRANCH  72  85
ATOM     85  C   UNL A   1      44.272  32.941  27.157  1.00  0.00    -0.014 A 
ATOM     86  C   UNL A   1      44.082  33.325  25.827  1.00  0.00     0.009 A 
ATOM     87  C   UNL A   1      43.851  33.856  28.155  1.00  0.00     0.009 A 
ATOM     88  C   UNL A   1      43.510  34.559  25.509  1.00  0.00     0.001 A 
ATOM     89  C   UNL A   1      43.232  35.063  27.842  1.00  0.00     0.001 A 
ATOM     90  C   UNL A   1      43.069  35.417  26.513  1.00  0.00     0.000 A 
ENDBRANCH  72  85
ENDBRANCH  46  47
ENDBRANCH  39  41
ENDBRANCH  38  39
ENDBRANCH  37  38
ENDBRANCH  36  37
ENDBRANCH  35  36
ENDBRANCH  34  35
ENDBRANCH  33  34
ENDBRANCH  32  33
ENDBRANCH   1  32
TORSDOF 23
ENDMDL
MODEL 2
REMARK VINA RESULT:     -10.4      4.615      8.943
REMARK SMILES Cc1c(NC(=O)c2ccc(-c3cccc(Cl)c3)o2)cccc1C(=O)OCCOCCOCCOCCOC(=O)c1ccc(-c2c3nc(c(-c4ccccc4)c4ccc([nH]4)c(-c4ccccc4)c4nc(c(-c5ccccc5)c5ccc2[nH]5)C=C4)C=C3)cc1
REMARK SMILES IDX 30 1 29 2 28 3 27 4 26 5 25 6 23 7 24 8 22 9 1 10 2 11 3 12
REMARK SMILES IDX 19 13 21 14 20 15 4 16 5 17 6 19 7 20 8 21 18 22 9 23 10 24
REMARK SMILES IDX 11 25 12 26 17 27 13 28 15 29 14 30 16 31 31 32 32 33 33 34
REMARK SMILES IDX 34 35 35 36 36 37 37 38 38 39 39 40 40 41 41 42 87 43 42 44
REMARK SMILES IDX 86 45 43 46 44 47 45 48 80 49 46 50 85 51 79 52 81 53 47 54
REMARK SMILES IDX 84 55 78 56 77 57 48 59 70 60 55 61 69 62 56 63 59 64 68 65
REMARK SMILES IDX 82 66 57 67 58 68 67 70 83 71 60 72 49 73 50 74 54 75 51 76
REMARK SMILES IDX 53 77 52 78 71 79 72 80 76 81 73 82 75 83 74 84 61 85 62 86
REMARK SMILES IDX 66 87 63 88 65 89 64 90
REMARK H PARENT 4 18 81 58 59 69
REMARK Flexibility Score: inf
ROOT
ATOM      1  C   UNL A   1      41.798  19.986  26.223  1.00  0.00     0.188 C 
ENDROOT
BRANCH   1   2
ATOM      2  C   UNL A   1      40.270  20.170  26.210  1.00  0.00     0.188 C 
BRANCH   2   3
ATOM      3  O   UNL A   1      39.418  19.223  25.589  1.00  0.00    -0.376 OA
BRANCH   3   4
ATOM      4  C   UNL A   1      38.425  19.732  24.709  1.00  0.00     0.202 C 
BRANCH   4   5
ATOM      5  C   UNL A   1      36.972  19.586  25.095  1.00  0.00     0.261 C 
BRANCH   5   6
ATOM      6  O   UNL A   1      36.241  20.599  24.428  1.00  0.00    -0.460 OA
BRANCH   6   7
ATOM      7  C   UNL A   1      35.389  21.223  25.243  1.00  0.00     0.338 C 
ATOM      8  O   UNL A   1      35.608  21.635  26.364  1.00  0.00    -0.246 OA
BRANCH   7   9
ATOM      9  C   UNL A   1      34.236  21.682  24.459  1.00  0.00     0.065 A 
ATOM     10  C   UNL A   1      35.033  24.020  23.716  1.00  0.00     0.047 C 
ATOM     11  C   UNL A   1      34.146  22.811  23.617  1.00  0.00    -0.013 A 
ATOM     12  C   UNL A   1      33.122  22.789  22.663  1.00  0.00     0.045 A 
ATOM     13  C   UNL A   1      32.269  21.679  22.639  1.00  0.00     0.026 A 
ATOM     14  C   UNL A   1      33.167  20.787  24.608  1.00  0.00     0.016 A 
ATOM     15  C   UNL A   1      32.168  20.778  23.681  1.00  0.00     0.003 A 
BRANCH  12  16
ATOM     16  N   UNL A   1      32.986  23.850  21.735  1.00  0.00    -0.319 N 
ATOM     17  C   UNL A   1      32.292  25.048  21.847  1.00  0.00     0.291 C 
ATOM     18  H   UNL A   1      33.453  23.718  20.879  1.00  0.00     0.170 HD
ATOM     19  O   UNL A   1      32.215  25.781  20.861  1.00  0.00    -0.265 OA
BRANCH  17  20
ATOM     20  C   UNL A   1      31.770  25.402  23.148  1.00  0.00     0.192 A 
ATOM     21  C   UNL A   1      30.513  25.214  23.697  1.00  0.00     0.057 A 
ATOM     22  O   UNL A   1      32.479  26.296  23.910  1.00  0.00    -0.451 OA
ATOM     23  C   UNL A   1      30.410  26.125  24.779  1.00  0.00     0.052 A 
ATOM     24  C   UNL A   1      31.620  26.787  24.851  1.00  0.00     0.135 A 
BRANCH  24  25
ATOM     25  C   UNL A   1      32.093  27.921  25.628  1.00  0.00     0.019 A 
ATOM     26  C   UNL A   1      33.130  27.730  26.546  1.00  0.00     0.012 A 
ATOM     27  C   UNL A   1      31.499  29.190  25.524  1.00  0.00     0.032 A 
ATOM     28  C   UNL A   1      33.595  28.787  27.325  1.00  0.00     0.002 A 
ATOM     29  C   UNL A   1      31.959  30.242  26.319  1.00  0.00     0.041 A 
ATOM     30  C   UNL A   1      33.009  30.047  27.213  1.00  0.00     0.020 A 
ATOM     31  Cl  UNL A   1      31.219  31.793  26.209  1.00  0.00    -0.084 Cl
ENDBRANCH  24  25
ENDBRANCH  17  20
ENDBRANCH  12  16
ENDBRANCH   7   9
ENDBRANCH   6   7
ENDBRANCH   5   6
ENDBRANCH   4   5
ENDBRANCH   3   4
ENDBRANCH   2   3
ENDBRANCH   1   2
BRANCH   1  32
ATOM     32  O   UNL A   1      42.436  19.132  25.288  1.00  0.00    -0.377 OA
BRANCH  32  33
ATOM     33  C   UNL A   1      43.837  19.275  25.072  1.00  0.00     0.188 C 
BRANCH  33  34
ATOM     34  C   UNL A   1      44.447  20.664  25.198  1.00  0.00     0.188 C 
BRANCH  34  35
ATOM     35  O   UNL A   1      44.720  21.170  23.894  1.00  0.00    -0.376 OA
BRANCH  35  36
ATOM     36  C   UNL A   1      44.598  22.581  23.734  1.00  0.00     0.202 C 
BRANCH  36  37
ATOM     37  C   UNL A   1      43.527  23.216  24.630  1.00  0.00     0.261 C 
BRANCH  37  38
ATOM     38  O   UNL A   1      43.810  24.618  24.800  1.00  0.00    -0.460 OA
BRANCH  38  39
ATOM     39  C   UNL A   1      42.866  25.327  25.475  1.00  0.00     0.338 C 
ATOM     40  O   UNL A   1      41.859  25.811  24.985  1.00  0.00    -0.246 OA
BRANCH  39  41
ATOM     41  C   UNL A   1      43.378  25.691  26.828  1.00  0.00     0.060 A 
ATOM     42  C   UNL A   1      44.048  26.910  27.027  1.00  0.00     0.016 A 
ATOM     43  C   UNL A   1      43.508  24.684  27.771  1.00  0.00     0.016 A 
ATOM     44  C   UNL A   1      45.007  27.029  28.047  1.00  0.00     0.010 A 
ATOM     45  C   UNL A   1      44.526  24.778  28.694  1.00  0.00     0.010 A 
ATOM     46  C   UNL A   1      45.339  25.915  28.807  1.00  0.00    -0.014 A 
BRANCH  46  47
ATOM     47  C   UNL A   1      46.567  25.758  29.623  1.00  0.00     0.031 A 
ATOM     48  C   UNL A   1      47.868  25.468  28.918  1.00  0.00     0.074 A 
ATOM     49  C   UNL A   1      46.569  26.267  30.889  1.00  0.00     0.049 A 
ATOM     50  N   UNL A   1      49.028  25.441  29.477  1.00  0.00    -0.248 NA
ATOM     51  C   UNL A   1      47.985  25.262  27.470  1.00  0.00     0.031 C 
ATOM     52  C   UNL A   1      47.727  26.694  31.679  1.00  0.00     0.029 A 
ATOM     53  N   UNL A   1      45.531  26.569  31.763  1.00  0.00    -0.354 N 
ATOM     54  C   UNL A   1      50.000  25.611  28.506  1.00  0.00     0.074 A 
ATOM     55  C   UNL A   1      49.302  25.406  27.264  1.00  0.00     0.031 C 
ATOM     56  C   UNL A   1      47.373  27.032  32.926  1.00  0.00     0.029 A 
ATOM     57  C   UNL A   1      46.022  26.570  33.075  1.00  0.00     0.049 A 
ATOM     58  H   UNL A   1      44.600  26.753  31.503  1.00  0.00     0.167 HD
ATOM     59  C   UNL A   1      51.246  26.043  28.877  1.00  0.00     0.031 A 
ATOM     60  C   UNL A   1      45.696  25.601  33.981  1.00  0.00     0.031 A 
ATOM     61  C   UNL A   1      51.385  26.086  30.348  1.00  0.00     0.049 A 
ATOM     62  C   UNL A   1      46.956  24.749  34.232  1.00  0.00     0.074 A 
ATOM     63  C   UNL A   1      51.780  27.044  31.265  1.00  0.00     0.029 A 
ATOM     64  N   UNL A   1      50.877  25.032  31.110  1.00  0.00    -0.354 N 
ATOM     65  N   UNL A   1      47.870  24.507  33.308  1.00  0.00    -0.248 NA
ATOM     66  C   UNL A   1      47.442  24.424  35.575  1.00  0.00     0.031 C 
ATOM     67  C   UNL A   1      51.305  26.640  32.553  1.00  0.00     0.029 A 
ATOM     68  C   UNL A   1      50.715  25.385  32.435  1.00  0.00     0.049 A 
ATOM     69  H   UNL A   1      50.659  24.143  30.746  1.00  0.00     0.167 HD
ATOM     70  C   UNL A   1      49.074  24.244  33.922  1.00  0.00     0.074 A 
ATOM     71  C   UNL A   1      48.733  24.121  35.336  1.00  0.00     0.031 C 
ATOM     72  C   UNL A   1      50.343  24.371  33.413  1.00  0.00     0.031 A 
BRANCH  59  73
ATOM     73  C   UNL A   1      52.311  26.617  27.935  1.00  0.00    -0.014 A 
ATOM     74  C   UNL A   1      53.231  25.745  27.310  1.00  0.00     0.009 A 
ATOM     75  C   UNL A   1      52.523  27.985  27.672  1.00  0.00     0.009 A 
ATOM     76  C   UNL A   1      54.282  26.200  26.492  1.00  0.00     0.001 A 
ATOM     77  C   UNL A   1      53.551  28.447  26.825  1.00  0.00     0.001 A 
ATOM     78  C   UNL A   1      54.437  27.554  26.239  1.00  0.00     0.000 A 
ENDBRANCH  59  73
BRANCH  60  79
ATOM     79  C   UNL A   1      44.224  25.314  33.920  1.00  0.00    -0.014 A 
ATOM     80  C   UNL A   1      43.925  23.927  33.858  1.00  0.00     0.009 A 
ATOM     81  C   UNL A   1      43.303  26.141  34.584  1.00  0.00     0.009 A 
ATOM     82  C   UNL A   1      42.941  23.360  34.680  1.00  0.00     0.001 A 
ATOM     83  C   UNL A   1      42.283  25.565  35.371  1.00  0.00     0.001 A 
ATOM     84  C   UNL A   1      42.158  24.178  35.484  1.00  0.00     0.000 A 
ENDBRANCH  60  79
BRANCH  72  85
ATOM     85  C   UNL A   1      51.430  23.379  33.766  1.00  0.00    -0.014 A 
ATOM     86  C   UNL A   1      52.363  23.615  34.779  1.00  0.00     0.009 A 
ATOM     87  C   UNL A   1      51.366  22.061  33.248  1.00  0.00     0.009 A 
ATOM     88  C   UNL A   1      53.194  22.593  35.244  1.00  0.00     0.001 A 
ATOM     89  C   UNL A   1      52.155  21.028  33.746  1.00  0.00     0.001 A 
ATOM     90  C   UNL A   1      53.077  21.299  34.744  1.00  0.00     0.000 A 
ENDBRANCH  72  85
ENDBRANCH  46  47
ENDBRANCH  39  41
ENDBRANCH  38  39
ENDBRANCH  37  38
ENDBRANCH  36  37
ENDBRANCH  35  36
ENDBRANCH  34  35
ENDBRANCH  33  34
ENDBRANCH  32  33
ENDBRANCH   1  32
TORSDOF 23
ENDMDL
MODEL 3
REMARK VINA RESULT:      -9.7      3.083      8.479
REMARK SMILES Cc1c(NC(=O)c2ccc(-c3cccc(Cl)c3)o2)cccc1C(=O)OCCOCCOCCOCCOC(=O)c1ccc(-c2c3nc(c(-c4ccccc4)c4ccc([nH]4)c(-c4ccccc4)c4nc(c(-c5ccccc5)c5ccc2[nH]5)C=C4)C=C3)cc1
REMARK SMILES IDX 30 1 29 2 28 3 27 4 26 5 25 6 23 7 24 8 22 9 1 10 2 11 3 12
REMARK SMILES IDX 19 13 21 14 20 15 4 16 5 17 6 19 7 20 8 21 18 22 9 23 10 24
REMARK SMILES IDX 11 25 12 26 17 27 13 28 15 29 14 30 16 31 31 32 32 33 33 34
REMARK SMILES IDX 34 35 35 36 36 37 37 38 38 39 39 40 40 41 41 42 87 43 42 44
REMARK SMILES IDX 86 45 43 46 44 47 45 48 80 49 46 50 85 51 79 52 81 53 47 54
REMARK SMILES IDX 84 55 78 56 77 57 48 59 70 60 55 61 69 62 56 63 59 64 68 65
REMARK SMILES IDX 82 66 57 67 58 68 67 70 83 71 60 72 49 73 50 74 54 75 51 76
REMARK SMILES IDX 53 77 52 78 71 79 72 80 76 81 73 82 75 83 74 84 61 85 62 86
REMARK SMILES IDX 66 87 63 88 65 89 64 90
REMARK H PARENT 4 18 81 58 59 69
REMARK Flexibility Score: inf
ROOT
ATOM      1  C   UNL A   1      36.084  30.258  27.701  1.00  0.00     0.188 C 
ENDROOT
BRANCH   1   2
ATOM      2  C   UNL A   1      34.773  31.010  27.407  1.00  0.00     0.188 C 
BRANCH   2   3
ATOM      3  O   UNL A   1      33.525  30.340  27.405  1.00  0.00    -0.376 OA
BRANCH   3   4
ATOM      4  C   UNL A   1      32.419  31.045  26.856  1.00  0.00     0.202 C 
BRANCH   4   5
ATOM      5  C   UNL A   1      31.591  30.371  25.787  1.00  0.00     0.261 C 
BRANCH   5   6
ATOM      6  O   UNL A   1      32.461  29.580  24.997  1.00  0.00    -0.460 OA
BRANCH   6   7
ATOM      7  C   UNL A   1      31.812  28.938  24.024  1.00  0.00     0.338 C 
ATOM      8  O   UNL A   1      31.062  29.414  23.198  1.00  0.00    -0.246 OA
BRANCH   7   9
ATOM      9  C   UNL A   1      32.417  27.611  23.850  1.00  0.00     0.065 A 
ATOM     10  C   UNL A   1      31.994  26.559  26.167  1.00  0.00     0.047 C 
ATOM     11  C   UNL A   1      32.324  26.490  24.702  1.00  0.00    -0.013 A 
ATOM     12  C   UNL A   1      32.606  25.249  24.122  1.00  0.00     0.045 A 
ATOM     13  C   UNL A   1      32.977  25.223  22.772  1.00  0.00     0.026 A 
ATOM     14  C   UNL A   1      33.111  27.556  22.633  1.00  0.00     0.016 A 
ATOM     15  C   UNL A   1      33.392  26.342  22.079  1.00  0.00     0.003 A 
BRANCH  12  16
ATOM     16  N   UNL A   1      32.485  24.059  24.881  1.00  0.00    -0.319 N 
ATOM     17  C   UNL A   1      33.397  23.031  25.078  1.00  0.00     0.291 C 
ATOM     18  H   UNL A   1      31.621  23.943  25.338  1.00  0.00     0.170 HD
ATOM     19  O   UNL A   1      33.034  22.027  25.691  1.00  0.00    -0.265 OA
BRANCH  17  20
ATOM     20  C   UNL A   1      34.753  23.239  24.620  1.00  0.00     0.192 A 
ATOM     21  C   UNL A   1      35.333  23.009  23.385  1.00  0.00     0.057 A 
ATOM     22  O   UNL A   1      35.731  23.440  25.561  1.00  0.00    -0.451 OA
ATOM     23  C   UNL A   1      36.732  22.951  23.606  1.00  0.00     0.052 A 
ATOM     24  C   UNL A   1      36.927  23.188  24.953  1.00  0.00     0.135 A 
BRANCH  24  25
ATOM     25  C   UNL A   1      38.091  23.117  25.820  1.00  0.00     0.019 A 
ATOM     26  C   UNL A   1      38.812  21.921  25.892  1.00  0.00     0.012 A 
ATOM     27  C   UNL A   1      38.479  24.198  26.630  1.00  0.00     0.032 A 
ATOM     28  C   UNL A   1      39.920  21.807  26.729  1.00  0.00     0.002 A 
ATOM     29  C   UNL A   1      39.581  24.072  27.478  1.00  0.00     0.041 A 
ATOM     30  C   UNL A   1      40.307  22.884  27.525  1.00  0.00     0.020 A 
ATOM     31  Cl  UNL A   1      40.047  25.387  28.488  1.00  0.00    -0.084 Cl
ENDBRANCH  24  25
ENDBRANCH  17  20
ENDBRANCH  12  16
ENDBRANCH   7   9
ENDBRANCH   6   7
ENDBRANCH   5   6
ENDBRANCH   4   5
ENDBRANCH   3   4
ENDBRANCH   2   3
ENDBRANCH   1   2
BRANCH   1  32
ATOM     32  O   UNL A   1      36.138  29.251  28.697  1.00  0.00    -0.377 OA
BRANCH  32  33
ATOM     33  C   UNL A   1      36.994  29.442  29.820  1.00  0.00     0.188 C 
BRANCH  33  34
ATOM     34  C   UNL A   1      36.412  30.093  31.067  1.00  0.00     0.188 C 
BRANCH  34  35
ATOM     35  O   UNL A   1      37.107  29.602  32.212  1.00  0.00    -0.376 OA
BRANCH  35  36
ATOM     36  C   UNL A   1      37.717  30.588  33.041  1.00  0.00     0.202 C 
BRANCH  36  37
ATOM     37  C   UNL A   1      39.016  31.164  32.465  1.00  0.00     0.261 C 
BRANCH  37  38
ATOM     38  O   UNL A   1      39.819  30.097  31.923  1.00  0.00    -0.460 OA
BRANCH  38  39
ATOM     39  C   UNL A   1      40.706  29.538  32.788  1.00  0.00     0.338 C 
ATOM     40  O   UNL A   1      41.080  30.033  33.839  1.00  0.00    -0.246 OA
BRANCH  39  41
ATOM     41  C   UNL A   1      41.390  28.384  32.135  1.00  0.00     0.060 A 
ATOM     42  C   UNL A   1      42.550  27.834  32.705  1.00  0.00     0.016 A 
ATOM     43  C   UNL A   1      41.091  28.112  30.810  1.00  0.00     0.016 A 
ATOM     44  C   UNL A   1      43.506  27.202  31.891  1.00  0.00     0.010 A 
ATOM     45  C   UNL A   1      42.082  27.589  30.009  1.00  0.00     0.010 A 
ATOM     46  C   UNL A   1      43.328  27.190  30.512  1.00  0.00    -0.014 A 
BRANCH  46  47
ATOM     47  C   UNL A   1      44.386  26.935  29.506  1.00  0.00     0.031 A 
ATOM     48  C   UNL A   1      44.740  25.506  29.179  1.00  0.00     0.074 A 
ATOM     49  C   UNL A   1      44.706  27.939  28.640  1.00  0.00     0.049 A 
ATOM     50  N   UNL A   1      45.536  25.134  28.237  1.00  0.00    -0.248 NA
ATOM     51  C   UNL A   1      44.147  24.343  29.847  1.00  0.00     0.031 C 
ATOM     52  C   UNL A   1      45.295  27.813  27.304  1.00  0.00     0.029 A 
ATOM     53  N   UNL A   1      44.542  29.318  28.724  1.00  0.00    -0.354 N 
ATOM     54  C   UNL A   1      45.274  23.811  27.924  1.00  0.00     0.074 A 
ATOM     55  C   UNL A   1      44.462  23.341  29.015  1.00  0.00     0.031 C 
ATOM     56  C   UNL A   1      45.586  29.012  26.781  1.00  0.00     0.029 A 
ATOM     57  C   UNL A   1      45.458  29.942  27.867  1.00  0.00     0.049 A 
ATOM     58  H   UNL A   1      43.887  29.781  29.295  1.00  0.00     0.167 HD
ATOM     59  C   UNL A   1      45.666  23.324  26.704  1.00  0.00     0.031 A 
ATOM     60  C   UNL A   1      46.531  30.649  28.330  1.00  0.00     0.031 A 
ATOM     61  C   UNL A   1      46.495  24.305  25.973  1.00  0.00     0.049 A 
ATOM     62  C   UNL A   1      47.803  29.844  27.999  1.00  0.00     0.074 A 
ATOM     63  C   UNL A   1      46.455  24.872  24.712  1.00  0.00     0.029 A 
ATOM     64  N   UNL A   1      47.478  25.015  26.666  1.00  0.00    -0.354 N 
ATOM     65  N   UNL A   1      47.846  28.523  27.973  1.00  0.00    -0.248 NA
ATOM     66  C   UNL A   1      48.973  30.438  27.346  1.00  0.00     0.031 C 
ATOM     67  C   UNL A   1      47.263  26.053  24.736  1.00  0.00     0.029 A 
ATOM     68  C   UNL A   1      47.878  26.144  25.980  1.00  0.00     0.049 A 
ATOM     69  H   UNL A   1      47.841  24.743  27.541  1.00  0.00     0.167 HD
ATOM     70  C   UNL A   1      48.862  28.120  27.136  1.00  0.00     0.074 A 
ATOM     71  C   UNL A   1      49.587  29.351  26.838  1.00  0.00     0.031 C 
ATOM     72  C   UNL A   1      49.005  26.927  26.471  1.00  0.00     0.031 A 
BRANCH  59  73
ATOM     73  C   UNL A   1      45.162  22.030  26.055  1.00  0.00    -0.014 A 
ATOM     74  C   UNL A   1      43.789  21.704  26.126  1.00  0.00     0.009 A 
ATOM     75  C   UNL A   1      45.968  21.056  25.434  1.00  0.00     0.009 A 
ATOM     76  C   UNL A   1      43.261  20.501  25.621  1.00  0.00     0.001 A 
ATOM     77  C   UNL A   1      45.442  19.864  24.894  1.00  0.00     0.001 A 
ATOM     78  C   UNL A   1      44.087  19.582  24.993  1.00  0.00     0.000 A 
ENDBRANCH  59  73
BRANCH  60  79
ATOM     79  C   UNL A   1      46.111  31.537  29.465  1.00  0.00    -0.014 A 
ATOM     80  C   UNL A   1      45.231  32.578  29.066  1.00  0.00     0.009 A 
ATOM     81  C   UNL A   1      45.948  31.019  30.761  1.00  0.00     0.009 A 
ATOM     82  C   UNL A   1      44.064  32.859  29.790  1.00  0.00     0.001 A 
ATOM     83  C   UNL A   1      44.794  31.344  31.506  1.00  0.00     0.001 A 
ATOM     84  C   UNL A   1      43.816  32.194  30.984  1.00  0.00     0.000 A 
ENDBRANCH  60  79
BRANCH  72  85
ATOM     85  C   UNL A   1      50.365  26.287  26.298  1.00  0.00    -0.014 A 
ATOM     86  C   UNL A   1      51.032  26.261  25.070  1.00  0.00     0.009 A 
ATOM     87  C   UNL A   1      51.118  25.925  27.444  1.00  0.00     0.009 A 
ATOM     88  C   UNL A   1      52.375  25.886  24.988  1.00  0.00     0.001 A 
ATOM     89  C   UNL A   1      52.470  25.603  27.372  1.00  0.00     0.001 A 
ATOM     90  C   UNL A   1      53.098  25.577  26.138  1.00  0.00     0.000 A 
ENDBRANCH  72  85
ENDBRANCH  46  47
ENDBRANCH  39  41
ENDBRANCH  38  39
ENDBRANCH  37  38
ENDBRANCH  36  37
ENDBRANCH  35  36
ENDBRANCH  34  35
ENDBRANCH  33  34
ENDBRANCH  32  33
ENDBRANCH   1  32
TORSDOF 23
ENDMDL
