MODEL 1
REMARK VINA RESULT:     -10.8      0.000      0.000
REMARK SMILES O=C1C[C@H](c2cn[nH]c2C(=O)OCCOCCOCCOCCOC(=O)c2ccc(-c3c4nc(c(-c5ccccc5)c5ccc([nH]5)c(-c5ccccc5)c5nc(c(-c6ccccc6)c6ccc3[nH]6)C=C5)C=C4)cc2)c2c(-c3cccs3)n[nH]c2N1
REMARK SMILES IDX 18 1 17 2 16 3 15 4 14 5 13 6 12 7 10 8 11 9 9 10 5 11 6 12
REMARK SMILES IDX 7 13 8 14 4 16 1 17 2 18 3 19 85 20 84 21 75 23 83 24 76 25
REMARK SMILES IDX 82 26 77 28 78 29 81 30 79 31 80 32 19 33 20 34 21 35 22 36
REMARK SMILES IDX 23 37 24 38 25 39 26 40 27 41 28 42 74 43 29 44 73 45 30 46
REMARK SMILES IDX 31 47 32 48 67 49 33 50 72 51 66 52 68 53 34 54 71 55 65 56
REMARK SMILES IDX 64 57 35 59 57 60 42 61 56 62 43 63 46 64 55 65 69 66 44 67
REMARK SMILES IDX 45 68 54 70 70 71 47 72 36 73 37 74 41 75 38 76 40 77 39 78
REMARK SMILES IDX 58 79 59 80 63 81 60 82 62 83 61 84 48 85 49 86 53 87 50 88
REMARK SMILES IDX 52 89 51 90
REMARK H PARENT 8 15 85 22 83 27 68 58 46 69
REMARK Flexibility Score: inf
ROOT
ATOM      1  O   UNL A   1      37.723  20.572  24.895  1.00  0.00    -0.377 OA
ENDROOT
BRANCH   1   2
ATOM      2  C   UNL A   1      36.401  20.069  24.985  1.00  0.00     0.188 C 
BRANCH   2   3
ATOM      3  C   UNL A   1      35.243  21.084  25.149  1.00  0.00     0.188 C 
BRANCH   3   4
ATOM      4  O   UNL A   1      34.119  20.659  25.888  1.00  0.00    -0.376 OA
BRANCH   4   5
ATOM      5  C   UNL A   1      32.906  20.215  25.315  1.00  0.00     0.202 C 
BRANCH   5   6
ATOM      6  C   UNL A   1      31.817  21.128  24.742  1.00  0.00     0.261 C 
BRANCH   6   7
ATOM      7  O   UNL A   1      32.250  22.162  23.860  1.00  0.00    -0.459 OA
BRANCH   7   8
ATOM      8  C   UNL A   1      31.767  23.407  24.124  1.00  0.00     0.356 C 
ATOM      9  O   UNL A   1      30.588  23.709  24.080  1.00  0.00    -0.244 OA
BRANCH   8  10
ATOM     10  C   UNL A   1      32.782  24.263  24.696  1.00  0.00     0.147 A 
ATOM     11  C   UNL A   1      33.415  25.480  24.416  1.00  0.00     0.013 A 
ATOM     12  C   UNL A   1      34.301  25.637  25.528  1.00  0.00     0.140 A 
ATOM     13  N   UNL A   1      34.290  24.613  26.371  1.00  0.00    -0.183 NA
ATOM     14  N   UNL A   1      33.347  23.817  25.868  1.00  0.00    -0.271 N 
ATOM     15  H   UNL A   1      33.074  22.976  26.302  1.00  0.00     0.190 HD
BRANCH  11  16
ATOM     16  C   UNL A   1      33.273  26.573  23.358  1.00  0.00     0.069 C 
ATOM     17  O   UNL A   1      33.013  25.183  19.874  1.00  0.00    -0.275 OA
ATOM     18  C   UNL A   1      32.721  25.818  20.890  1.00  0.00     0.226 C 
ATOM     19  C   UNL A   1      33.771  26.124  21.956  1.00  0.00     0.114 C 
ATOM     20  N   UNL A   1      31.471  26.369  21.011  1.00  0.00    -0.311 N 
ATOM     21  C   UNL A   1      31.149  27.065  22.140  1.00  0.00     0.132 A 
ATOM     22  H   UNL A   1      30.811  26.264  20.289  1.00  0.00     0.171 HD
ATOM     23  C   UNL A   1      31.946  27.223  23.242  1.00  0.00     0.031 A 
ATOM     24  N   UNL A   1      29.969  27.685  22.409  1.00  0.00    -0.262 N 
ATOM     25  C   UNL A   1      31.172  28.014  24.129  1.00  0.00     0.108 A 
ATOM     26  N   UNL A   1      29.934  28.222  23.647  1.00  0.00    -0.173 NA
ATOM     27  H   UNL A   1      29.222  27.737  21.771  1.00  0.00     0.192 HD
BRANCH  25  28
ATOM     28  C   UNL A   1      31.582  28.396  25.517  1.00  0.00     0.055 A 
ATOM     29  C   UNL A   1      31.289  27.643  26.635  1.00  0.00     0.022 A 
ATOM     30  S   UNL A   1      32.572  29.733  25.892  1.00  0.00    -0.142 S 
ATOM     31  C   UNL A   1      32.020  28.085  27.776  1.00  0.00     0.012 A 
ATOM     32  C   UNL A   1      32.711  29.250  27.525  1.00  0.00     0.065 A 
ENDBRANCH  25  28
ENDBRANCH  11  16
ENDBRANCH   8  10
ENDBRANCH   7   8
ENDBRANCH   6   7
ENDBRANCH   5   6
ENDBRANCH   4   5
ENDBRANCH   3   4
ENDBRANCH   2   3
ENDBRANCH   1   2
BRANCH   1  33
ATOM     33  C   UNL A   1      37.905  21.880  25.390  1.00  0.00     0.188 C 
BRANCH  33  34
ATOM     34  C   UNL A   1      39.187  22.070  26.224  1.00  0.00     0.188 C 
BRANCH  34  35
ATOM     35  O   UNL A   1      40.442  21.466  25.914  1.00  0.00    -0.376 OA
BRANCH  35  36
ATOM     36  C   UNL A   1      41.011  20.367  26.613  1.00  0.00     0.202 C 
BRANCH  36  37
ATOM     37  C   UNL A   1      42.341  19.743  26.195  1.00  0.00     0.261 C 
BRANCH  37  38
ATOM     38  O   UNL A   1      42.940  20.396  25.102  1.00  0.00    -0.460 OA
BRANCH  38  39
ATOM     39  C   UNL A   1      44.245  20.103  24.967  1.00  0.00     0.338 C 
ATOM     40  O   UNL A   1      44.799  19.048  25.221  1.00  0.00    -0.246 OA
BRANCH  39  41
ATOM     41  C   UNL A   1      44.949  21.327  24.535  1.00  0.00     0.060 A 
ATOM     42  C   UNL A   1      46.032  21.617  25.359  1.00  0.00     0.016 A 
ATOM     43  C   UNL A   1      44.158  22.322  23.943  1.00  0.00     0.016 A 
ATOM     44  C   UNL A   1      45.966  22.810  26.020  1.00  0.00     0.010 A 
ATOM     45  C   UNL A   1      44.089  23.514  24.604  1.00  0.00     0.010 A 
ATOM     46  C   UNL A   1      44.900  23.666  25.723  1.00  0.00    -0.014 A 
BRANCH  46  47
ATOM     47  C   UNL A   1      44.680  24.773  26.611  1.00  0.00     0.031 A 
ATOM     48  C   UNL A   1      45.802  25.723  26.558  1.00  0.00     0.074 A 
ATOM     49  C   UNL A   1      43.552  24.907  27.330  1.00  0.00     0.049 A 
ATOM     50  N   UNL A   1      46.712  25.912  27.450  1.00  0.00    -0.248 NA
ATOM     51  C   UNL A   1      46.075  26.352  25.255  1.00  0.00     0.031 C 
ATOM     52  C   UNL A   1      42.289  24.172  27.225  1.00  0.00     0.029 A 
ATOM     53  N   UNL A   1      43.273  25.851  28.258  1.00  0.00    -0.354 N 
ATOM     54  C   UNL A   1      47.576  26.840  26.889  1.00  0.00     0.074 A 
ATOM     55  C   UNL A   1      47.272  26.887  25.483  1.00  0.00     0.031 C 
ATOM     56  C   UNL A   1      41.319  24.874  27.861  1.00  0.00     0.029 A 
ATOM     57  C   UNL A   1      41.924  26.020  28.519  1.00  0.00     0.049 A 
ATOM     58  H   UNL A   1      43.973  26.375  28.712  1.00  0.00     0.167 HD
ATOM     59  C   UNL A   1      48.272  27.712  27.663  1.00  0.00     0.031 A 
ATOM     60  C   UNL A   1      41.374  27.091  29.145  1.00  0.00     0.031 A 
ATOM     61  C   UNL A   1      48.295  27.298  29.041  1.00  0.00     0.049 A 
ATOM     62  C   UNL A   1      42.472  27.808  29.847  1.00  0.00     0.074 A 
ATOM     63  C   UNL A   1      48.806  26.206  29.715  1.00  0.00     0.029 A 
ATOM     64  N   UNL A   1      47.360  27.863  29.876  1.00  0.00    -0.354 N 
ATOM     65  N   UNL A   1      43.114  27.309  30.866  1.00  0.00    -0.248 NA
ATOM     66  C   UNL A   1      43.189  28.841  29.109  1.00  0.00     0.031 C 
ATOM     67  C   UNL A   1      47.835  25.903  30.712  1.00  0.00     0.029 A 
ATOM     68  C   UNL A   1      46.820  26.860  30.641  1.00  0.00     0.049 A 
ATOM     69  H   UNL A   1      47.121  28.817  29.918  1.00  0.00     0.167 HD
ATOM     70  C   UNL A   1      44.446  27.640  30.651  1.00  0.00     0.074 A 
ATOM     71  C   UNL A   1      44.420  28.654  29.596  1.00  0.00     0.031 C 
ATOM     72  C   UNL A   1      45.457  26.854  31.127  1.00  0.00     0.031 A 
BRANCH  59  73
ATOM     73  C   UNL A   1      48.530  29.134  27.242  1.00  0.00    -0.014 A 
ATOM     74  C   UNL A   1      49.859  29.548  27.070  1.00  0.00     0.009 A 
ATOM     75  C   UNL A   1      47.550  30.146  27.277  1.00  0.00     0.009 A 
ATOM     76  C   UNL A   1      50.191  30.905  27.011  1.00  0.00     0.001 A 
ATOM     77  C   UNL A   1      47.872  31.499  27.176  1.00  0.00     0.001 A 
ATOM     78  C   UNL A   1      49.198  31.880  27.073  1.00  0.00     0.000 A 
ENDBRANCH  59  73
BRANCH  60  79
ATOM     79  C   UNL A   1      40.065  27.726  28.867  1.00  0.00    -0.014 A 
ATOM     80  C   UNL A   1      39.063  27.785  29.848  1.00  0.00     0.009 A 
ATOM     81  C   UNL A   1      39.893  28.510  27.711  1.00  0.00     0.009 A 
ATOM     82  C   UNL A   1      37.942  28.615  29.684  1.00  0.00     0.001 A 
ATOM     83  C   UNL A   1      38.777  29.337  27.548  1.00  0.00     0.001 A 
ATOM     84  C   UNL A   1      37.806  29.398  28.540  1.00  0.00     0.000 A 
ENDBRANCH  60  79
BRANCH  72  85
ATOM     85  C   UNL A   1      45.093  25.719  32.054  1.00  0.00    -0.014 A 
ATOM     86  C   UNL A   1      44.991  25.869  33.449  1.00  0.00     0.009 A 
ATOM     87  C   UNL A   1      44.656  24.516  31.481  1.00  0.00     0.009 A 
ATOM     88  C   UNL A   1      44.478  24.837  34.245  1.00  0.00     0.001 A 
ATOM     89  C   UNL A   1      44.127  23.494  32.272  1.00  0.00     0.001 A 
ATOM     90  C   UNL A   1      44.041  23.653  33.653  1.00  0.00     0.000 A 
ENDBRANCH  72  85
ENDBRANCH  46  47
ENDBRANCH  39  41
ENDBRANCH  38  39
ENDBRANCH  37  38
ENDBRANCH  36  37
ENDBRANCH  35  36
ENDBRANCH  34  35
ENDBRANCH  33  34
ENDBRANCH   1  33
TORSDOF 22
ENDMDL
MODEL 2
REMARK VINA RESULT:     -10.6      1.858      2.951
REMARK SMILES O=C1C[C@H](c2cn[nH]c2C(=O)OCCOCCOCCOCCOC(=O)c2ccc(-c3c4nc(c(-c5ccccc5)c5ccc([nH]5)c(-c5ccccc5)c5nc(c(-c6ccccc6)c6ccc3[nH]6)C=C5)C=C4)cc2)c2c(-c3cccs3)n[nH]c2N1
REMARK SMILES IDX 18 1 17 2 16 3 15 4 14 5 13 6 12 7 10 8 11 9 9 10 5 11 6 12
REMARK SMILES IDX 7 13 8 14 4 16 1 17 2 18 3 19 85 20 84 21 75 23 83 24 76 25
REMARK SMILES IDX 82 26 77 28 78 29 81 30 79 31 80 32 19 33 20 34 21 35 22 36
REMARK SMILES IDX 23 37 24 38 25 39 26 40 27 41 28 42 74 43 29 44 73 45 30 46
REMARK SMILES IDX 31 47 32 48 67 49 33 50 72 51 66 52 68 53 34 54 71 55 65 56
REMARK SMILES IDX 64 57 35 59 57 60 42 61 56 62 43 63 46 64 55 65 69 66 44 67
REMARK SMILES IDX 45 68 54 70 70 71 47 72 36 73 37 74 41 75 38 76 40 77 39 78
REMARK SMILES IDX 58 79 59 80 63 81 60 82 62 83 61 84 48 85 49 86 53 87 50 88
REMARK SMILES IDX 52 89 51 90
REMARK H PARENT 8 15 85 22 83 27 68 58 46 69
REMARK Flexibility Score: inf
ROOT
ATOM      1  O   UNL A   1      39.000  20.222  25.364  1.00  0.00    -0.377 OA
ENDROOT
BRANCH   1   2
ATOM      2  C   UNL A   1      37.629  20.176  25.003  1.00  0.00     0.188 C 
BRANCH   2   3
ATOM      3  C   UNL A   1      36.740  21.392  25.361  1.00  0.00     0.188 C 
BRANCH   3   4
ATOM      4  O   UNL A   1      36.495  22.329  24.335  1.00  0.00    -0.376 OA
BRANCH   4   5
ATOM      5  C   UNL A   1      36.382  23.723  24.535  1.00  0.00     0.202 C 
BRANCH   5   6
ATOM      6  C   UNL A   1      35.407  24.397  25.507  1.00  0.00     0.261 C 
BRANCH   6   7
ATOM      7  O   UNL A   1      34.323  25.119  24.925  1.00  0.00    -0.459 OA
BRANCH   7   8
ATOM      8  C   UNL A   1      33.451  25.686  25.802  1.00  0.00     0.356 C 
ATOM      9  O   UNL A   1      33.553  26.819  26.237  1.00  0.00    -0.244 OA
BRANCH   8  10
ATOM     10  C   UNL A   1      32.264  24.878  25.972  1.00  0.00     0.147 A 
ATOM     11  C   UNL A   1      31.133  24.498  25.241  1.00  0.00     0.013 A 
ATOM     12  C   UNL A   1      30.445  23.634  26.150  1.00  0.00     0.140 A 
ATOM     13  N   UNL A   1      31.025  23.537  27.339  1.00  0.00    -0.183 NA
ATOM     14  N   UNL A   1      32.132  24.265  27.197  1.00  0.00    -0.271 N 
ATOM     15  H   UNL A   1      32.803  24.356  27.911  1.00  0.00     0.190 HD
BRANCH  11  16
ATOM     16  C   UNL A   1      30.626  24.709  23.814  1.00  0.00     0.069 C 
ATOM     17  O   UNL A   1      29.780  28.302  23.101  1.00  0.00    -0.275 OA
ATOM     18  C   UNL A   1      30.311  27.195  22.987  1.00  0.00     0.226 C 
ATOM     19  C   UNL A   1      29.722  25.965  23.674  1.00  0.00     0.114 C 
ATOM     20  N   UNL A   1      31.370  27.034  22.130  1.00  0.00    -0.311 N 
ATOM     21  C   UNL A   1      31.960  25.810  22.012  1.00  0.00     0.132 A 
ATOM     22  H   UNL A   1      31.702  27.798  21.604  1.00  0.00     0.171 HD
ATOM     23  C   UNL A   1      31.642  24.691  22.735  1.00  0.00     0.031 A 
ATOM     24  N   UNL A   1      33.000  25.478  21.202  1.00  0.00    -0.262 N 
ATOM     25  C   UNL A   1      32.525  23.693  22.249  1.00  0.00     0.108 A 
ATOM     26  N   UNL A   1      33.406  24.203  21.372  1.00  0.00    -0.173 NA
ATOM     27  H   UNL A   1      33.412  26.101  20.560  1.00  0.00     0.192 HD
BRANCH  25  28
ATOM     28  C   UNL A   1      32.622  22.299  22.787  1.00  0.00     0.055 A 
ATOM     29  C   UNL A   1      33.208  21.985  23.995  1.00  0.00     0.022 A 
ATOM     30  S   UNL A   1      31.911  20.934  22.050  1.00  0.00    -0.142 S 
ATOM     31  C   UNL A   1      32.925  20.643  24.386  1.00  0.00     0.012 A 
ATOM     32  C   UNL A   1      32.279  19.943  23.392  1.00  0.00     0.065 A 
ENDBRANCH  25  28
ENDBRANCH  11  16
ENDBRANCH   8  10
ENDBRANCH   7   8
ENDBRANCH   6   7
ENDBRANCH   5   6
ENDBRANCH   4   5
ENDBRANCH   3   4
ENDBRANCH   2   3
ENDBRANCH   1   2
BRANCH   1  33
ATOM     33  C   UNL A   1      39.421  21.418  25.980  1.00  0.00     0.188 C 
BRANCH  33  34
ATOM     34  C   UNL A   1      40.761  21.306  26.732  1.00  0.00     0.188 C 
BRANCH  34  35
ATOM     35  O   UNL A   1      42.002  20.970  26.113  1.00  0.00    -0.376 OA
BRANCH  35  36
ATOM     36  C   UNL A   1      42.495  19.648  25.942  1.00  0.00     0.202 C 
BRANCH  36  37
ATOM     37  C   UNL A   1      43.795  19.360  25.194  1.00  0.00     0.261 C 
BRANCH  37  38
ATOM     38  O   UNL A   1      44.189  20.408  24.343  1.00  0.00    -0.460 OA
BRANCH  38  39
ATOM     39  C   UNL A   1      45.367  20.954  24.694  1.00  0.00     0.338 C 
ATOM     40  O   UNL A   1      46.247  20.448  25.367  1.00  0.00    -0.246 OA
BRANCH  39  41
ATOM     41  C   UNL A   1      45.396  22.345  24.198  1.00  0.00     0.060 A 
ATOM     42  C   UNL A   1      46.518  23.030  24.653  1.00  0.00     0.016 A 
ATOM     43  C   UNL A   1      44.151  22.964  24.013  1.00  0.00     0.016 A 
ATOM     44  C   UNL A   1      46.266  24.124  25.431  1.00  0.00     0.010 A 
ATOM     45  C   UNL A   1      43.896  24.056  24.791  1.00  0.00     0.010 A 
ATOM     46  C   UNL A   1      44.932  24.517  25.595  1.00  0.00    -0.014 A 
BRANCH  46  47
ATOM     47  C   UNL A   1      44.654  25.477  26.627  1.00  0.00     0.031 A 
ATOM     48  C   UNL A   1      45.707  26.503  26.690  1.00  0.00     0.074 A 
ATOM     49  C   UNL A   1      43.534  25.435  27.368  1.00  0.00     0.049 A 
ATOM     50  N   UNL A   1      46.620  26.634  27.590  1.00  0.00    -0.248 NA
ATOM     51  C   UNL A   1      45.912  27.318  25.481  1.00  0.00     0.031 C 
ATOM     52  C   UNL A   1      42.323  24.632  27.178  1.00  0.00     0.029 A 
ATOM     53  N   UNL A   1      43.209  26.224  28.417  1.00  0.00    -0.354 N 
ATOM     54  C   UNL A   1      47.407  27.688  27.150  1.00  0.00     0.074 A 
ATOM     55  C   UNL A   1      47.073  27.900  25.766  1.00  0.00     0.031 C 
ATOM     56  C   UNL A   1      41.319  25.173  27.912  1.00  0.00     0.029 A 
ATOM     57  C   UNL A   1      41.857  26.262  28.713  1.00  0.00     0.049 A 
ATOM     58  H   UNL A   1      43.881  26.731  28.930  1.00  0.00     0.167 HD
ATOM     59  C   UNL A   1      48.057  28.496  28.027  1.00  0.00     0.031 A 
ATOM     60  C   UNL A   1      41.247  27.197  29.482  1.00  0.00     0.031 A 
ATOM     61  C   UNL A   1      48.135  27.904  29.337  1.00  0.00     0.049 A 
ATOM     62  C   UNL A   1      42.307  27.891  30.263  1.00  0.00     0.074 A 
ATOM     63  C   UNL A   1      48.732  26.771  29.853  1.00  0.00     0.029 A 
ATOM     64  N   UNL A   1      47.180  28.285  30.250  1.00  0.00    -0.354 N 
ATOM     65  N   UNL A   1      43.002  27.307  31.199  1.00  0.00    -0.248 NA
ATOM     66  C   UNL A   1      42.937  29.061  29.664  1.00  0.00     0.031 C 
ATOM     67  C   UNL A   1      47.803  26.270  30.810  1.00  0.00     0.029 A 
ATOM     68  C   UNL A   1      46.724  27.154  30.878  1.00  0.00     0.049 A 
ATOM     69  H   UNL A   1      46.876  29.206  30.422  1.00  0.00     0.167 HD
ATOM     70  C   UNL A   1      44.303  27.756  31.017  1.00  0.00     0.074 A 
ATOM     71  C   UNL A   1      44.188  28.897  30.108  1.00  0.00     0.031 C 
ATOM     72  C   UNL A   1      45.375  26.988  31.373  1.00  0.00     0.031 A 
BRANCH  59  73
ATOM     73  C   UNL A   1      48.208  29.976  27.798  1.00  0.00    -0.014 A 
ATOM     74  C   UNL A   1      47.049  30.760  27.716  1.00  0.00     0.009 A 
ATOM     75  C   UNL A   1      49.414  30.581  27.389  1.00  0.00     0.009 A 
ATOM     76  C   UNL A   1      47.087  32.052  27.182  1.00  0.00     0.001 A 
ATOM     77  C   UNL A   1      49.464  31.884  26.896  1.00  0.00     0.001 A 
ATOM     78  C   UNL A   1      48.293  32.610  26.765  1.00  0.00     0.000 A 
ENDBRANCH  59  73
BRANCH  60  79
ATOM     79  C   UNL A   1      39.893  27.770  29.305  1.00  0.00    -0.014 A 
ATOM     80  C   UNL A   1      39.009  27.896  30.389  1.00  0.00     0.009 A 
ATOM     81  C   UNL A   1      39.559  28.437  28.111  1.00  0.00     0.009 A 
ATOM     82  C   UNL A   1      37.848  28.678  30.285  1.00  0.00     0.001 A 
ATOM     83  C   UNL A   1      38.402  29.216  28.007  1.00  0.00     0.001 A 
ATOM     84  C   UNL A   1      37.551  29.346  29.099  1.00  0.00     0.000 A 
ENDBRANCH  60  79
BRANCH  72  85
ATOM     85  C   UNL A   1      45.107  25.716  32.143  1.00  0.00    -0.014 A 
ATOM     86  C   UNL A   1      45.188  25.635  33.545  1.00  0.00     0.009 A 
ATOM     87  C   UNL A   1      44.575  24.623  31.443  1.00  0.00     0.009 A 
ATOM     88  C   UNL A   1      44.758  24.487  34.222  1.00  0.00     0.001 A 
ATOM     89  C   UNL A   1      44.129  23.486  32.121  1.00  0.00     0.001 A 
ATOM     90  C   UNL A   1      44.223  23.417  33.508  1.00  0.00     0.000 A 
ENDBRANCH  72  85
ENDBRANCH  46  47
ENDBRANCH  39  41
ENDBRANCH  38  39
ENDBRANCH  37  38
ENDBRANCH  36  37
ENDBRANCH  35  36
ENDBRANCH  34  35
ENDBRANCH  33  34
ENDBRANCH   1  33
TORSDOF 22
ENDMDL
MODEL 3
REMARK VINA RESULT:     -10.3      3.092      4.733
REMARK SMILES O=C1C[C@H](c2cn[nH]c2C(=O)OCCOCCOCCOCCOC(=O)c2ccc(-c3c4nc(c(-c5ccccc5)c5ccc([nH]5)c(-c5ccccc5)c5nc(c(-c6ccccc6)c6ccc3[nH]6)C=C5)C=C4)cc2)c2c(-c3cccs3)n[nH]c2N1
REMARK SMILES IDX 18 1 17 2 16 3 15 4 14 5 13 6 12 7 10 8 11 9 9 10 5 11 6 12
REMARK SMILES IDX 7 13 8 14 4 16 1 17 2 18 3 19 85 20 84 21 75 23 83 24 76 25
REMARK SMILES IDX 82 26 77 28 78 29 81 30 79 31 80 32 19 33 20 34 21 35 22 36
REMARK SMILES IDX 23 37 24 38 25 39 26 40 27 41 28 42 74 43 29 44 73 45 30 46
REMARK SMILES IDX 31 47 32 48 67 49 33 50 72 51 66 52 68 53 34 54 71 55 65 56
REMARK SMILES IDX 64 57 35 59 57 60 42 61 56 62 43 63 46 64 55 65 69 66 44 67
REMARK SMILES IDX 45 68 54 70 70 71 47 72 36 73 37 74 41 75 38 76 40 77 39 78
REMARK SMILES IDX 58 79 59 80 63 81 60 82 62 83 61 84 48 85 49 86 53 87 50 88
REMARK SMILES IDX 52 89 51 90
REMARK H PARENT 8 15 85 22 83 27 68 58 46 69
REMARK Flexibility Score: inf
ROOT
ATOM      1  O   UNL A   1      40.125  21.647  25.802  1.00  0.00    -0.377 OA
ENDROOT
BRANCH   1   2
ATOM      2  C   UNL A   1      38.728  21.766  26.015  1.00  0.00     0.188 C 
BRANCH   2   3
ATOM      3  C   UNL A   1      37.781  21.480  24.824  1.00  0.00     0.188 C 
BRANCH   3   4
ATOM      4  O   UNL A   1      36.467  21.985  24.916  1.00  0.00    -0.376 OA
BRANCH   4   5
ATOM      5  C   UNL A   1      35.503  21.540  25.849  1.00  0.00     0.202 C 
BRANCH   5   6
ATOM      6  C   UNL A   1      34.544  22.448  26.626  1.00  0.00     0.261 C 
BRANCH   6   7
ATOM      7  O   UNL A   1      33.234  22.605  26.082  1.00  0.00    -0.459 OA
BRANCH   7   8
ATOM      8  C   UNL A   1      32.324  23.206  26.897  1.00  0.00     0.356 C 
ATOM      9  O   UNL A   1      32.126  22.890  28.056  1.00  0.00    -0.244 OA
BRANCH   8  10
ATOM     10  C   UNL A   1      31.794  24.413  26.305  1.00  0.00     0.147 A 
ATOM     11  C   UNL A   1      32.186  25.403  25.395  1.00  0.00     0.013 A 
ATOM     12  C   UNL A   1      31.036  26.251  25.336  1.00  0.00     0.140 A 
ATOM     13  N   UNL A   1      30.061  25.891  26.161  1.00  0.00    -0.183 NA
ATOM     14  N   UNL A   1      30.526  24.767  26.707  1.00  0.00    -0.271 N 
ATOM     15  H   UNL A   1      30.004  24.232  27.346  1.00  0.00     0.190 HD
BRANCH  11  16
ATOM     16  C   UNL A   1      33.396  25.647  24.493  1.00  0.00     0.069 C 
ATOM     17  O   UNL A   1      33.341  23.515  21.397  1.00  0.00    -0.275 OA
ATOM     18  C   UNL A   1      33.384  24.524  22.105  1.00  0.00     0.226 C 
ATOM     19  C   UNL A   1      33.731  24.429  23.589  1.00  0.00     0.114 C 
ATOM     20  N   UNL A   1      33.246  25.763  21.533  1.00  0.00    -0.311 N 
ATOM     21  C   UNL A   1      33.287  26.876  22.321  1.00  0.00     0.132 A 
ATOM     22  H   UNL A   1      33.118  25.848  20.561  1.00  0.00     0.171 HD
ATOM     23  C   UNL A   1      33.387  26.891  23.686  1.00  0.00     0.031 A 
ATOM     24  N   UNL A   1      33.185  28.169  21.915  1.00  0.00    -0.262 N 
ATOM     25  C   UNL A   1      33.390  28.269  24.027  1.00  0.00     0.108 A 
ATOM     26  N   UNL A   1      33.183  29.040  22.946  1.00  0.00    -0.173 NA
ATOM     27  H   UNL A   1      33.119  28.442  20.971  1.00  0.00     0.192 HD
BRANCH  25  28
ATOM     28  C   UNL A   1      33.406  28.807  25.423  1.00  0.00     0.055 A 
ATOM     29  C   UNL A   1      34.436  28.590  26.314  1.00  0.00     0.022 A 
ATOM     30  S   UNL A   1      32.226  29.862  26.059  1.00  0.00    -0.142 S 
ATOM     31  C   UNL A   1      34.326  29.429  27.462  1.00  0.00     0.012 A 
ATOM     32  C   UNL A   1      33.139  30.127  27.478  1.00  0.00     0.065 A 
ENDBRANCH  25  28
ENDBRANCH  11  16
ENDBRANCH   8  10
ENDBRANCH   7   8
ENDBRANCH   6   7
ENDBRANCH   5   6
ENDBRANCH   4   5
ENDBRANCH   3   4
ENDBRANCH   2   3
ENDBRANCH   1   2
BRANCH   1  33
ATOM     33  C   UNL A   1      40.848  21.061  26.861  1.00  0.00     0.188 C 
BRANCH  33  34
ATOM     34  C   UNL A   1      42.321  21.506  26.946  1.00  0.00     0.188 C 
BRANCH  34  35
ATOM     35  O   UNL A   1      43.371  20.959  26.150  1.00  0.00    -0.376 OA
BRANCH  35  36
ATOM     36  C   UNL A   1      43.967  21.605  25.033  1.00  0.00     0.202 C 
BRANCH  36  37
ATOM     37  C   UNL A   1      44.273  23.101  25.032  1.00  0.00     0.261 C 
BRANCH  37  38
ATOM     38  O   UNL A   1      43.143  23.897  24.767  1.00  0.00    -0.460 OA
BRANCH  38  39
ATOM     39  C   UNL A   1      43.177  25.083  25.399  1.00  0.00     0.338 C 
ATOM     40  O   UNL A   1      43.985  25.982  25.244  1.00  0.00    -0.246 OA
BRANCH  39  41
ATOM     41  C   UNL A   1      42.101  25.099  26.409  1.00  0.00     0.060 A 
ATOM     42  C   UNL A   1      40.975  25.776  25.953  1.00  0.00     0.016 A 
ATOM     43  C   UNL A   1      42.510  25.124  27.751  1.00  0.00     0.016 A 
ATOM     44  C   UNL A   1      40.619  26.881  26.672  1.00  0.00     0.010 A 
ATOM     45  C   UNL A   1      42.157  26.229  28.471  1.00  0.00     0.010 A 
ATOM     46  C   UNL A   1      41.331  27.155  27.846  1.00  0.00    -0.014 A 
BRANCH  46  47
ATOM     47  C   UNL A   1      41.146  28.452  28.436  1.00  0.00     0.031 A 
ATOM     48  C   UNL A   1      42.279  29.338  28.127  1.00  0.00     0.074 A 
ATOM     49  C   UNL A   1      40.037  28.781  29.119  1.00  0.00     0.049 A 
ATOM     50  N   UNL A   1      43.213  29.725  28.927  1.00  0.00    -0.248 NA
ATOM     51  C   UNL A   1      42.532  29.619  26.703  1.00  0.00     0.031 C 
ATOM     52  C   UNL A   1      38.762  28.067  29.224  1.00  0.00     0.029 A 
ATOM     53  N   UNL A   1      39.793  29.931  29.789  1.00  0.00    -0.354 N 
ATOM     54  C   UNL A   1      44.076  30.469  28.136  1.00  0.00     0.074 A 
ATOM     55  C   UNL A   1      43.741  30.171  26.768  1.00  0.00     0.031 C 
ATOM     56  C   UNL A   1      37.817  28.923  29.684  1.00  0.00     0.029 A 
ATOM     57  C   UNL A   1      38.453  30.185  30.026  1.00  0.00     0.049 A 
ATOM     58  H   UNL A   1      40.510  30.537  30.086  1.00  0.00     0.167 HD
ATOM     59  C   UNL A   1      44.802  31.492  28.656  1.00  0.00     0.031 A 
ATOM     60  C   UNL A   1      37.931  31.388  30.376  1.00  0.00     0.031 A 
ATOM     61  C   UNL A   1      44.851  31.432  30.093  1.00  0.00     0.049 A 
ATOM     62  C   UNL A   1      39.055  32.236  30.857  1.00  0.00     0.074 A 
ATOM     63  C   UNL A   1      45.361  30.532  31.008  1.00  0.00     0.029 A 
ATOM     64  N   UNL A   1      43.943  32.204  30.780  1.00  0.00    -0.354 N 
ATOM     65  N   UNL A   1      39.714  31.993  31.956  1.00  0.00    -0.248 NA
ATOM     66  C   UNL A   1      39.769  33.040  29.873  1.00  0.00     0.031 C 
ATOM     67  C   UNL A   1      44.410  30.504  32.067  1.00  0.00     0.029 A 
ATOM     68  C   UNL A   1      43.407  31.433  31.779  1.00  0.00     0.049 A 
ATOM     69  H   UNL A   1      43.718  33.143  30.588  1.00  0.00     0.167 HD
ATOM     70  C   UNL A   1      41.044  32.235  31.640  1.00  0.00     0.074 A 
ATOM     71  C   UNL A   1      41.008  32.956  30.368  1.00  0.00     0.031 C 
ATOM     72  C   UNL A   1      42.055  31.573  32.277  1.00  0.00     0.031 A 
BRANCH  59  73
ATOM     73  C   UNL A   1      45.069  32.759  27.890  1.00  0.00    -0.014 A 
ATOM     74  C   UNL A   1      43.993  33.620  27.628  1.00  0.00     0.009 A 
ATOM     75  C   UNL A   1      46.265  33.005  27.185  1.00  0.00     0.009 A 
ATOM     76  C   UNL A   1      44.089  34.623  26.658  1.00  0.00     0.001 A 
ATOM     77  C   UNL A   1      46.379  34.031  26.247  1.00  0.00     0.001 A 
ATOM     78  C   UNL A   1      45.279  34.822  25.963  1.00  0.00     0.000 A 
ENDBRANCH  59  73
BRANCH  60  79
ATOM     79  C   UNL A   1      36.625  31.959  29.974  1.00  0.00    -0.014 A 
ATOM     80  C   UNL A   1      35.721  32.448  30.929  1.00  0.00     0.009 A 
ATOM     81  C   UNL A   1      36.374  32.262  28.623  1.00  0.00     0.009 A 
ATOM     82  C   UNL A   1      34.620  33.230  30.545  1.00  0.00     0.001 A 
ATOM     83  C   UNL A   1      35.277  33.040  28.239  1.00  0.00     0.001 A 
ATOM     84  C   UNL A   1      34.405  33.534  29.202  1.00  0.00     0.000 A 
ENDBRANCH  60  79
BRANCH  72  85
ATOM     85  C   UNL A   1      41.697  30.710  33.464  1.00  0.00    -0.014 A 
ATOM     86  C   UNL A   1      41.363  29.348  33.350  1.00  0.00     0.009 A 
ATOM     87  C   UNL A   1      41.890  31.243  34.747  1.00  0.00     0.009 A 
ATOM     88  C   UNL A   1      41.214  28.550  34.491  1.00  0.00     0.001 A 
ATOM     89  C   UNL A   1      41.760  30.442  35.883  1.00  0.00     0.001 A 
ATOM     90  C   UNL A   1      41.420  29.097  35.756  1.00  0.00     0.000 A 
ENDBRANCH  72  85
ENDBRANCH  46  47
ENDBRANCH  39  41
ENDBRANCH  38  39
ENDBRANCH  37  38
ENDBRANCH  36  37
ENDBRANCH  35  36
ENDBRANCH  34  35
ENDBRANCH  33  34
ENDBRANCH   1  33
TORSDOF 22
ENDMDL
