MODEL 1
REMARK VINA RESULT:      -9.8      0.000      0.000
REMARK SMILES Cc1nc(=O)c(-c2ccccc2)c(C)n1-c1ccc(C(=O)OCCOCCOCCOCCOC(=O)c2ccc(-c3c4nc(c(-c5ccccc5)c5ccc([nH]5)c(-c5ccccc5)c5nc(c(-c6ccccc6)c6ccc3[nH]6)C=C5)C=C4)cc2)cc1
REMARK SMILES IDX 28 1 27 2 26 3 25 4 24 5 23 6 22 7 20 8 21 9 19 10 16 11
REMARK SMILES IDX 17 12 86 13 18 14 85 15 15 16 1 17 2 18 3 19 4 20 13 21 5 22
REMARK SMILES IDX 6 23 14 24 7 25 8 26 12 27 9 28 11 29 10 30 29 31 30 32
REMARK SMILES IDX 31 33 32 34 33 35 34 36 35 37 36 38 37 39 38 40 84 41 39 42
REMARK SMILES IDX 83 43 40 44 41 45 42 46 77 47 43 48 82 49 76 50 78 51 44 52
REMARK SMILES IDX 81 53 75 54 74 55 45 57 67 58 52 59 66 60 53 61 56 62 65 63
REMARK SMILES IDX 79 64 54 65 55 66 64 68 80 69 57 70 46 71 47 72 51 73 48 74
REMARK SMILES IDX 50 75 49 76 68 77 69 78 73 79 70 80 72 81 71 82 58 83 59 84
REMARK SMILES IDX 63 85 60 86 62 87 61 88
REMARK H PARENT 78 56 56 67
REMARK Flexibility Score: inf
ROOT
ATOM      1  O   UNL A   1      40.238  19.184  25.682  1.00  0.00    -0.377 OA
ENDROOT
BRANCH   1   2
ATOM      2  C   UNL A   1      39.433  20.324  25.938  1.00  0.00     0.188 C 
BRANCH   2   3
ATOM      3  C   UNL A   1      38.217  20.557  25.019  1.00  0.00     0.188 C 
BRANCH   3   4
ATOM      4  O   UNL A   1      36.977  20.524  25.708  1.00  0.00    -0.376 OA
BRANCH   4   5
ATOM      5  C   UNL A   1      35.777  20.604  24.960  1.00  0.00     0.202 C 
BRANCH   5   6
ATOM      6  C   UNL A   1      34.775  21.726  25.279  1.00  0.00     0.261 C 
BRANCH   6   7
ATOM      7  O   UNL A   1      35.311  22.871  25.951  1.00  0.00    -0.460 OA
BRANCH   7   8
ATOM      8  C   UNL A   1      35.717  23.900  25.179  1.00  0.00     0.338 C 
ATOM      9  O   UNL A   1      36.839  24.082  24.740  1.00  0.00    -0.246 OA
BRANCH   8  10
ATOM     10  C   UNL A   1      34.518  24.675  24.765  1.00  0.00     0.060 A 
ATOM     11  C   UNL A   1      32.238  26.171  24.083  1.00  0.00     0.047 A 
ATOM     12  C   UNL A   1      32.805  26.282  25.363  1.00  0.00     0.027 A 
ATOM     13  C   UNL A   1      32.880  25.368  23.122  1.00  0.00     0.027 A 
ATOM     14  C   UNL A   1      33.936  25.537  25.702  1.00  0.00     0.018 A 
ATOM     15  C   UNL A   1      34.008  24.615  23.462  1.00  0.00     0.018 A 
BRANCH  11  16
ATOM     16  N   UNL A   1      30.957  26.739  23.811  1.00  0.00    -0.302 N 
ATOM     17  C   UNL A   1      29.888  24.605  24.750  1.00  0.00     0.088 C 
ATOM     18  C   UNL A   1      29.812  25.992  24.122  1.00  0.00     0.114 A 
ATOM     19  N   UNL A   1      28.597  26.420  23.980  1.00  0.00    -0.195 NA
ATOM     20  C   UNL A   1      28.358  27.677  23.494  1.00  0.00     0.281 A 
ATOM     21  C   UNL A   1      30.787  28.076  23.394  1.00  0.00     0.035 A 
ATOM     22  O   UNL A   1      27.217  28.076  23.287  1.00  0.00    -0.267 OA
ATOM     23  C   UNL A   1      29.536  28.584  23.242  1.00  0.00     0.069 A 
ATOM     24  C   UNL A   1      31.999  28.951  23.122  1.00  0.00     0.066 C 
BRANCH  23  25
ATOM     25  C   UNL A   1      29.261  29.993  22.876  1.00  0.00    -0.011 A 
ATOM     26  C   UNL A   1      29.329  30.991  23.860  1.00  0.00     0.009 A 
ATOM     27  C   UNL A   1      28.916  30.356  21.567  1.00  0.00     0.009 A 
ATOM     28  C   UNL A   1      29.080  32.326  23.536  1.00  0.00     0.001 A 
ATOM     29  C   UNL A   1      28.680  31.694  21.242  1.00  0.00     0.001 A 
ATOM     30  C   UNL A   1      28.766  32.678  22.226  1.00  0.00     0.000 A 
ENDBRANCH  23  25
ENDBRANCH  11  16
ENDBRANCH   8  10
ENDBRANCH   7   8
ENDBRANCH   6   7
ENDBRANCH   5   6
ENDBRANCH   4   5
ENDBRANCH   3   4
ENDBRANCH   2   3
ENDBRANCH   1   2
BRANCH   1  31
ATOM     31  C   UNL A   1      41.610  19.191  26.078  1.00  0.00     0.188 C 
BRANCH  31  32
ATOM     32  C   UNL A   1      42.191  20.240  27.058  1.00  0.00     0.188 C 
BRANCH  32  33
ATOM     33  O   UNL A   1      42.483  21.501  26.480  1.00  0.00    -0.376 OA
BRANCH  33  34
ATOM     34  C   UNL A   1      43.596  22.213  26.990  1.00  0.00     0.202 C 
BRANCH  34  35
ATOM     35  C   UNL A   1      43.658  23.705  26.641  1.00  0.00     0.261 C 
BRANCH  35  36
ATOM     36  O   UNL A   1      42.422  24.302  26.217  1.00  0.00    -0.460 OA
BRANCH  36  37
ATOM     37  C   UNL A   1      42.472  25.567  25.750  1.00  0.00     0.338 C 
ATOM     38  O   UNL A   1      42.708  25.926  24.608  1.00  0.00    -0.246 OA
BRANCH  37  39
ATOM     39  C   UNL A   1      42.002  26.456  26.832  1.00  0.00     0.060 A 
ATOM     40  C   UNL A   1      42.546  27.743  26.947  1.00  0.00     0.016 A 
ATOM     41  C   UNL A   1      41.007  26.025  27.712  1.00  0.00     0.016 A 
ATOM     42  C   UNL A   1      42.111  28.595  27.963  1.00  0.00     0.010 A 
ATOM     43  C   UNL A   1      40.593  26.868  28.745  1.00  0.00     0.010 A 
ATOM     44  C   UNL A   1      41.165  28.143  28.893  1.00  0.00    -0.014 A 
BRANCH  44  45
ATOM     45  C   UNL A   1      40.936  28.912  30.140  1.00  0.00     0.031 A 
ATOM     46  C   UNL A   1      39.814  29.914  30.154  1.00  0.00     0.074 A 
ATOM     47  C   UNL A   1      41.682  28.714  31.240  1.00  0.00     0.049 A 
ATOM     48  N   UNL A   1      39.445  30.733  31.104  1.00  0.00    -0.248 NA
ATOM     49  C   UNL A   1      38.997  30.001  28.930  1.00  0.00     0.031 C 
ATOM     50  C   UNL A   1      42.755  27.731  31.375  1.00  0.00     0.029 A 
ATOM     51  N   UNL A   1      41.641  29.340  32.462  1.00  0.00    -0.354 N 
ATOM     52  C   UNL A   1      38.357  31.429  30.594  1.00  0.00     0.074 A 
ATOM     53  C   UNL A   1      38.143  30.963  29.243  1.00  0.00     0.031 C 
ATOM     54  C   UNL A   1      43.274  27.822  32.612  1.00  0.00     0.029 A 
ATOM     55  C   UNL A   1      42.595  28.892  33.343  1.00  0.00     0.049 A 
ATOM     56  H   UNL A   1      40.990  30.043  32.686  1.00  0.00     0.167 HD
ATOM     57  C   UNL A   1      37.596  32.369  31.201  1.00  0.00     0.031 A 
ATOM     58  C   UNL A   1      42.897  29.313  34.588  1.00  0.00     0.031 A 
ATOM     59  C   UNL A   1      37.817  32.844  32.539  1.00  0.00     0.049 A 
ATOM     60  C   UNL A   1      42.101  30.435  35.204  1.00  0.00     0.074 A 
ATOM     61  C   UNL A   1      37.099  33.796  33.241  1.00  0.00     0.029 A 
ATOM     62  N   UNL A   1      38.833  32.410  33.374  1.00  0.00    -0.354 N 
ATOM     63  N   UNL A   1      41.067  31.080  34.718  1.00  0.00    -0.248 NA
ATOM     64  C   UNL A   1      42.512  30.886  36.543  1.00  0.00     0.031 C 
ATOM     65  C   UNL A   1      37.719  33.983  34.478  1.00  0.00     0.029 A 
ATOM     66  C   UNL A   1      38.780  33.096  34.574  1.00  0.00     0.049 A 
ATOM     67  H   UNL A   1      39.493  31.716  33.148  1.00  0.00     0.167 HD
ATOM     68  C   UNL A   1      40.690  31.991  35.699  1.00  0.00     0.074 A 
ATOM     69  C   UNL A   1      41.593  31.803  36.814  1.00  0.00     0.031 C 
ATOM     70  C   UNL A   1      39.684  32.899  35.677  1.00  0.00     0.031 A 
BRANCH  57  71
ATOM     71  C   UNL A   1      36.464  32.966  30.416  1.00  0.00    -0.014 A 
ATOM     72  C   UNL A   1      36.675  34.049  29.547  1.00  0.00     0.009 A 
ATOM     73  C   UNL A   1      35.185  32.395  30.493  1.00  0.00     0.009 A 
ATOM     74  C   UNL A   1      35.622  34.557  28.784  1.00  0.00     0.001 A 
ATOM     75  C   UNL A   1      34.142  32.886  29.707  1.00  0.00     0.001 A 
ATOM     76  C   UNL A   1      34.360  33.969  28.857  1.00  0.00     0.000 A 
ENDBRANCH  57  71
BRANCH  58  77
ATOM     77  C   UNL A   1      44.016  28.680  35.339  1.00  0.00    -0.014 A 
ATOM     78  C   UNL A   1      43.761  27.869  36.456  1.00  0.00     0.009 A 
ATOM     79  C   UNL A   1      45.348  28.898  34.952  1.00  0.00     0.009 A 
ATOM     80  C   UNL A   1      44.816  27.305  37.178  1.00  0.00     0.001 A 
ATOM     81  C   UNL A   1      46.400  28.307  35.658  1.00  0.00     0.001 A 
ATOM     82  C   UNL A   1      46.133  27.517  36.774  1.00  0.00     0.000 A 
ENDBRANCH  58  77
BRANCH  70  83
ATOM     83  C   UNL A   1      39.480  33.750  36.899  1.00  0.00    -0.014 A 
ATOM     84  C   UNL A   1      39.903  35.087  36.936  1.00  0.00     0.009 A 
ATOM     85  C   UNL A   1      38.774  33.231  37.998  1.00  0.00     0.009 A 
ATOM     86  C   UNL A   1      39.643  35.880  38.057  1.00  0.00     0.001 A 
ATOM     87  C   UNL A   1      38.488  34.034  39.103  1.00  0.00     0.001 A 
ATOM     88  C   UNL A   1      38.929  35.356  39.134  1.00  0.00     0.000 A 
ENDBRANCH  70  83
ENDBRANCH  44  45
ENDBRANCH  37  39
ENDBRANCH  36  37
ENDBRANCH  35  36
ENDBRANCH  34  35
ENDBRANCH  33  34
ENDBRANCH  32  33
ENDBRANCH  31  32
ENDBRANCH   1  31
TORSDOF 22
ENDMDL
MODEL 2
REMARK VINA RESULT:      -9.4      0.661      5.607
REMARK SMILES Cc1nc(=O)c(-c2ccccc2)c(C)n1-c1ccc(C(=O)OCCOCCOCCOCCOC(=O)c2ccc(-c3c4nc(c(-c5ccccc5)c5ccc([nH]5)c(-c5ccccc5)c5nc(c(-c6ccccc6)c6ccc3[nH]6)C=C5)C=C4)cc2)cc1
REMARK SMILES IDX 28 1 27 2 26 3 25 4 24 5 23 6 22 7 20 8 21 9 19 10 16 11
REMARK SMILES IDX 17 12 86 13 18 14 85 15 15 16 1 17 2 18 3 19 4 20 13 21 5 22
REMARK SMILES IDX 6 23 14 24 7 25 8 26 12 27 9 28 11 29 10 30 29 31 30 32
REMARK SMILES IDX 31 33 32 34 33 35 34 36 35 37 36 38 37 39 38 40 84 41 39 42
REMARK SMILES IDX 83 43 40 44 41 45 42 46 77 47 43 48 82 49 76 50 78 51 44 52
REMARK SMILES IDX 81 53 75 54 74 55 45 57 67 58 52 59 66 60 53 61 56 62 65 63
REMARK SMILES IDX 79 64 54 65 55 66 64 68 80 69 57 70 46 71 47 72 51 73 48 74
REMARK SMILES IDX 50 75 49 76 68 77 69 78 73 79 70 80 72 81 71 82 58 83 59 84
REMARK SMILES IDX 63 85 60 86 62 87 61 88
REMARK H PARENT 78 56 56 67
REMARK Flexibility Score: inf
ROOT
ATOM      1  O   UNL A   1      40.394  19.138  25.613  1.00  0.00    -0.377 OA
ENDROOT
BRANCH   1   2
ATOM      2  C   UNL A   1      39.485  20.168  25.971  1.00  0.00     0.188 C 
BRANCH   2   3
ATOM      3  C   UNL A   1      38.290  20.419  25.031  1.00  0.00     0.188 C 
BRANCH   3   4
ATOM      4  O   UNL A   1      37.031  20.287  25.673  1.00  0.00    -0.376 OA
BRANCH   4   5
ATOM      5  C   UNL A   1      35.853  20.382  24.893  1.00  0.00     0.202 C 
BRANCH   5   6
ATOM      6  C   UNL A   1      34.942  21.608  25.072  1.00  0.00     0.261 C 
BRANCH   6   7
ATOM      7  O   UNL A   1      35.582  22.803  25.531  1.00  0.00    -0.460 OA
BRANCH   7   8
ATOM      8  C   UNL A   1      35.903  23.724  24.598  1.00  0.00     0.338 C 
ATOM      9  O   UNL A   1      36.950  23.799  23.980  1.00  0.00    -0.246 OA
BRANCH   8  10
ATOM     10  C   UNL A   1      34.684  24.515  24.285  1.00  0.00     0.060 A 
ATOM     11  C   UNL A   1      32.372  26.036  23.795  1.00  0.00     0.047 A 
ATOM     12  C   UNL A   1      33.004  26.088  25.047  1.00  0.00     0.027 A 
ATOM     13  C   UNL A   1      32.963  25.281  22.764  1.00  0.00     0.027 A 
ATOM     14  C   UNL A   1      34.152  25.329  25.292  1.00  0.00     0.018 A 
ATOM     15  C   UNL A   1      34.107  24.515  23.009  1.00  0.00     0.018 A 
BRANCH  11  16
ATOM     16  N   UNL A   1      31.079  26.614  23.617  1.00  0.00    -0.302 N 
ATOM     17  C   UNL A   1      30.062  24.456  24.562  1.00  0.00     0.088 C 
ATOM     18  C   UNL A   1      29.952  25.860  23.977  1.00  0.00     0.114 A 
ATOM     19  N   UNL A   1      28.732  26.294  23.922  1.00  0.00    -0.195 NA
ATOM     20  C   UNL A   1      28.468  27.563  23.485  1.00  0.00     0.281 A 
ATOM     21  C   UNL A   1      30.888  27.962  23.247  1.00  0.00     0.035 A 
ATOM     22  O   UNL A   1      27.318  27.970  23.359  1.00  0.00    -0.267 OA
ATOM     23  C   UNL A   1      29.631  28.476  23.187  1.00  0.00     0.069 A 
ATOM     24  C   UNL A   1      32.083  28.841  22.926  1.00  0.00     0.066 C 
BRANCH  23  25
ATOM     25  C   UNL A   1      29.339  29.894  22.875  1.00  0.00    -0.011 A 
ATOM     26  C   UNL A   1      29.095  30.276  21.547  1.00  0.00     0.009 A 
ATOM     27  C   UNL A   1      29.318  30.875  23.876  1.00  0.00     0.009 A 
ATOM     28  C   UNL A   1      28.812  31.606  21.231  1.00  0.00     0.001 A 
ATOM     29  C   UNL A   1      29.022  32.203  23.559  1.00  0.00     0.001 A 
ATOM     30  C   UNL A   1      28.765  32.567  22.238  1.00  0.00     0.000 A 
ENDBRANCH  23  25
ENDBRANCH  11  16
ENDBRANCH   8  10
ENDBRANCH   7   8
ENDBRANCH   6   7
ENDBRANCH   5   6
ENDBRANCH   4   5
ENDBRANCH   3   4
ENDBRANCH   2   3
ENDBRANCH   1   2
BRANCH   1  31
ATOM     31  C   UNL A   1      41.773  19.268  25.958  1.00  0.00     0.188 C 
BRANCH  31  32
ATOM     32  C   UNL A   1      42.277  20.278  27.019  1.00  0.00     0.188 C 
BRANCH  32  33
ATOM     33  O   UNL A   1      42.326  21.627  26.583  1.00  0.00    -0.376 OA
BRANCH  33  34
ATOM     34  C   UNL A   1      43.463  22.390  26.945  1.00  0.00     0.202 C 
BRANCH  34  35
ATOM     35  C   UNL A   1      43.430  23.873  26.557  1.00  0.00     0.261 C 
BRANCH  35  36
ATOM     36  O   UNL A   1      42.127  24.432  26.328  1.00  0.00    -0.460 OA
BRANCH  36  37
ATOM     37  C   UNL A   1      42.066  25.720  25.930  1.00  0.00     0.338 C 
ATOM     38  O   UNL A   1      41.959  26.139  24.790  1.00  0.00    -0.246 OA
BRANCH  37  39
ATOM     39  C   UNL A   1      41.960  26.553  27.146  1.00  0.00     0.060 A 
ATOM     40  C   UNL A   1      41.001  26.230  28.116  1.00  0.00     0.016 A 
ATOM     41  C   UNL A   1      42.825  27.632  27.335  1.00  0.00     0.016 A 
ATOM     42  C   UNL A   1      40.891  27.006  29.271  1.00  0.00     0.010 A 
ATOM     43  C   UNL A   1      42.695  28.425  28.477  1.00  0.00     0.010 A 
ATOM     44  C   UNL A   1      41.707  28.134  29.434  1.00  0.00    -0.014 A 
BRANCH  44  45
ATOM     45  C   UNL A   1      41.385  29.128  30.485  1.00  0.00     0.031 A 
ATOM     46  C   UNL A   1      42.292  29.205  31.683  1.00  0.00     0.074 A 
ATOM     47  C   UNL A   1      40.335  29.960  30.375  1.00  0.00     0.049 A 
ATOM     48  N   UNL A   1      42.197  29.957  32.748  1.00  0.00    -0.248 NA
ATOM     49  C   UNL A   1      43.465  28.313  31.677  1.00  0.00     0.031 C 
ATOM     50  C   UNL A   1      39.420  30.028  29.238  1.00  0.00     0.029 A 
ATOM     51  N   UNL A   1      39.866  30.914  31.245  1.00  0.00    -0.354 N 
ATOM     52  C   UNL A   1      43.294  29.631  33.535  1.00  0.00     0.074 A 
ATOM     53  C   UNL A   1      44.024  28.592  32.844  1.00  0.00     0.031 C 
ATOM     54  C   UNL A   1      38.495  30.974  29.481  1.00  0.00     0.029 A 
ATOM     55  C   UNL A   1      38.732  31.551  30.804  1.00  0.00     0.049 A 
ATOM     56  H   UNL A   1      40.301  31.122  32.103  1.00  0.00     0.167 HD
ATOM     57  C   UNL A   1      43.667  30.156  34.724  1.00  0.00     0.031 A 
ATOM     58  C   UNL A   1      37.963  32.479  31.410  1.00  0.00     0.031 A 
ATOM     59  C   UNL A   1      42.934  31.178  35.420  1.00  0.00     0.049 A 
ATOM     60  C   UNL A   1      38.342  32.972  32.783  1.00  0.00     0.074 A 
ATOM     61  C   UNL A   1      43.232  31.773  36.633  1.00  0.00     0.029 A 
ATOM     62  N   UNL A   1      41.756  31.750  34.968  1.00  0.00    -0.354 N 
ATOM     63  N   UNL A   1      39.387  32.665  33.514  1.00  0.00    -0.248 NA
ATOM     64  C   UNL A   1      37.435  33.944  33.414  1.00  0.00     0.031 C 
ATOM     65  C   UNL A   1      42.201  32.662  36.945  1.00  0.00     0.029 A 
ATOM     66  C   UNL A   1      41.298  32.671  35.894  1.00  0.00     0.049 A 
ATOM     67  H   UNL A   1      41.312  31.535  34.117  1.00  0.00     0.167 HD
ATOM     68  C   UNL A   1      39.277  33.423  34.675  1.00  0.00     0.074 A 
ATOM     69  C   UNL A   1      38.074  34.217  34.544  1.00  0.00     0.031 C 
ATOM     70  C   UNL A   1      40.100  33.457  35.751  1.00  0.00     0.031 A 
BRANCH  57  71
ATOM     71  C   UNL A   1      44.913  29.618  35.366  1.00  0.00    -0.014 A 
ATOM     72  C   UNL A   1      44.936  28.342  35.951  1.00  0.00     0.009 A 
ATOM     73  C   UNL A   1      46.097  30.370  35.324  1.00  0.00     0.009 A 
ATOM     74  C   UNL A   1      46.119  27.837  36.495  1.00  0.00     0.001 A 
ATOM     75  C   UNL A   1      47.284  29.849  35.843  1.00  0.00     0.001 A 
ATOM     76  C   UNL A   1      47.293  28.586  36.431  1.00  0.00     0.000 A 
ENDBRANCH  57  71
BRANCH  58  77
ATOM     77  C   UNL A   1      36.745  32.999  30.730  1.00  0.00    -0.014 A 
ATOM     78  C   UNL A   1      35.466  32.679  31.209  1.00  0.00     0.009 A 
ATOM     79  C   UNL A   1      36.856  33.806  29.586  1.00  0.00     0.009 A 
ATOM     80  C   UNL A   1      34.325  33.141  30.548  1.00  0.00     0.001 A 
ATOM     81  C   UNL A   1      35.713  34.293  28.945  1.00  0.00     0.001 A 
ATOM     82  C   UNL A   1      34.449  33.954  29.422  1.00  0.00     0.000 A 
ENDBRANCH  58  77
BRANCH  70  83
ATOM     83  C   UNL A   1      39.753  34.399  36.871  1.00  0.00    -0.014 A 
ATOM     84  C   UNL A   1      39.068  33.955  38.011  1.00  0.00     0.009 A 
ATOM     85  C   UNL A   1      40.198  35.732  36.821  1.00  0.00     0.009 A 
ATOM     86  C   UNL A   1      38.815  34.832  39.069  1.00  0.00     0.001 A 
ATOM     87  C   UNL A   1      39.971  36.597  37.892  1.00  0.00     0.001 A 
ATOM     88  C   UNL A   1      39.274  36.147  39.013  1.00  0.00     0.000 A 
ENDBRANCH  70  83
ENDBRANCH  44  45
ENDBRANCH  37  39
ENDBRANCH  36  37
ENDBRANCH  35  36
ENDBRANCH  34  35
ENDBRANCH  33  34
ENDBRANCH  32  33
ENDBRANCH  31  32
ENDBRANCH   1  31
TORSDOF 22
ENDMDL
MODEL 3
REMARK VINA RESULT:      -9.3      6.920     10.585
REMARK SMILES Cc1nc(=O)c(-c2ccccc2)c(C)n1-c1ccc(C(=O)OCCOCCOCCOCCOC(=O)c2ccc(-c3c4nc(c(-c5ccccc5)c5ccc([nH]5)c(-c5ccccc5)c5nc(c(-c6ccccc6)c6ccc3[nH]6)C=C5)C=C4)cc2)cc1
REMARK SMILES IDX 28 1 27 2 26 3 25 4 24 5 23 6 22 7 20 8 21 9 19 10 16 11
REMARK SMILES IDX 17 12 86 13 18 14 85 15 15 16 1 17 2 18 3 19 4 20 13 21 5 22
REMARK SMILES IDX 6 23 14 24 7 25 8 26 12 27 9 28 11 29 10 30 29 31 30 32
REMARK SMILES IDX 31 33 32 34 33 35 34 36 35 37 36 38 37 39 38 40 84 41 39 42
REMARK SMILES IDX 83 43 40 44 41 45 42 46 77 47 43 48 82 49 76 50 78 51 44 52
REMARK SMILES IDX 81 53 75 54 74 55 45 57 67 58 52 59 66 60 53 61 56 62 65 63
REMARK SMILES IDX 79 64 54 65 55 66 64 68 80 69 57 70 46 71 47 72 51 73 48 74
REMARK SMILES IDX 50 75 49 76 68 77 69 78 73 79 70 80 72 81 71 82 58 83 59 84
REMARK SMILES IDX 63 85 60 86 62 87 61 88
REMARK H PARENT 78 56 56 67
REMARK Flexibility Score: inf
ROOT
ATOM      1  O   UNL A   1      37.025  23.521  26.166  1.00  0.00    -0.377 OA
ENDROOT
BRANCH   1   2
ATOM      2  C   UNL A   1      37.009  22.361  25.347  1.00  0.00     0.188 C 
BRANCH   2   3
ATOM      3  C   UNL A   1      36.258  22.450  24.004  1.00  0.00     0.188 C 
BRANCH   3   4
ATOM      4  O   UNL A   1      35.011  21.772  24.011  1.00  0.00    -0.376 OA
BRANCH   4   5
ATOM      5  C   UNL A   1      34.875  20.596  24.788  1.00  0.00     0.202 C 
BRANCH   5   6
ATOM      6  C   UNL A   1      33.628  20.430  25.672  1.00  0.00     0.261 C 
BRANCH   6   7
ATOM      7  O   UNL A   1      32.873  21.621  25.920  1.00  0.00    -0.460 OA
BRANCH   7   8
ATOM      8  C   UNL A   1      33.397  22.509  26.790  1.00  0.00     0.338 C 
ATOM      9  O   UNL A   1      34.279  22.297  27.603  1.00  0.00    -0.246 OA
BRANCH   8  10
ATOM     10  C   UNL A   1      32.875  23.858  26.451  1.00  0.00     0.060 A 
ATOM     11  C   UNL A   1      31.982  26.436  25.774  1.00  0.00     0.047 A 
ATOM     12  C   UNL A   1      33.241  25.986  25.348  1.00  0.00     0.027 A 
ATOM     13  C   UNL A   1      31.140  25.548  26.469  1.00  0.00     0.027 A 
ATOM     14  C   UNL A   1      33.686  24.706  25.687  1.00  0.00     0.018 A 
ATOM     15  C   UNL A   1      31.587  24.268  26.815  1.00  0.00     0.018 A 
BRANCH  11  16
ATOM     16  N   UNL A   1      31.626  27.812  25.638  1.00  0.00    -0.302 N 
ATOM     17  C   UNL A   1      33.410  28.375  27.394  1.00  0.00     0.088 C 
ATOM     18  C   UNL A   1      32.302  28.760  26.419  1.00  0.00     0.114 A 
ATOM     19  N   UNL A   1      32.115  30.041  26.343  1.00  0.00    -0.195 NA
ATOM     20  C   UNL A   1      31.203  30.555  25.463  1.00  0.00     0.281 A 
ATOM     21  C   UNL A   1      30.740  28.278  24.644  1.00  0.00     0.035 A 
ATOM     22  O   UNL A   1      30.960  31.757  25.423  1.00  0.00    -0.267 OA
ATOM     23  C   UNL A   1      30.515  29.612  24.508  1.00  0.00     0.069 A 
ATOM     24  C   UNL A   1      30.044  27.294  23.720  1.00  0.00     0.066 C 
BRANCH  23  25
ATOM     25  C   UNL A   1      29.658  30.195  23.452  1.00  0.00    -0.011 A 
ATOM     26  C   UNL A   1      30.020  30.048  22.104  1.00  0.00     0.009 A 
ATOM     27  C   UNL A   1      28.494  30.912  23.764  1.00  0.00     0.009 A 
ATOM     28  C   UNL A   1      29.224  30.585  21.090  1.00  0.00     0.001 A 
ATOM     29  C   UNL A   1      27.692  31.437  22.748  1.00  0.00     0.001 A 
ATOM     30  C   UNL A   1      28.055  31.270  21.413  1.00  0.00     0.000 A 
ENDBRANCH  23  25
ENDBRANCH  11  16
ENDBRANCH   8  10
ENDBRANCH   7   8
ENDBRANCH   6   7
ENDBRANCH   5   6
ENDBRANCH   4   5
ENDBRANCH   3   4
ENDBRANCH   2   3
ENDBRANCH   1   2
BRANCH   1  31
ATOM     31  C   UNL A   1      38.272  24.145  26.473  1.00  0.00     0.188 C 
BRANCH  31  32
ATOM     32  C   UNL A   1      39.404  23.415  27.239  1.00  0.00     0.188 C 
BRANCH  32  33
ATOM     33  O   UNL A   1      40.678  23.471  26.618  1.00  0.00    -0.376 OA
BRANCH  33  34
ATOM     34  C   UNL A   1      41.320  24.731  26.554  1.00  0.00     0.202 C 
BRANCH  34  35
ATOM     35  C   UNL A   1      41.876  25.272  27.877  1.00  0.00     0.261 C 
BRANCH  35  36
ATOM     36  O   UNL A   1      42.779  24.404  28.579  1.00  0.00    -0.460 OA
BRANCH  36  37
ATOM     37  C   UNL A   1      43.796  23.865  27.873  1.00  0.00     0.338 C 
ATOM     38  O   UNL A   1      43.867  22.734  27.422  1.00  0.00    -0.246 OA
BRANCH  37  39
ATOM     39  C   UNL A   1      44.748  24.953  27.571  1.00  0.00     0.060 A 
ATOM     40  C   UNL A   1      45.356  25.645  28.627  1.00  0.00     0.016 A 
ATOM     41  C   UNL A   1      45.056  25.267  26.246  1.00  0.00     0.016 A 
ATOM     42  C   UNL A   1      46.259  26.674  28.358  1.00  0.00     0.010 A 
ATOM     43  C   UNL A   1      45.939  26.316  25.977  1.00  0.00     0.010 A 
ATOM     44  C   UNL A   1      46.519  27.043  27.031  1.00  0.00    -0.014 A 
BRANCH  44  45
ATOM     45  C   UNL A   1      47.218  28.319  26.747  1.00  0.00     0.031 A 
ATOM     46  C   UNL A   1      48.693  28.265  26.458  1.00  0.00     0.074 A 
ATOM     47  C   UNL A   1      46.564  29.493  26.720  1.00  0.00     0.049 A 
ATOM     48  N   UNL A   1      49.529  29.243  26.224  1.00  0.00    -0.248 NA
ATOM     49  C   UNL A   1      49.307  26.926  26.426  1.00  0.00     0.031 C 
ATOM     50  C   UNL A   1      45.128  29.672  26.921  1.00  0.00     0.029 A 
ATOM     51  N   UNL A   1      47.037  30.766  26.507  1.00  0.00    -0.354 N 
ATOM     52  C   UNL A   1      50.762  28.638  26.017  1.00  0.00     0.074 A 
ATOM     53  C   UNL A   1      50.576  27.215  26.184  1.00  0.00     0.031 C 
ATOM     54  C   UNL A   1      44.836  30.981  26.825  1.00  0.00     0.029 A 
ATOM     55  C   UNL A   1      46.068  31.735  26.591  1.00  0.00     0.049 A 
ATOM     56  H   UNL A   1      47.982  30.964  26.313  1.00  0.00     0.167 HD
ATOM     57  C   UNL A   1      51.945  29.217  25.707  1.00  0.00     0.031 A 
ATOM     58  C   UNL A   1      46.169  33.077  26.509  1.00  0.00     0.031 A 
ATOM     59  C   UNL A   1      52.135  30.633  25.556  1.00  0.00     0.049 A 
ATOM     60  C   UNL A   1      47.518  33.705  26.268  1.00  0.00     0.074 A 
ATOM     61  C   UNL A   1      53.298  31.314  25.243  1.00  0.00     0.029 A 
ATOM     62  N   UNL A   1      51.140  31.584  25.712  1.00  0.00    -0.354 N 
ATOM     63  N   UNL A   1      48.677  33.124  26.064  1.00  0.00    -0.248 NA
ATOM     64  C   UNL A   1      47.573  35.175  26.242  1.00  0.00     0.031 C 
ATOM     65  C   UNL A   1      53.021  32.682  25.272  1.00  0.00     0.029 A 
ATOM     66  C   UNL A   1      51.670  32.850  25.533  1.00  0.00     0.049 A 
ATOM     67  H   UNL A   1      50.198  31.389  25.919  1.00  0.00     0.167 HD
ATOM     68  C   UNL A   1      49.589  34.153  25.860  1.00  0.00     0.074 A 
ATOM     69  C   UNL A   1      48.848  35.394  25.947  1.00  0.00     0.031 C 
ATOM     70  C   UNL A   1      50.921  34.076  25.620  1.00  0.00     0.031 A 
BRANCH  57  71
ATOM     71  C   UNL A   1      53.137  28.320  25.533  1.00  0.00    -0.014 A 
ATOM     72  C   UNL A   1      53.514  27.852  24.264  1.00  0.00     0.009 A 
ATOM     73  C   UNL A   1      53.932  27.995  26.643  1.00  0.00     0.009 A 
ATOM     74  C   UNL A   1      54.657  27.064  24.114  1.00  0.00     0.001 A 
ATOM     75  C   UNL A   1      55.089  27.231  26.484  1.00  0.00     0.001 A 
ATOM     76  C   UNL A   1      55.448  26.763  25.222  1.00  0.00     0.000 A 
ENDBRANCH  57  71
BRANCH  58  77
ATOM     77  C   UNL A   1      44.958  33.928  26.670  1.00  0.00    -0.014 A 
ATOM     78  C   UNL A   1      44.562  34.377  27.939  1.00  0.00     0.009 A 
ATOM     79  C   UNL A   1      44.182  34.284  25.554  1.00  0.00     0.009 A 
ATOM     80  C   UNL A   1      43.406  35.148  28.090  1.00  0.00     0.001 A 
ATOM     81  C   UNL A   1      43.044  35.080  25.705  1.00  0.00     0.001 A 
ATOM     82  C   UNL A   1      42.653  35.505  26.972  1.00  0.00     0.000 A 
ENDBRANCH  58  77
BRANCH  70  83
ATOM     83  C   UNL A   1      51.672  35.362  25.409  1.00  0.00    -0.014 A 
ATOM     84  C   UNL A   1      51.844  35.904  24.127  1.00  0.00     0.009 A 
ATOM     85  C   UNL A   1      52.137  36.086  26.520  1.00  0.00     0.009 A 
ATOM     86  C   UNL A   1      52.486  37.133  23.959  1.00  0.00     0.001 A 
ATOM     87  C   UNL A   1      52.750  37.328  26.353  1.00  0.00     0.001 A 
ATOM     88  C   UNL A   1      52.930  37.847  25.072  1.00  0.00     0.000 A 
ENDBRANCH  70  83
ENDBRANCH  44  45
ENDBRANCH  37  39
ENDBRANCH  36  37
ENDBRANCH  35  36
ENDBRANCH  34  35
ENDBRANCH  33  34
ENDBRANCH  32  33
ENDBRANCH  31  32
ENDBRANCH   1  31
TORSDOF 22
ENDMDL
