MODEL 1
REMARK VINA RESULT:      -9.4      0.000      0.000
REMARK SMILES CC(C)Cc1noc([C@@H]2CC=CC[C@H]2C(=O)OCCOCCOCCOCCOC(=O)c2ccc(-c3c4nc(c(-c5ccccc5)c5ccc([nH]5)c(-c5ccccc5)c5nc(c(-c6ccccc6)c6ccc3[nH]6)C=C5)C=C4)cc2)n1
REMARK SMILES IDX 22 1 21 2 20 3 19 4 18 5 17 6 15 7 16 8 14 9 9 10 10 11
REMARK SMILES IDX 11 12 13 13 12 14 8 15 5 16 6 17 80 18 7 19 4 20 2 21 1 22
REMARK SMILES IDX 3 23 23 24 24 25 25 26 26 27 27 28 28 29 29 30 30 31 31 32
REMARK SMILES IDX 32 33 33 34 79 35 34 36 78 37 35 38 36 39 37 40 72 41 38 42
REMARK SMILES IDX 77 43 71 44 73 45 39 46 76 47 70 48 69 49 40 51 62 52 47 53
REMARK SMILES IDX 61 54 48 55 51 56 60 57 74 58 49 59 50 60 59 62 75 63 52 64
REMARK SMILES IDX 41 65 42 66 46 67 43 68 45 69 44 70 63 71 64 72 68 73 65 74
REMARK SMILES IDX 67 75 66 76 53 77 54 78 58 79 55 80 57 81 56 82
REMARK H PARENT 73 50 51 61
REMARK Flexibility Score: inf
ROOT
ATOM      1  C   UNL A   1      33.739  27.416  26.112  1.00  0.00     0.188 C 
ENDROOT
BRANCH   1   2
ATOM      2  C   UNL A   1      34.216  26.890  24.765  1.00  0.00     0.188 C 
BRANCH   2   3
ATOM      3  O   UNL A   1      33.284  26.117  24.054  1.00  0.00    -0.376 OA
BRANCH   3   4
ATOM      4  C   UNL A   1      33.508  25.940  22.661  1.00  0.00     0.202 C 
BRANCH   4   5
ATOM      5  C   UNL A   1      33.006  24.709  21.868  1.00  0.00     0.261 C 
BRANCH   5   6
ATOM      6  O   UNL A   1      33.606  23.412  22.138  1.00  0.00    -0.463 OA
BRANCH   6   7
ATOM      7  C   UNL A   1      32.939  22.589  22.997  1.00  0.00     0.310 C 
ATOM      8  O   UNL A   1      32.007  21.865  22.655  1.00  0.00    -0.252 OA
BRANCH   7   9
ATOM      9  C   UNL A   1      33.278  22.766  24.474  1.00  0.00     0.116 C 
ATOM     10  C   UNL A   1      32.159  22.817  25.546  1.00  0.00     0.097 C 
ATOM     11  C   UNL A   1      32.757  22.830  26.984  1.00  0.00     0.041 C 
ATOM     12  C   UNL A   1      34.069  22.131  27.174  1.00  0.00    -0.030 C 
ATOM     13  C   UNL A   1      34.330  21.674  24.750  1.00  0.00     0.043 C 
ATOM     14  C   UNL A   1      34.778  21.607  26.170  1.00  0.00    -0.030 C 
BRANCH  10  15
ATOM     15  C   UNL A   1      31.234  24.014  25.467  1.00  0.00     0.230 A 
ATOM     16  C   UNL A   1      29.875  25.565  24.976  1.00  0.00     0.172 A 
ATOM     17  N   UNL A   1      30.277  25.884  26.213  1.00  0.00    -0.062 NA
ATOM     18  N   UNL A   1      30.409  24.380  24.503  1.00  0.00    -0.196 NA
ATOM     19  O   UNL A   1      31.177  24.860  26.543  1.00  0.00    -0.339 OA
BRANCH  16  20
ATOM     20  C   UNL A   1      28.902  26.385  24.180  1.00  0.00     0.084 C 
BRANCH  20  21
ATOM     21  C   UNL A   1      29.441  27.524  23.270  1.00  0.00    -0.010 C 
ATOM     22  C   UNL A   1      28.471  28.638  22.893  1.00  0.00     0.008 C 
ATOM     23  C   UNL A   1      30.662  28.199  23.923  1.00  0.00     0.008 C 
ENDBRANCH  20  21
ENDBRANCH  16  20
ENDBRANCH  10  15
ENDBRANCH   7   9
ENDBRANCH   6   7
ENDBRANCH   5   6
ENDBRANCH   4   5
ENDBRANCH   3   4
ENDBRANCH   2   3
ENDBRANCH   1   2
BRANCH   1  24
ATOM     24  O   UNL A   1      32.764  28.447  26.188  1.00  0.00    -0.377 OA
BRANCH  24  25
ATOM     25  C   UNL A   1      33.207  29.802  26.096  1.00  0.00     0.188 C 
BRANCH  25  26
ATOM     26  C   UNL A   1      32.696  30.774  27.157  1.00  0.00     0.188 C 
BRANCH  26  27
ATOM     27  O   UNL A   1      31.586  31.593  26.809  1.00  0.00    -0.376 OA
BRANCH  27  28
ATOM     28  C   UNL A   1      31.740  33.010  26.801  1.00  0.00     0.202 C 
BRANCH  28  29
ATOM     29  C   UNL A   1      32.854  33.409  27.777  1.00  0.00     0.261 C 
BRANCH  29  30
ATOM     30  O   UNL A   1      32.701  34.796  28.098  1.00  0.00    -0.460 OA
BRANCH  30  31
ATOM     31  C   UNL A   1      33.128  35.098  29.350  1.00  0.00     0.338 C 
ATOM     32  O   UNL A   1      32.540  35.756  30.193  1.00  0.00    -0.246 OA
BRANCH  31  33
ATOM     33  C   UNL A   1      34.337  34.290  29.604  1.00  0.00     0.060 A 
ATOM     34  C   UNL A   1      34.286  33.289  30.584  1.00  0.00     0.016 A 
ATOM     35  C   UNL A   1      35.497  34.491  28.848  1.00  0.00     0.016 A 
ATOM     36  C   UNL A   1      35.417  32.527  30.860  1.00  0.00     0.010 A 
ATOM     37  C   UNL A   1      36.629  33.743  29.127  1.00  0.00     0.010 A 
ATOM     38  C   UNL A   1      36.604  32.805  30.171  1.00  0.00    -0.014 A 
BRANCH  38  39
ATOM     39  C   UNL A   1      37.898  32.375  30.726  1.00  0.00     0.031 A 
ATOM     40  C   UNL A   1      38.522  31.156  30.109  1.00  0.00     0.074 A 
ATOM     41  C   UNL A   1      38.436  32.997  31.785  1.00  0.00     0.049 A 
ATOM     42  N   UNL A   1      39.568  30.475  30.492  1.00  0.00    -0.248 NA
ATOM     43  C   UNL A   1      37.856  30.615  28.909  1.00  0.00     0.031 C 
ATOM     44  C   UNL A   1      37.896  34.194  32.430  1.00  0.00     0.029 A 
ATOM     45  N   UNL A   1      39.546  32.684  32.520  1.00  0.00    -0.354 N 
ATOM     46  C   UNL A   1      39.673  29.423  29.589  1.00  0.00     0.074 A 
ATOM     47  C   UNL A   1      38.573  29.533  28.662  1.00  0.00     0.031 C 
ATOM     48  C   UNL A   1      38.670  34.502  33.486  1.00  0.00     0.029 A 
ATOM     49  C   UNL A   1      39.730  33.504  33.604  1.00  0.00     0.049 A 
ATOM     50  H   UNL A   1      40.152  31.942  32.294  1.00  0.00     0.167 HD
ATOM     51  C   UNL A   1      40.611  28.451  29.541  1.00  0.00     0.031 A 
ATOM     52  C   UNL A   1      40.644  33.427  34.590  1.00  0.00     0.031 A 
ATOM     53  C   UNL A   1      41.677  28.346  30.496  1.00  0.00     0.049 A 
ATOM     54  C   UNL A   1      41.649  32.306  34.547  1.00  0.00     0.074 A 
ATOM     55  C   UNL A   1      42.700  27.420  30.555  1.00  0.00     0.029 A 
ATOM     56  N   UNL A   1      41.841  29.204  31.575  1.00  0.00    -0.354 N 
ATOM     57  N   UNL A   1      41.771  31.339  33.667  1.00  0.00    -0.248 NA
ATOM     58  C   UNL A   1      42.644  32.268  35.625  1.00  0.00     0.031 C 
ATOM     59  C   UNL A   1      43.456  27.689  31.701  1.00  0.00     0.029 A 
ATOM     60  C   UNL A   1      42.938  28.817  32.321  1.00  0.00     0.049 A 
ATOM     61  H   UNL A   1      41.262  29.974  31.778  1.00  0.00     0.167 HD
ATOM     62  C   UNL A   1      42.871  30.594  34.069  1.00  0.00     0.074 A 
ATOM     63  C   UNL A   1      43.388  31.231  35.265  1.00  0.00     0.031 C 
ATOM     64  C   UNL A   1      43.413  29.484  33.506  1.00  0.00     0.031 A 
BRANCH  51  65
ATOM     65  C   UNL A   1      40.487  27.425  28.449  1.00  0.00    -0.014 A 
ATOM     66  C   UNL A   1      41.095  27.614  27.197  1.00  0.00     0.009 A 
ATOM     67  C   UNL A   1      39.743  26.257  28.670  1.00  0.00     0.009 A 
ATOM     68  C   UNL A   1      40.926  26.675  26.177  1.00  0.00     0.001 A 
ATOM     69  C   UNL A   1      39.602  25.303  27.659  1.00  0.00     0.001 A 
ATOM     70  C   UNL A   1      40.184  25.518  26.411  1.00  0.00     0.000 A 
ENDBRANCH  51  65
BRANCH  52  71
ATOM     71  C   UNL A   1      40.642  34.427  35.690  1.00  0.00    -0.014 A 
ATOM     72  C   UNL A   1      39.896  34.204  36.857  1.00  0.00     0.009 A 
ATOM     73  C   UNL A   1      41.397  35.607  35.586  1.00  0.00     0.009 A 
ATOM     74  C   UNL A   1      39.889  35.149  37.886  1.00  0.00     0.001 A 
ATOM     75  C   UNL A   1      41.410  36.538  36.629  1.00  0.00     0.001 A 
ATOM     76  C   UNL A   1      40.651  36.310  37.774  1.00  0.00     0.000 A 
ENDBRANCH  52  71
BRANCH  64  77
ATOM     77  C   UNL A   1      44.638  28.916  34.162  1.00  0.00    -0.014 A 
ATOM     78  C   UNL A   1      45.920  29.371  33.823  1.00  0.00     0.009 A 
ATOM     79  C   UNL A   1      44.496  27.959  35.179  1.00  0.00     0.009 A 
ATOM     80  C   UNL A   1      47.042  28.856  34.472  1.00  0.00     0.001 A 
ATOM     81  C   UNL A   1      45.616  27.469  35.847  1.00  0.00     0.001 A 
ATOM     82  C   UNL A   1      46.888  27.911  35.488  1.00  0.00     0.000 A 
ENDBRANCH  64  77
ENDBRANCH  38  39
ENDBRANCH  31  33
ENDBRANCH  30  31
ENDBRANCH  29  30
ENDBRANCH  28  29
ENDBRANCH  27  28
ENDBRANCH  26  27
ENDBRANCH  25  26
ENDBRANCH  24  25
ENDBRANCH   1  24
TORSDOF 23
ENDMDL
MODEL 2
REMARK VINA RESULT:      -8.7      4.694      6.563
REMARK SMILES CC(C)Cc1noc([C@@H]2CC=CC[C@H]2C(=O)OCCOCCOCCOCCOC(=O)c2ccc(-c3c4nc(c(-c5ccccc5)c5ccc([nH]5)c(-c5ccccc5)c5nc(c(-c6ccccc6)c6ccc3[nH]6)C=C5)C=C4)cc2)n1
REMARK SMILES IDX 22 1 21 2 20 3 19 4 18 5 17 6 15 7 16 8 14 9 9 10 10 11
REMARK SMILES IDX 11 12 13 13 12 14 8 15 5 16 6 17 80 18 7 19 4 20 2 21 1 22
REMARK SMILES IDX 3 23 23 24 24 25 25 26 26 27 27 28 28 29 29 30 30 31 31 32
REMARK SMILES IDX 32 33 33 34 79 35 34 36 78 37 35 38 36 39 37 40 72 41 38 42
REMARK SMILES IDX 77 43 71 44 73 45 39 46 76 47 70 48 69 49 40 51 62 52 47 53
REMARK SMILES IDX 61 54 48 55 51 56 60 57 74 58 49 59 50 60 59 62 75 63 52 64
REMARK SMILES IDX 41 65 42 66 46 67 43 68 45 69 44 70 63 71 64 72 68 73 65 74
REMARK SMILES IDX 67 75 66 76 53 77 54 78 58 79 55 80 57 81 56 82
REMARK H PARENT 73 50 51 61
REMARK Flexibility Score: inf
ROOT
ATOM      1  C   UNL A   1      31.851  28.580  27.480  1.00  0.00     0.188 C 
ENDROOT
BRANCH   1   2
ATOM      2  C   UNL A   1      32.147  27.355  26.627  1.00  0.00     0.188 C 
BRANCH   2   3
ATOM      3  O   UNL A   1      33.504  27.009  26.516  1.00  0.00    -0.376 OA
BRANCH   3   4
ATOM      4  C   UNL A   1      33.866  26.100  25.484  1.00  0.00     0.202 C 
BRANCH   4   5
ATOM      5  C   UNL A   1      34.520  24.723  25.754  1.00  0.00     0.261 C 
BRANCH   5   6
ATOM      6  O   UNL A   1      35.710  24.357  25.002  1.00  0.00    -0.463 OA
BRANCH   6   7
ATOM      7  C   UNL A   1      35.665  23.183  24.308  1.00  0.00     0.310 C 
ATOM      8  O   UNL A   1      36.618  22.734  23.675  1.00  0.00    -0.252 OA
BRANCH   7   9
ATOM      9  C   UNL A   1      34.286  22.544  24.186  1.00  0.00     0.116 C 
ATOM     10  C   UNL A   1      33.485  22.630  22.861  1.00  0.00     0.097 C 
ATOM     11  C   UNL A   1      32.193  21.763  22.926  1.00  0.00     0.041 C 
ATOM     12  C   UNL A   1      32.243  20.545  23.798  1.00  0.00    -0.030 C 
ATOM     13  C   UNL A   1      34.499  21.096  24.670  1.00  0.00     0.043 C 
ATOM     14  C   UNL A   1      33.281  20.241  24.581  1.00  0.00    -0.030 C 
BRANCH  10  15
ATOM     15  C   UNL A   1      33.035  24.020  22.459  1.00  0.00     0.230 A 
ATOM     16  C   UNL A   1      32.058  25.863  22.081  1.00  0.00     0.172 A 
ATOM     17  N   UNL A   1      33.227  25.994  21.441  1.00  0.00    -0.062 NA
ATOM     18  N   UNL A   1      31.928  24.669  22.769  1.00  0.00    -0.196 NA
ATOM     19  O   UNL A   1      33.878  24.776  21.688  1.00  0.00    -0.339 OA
BRANCH  16  20
ATOM     20  C   UNL A   1      30.993  26.920  22.095  1.00  0.00     0.084 C 
BRANCH  20  21
ATOM     21  C   UNL A   1      30.457  27.433  23.461  1.00  0.00    -0.010 C 
ATOM     22  C   UNL A   1      30.207  28.932  23.597  1.00  0.00     0.008 C 
ATOM     23  C   UNL A   1      29.135  26.728  23.816  1.00  0.00     0.008 C 
ENDBRANCH  20  21
ENDBRANCH  16  20
ENDBRANCH  10  15
ENDBRANCH   7   9
ENDBRANCH   6   7
ENDBRANCH   5   6
ENDBRANCH   4   5
ENDBRANCH   3   4
ENDBRANCH   2   3
ENDBRANCH   1   2
BRANCH   1  24
ATOM     24  O   UNL A   1      31.533  29.828  26.881  1.00  0.00    -0.377 OA
BRANCH  24  25
ATOM     25  C   UNL A   1      32.477  30.894  27.001  1.00  0.00     0.188 C 
BRANCH  25  26
ATOM     26  C   UNL A   1      33.957  30.517  26.988  1.00  0.00     0.188 C 
BRANCH  26  27
ATOM     27  O   UNL A   1      34.681  30.678  28.203  1.00  0.00    -0.376 OA
BRANCH  27  28
ATOM     28  C   UNL A   1      35.424  29.578  28.723  1.00  0.00     0.202 C 
BRANCH  28  29
ATOM     29  C   UNL A   1      36.053  29.974  30.064  1.00  0.00     0.261 C 
BRANCH  29  30
ATOM     30  O   UNL A   1      36.398  31.362  30.012  1.00  0.00    -0.460 OA
BRANCH  30  31
ATOM     31  C   UNL A   1      37.484  31.665  30.769  1.00  0.00     0.338 C 
ATOM     32  O   UNL A   1      37.507  32.316  31.800  1.00  0.00    -0.246 OA
BRANCH  31  33
ATOM     33  C   UNL A   1      38.612  30.865  30.251  1.00  0.00     0.060 A 
ATOM     34  C   UNL A   1      39.585  30.409  31.152  1.00  0.00     0.016 A 
ATOM     35  C   UNL A   1      38.681  30.532  28.895  1.00  0.00     0.016 A 
ATOM     36  C   UNL A   1      40.670  29.674  30.687  1.00  0.00     0.010 A 
ATOM     37  C   UNL A   1      39.767  29.809  28.426  1.00  0.00     0.010 A 
ATOM     38  C   UNL A   1      40.787  29.433  29.314  1.00  0.00    -0.014 A 
BRANCH  38  39
ATOM     39  C   UNL A   1      42.095  29.086  28.733  1.00  0.00     0.031 A 
ATOM     40  C   UNL A   1      42.287  27.656  28.314  1.00  0.00     0.074 A 
ATOM     41  C   UNL A   1      43.083  29.990  28.668  1.00  0.00     0.049 A 
ATOM     42  N   UNL A   1      43.370  27.045  27.918  1.00  0.00    -0.248 NA
ATOM     43  C   UNL A   1      41.094  26.789  28.378  1.00  0.00     0.031 C 
ATOM     44  C   UNL A   1      42.969  31.399  29.042  1.00  0.00     0.029 A 
ATOM     45  N   UNL A   1      44.389  29.842  28.289  1.00  0.00    -0.354 N 
ATOM     46  C   UNL A   1      42.990  25.725  27.701  1.00  0.00     0.074 A 
ATOM     47  C   UNL A   1      41.592  25.614  28.038  1.00  0.00     0.031 C 
ATOM     48  C   UNL A   1      44.171  31.984  28.894  1.00  0.00     0.029 A 
ATOM     49  C   UNL A   1      45.135  30.981  28.450  1.00  0.00     0.049 A 
ATOM     50  H   UNL A   1      44.756  28.999  27.936  1.00  0.00     0.167 HD
ATOM     51  C   UNL A   1      43.748  24.698  27.258  1.00  0.00     0.031 A 
ATOM     52  C   UNL A   1      46.458  31.169  28.280  1.00  0.00     0.031 A 
ATOM     53  C   UNL A   1      45.146  24.829  26.961  1.00  0.00     0.049 A 
ATOM     54  C   UNL A   1      47.294  29.998  27.835  1.00  0.00     0.074 A 
ATOM     55  C   UNL A   1      46.026  23.874  26.492  1.00  0.00     0.029 A 
ATOM     56  N   UNL A   1      45.867  26.004  27.123  1.00  0.00    -0.354 N 
ATOM     57  N   UNL A   1      46.922  28.762  27.589  1.00  0.00    -0.248 NA
ATOM     58  C   UNL A   1      48.727  30.246  27.637  1.00  0.00     0.031 C 
ATOM     59  C   UNL A   1      47.294  24.459  26.418  1.00  0.00     0.029 A 
ATOM     60  C   UNL A   1      47.190  25.794  26.784  1.00  0.00     0.049 A 
ATOM     61  H   UNL A   1      45.493  26.860  27.434  1.00  0.00     0.167 HD
ATOM     62  C   UNL A   1      48.069  28.093  27.181  1.00  0.00     0.074 A 
ATOM     63  C   UNL A   1      49.145  29.065  27.202  1.00  0.00     0.031 C 
ATOM     64  C   UNL A   1      48.226  26.794  26.822  1.00  0.00     0.031 A 
BRANCH  51  65
ATOM     65  C   UNL A   1      43.079  23.360  27.112  1.00  0.00    -0.014 A 
ATOM     66  C   UNL A   1      42.937  22.491  28.208  1.00  0.00     0.009 A 
ATOM     67  C   UNL A   1      42.593  22.954  25.861  1.00  0.00     0.009 A 
ATOM     68  C   UNL A   1      42.359  21.231  28.043  1.00  0.00     0.001 A 
ATOM     69  C   UNL A   1      41.987  21.705  25.705  1.00  0.00     0.001 A 
ATOM     70  C   UNL A   1      41.880  20.841  26.794  1.00  0.00     0.000 A 
ENDBRANCH  51  65
BRANCH  52  71
ATOM     71  C   UNL A   1      47.062  32.502  28.537  1.00  0.00    -0.014 A 
ATOM     72  C   UNL A   1      47.381  33.359  27.473  1.00  0.00     0.009 A 
ATOM     73  C   UNL A   1      47.312  32.934  29.850  1.00  0.00     0.009 A 
ATOM     74  C   UNL A   1      47.956  34.609  27.716  1.00  0.00     0.001 A 
ATOM     75  C   UNL A   1      47.861  34.196  30.092  1.00  0.00     0.001 A 
ATOM     76  C   UNL A   1      48.189  35.029  29.024  1.00  0.00     0.000 A 
ENDBRANCH  52  71
BRANCH  64  77
ATOM     77  C   UNL A   1      49.600  26.368  26.393  1.00  0.00    -0.014 A 
ATOM     78  C   UNL A   1      50.032  26.535  25.069  1.00  0.00     0.009 A 
ATOM     79  C   UNL A   1      50.492  25.852  27.346  1.00  0.00     0.009 A 
ATOM     80  C   UNL A   1      51.327  26.165  24.702  1.00  0.00     0.001 A 
ATOM     81  C   UNL A   1      51.794  25.514  26.983  1.00  0.00     0.001 A 
ATOM     82  C   UNL A   1      52.208  25.662  25.661  1.00  0.00     0.000 A 
ENDBRANCH  64  77
ENDBRANCH  38  39
ENDBRANCH  31  33
ENDBRANCH  30  31
ENDBRANCH  29  30
ENDBRANCH  28  29
ENDBRANCH  27  28
ENDBRANCH  26  27
ENDBRANCH  25  26
ENDBRANCH  24  25
ENDBRANCH   1  24
TORSDOF 23
ENDMDL
MODEL 3
REMARK VINA RESULT:      -8.7      1.591      6.717
REMARK SMILES CC(C)Cc1noc([C@@H]2CC=CC[C@H]2C(=O)OCCOCCOCCOCCOC(=O)c2ccc(-c3c4nc(c(-c5ccccc5)c5ccc([nH]5)c(-c5ccccc5)c5nc(c(-c6ccccc6)c6ccc3[nH]6)C=C5)C=C4)cc2)n1
REMARK SMILES IDX 22 1 21 2 20 3 19 4 18 5 17 6 15 7 16 8 14 9 9 10 10 11
REMARK SMILES IDX 11 12 13 13 12 14 8 15 5 16 6 17 80 18 7 19 4 20 2 21 1 22
REMARK SMILES IDX 3 23 23 24 24 25 25 26 26 27 27 28 28 29 29 30 30 31 31 32
REMARK SMILES IDX 32 33 33 34 79 35 34 36 78 37 35 38 36 39 37 40 72 41 38 42
REMARK SMILES IDX 77 43 71 44 73 45 39 46 76 47 70 48 69 49 40 51 62 52 47 53
REMARK SMILES IDX 61 54 48 55 51 56 60 57 74 58 49 59 50 60 59 62 75 63 52 64
REMARK SMILES IDX 41 65 42 66 46 67 43 68 45 69 44 70 63 71 64 72 68 73 65 74
REMARK SMILES IDX 67 75 66 76 53 77 54 78 58 79 55 80 57 81 56 82
REMARK H PARENT 73 50 51 61
REMARK Flexibility Score: inf
ROOT
ATOM      1  C   UNL A   1      31.376  27.378  26.050  1.00  0.00     0.188 C 
ENDROOT
BRANCH   1   2
ATOM      2  C   UNL A   1      31.958  25.972  26.099  1.00  0.00     0.188 C 
BRANCH   2   3
ATOM      3  O   UNL A   1      31.478  25.155  27.135  1.00  0.00    -0.376 OA
BRANCH   3   4
ATOM      4  C   UNL A   1      31.312  23.771  26.853  1.00  0.00     0.202 C 
BRANCH   4   5
ATOM      5  C   UNL A   1      30.669  23.238  25.550  1.00  0.00     0.261 C 
BRANCH   5   6
ATOM      6  O   UNL A   1      31.403  22.267  24.756  1.00  0.00    -0.463 OA
BRANCH   6   7
ATOM      7  C   UNL A   1      31.826  22.669  23.522  1.00  0.00     0.310 C 
ATOM      8  O   UNL A   1      31.994  21.899  22.580  1.00  0.00    -0.252 OA
BRANCH   7   9
ATOM      9  C   UNL A   1      32.284  24.121  23.426  1.00  0.00     0.116 C 
ATOM     10  C   UNL A   1      33.746  24.469  23.046  1.00  0.00     0.097 C 
ATOM     11  C   UNL A   1      33.926  26.003  22.846  1.00  0.00     0.041 C 
ATOM     12  C   UNL A   1      32.729  26.763  22.360  1.00  0.00    -0.030 C 
ATOM     13  C   UNL A   1      31.245  24.781  22.499  1.00  0.00     0.043 C 
ATOM     14  C   UNL A   1      31.522  26.215  22.200  1.00  0.00    -0.030 C 
BRANCH  10  15
ATOM     15  C   UNL A   1      34.799  24.053  24.053  1.00  0.00     0.230 A 
ATOM     16  C   UNL A   1      36.524  23.479  25.143  1.00  0.00     0.172 A 
ATOM     17  N   UNL A   1      35.545  23.412  26.054  1.00  0.00    -0.062 NA
ATOM     18  N   UNL A   1      36.105  23.927  23.902  1.00  0.00    -0.196 NA
ATOM     19  O   UNL A   1      34.400  23.791  25.337  1.00  0.00    -0.339 OA
BRANCH  16  20
ATOM     20  C   UNL A   1      37.957  23.145  25.436  1.00  0.00     0.084 C 
BRANCH  20  21
ATOM     21  C   UNL A   1      38.312  21.720  25.946  1.00  0.00    -0.010 C 
ATOM     22  C   UNL A   1      38.086  20.556  24.987  1.00  0.00     0.008 C 
ATOM     23  C   UNL A   1      39.787  21.658  26.381  1.00  0.00     0.008 C 
ENDBRANCH  20  21
ENDBRANCH  16  20
ENDBRANCH  10  15
ENDBRANCH   7   9
ENDBRANCH   6   7
ENDBRANCH   5   6
ENDBRANCH   4   5
ENDBRANCH   3   4
ENDBRANCH   2   3
ENDBRANCH   1   2
BRANCH   1  24
ATOM     24  O   UNL A   1      32.087  28.442  25.434  1.00  0.00    -0.377 OA
BRANCH  24  25
ATOM     25  C   UNL A   1      31.436  29.708  25.313  1.00  0.00     0.188 C 
BRANCH  25  26
ATOM     26  C   UNL A   1      31.900  30.820  26.250  1.00  0.00     0.188 C 
BRANCH  26  27
ATOM     27  O   UNL A   1      32.955  30.514  27.155  1.00  0.00    -0.376 OA
BRANCH  27  28
ATOM     28  C   UNL A   1      33.603  31.573  27.855  1.00  0.00     0.202 C 
BRANCH  28  29
ATOM     29  C   UNL A   1      33.012  32.917  27.410  1.00  0.00     0.261 C 
BRANCH  29  30
ATOM     30  O   UNL A   1      32.576  33.628  28.574  1.00  0.00    -0.460 OA
BRANCH  30  31
ATOM     31  C   UNL A   1      33.308  34.745  28.814  1.00  0.00     0.338 C 
ATOM     32  O   UNL A   1      32.966  35.904  28.642  1.00  0.00    -0.246 OA
BRANCH  31  33
ATOM     33  C   UNL A   1      34.518  34.323  29.546  1.00  0.00     0.060 A 
ATOM     34  C   UNL A   1      35.768  34.482  28.931  1.00  0.00     0.016 A 
ATOM     35  C   UNL A   1      34.421  33.816  30.846  1.00  0.00     0.016 A 
ATOM     36  C   UNL A   1      36.923  34.072  29.589  1.00  0.00     0.010 A 
ATOM     37  C   UNL A   1      35.567  33.395  31.500  1.00  0.00     0.010 A 
ATOM     38  C   UNL A   1      36.808  33.469  30.847  1.00  0.00    -0.014 A 
BRANCH  38  39
ATOM     39  C   UNL A   1      37.896  32.623  31.364  1.00  0.00     0.031 A 
ATOM     40  C   UNL A   1      38.644  33.144  32.558  1.00  0.00     0.074 A 
ATOM     41  C   UNL A   1      38.247  31.491  30.737  1.00  0.00     0.049 A 
ATOM     42  N   UNL A   1      39.728  32.687  33.123  1.00  0.00    -0.248 NA
ATOM     43  C   UNL A   1      38.105  34.366  33.186  1.00  0.00     0.031 C 
ATOM     44  C   UNL A   1      37.561  30.914  29.581  1.00  0.00     0.029 A 
ATOM     45  N   UNL A   1      39.291  30.640  30.975  1.00  0.00    -0.354 N 
ATOM     46  C   UNL A   1      40.006  33.573  34.158  1.00  0.00     0.074 A 
ATOM     47  C   UNL A   1      39.002  34.608  34.126  1.00  0.00     0.031 C 
ATOM     48  C   UNL A   1      38.222  29.809  29.194  1.00  0.00     0.029 A 
ATOM     49  C   UNL A   1      39.389  29.628  30.053  1.00  0.00     0.049 A 
ATOM     50  H   UNL A   1      39.912  30.745  31.732  1.00  0.00     0.167 HD
ATOM     51  C   UNL A   1      41.015  33.521  35.056  1.00  0.00     0.031 A 
ATOM     52  C   UNL A   1      40.340  28.684  29.917  1.00  0.00     0.031 A 
ATOM     53  C   UNL A   1      42.020  32.498  35.044  1.00  0.00     0.049 A 
ATOM     54  C   UNL A   1      41.484  28.675  30.897  1.00  0.00     0.074 A 
ATOM     55  C   UNL A   1      43.087  32.321  35.903  1.00  0.00     0.029 A 
ATOM     56  N   UNL A   1      42.080  31.479  34.103  1.00  0.00    -0.354 N 
ATOM     57  N   UNL A   1      41.719  29.490  31.901  1.00  0.00    -0.248 NA
ATOM     58  C   UNL A   1      42.488  27.618  30.732  1.00  0.00     0.031 C 
ATOM     59  C   UNL A   1      43.823  31.221  35.451  1.00  0.00     0.029 A 
ATOM     60  C   UNL A   1      43.181  30.679  34.346  1.00  0.00     0.049 A 
ATOM     61  H   UNL A   1      41.435  31.346  33.372  1.00  0.00     0.167 HD
ATOM     62  C   UNL A   1      42.881  29.027  32.504  1.00  0.00     0.074 A 
ATOM     63  C   UNL A   1      43.294  27.853  31.759  1.00  0.00     0.031 C 
ATOM     64  C   UNL A   1      43.552  29.521  33.575  1.00  0.00     0.031 A 
BRANCH  51  65
ATOM     65  C   UNL A   1      41.083  34.620  36.080  1.00  0.00    -0.014 A 
ATOM     66  C   UNL A   1      42.092  35.597  36.037  1.00  0.00     0.009 A 
ATOM     67  C   UNL A   1      40.133  34.675  37.110  1.00  0.00     0.009 A 
ATOM     68  C   UNL A   1      42.171  36.579  37.026  1.00  0.00     0.001 A 
ATOM     69  C   UNL A   1      40.195  35.678  38.081  1.00  0.00     0.001 A 
ATOM     70  C   UNL A   1      41.219  36.622  38.044  1.00  0.00     0.000 A 
ENDBRANCH  51  65
BRANCH  52  71
ATOM     71  C   UNL A   1      40.251  27.689  28.817  1.00  0.00    -0.014 A 
ATOM     72  C   UNL A   1      40.807  27.964  27.559  1.00  0.00     0.009 A 
ATOM     73  C   UNL A   1      39.621  26.451  29.021  1.00  0.00     0.009 A 
ATOM     74  C   UNL A   1      40.716  27.029  26.523  1.00  0.00     0.001 A 
ATOM     75  C   UNL A   1      39.555  25.507  27.993  1.00  0.00     0.001 A 
ATOM     76  C   UNL A   1      40.097  25.801  26.743  1.00  0.00     0.000 A 
ENDBRANCH  52  71
BRANCH  64  77
ATOM     77  C   UNL A   1      44.775  28.772  34.016  1.00  0.00    -0.014 A 
ATOM     78  C   UNL A   1      46.045  29.097  33.517  1.00  0.00     0.009 A 
ATOM     79  C   UNL A   1      44.658  27.772  34.995  1.00  0.00     0.009 A 
ATOM     80  C   UNL A   1      47.173  28.412  33.970  1.00  0.00     0.001 A 
ATOM     81  C   UNL A   1      45.790  27.112  35.467  1.00  0.00     0.001 A 
ATOM     82  C   UNL A   1      47.045  27.426  34.949  1.00  0.00     0.000 A 
ENDBRANCH  64  77
ENDBRANCH  38  39
ENDBRANCH  31  33
ENDBRANCH  30  31
ENDBRANCH  29  30
ENDBRANCH  28  29
ENDBRANCH  27  28
ENDBRANCH  26  27
ENDBRANCH  25  26
ENDBRANCH  24  25
ENDBRANCH   1  24
TORSDOF 23
ENDMDL
