MODEL 1
REMARK VINA RESULT:     -10.3      0.000      0.000
REMARK SMILES NS(=O)(=O)c1ccc(-c2cc(Cl)cc3c2O[C@@H](C(F)(F)F)C(C(=O)OCCOCCOCCOCCOC(=O)c2ccc(-c4c5nc(c(-c6ccccc6)c6ccc([nH]6)c(-c6ccccc6)c6nc(c(-c7ccccc7)c7ccc4[nH]7)C=C6)C=C5)cc2)=C3)cc1
REMARK SMILES IDX 30 1 29 2 28 3 27 4 26 5 25 6 23 7 24 8 22 9 9 10 10 11
REMARK SMILES IDX 15 12 11 13 14 14 16 15 12 16 13 17 88 18 17 19 8 20 5 21
REMARK SMILES IDX 6 22 90 23 7 24 89 25 2 26 3 27 4 28 1 29 18 32 19 33 20 34
REMARK SMILES IDX 21 35 31 36 32 37 33 38 34 39 35 40 36 41 37 42 38 43 39 44
REMARK SMILES IDX 40 45 41 46 87 47 42 48 86 49 43 50 44 51 45 52 80 53 46 54
REMARK SMILES IDX 85 55 79 56 81 57 47 58 84 59 78 60 77 61 48 63 70 64 55 65
REMARK SMILES IDX 69 66 56 67 59 68 68 69 82 70 57 71 58 72 67 74 83 75 60 76
REMARK SMILES IDX 49 77 50 78 54 79 51 80 53 81 52 82 71 83 72 84 76 85 73 86
REMARK SMILES IDX 75 87 74 88 61 89 62 90 66 91 63 92 65 93 64 94
REMARK H PARENT 1 30 1 31 81 62 59 73
REMARK Flexibility Score: inf
ROOT
ATOM      1  C   UNL A   1      32.658  31.148  27.166  1.00  0.00     0.188 C 
ENDROOT
BRANCH   1   2
ATOM      2  C   UNL A   1      32.511  29.622  27.120  1.00  0.00     0.188 C 
BRANCH   2   3
ATOM      3  O   UNL A   1      33.742  28.912  27.205  1.00  0.00    -0.376 OA
BRANCH   3   4
ATOM      4  C   UNL A   1      34.423  28.609  25.992  1.00  0.00     0.202 C 
BRANCH   4   5
ATOM      5  C   UNL A   1      33.592  28.612  24.703  1.00  0.00     0.261 C 
BRANCH   5   6
ATOM      6  O   UNL A   1      33.385  27.264  24.226  1.00  0.00    -0.460 OA
BRANCH   6   7
ATOM      7  C   UNL A   1      33.111  27.135  22.919  1.00  0.00     0.338 C 
ATOM      8  O   UNL A   1      33.585  27.840  22.036  1.00  0.00    -0.246 OA
BRANCH   7   9
ATOM      9  C   UNL A   1      32.291  25.933  22.624  1.00  0.00     0.087 C 
ATOM     10  C   UNL A   1      33.053  22.636  25.036  1.00  0.00     0.026 A 
ATOM     11  C   UNL A   1      34.354  22.855  25.542  1.00  0.00     0.033 A 
ATOM     12  C   UNL A   1      32.615  23.579  24.082  1.00  0.00     0.135 A 
ATOM     13  C   UNL A   1      35.261  23.656  24.848  1.00  0.00     0.042 A 
ATOM     14  C   UNL A   1      33.564  24.190  23.248  1.00  0.00     0.019 A 
ATOM     15  O   UNL A   1      31.395  24.246  24.282  1.00  0.00    -0.475 OA
ATOM     16  Cl  UNL A   1      36.852  23.862  25.458  1.00  0.00    -0.084 Cl
ATOM     17  C   UNL A   1      34.899  24.235  23.637  1.00  0.00     0.032 A 
ATOM     18  C   UNL A   1      33.078  24.977  22.094  1.00  0.00     0.027 C 
ATOM     19  C   UNL A   1      31.087  25.398  23.381  1.00  0.00     0.316 C 
BRANCH  10  20
ATOM     20  C   UNL A   1      32.703  21.166  24.968  1.00  0.00    -0.015 A 
ATOM     21  C   UNL A   1      32.964  18.345  24.653  1.00  0.00     0.082 A 
ATOM     22  C   UNL A   1      33.059  18.924  25.920  1.00  0.00     0.022 A 
ATOM     23  C   UNL A   1      32.660  19.141  23.552  1.00  0.00     0.022 A 
ATOM     24  C   UNL A   1      32.910  20.314  26.075  1.00  0.00     0.010 A 
ATOM     25  C   UNL A   1      32.525  20.535  23.714  1.00  0.00     0.010 A 
BRANCH  21  26
ATOM     26  S   UNL A   1      33.328  16.616  24.499  1.00  0.00     0.238 S 
ATOM     27  O   UNL A   1      33.660  16.339  23.124  1.00  0.00    -0.207 OA
ATOM     28  O   UNL A   1      32.318  15.874  25.224  1.00  0.00    -0.207 OA
BRANCH  26  29
ATOM     29  N   UNL A   1      34.750  16.366  25.365  1.00  0.00    -0.225 NA
ATOM     30  H   UNL A   1      35.144  15.458  25.117  1.00  0.00     0.137 HD
ATOM     31  H   UNL A   1      34.548  16.388  26.365  1.00  0.00     0.137 HD
ENDBRANCH  26  29
ENDBRANCH  21  26
ENDBRANCH  10  20
BRANCH  19  32
ATOM     32  C   UNL A   1      30.066  26.428  23.933  1.00  0.00     0.430 C 
ATOM     33  F   UNL A   1      28.823  25.873  23.931  1.00  0.00    -0.167 F 
ATOM     34  F   UNL A   1      30.339  26.751  25.219  1.00  0.00    -0.167 F 
ATOM     35  F   UNL A   1      29.958  27.580  23.254  1.00  0.00    -0.167 F 
ENDBRANCH  19  32
ENDBRANCH   7   9
ENDBRANCH   6   7
ENDBRANCH   5   6
ENDBRANCH   4   5
ENDBRANCH   3   4
ENDBRANCH   2   3
ENDBRANCH   1   2
BRANCH   1  36
ATOM     36  O   UNL A   1      33.684  31.603  28.027  1.00  0.00    -0.377 OA
BRANCH  36  37
ATOM     37  C   UNL A   1      33.810  33.006  28.242  1.00  0.00     0.188 C 
BRANCH  37  38
ATOM     38  C   UNL A   1      32.814  34.036  27.655  1.00  0.00     0.188 C 
BRANCH  38  39
ATOM     39  O   UNL A   1      32.586  35.182  28.467  1.00  0.00    -0.376 OA
BRANCH  39  40
ATOM     40  C   UNL A   1      33.277  35.247  29.705  1.00  0.00     0.202 C 
BRANCH  40  41
ATOM     41  C   UNL A   1      32.531  36.022  30.797  1.00  0.00     0.261 C 
BRANCH  41  42
ATOM     42  O   UNL A   1      32.713  35.516  32.128  1.00  0.00    -0.460 OA
BRANCH  42  43
ATOM     43  C   UNL A   1      33.644  36.118  32.902  1.00  0.00     0.338 C 
ATOM     44  O   UNL A   1      33.548  37.177  33.491  1.00  0.00    -0.246 OA
BRANCH  43  45
ATOM     45  C   UNL A   1      34.749  35.153  33.075  1.00  0.00     0.060 A 
ATOM     46  C   UNL A   1      34.560  34.044  33.911  1.00  0.00     0.016 A 
ATOM     47  C   UNL A   1      35.935  35.307  32.356  1.00  0.00     0.016 A 
ATOM     48  C   UNL A   1      35.566  33.082  34.029  1.00  0.00     0.010 A 
ATOM     49  C   UNL A   1      36.949  34.360  32.495  1.00  0.00     0.010 A 
ATOM     50  C   UNL A   1      36.774  33.252  33.342  1.00  0.00    -0.014 A 
BRANCH  50  51
ATOM     51  C   UNL A   1      37.925  32.359  33.604  1.00  0.00     0.031 A 
ATOM     52  C   UNL A   1      38.760  32.609  34.826  1.00  0.00     0.074 A 
ATOM     53  C   UNL A   1      38.257  31.379  32.747  1.00  0.00     0.049 A 
ATOM     54  N   UNL A   1      39.874  32.036  35.201  1.00  0.00    -0.248 NA
ATOM     55  C   UNL A   1      38.274  33.653  35.743  1.00  0.00     0.031 C 
ATOM     56  C   UNL A   1      37.512  31.020  31.542  1.00  0.00     0.029 A 
ATOM     57  N   UNL A   1      39.332  30.525  32.750  1.00  0.00    -0.354 N 
ATOM     58  C   UNL A   1      40.231  32.660  36.389  1.00  0.00     0.074 A 
ATOM     59  C   UNL A   1      39.226  33.664  36.663  1.00  0.00     0.031 C 
ATOM     60  C   UNL A   1      38.171  30.036  30.904  1.00  0.00     0.029 A 
ATOM     61  C   UNL A   1      39.400  29.728  31.635  1.00  0.00     0.049 A 
ATOM     62  H   UNL A   1      39.990  30.489  33.481  1.00  0.00     0.167 HD
ATOM     63  C   UNL A   1      41.306  32.423  37.178  1.00  0.00     0.031 A 
ATOM     64  C   UNL A   1      40.364  28.878  31.229  1.00  0.00     0.031 A 
ATOM     65  C   UNL A   1      42.320  31.446  36.888  1.00  0.00     0.049 A 
ATOM     66  C   UNL A   1      41.595  28.691  32.077  1.00  0.00     0.074 A 
ATOM     67  C   UNL A   1      43.425  31.101  37.646  1.00  0.00     0.029 A 
ATOM     68  N   UNL A   1      42.368  30.677  35.736  1.00  0.00    -0.354 N 
ATOM     69  N   UNL A   1      41.897  29.243  33.228  1.00  0.00    -0.248 NA
ATOM     70  C   UNL A   1      42.618  27.768  31.566  1.00  0.00     0.031 C 
ATOM     71  C   UNL A   1      44.180  30.175  36.918  1.00  0.00     0.029 A 
ATOM     72  C   UNL A   1      43.510  29.896  35.737  1.00  0.00     0.049 A 
ATOM     73  H   UNL A   1      41.689  30.685  35.022  1.00  0.00     0.167 HD
ATOM     74  C   UNL A   1      43.137  28.726  33.583  1.00  0.00     0.074 A 
ATOM     75  C   UNL A   1      43.522  27.801  32.537  1.00  0.00     0.031 C 
ATOM     76  C   UNL A   1      43.891  28.996  34.678  1.00  0.00     0.031 A 
BRANCH  63  77
ATOM     77  C   UNL A   1      41.462  33.284  38.399  1.00  0.00    -0.014 A 
ATOM     78  C   UNL A   1      41.804  34.642  38.301  1.00  0.00     0.009 A 
ATOM     79  C   UNL A   1      41.258  32.724  39.669  1.00  0.00     0.009 A 
ATOM     80  C   UNL A   1      41.978  35.410  39.454  1.00  0.00     0.001 A 
ATOM     81  C   UNL A   1      41.404  33.501  40.818  1.00  0.00     0.001 A 
ATOM     82  C   UNL A   1      41.775  34.841  40.711  1.00  0.00     0.000 A 
ENDBRANCH  63  77
BRANCH  64  83
ATOM     83  C   UNL A   1      40.226  28.177  29.925  1.00  0.00    -0.014 A 
ATOM     84  C   UNL A   1      39.434  27.027  29.806  1.00  0.00     0.009 A 
ATOM     85  C   UNL A   1      40.890  28.665  28.788  1.00  0.00     0.009 A 
ATOM     86  C   UNL A   1      39.319  26.373  28.577  1.00  0.00     0.001 A 
ATOM     87  C   UNL A   1      40.751  28.026  27.555  1.00  0.00     0.001 A 
ATOM     88  C   UNL A   1      39.970  26.876  27.451  1.00  0.00     0.000 A 
ENDBRANCH  64  83
BRANCH  76  89
ATOM     89  C   UNL A   1      45.209  28.282  34.806  1.00  0.00    -0.014 A 
ATOM     90  C   UNL A   1      46.405  28.887  34.387  1.00  0.00     0.009 A 
ATOM     91  C   UNL A   1      45.263  27.016  35.409  1.00  0.00     0.009 A 
ATOM     92  C   UNL A   1      47.624  28.226  34.548  1.00  0.00     0.001 A 
ATOM     93  C   UNL A   1      46.487  26.370  35.596  1.00  0.00     0.001 A 
ATOM     94  C   UNL A   1      47.666  26.973  35.158  1.00  0.00     0.000 A 
ENDBRANCH  76  89
ENDBRANCH  50  51
ENDBRANCH  43  45
ENDBRANCH  42  43
ENDBRANCH  41  42
ENDBRANCH  40  41
ENDBRANCH  39  40
ENDBRANCH  38  39
ENDBRANCH  37  38
ENDBRANCH  36  37
ENDBRANCH   1  36
TORSDOF 24
ENDMDL
MODEL 2
REMARK VINA RESULT:     -10.1      0.548      5.451
REMARK SMILES NS(=O)(=O)c1ccc(-c2cc(Cl)cc3c2O[C@@H](C(F)(F)F)C(C(=O)OCCOCCOCCOCCOC(=O)c2ccc(-c4c5nc(c(-c6ccccc6)c6ccc([nH]6)c(-c6ccccc6)c6nc(c(-c7ccccc7)c7ccc4[nH]7)C=C6)C=C5)cc2)=C3)cc1
REMARK SMILES IDX 30 1 29 2 28 3 27 4 26 5 25 6 23 7 24 8 22 9 9 10 10 11
REMARK SMILES IDX 15 12 11 13 14 14 16 15 12 16 13 17 88 18 17 19 8 20 5 21
REMARK SMILES IDX 6 22 90 23 7 24 89 25 2 26 3 27 4 28 1 29 18 32 19 33 20 34
REMARK SMILES IDX 21 35 31 36 32 37 33 38 34 39 35 40 36 41 37 42 38 43 39 44
REMARK SMILES IDX 40 45 41 46 87 47 42 48 86 49 43 50 44 51 45 52 80 53 46 54
REMARK SMILES IDX 85 55 79 56 81 57 47 58 84 59 78 60 77 61 48 63 70 64 55 65
REMARK SMILES IDX 69 66 56 67 59 68 68 69 82 70 57 71 58 72 67 74 83 75 60 76
REMARK SMILES IDX 49 77 50 78 54 79 51 80 53 81 52 82 71 83 72 84 76 85 73 86
REMARK SMILES IDX 75 87 74 88 61 89 62 90 66 91 63 92 65 93 64 94
REMARK H PARENT 1 30 1 31 81 62 59 73
REMARK Flexibility Score: inf
ROOT
ATOM      1  C   UNL A   1      32.696  31.259  27.113  1.00  0.00     0.188 C 
ENDROOT
BRANCH   1   2
ATOM      2  C   UNL A   1      32.370  29.763  27.029  1.00  0.00     0.188 C 
BRANCH   2   3
ATOM      3  O   UNL A   1      33.484  28.908  27.263  1.00  0.00    -0.376 OA
BRANCH   3   4
ATOM      4  C   UNL A   1      34.234  28.464  26.137  1.00  0.00     0.202 C 
BRANCH   4   5
ATOM      5  C   UNL A   1      33.511  28.430  24.785  1.00  0.00     0.261 C 
BRANCH   5   6
ATOM      6  O   UNL A   1      33.608  27.117  24.188  1.00  0.00    -0.460 OA
BRANCH   6   7
ATOM      7  C   UNL A   1      33.232  27.023  22.904  1.00  0.00     0.338 C 
ATOM      8  O   UNL A   1      33.644  27.743  22.003  1.00  0.00    -0.246 OA
BRANCH   7   9
ATOM      9  C   UNL A   1      32.375  25.837  22.647  1.00  0.00     0.087 C 
ATOM     10  C   UNL A   1      33.176  22.526  25.028  1.00  0.00     0.026 A 
ATOM     11  C   UNL A   1      34.502  22.719  25.475  1.00  0.00     0.033 A 
ATOM     12  C   UNL A   1      32.716  23.478  24.092  1.00  0.00     0.135 A 
ATOM     13  C   UNL A   1      35.393  23.502  24.741  1.00  0.00     0.042 A 
ATOM     14  C   UNL A   1      33.639  24.069  23.216  1.00  0.00     0.019 A 
ATOM     15  O   UNL A   1      31.519  24.169  24.344  1.00  0.00    -0.475 OA
ATOM     16  Cl  UNL A   1      37.013  23.676  25.281  1.00  0.00    -0.084 Cl
ATOM     17  C   UNL A   1      34.990  24.087  23.546  1.00  0.00     0.032 A 
ATOM     18  C   UNL A   1      33.119  24.865  22.084  1.00  0.00     0.027 C 
ATOM     19  C   UNL A   1      31.195  25.327  23.457  1.00  0.00     0.316 C 
BRANCH  10  20
ATOM     20  C   UNL A   1      32.794  21.063  24.977  1.00  0.00    -0.015 A 
ATOM     21  C   UNL A   1      32.986  18.237  24.659  1.00  0.00     0.082 A 
ATOM     22  C   UNL A   1      33.141  18.816  25.919  1.00  0.00     0.022 A 
ATOM     23  C   UNL A   1      32.656  19.038  23.568  1.00  0.00     0.022 A 
ATOM     24  C   UNL A   1      33.026  20.209  26.077  1.00  0.00     0.010 A 
ATOM     25  C   UNL A   1      32.555  20.434  23.731  1.00  0.00     0.010 A 
BRANCH  21  26
ATOM     26  S   UNL A   1      33.309  16.501  24.495  1.00  0.00     0.238 S 
ATOM     27  O   UNL A   1      33.755  16.244  23.149  1.00  0.00    -0.207 OA
ATOM     28  O   UNL A   1      32.215  15.777  25.108  1.00  0.00    -0.207 OA
BRANCH  26  29
ATOM     29  N   UNL A   1      34.639  16.186  25.479  1.00  0.00    -0.225 NA
ATOM     30  H   UNL A   1      34.866  17.020  26.020  1.00  0.00     0.137 HD
ATOM     31  H   UNL A   1      35.438  15.930  24.898  1.00  0.00     0.137 HD
ENDBRANCH  26  29
ENDBRANCH  21  26
ENDBRANCH  10  20
BRANCH  19  32
ATOM     32  C   UNL A   1      30.220  26.377  24.051  1.00  0.00     0.430 C 
ATOM     33  F   UNL A   1      29.008  25.795  24.264  1.00  0.00    -0.167 F 
ATOM     34  F   UNL A   1      30.649  26.820  25.256  1.00  0.00    -0.167 F 
ATOM     35  F   UNL A   1      29.983  27.461  23.297  1.00  0.00    -0.167 F 
ENDBRANCH  19  32
ENDBRANCH   7   9
ENDBRANCH   6   7
ENDBRANCH   5   6
ENDBRANCH   4   5
ENDBRANCH   3   4
ENDBRANCH   2   3
ENDBRANCH   1   2
BRANCH   1  36
ATOM     36  O   UNL A   1      33.638  31.590  28.114  1.00  0.00    -0.377 OA
BRANCH  36  37
ATOM     37  C   UNL A   1      33.973  32.963  28.298  1.00  0.00     0.188 C 
BRANCH  37  38
ATOM     38  C   UNL A   1      33.080  34.119  27.783  1.00  0.00     0.188 C 
BRANCH  38  39
ATOM     39  O   UNL A   1      32.838  35.157  28.725  1.00  0.00    -0.376 OA
BRANCH  39  40
ATOM     40  C   UNL A   1      33.442  35.026  30.003  1.00  0.00     0.202 C 
BRANCH  40  41
ATOM     41  C   UNL A   1      32.533  35.432  31.169  1.00  0.00     0.261 C 
BRANCH  41  42
ATOM     42  O   UNL A   1      32.967  34.979  32.460  1.00  0.00    -0.460 OA
BRANCH  42  43
ATOM     43  C   UNL A   1      33.839  35.762  33.135  1.00  0.00     0.338 C 
ATOM     44  O   UNL A   1      33.616  36.828  33.673  1.00  0.00    -0.246 OA
BRANCH  43  45
ATOM     45  C   UNL A   1      35.089  34.988  33.279  1.00  0.00     0.060 A 
ATOM     46  C   UNL A   1      35.102  33.865  34.118  1.00  0.00     0.016 A 
ATOM     47  C   UNL A   1      36.217  35.331  32.532  1.00  0.00     0.016 A 
ATOM     48  C   UNL A   1      36.252  33.079  34.210  1.00  0.00     0.010 A 
ATOM     49  C   UNL A   1      37.374  34.561  32.645  1.00  0.00     0.010 A 
ATOM     50  C   UNL A   1      37.401  33.440  33.494  1.00  0.00    -0.014 A 
BRANCH  50  51
ATOM     51  C   UNL A   1      38.687  32.746  33.727  1.00  0.00     0.031 A 
ATOM     52  C   UNL A   1      39.110  31.680  32.758  1.00  0.00     0.074 A 
ATOM     53  C   UNL A   1      39.439  33.016  34.807  1.00  0.00     0.049 A 
ATOM     54  N   UNL A   1      40.130  30.864  32.816  1.00  0.00    -0.248 NA
ATOM     55  C   UNL A   1      38.262  31.510  31.568  1.00  0.00     0.031 C 
ATOM     56  C   UNL A   1      39.150  34.044  35.804  1.00  0.00     0.029 A 
ATOM     57  N   UNL A   1      40.591  32.419  35.257  1.00  0.00    -0.354 N 
ATOM     58  C   UNL A   1      40.037  30.072  31.680  1.00  0.00     0.074 A 
ATOM     59  C   UNL A   1      38.856  30.495  30.960  1.00  0.00     0.031 C 
ATOM     60  C   UNL A   1      40.087  33.986  36.768  1.00  0.00     0.029 A 
ATOM     61  C   UNL A   1      41.013  32.893  36.474  1.00  0.00     0.049 A 
ATOM     62  H   UNL A   1      41.066  31.718  34.756  1.00  0.00     0.167 HD
ATOM     63  C   UNL A   1      40.860  29.076  31.276  1.00  0.00     0.031 A 
ATOM     64  C   UNL A   1      42.005  32.465  37.278  1.00  0.00     0.031 A 
ATOM     65  C   UNL A   1      42.017  28.636  32.008  1.00  0.00     0.049 A 
ATOM     66  C   UNL A   1      42.857  31.298  36.852  1.00  0.00     0.074 A 
ATOM     67  C   UNL A   1      42.938  27.664  31.661  1.00  0.00     0.029 A 
ATOM     68  N   UNL A   1      42.396  29.123  33.249  1.00  0.00    -0.354 N 
ATOM     69  N   UNL A   1      42.799  30.592  35.748  1.00  0.00    -0.248 NA
ATOM     70  C   UNL A   1      43.908  30.868  37.786  1.00  0.00     0.031 C 
ATOM     71  C   UNL A   1      43.832  27.512  32.725  1.00  0.00     0.029 A 
ATOM     72  C   UNL A   1      43.507  28.435  33.707  1.00  0.00     0.049 A 
ATOM     73  H   UNL A   1      41.942  29.850  33.734  1.00  0.00     0.167 HD
ATOM     74  C   UNL A   1      43.809  29.643  35.850  1.00  0.00     0.074 A 
ATOM     75  C   UNL A   1      44.479  29.877  37.113  1.00  0.00     0.031 C 
ATOM     76  C   UNL A   1      44.150  28.664  34.975  1.00  0.00     0.031 A 
BRANCH  63  77
ATOM     77  C   UNL A   1      40.493  28.356  30.009  1.00  0.00    -0.014 A 
ATOM     78  C   UNL A   1      39.562  27.305  30.004  1.00  0.00     0.009 A 
ATOM     79  C   UNL A   1      41.088  28.743  28.798  1.00  0.00     0.009 A 
ATOM     80  C   UNL A   1      39.266  26.631  28.818  1.00  0.00     0.001 A 
ATOM     81  C   UNL A   1      40.769  28.087  27.610  1.00  0.00     0.001 A 
ATOM     82  C   UNL A   1      39.867  27.023  27.622  1.00  0.00     0.000 A 
ENDBRANCH  63  77
BRANCH  64  83
ATOM     83  C   UNL A   1      42.214  33.115  38.600  1.00  0.00    -0.014 A 
ATOM     84  C   UNL A   1      42.968  34.292  38.713  1.00  0.00     0.009 A 
ATOM     85  C   UNL A   1      41.650  32.556  39.758  1.00  0.00     0.009 A 
ATOM     86  C   UNL A   1      43.163  34.888  39.960  1.00  0.00     0.001 A 
ATOM     87  C   UNL A   1      41.824  33.171  41.000  1.00  0.00     0.001 A 
ATOM     88  C   UNL A   1      42.585  34.332  41.102  1.00  0.00     0.000 A 
ENDBRANCH  64  83
BRANCH  76  89
ATOM     89  C   UNL A   1      45.300  27.770  35.349  1.00  0.00    -0.014 A 
ATOM     90  C   UNL A   1      45.095  26.597  36.093  1.00  0.00     0.009 A 
ATOM     91  C   UNL A   1      46.595  28.071  34.899  1.00  0.00     0.009 A 
ATOM     92  C   UNL A   1      46.168  25.758  36.398  1.00  0.00     0.001 A 
ATOM     93  C   UNL A   1      47.661  27.215  35.181  1.00  0.00     0.001 A 
ATOM     94  C   UNL A   1      47.448  26.063  35.937  1.00  0.00     0.000 A 
ENDBRANCH  76  89
ENDBRANCH  50  51
ENDBRANCH  43  45
ENDBRANCH  42  43
ENDBRANCH  41  42
ENDBRANCH  40  41
ENDBRANCH  39  40
ENDBRANCH  38  39
ENDBRANCH  37  38
ENDBRANCH  36  37
ENDBRANCH   1  36
TORSDOF 24
ENDMDL
MODEL 3
REMARK VINA RESULT:      -9.4      2.246      4.361
REMARK SMILES NS(=O)(=O)c1ccc(-c2cc(Cl)cc3c2O[C@@H](C(F)(F)F)C(C(=O)OCCOCCOCCOCCOC(=O)c2ccc(-c4c5nc(c(-c6ccccc6)c6ccc([nH]6)c(-c6ccccc6)c6nc(c(-c7ccccc7)c7ccc4[nH]7)C=C6)C=C5)cc2)=C3)cc1
REMARK SMILES IDX 30 1 29 2 28 3 27 4 26 5 25 6 23 7 24 8 22 9 9 10 10 11
REMARK SMILES IDX 15 12 11 13 14 14 16 15 12 16 13 17 88 18 17 19 8 20 5 21
REMARK SMILES IDX 6 22 90 23 7 24 89 25 2 26 3 27 4 28 1 29 18 32 19 33 20 34
REMARK SMILES IDX 21 35 31 36 32 37 33 38 34 39 35 40 36 41 37 42 38 43 39 44
REMARK SMILES IDX 40 45 41 46 87 47 42 48 86 49 43 50 44 51 45 52 80 53 46 54
REMARK SMILES IDX 85 55 79 56 81 57 47 58 84 59 78 60 77 61 48 63 70 64 55 65
REMARK SMILES IDX 69 66 56 67 59 68 68 69 82 70 57 71 58 72 67 74 83 75 60 76
REMARK SMILES IDX 49 77 50 78 54 79 51 80 53 81 52 82 71 83 72 84 76 85 73 86
REMARK SMILES IDX 75 87 74 88 61 89 62 90 66 91 63 92 65 93 64 94
REMARK H PARENT 1 30 1 31 81 62 59 73
REMARK Flexibility Score: inf
ROOT
ATOM      1  C   UNL A   1      32.265  30.870  26.689  1.00  0.00     0.188 C 
ENDROOT
BRANCH   1   2
ATOM      2  C   UNL A   1      31.841  29.413  26.468  1.00  0.00     0.188 C 
BRANCH   2   3
ATOM      3  O   UNL A   1      32.760  28.453  26.976  1.00  0.00    -0.376 OA
BRANCH   3   4
ATOM      4  C   UNL A   1      33.759  27.951  26.094  1.00  0.00     0.202 C 
BRANCH   4   5
ATOM      5  C   UNL A   1      33.503  28.103  24.590  1.00  0.00     0.261 C 
BRANCH   5   6
ATOM      6  O   UNL A   1      33.793  26.869  23.896  1.00  0.00    -0.460 OA
BRANCH   6   7
ATOM      7  C   UNL A   1      33.370  26.792  22.624  1.00  0.00     0.338 C 
ATOM      8  O   UNL A   1      33.748  27.527  21.721  1.00  0.00    -0.246 OA
BRANCH   7   9
ATOM      9  C   UNL A   1      32.509  25.607  22.381  1.00  0.00     0.087 C 
ATOM     10  C   UNL A   1      33.169  22.386  24.921  1.00  0.00     0.026 A 
ATOM     11  C   UNL A   1      34.479  22.581  25.414  1.00  0.00     0.033 A 
ATOM     12  C   UNL A   1      32.759  23.305  23.931  1.00  0.00     0.135 A 
ATOM     13  C   UNL A   1      35.409  23.322  24.686  1.00  0.00     0.042 A 
ATOM     14  C   UNL A   1      33.725  23.849  23.070  1.00  0.00     0.019 A 
ATOM     15  O   UNL A   1      31.563  24.020  24.106  1.00  0.00    -0.475 OA
ATOM     16  Cl  UNL A   1      37.008  23.499  25.284  1.00  0.00    -0.084 Cl
ATOM     17  C   UNL A   1      35.062  23.864  23.454  1.00  0.00     0.032 A 
ATOM     18  C   UNL A   1      33.261  24.605  21.887  1.00  0.00     0.027 C 
ATOM     19  C   UNL A   1      31.290  25.144  23.161  1.00  0.00     0.316 C 
BRANCH  10  20
ATOM     20  C   UNL A   1      32.769  20.927  24.913  1.00  0.00    -0.015 A 
ATOM     21  C   UNL A   1      32.937  18.088  24.720  1.00  0.00     0.082 A 
ATOM     22  C   UNL A   1      33.043  18.717  25.961  1.00  0.00     0.022 A 
ATOM     23  C   UNL A   1      32.666  18.846  23.584  1.00  0.00     0.022 A 
ATOM     24  C   UNL A   1      32.941  20.116  26.057  1.00  0.00     0.010 A 
ATOM     25  C   UNL A   1      32.577  20.250  23.685  1.00  0.00     0.010 A 
BRANCH  21  26
ATOM     26  S   UNL A   1      33.242  16.342  24.642  1.00  0.00     0.238 S 
ATOM     27  O   UNL A   1      33.535  15.990  23.276  1.00  0.00    -0.207 OA
ATOM     28  O   UNL A   1      32.225  15.669  25.422  1.00  0.00    -0.207 OA
BRANCH  26  29
ATOM     29  N   UNL A   1      34.674  16.088  25.490  1.00  0.00    -0.225 NA
ATOM     30  H   UNL A   1      34.909  15.096  25.470  1.00  0.00     0.137 HD
ATOM     31  H   UNL A   1      34.554  16.390  26.458  1.00  0.00     0.137 HD
ENDBRANCH  26  29
ENDBRANCH  21  26
ENDBRANCH  10  20
BRANCH  19  32
ATOM     32  C   UNL A   1      30.306  26.230  23.673  1.00  0.00     0.430 C 
ATOM     33  F   UNL A   1      30.316  27.285  22.814  1.00  0.00    -0.167 F 
ATOM     34  F   UNL A   1      29.033  25.768  23.696  1.00  0.00    -0.167 F 
ATOM     35  F   UNL A   1      30.561  26.737  24.887  1.00  0.00    -0.167 F 
ENDBRANCH  19  32
ENDBRANCH   7   9
ENDBRANCH   6   7
ENDBRANCH   5   6
ENDBRANCH   4   5
ENDBRANCH   3   4
ENDBRANCH   2   3
ENDBRANCH   1   2
BRANCH   1  36
ATOM     36  O   UNL A   1      33.390  31.023  27.532  1.00  0.00    -0.377 OA
BRANCH  36  37
ATOM     37  C   UNL A   1      33.798  32.343  27.881  1.00  0.00     0.188 C 
BRANCH  37  38
ATOM     38  C   UNL A   1      32.824  33.547  27.884  1.00  0.00     0.188 C 
BRANCH  38  39
ATOM     39  O   UNL A   1      32.932  34.405  29.014  1.00  0.00    -0.376 OA
BRANCH  39  40
ATOM     40  C   UNL A   1      34.230  34.604  29.554  1.00  0.00     0.202 C 
BRANCH  40  41
ATOM     41  C   UNL A   1      34.403  34.066  30.979  1.00  0.00     0.261 C 
BRANCH  41  42
ATOM     42  O   UNL A   1      35.762  33.821  31.371  1.00  0.00    -0.460 OA
BRANCH  42  43
ATOM     43  C   UNL A   1      36.255  32.579  31.167  1.00  0.00     0.338 C 
ATOM     44  O   UNL A   1      36.069  31.855  30.208  1.00  0.00    -0.246 OA
BRANCH  43  45
ATOM     45  C   UNL A   1      37.240  32.325  32.238  1.00  0.00     0.060 A 
ATOM     46  C   UNL A   1      36.842  31.608  33.374  1.00  0.00     0.016 A 
ATOM     47  C   UNL A   1      38.566  32.732  32.083  1.00  0.00     0.016 A 
ATOM     48  C   UNL A   1      37.777  31.295  34.363  1.00  0.00     0.010 A 
ATOM     49  C   UNL A   1      39.493  32.443  33.083  1.00  0.00     0.010 A 
ATOM     50  C   UNL A   1      39.100  31.735  34.233  1.00  0.00    -0.014 A 
BRANCH  50  51
ATOM     51  C   UNL A   1      40.058  31.593  35.352  1.00  0.00     0.031 A 
ATOM     52  C   UNL A   1      40.132  32.690  36.374  1.00  0.00     0.074 A 
ATOM     53  C   UNL A   1      40.885  30.537  35.432  1.00  0.00     0.049 A 
ATOM     54  N   UNL A   1      40.964  32.841  37.370  1.00  0.00    -0.248 NA
ATOM     55  C   UNL A   1      39.135  33.766  36.245  1.00  0.00     0.031 C 
ATOM     56  C   UNL A   1      40.892  29.396  34.520  1.00  0.00     0.029 A 
ATOM     57  N   UNL A   1      41.903  30.274  36.315  1.00  0.00    -0.354 N 
ATOM     58  C   UNL A   1      40.604  34.036  37.978  1.00  0.00     0.074 A 
ATOM     59  C   UNL A   1      39.489  34.576  37.231  1.00  0.00     0.031 C 
ATOM     60  C   UNL A   1      41.890  28.566  34.873  1.00  0.00     0.029 A 
ATOM     61  C   UNL A   1      42.612  29.139  36.008  1.00  0.00     0.049 A 
ATOM     62  H   UNL A   1      42.105  30.844  37.091  1.00  0.00     0.167 HD
ATOM     63  C   UNL A   1      41.156  34.633  39.060  1.00  0.00     0.031 A 
ATOM     64  C   UNL A   1      43.740  28.643  36.554  1.00  0.00     0.031 A 
ATOM     65  C   UNL A   1      42.284  34.111  39.783  1.00  0.00     0.049 A 
ATOM     66  C   UNL A   1      44.392  29.369  37.702  1.00  0.00     0.074 A 
ATOM     67  C   UNL A   1      42.891  34.620  40.918  1.00  0.00     0.029 A 
ATOM     68  N   UNL A   1      42.991  32.974  39.427  1.00  0.00    -0.354 N 
ATOM     69  N   UNL A   1      44.010  30.468  38.309  1.00  0.00    -0.248 NA
ATOM     70  C   UNL A   1      45.632  28.787  38.236  1.00  0.00     0.031 C 
ATOM     71  C   UNL A   1      44.009  33.830  41.204  1.00  0.00     0.029 A 
ATOM     72  C   UNL A   1      44.060  32.792  40.287  1.00  0.00     0.049 A 
ATOM     73  H   UNL A   1      42.766  32.381  38.672  1.00  0.00     0.167 HD
ATOM     74  C   UNL A   1      44.955  30.702  39.301  1.00  0.00     0.074 A 
ATOM     75  C   UNL A   1      45.916  29.620  39.229  1.00  0.00     0.031 C 
ATOM     76  C   UNL A   1      45.021  31.723  40.191  1.00  0.00     0.031 A 
BRANCH  63  77
ATOM     77  C   UNL A   1      40.579  35.955  39.482  1.00  0.00    -0.014 A 
ATOM     78  C   UNL A   1      41.284  37.155  39.303  1.00  0.00     0.009 A 
ATOM     79  C   UNL A   1      39.303  35.996  40.065  1.00  0.00     0.009 A 
ATOM     80  C   UNL A   1      40.739  38.365  39.736  1.00  0.00     0.001 A 
ATOM     81  C   UNL A   1      38.748  37.210  40.471  1.00  0.00     0.001 A 
ATOM     82  C   UNL A   1      39.471  38.392  40.318  1.00  0.00     0.000 A 
ENDBRANCH  63  77
BRANCH  64  83
ATOM     83  C   UNL A   1      44.357  27.417  35.982  1.00  0.00    -0.014 A 
ATOM     84  C   UNL A   1      45.236  27.494  34.893  1.00  0.00     0.009 A 
ATOM     85  C   UNL A   1      44.068  26.158  36.534  1.00  0.00     0.009 A 
ATOM     86  C   UNL A   1      45.804  26.334  34.361  1.00  0.00     0.001 A 
ATOM     87  C   UNL A   1      44.658  25.003  36.017  1.00  0.00     0.001 A 
ATOM     88  C   UNL A   1      45.521  25.091  34.927  1.00  0.00     0.000 A 
ENDBRANCH  64  83
BRANCH  76  89
ATOM     89  C   UNL A   1      46.169  31.724  41.163  1.00  0.00    -0.014 A 
ATOM     90  C   UNL A   1      46.093  31.017  42.374  1.00  0.00     0.009 A 
ATOM     91  C   UNL A   1      47.362  32.387  40.837  1.00  0.00     0.009 A 
ATOM     92  C   UNL A   1      47.182  30.995  43.247  1.00  0.00     0.001 A 
ATOM     93  C   UNL A   1      48.459  32.339  41.699  1.00  0.00     0.001 A 
ATOM     94  C   UNL A   1      48.365  31.650  42.907  1.00  0.00     0.000 A 
ENDBRANCH  76  89
ENDBRANCH  50  51
ENDBRANCH  43  45
ENDBRANCH  42  43
ENDBRANCH  41  42
ENDBRANCH  40  41
ENDBRANCH  39  40
ENDBRANCH  38  39
ENDBRANCH  37  38
ENDBRANCH  36  37
ENDBRANCH   1  36
TORSDOF 24
ENDMDL
