MODEL 1
REMARK VINA RESULT:      -8.6      0.000      0.000
REMARK SMILES CC[C@@H](C)N(CC)c1cc(C(=O)OCCOCCOCCOCCOC(=O)c2ccc(-c3c4nc(c(-c5ccccc5)c5ccc([nH]5)c(-c5ccccc5)c5nc(c(-c6ccccc6)c6ccc3[nH]6)C=C5)C=C4)cc2)c2ccccc2n1
REMARK SMILES IDX 18 1 17 2 16 3 15 4 14 5 13 6 11 7 12 8 10 9 8 10 9 11 82 12
REMARK SMILES IDX 81 13 76 14 80 15 77 16 79 17 78 18 5 19 3 20 4 21 2 22 1 23
REMARK SMILES IDX 6 24 7 25 19 26 20 27 21 28 22 29 23 30 24 31 25 32 26 33
REMARK SMILES IDX 27 34 28 35 29 36 75 37 30 38 74 39 31 40 32 41 33 42 68 43
REMARK SMILES IDX 34 44 73 45 67 46 69 47 35 48 72 49 66 50 65 51 36 53 58 54
REMARK SMILES IDX 43 55 57 56 44 57 47 58 56 59 70 60 45 61 46 62 55 64 71 65
REMARK SMILES IDX 48 66 37 67 38 68 42 69 39 70 41 71 40 72 59 73 60 74 64 75
REMARK SMILES IDX 61 76 63 77 62 78 49 79 50 80 54 81 51 82 53 83 52 84
REMARK H PARENT 69 52 47 63
REMARK Flexibility Score: inf
ROOT
ATOM      1  C   UNL A   1      39.436  21.978  26.396  1.00  0.00     0.188 C 
ENDROOT
BRANCH   1   2
ATOM      2  C   UNL A   1      38.142  21.683  25.605  1.00  0.00     0.188 C 
BRANCH   2   3
ATOM      3  O   UNL A   1      37.707  22.765  24.804  1.00  0.00    -0.376 OA
BRANCH   3   4
ATOM      4  C   UNL A   1      36.343  23.136  24.768  1.00  0.00     0.202 C 
BRANCH   4   5
ATOM      5  C   UNL A   1      35.495  23.038  23.489  1.00  0.00     0.261 C 
BRANCH   5   6
ATOM      6  O   UNL A   1      34.968  24.266  22.989  1.00  0.00    -0.460 OA
BRANCH   6   7
ATOM      7  C   UNL A   1      33.703  24.253  22.521  1.00  0.00     0.339 C 
ATOM      8  O   UNL A   1      33.299  23.643  21.547  1.00  0.00    -0.246 OA
BRANCH   7   9
ATOM      9  C   UNL A   1      32.822  24.909  23.514  1.00  0.00     0.073 A 
ATOM     10  C   UNL A   1      31.940  27.006  24.276  1.00  0.00     0.130 A 
ATOM     11  C   UNL A   1      32.752  26.302  23.410  1.00  0.00     0.063 A 
ATOM     12  N   UNL A   1      31.261  26.368  25.243  1.00  0.00    -0.231 NA
ATOM     13  C   UNL A   1      31.334  25.033  25.367  1.00  0.00     0.074 A 
ATOM     14  C   UNL A   1      32.072  24.218  24.491  1.00  0.00     0.015 A 
ATOM     15  C   UNL A   1      30.655  24.440  26.424  1.00  0.00     0.029 A 
ATOM     16  C   UNL A   1      32.011  22.809  24.663  1.00  0.00     0.011 A 
ATOM     17  C   UNL A   1      30.629  23.058  26.609  1.00  0.00     0.002 A 
ATOM     18  C   UNL A   1      31.285  22.236  25.705  1.00  0.00     0.001 A 
BRANCH  10  19
ATOM     19  N   UNL A   1      31.888  28.387  24.205  1.00  0.00    -0.354 N 
BRANCH  19  20
ATOM     20  C   UNL A   1      30.756  29.029  23.515  1.00  0.00     0.080 C 
ATOM     21  C   UNL A   1      30.354  30.295  24.278  1.00  0.00     0.031 C 
BRANCH  20  22
ATOM     22  C   UNL A   1      29.581  28.065  23.262  1.00  0.00     0.021 C 
ATOM     23  C   UNL A   1      28.340  28.745  22.702  1.00  0.00     0.006 C 
ENDBRANCH  20  22
ENDBRANCH  19  20
BRANCH  19  24
ATOM     24  C   UNL A   1      33.096  29.160  24.487  1.00  0.00     0.115 C 
ATOM     25  C   UNL A   1      33.447  29.148  25.970  1.00  0.00     0.027 C 
ENDBRANCH  19  24
ENDBRANCH  10  19
ENDBRANCH   7   9
ENDBRANCH   6   7
ENDBRANCH   5   6
ENDBRANCH   4   5
ENDBRANCH   3   4
ENDBRANCH   2   3
ENDBRANCH   1   2
BRANCH   1  26
ATOM     26  O   UNL A   1      40.672  21.725  25.748  1.00  0.00    -0.377 OA
BRANCH  26  27
ATOM     27  C   UNL A   1      41.783  21.240  26.499  1.00  0.00     0.188 C 
BRANCH  27  28
ATOM     28  C   UNL A   1      42.946  22.151  26.966  1.00  0.00     0.188 C 
BRANCH  28  29
ATOM     29  O   UNL A   1      43.885  22.490  25.963  1.00  0.00    -0.376 OA
BRANCH  29  30
ATOM     30  C   UNL A   1      43.688  23.688  25.236  1.00  0.00     0.202 C 
BRANCH  30  31
ATOM     31  C   UNL A   1      44.114  24.995  25.919  1.00  0.00     0.261 C 
BRANCH  31  32
ATOM     32  O   UNL A   1      43.568  26.202  25.365  1.00  0.00    -0.460 OA
BRANCH  32  33
ATOM     33  C   UNL A   1      42.267  26.461  25.608  1.00  0.00     0.338 C 
ATOM     34  O   UNL A   1      41.307  26.145  24.922  1.00  0.00    -0.246 OA
BRANCH  33  35
ATOM     35  C   UNL A   1      42.177  27.044  26.961  1.00  0.00     0.060 A 
ATOM     36  C   UNL A   1      41.343  26.442  27.913  1.00  0.00     0.016 A 
ATOM     37  C   UNL A   1      42.924  28.176  27.287  1.00  0.00     0.016 A 
ATOM     38  C   UNL A   1      41.231  26.995  29.189  1.00  0.00     0.010 A 
ATOM     39  C   UNL A   1      42.794  28.742  28.558  1.00  0.00     0.010 A 
ATOM     40  C   UNL A   1      41.922  28.173  29.503  1.00  0.00    -0.014 A 
BRANCH  40  41
ATOM     41  C   UNL A   1      41.586  28.920  30.739  1.00  0.00     0.031 A 
ATOM     42  C   UNL A   1      40.404  29.851  30.707  1.00  0.00     0.074 A 
ATOM     43  C   UNL A   1      42.299  28.769  31.868  1.00  0.00     0.049 A 
ATOM     44  N   UNL A   1      39.957  30.656  31.635  1.00  0.00    -0.248 NA
ATOM     45  C   UNL A   1      39.624  29.875  29.458  1.00  0.00     0.031 C 
ATOM     46  C   UNL A   1      43.434  27.866  32.043  1.00  0.00     0.029 A 
ATOM     47  N   UNL A   1      42.170  29.390  33.086  1.00  0.00    -0.354 N 
ATOM     48  C   UNL A   1      38.847  31.284  31.082  1.00  0.00     0.074 A 
ATOM     49  C   UNL A   1      38.712  30.795  29.728  1.00  0.00     0.031 C 
ATOM     50  C   UNL A   1      43.911  28.004  33.293  1.00  0.00     0.029 A 
ATOM     51  C   UNL A   1      43.139  29.032  33.991  1.00  0.00     0.049 A 
ATOM     52  H   UNL A   1      41.453  30.033  33.291  1.00  0.00     0.167 HD
ATOM     53  C   UNL A   1      38.007  32.179  31.653  1.00  0.00     0.031 A 
ATOM     54  C   UNL A   1      43.392  29.503  35.228  1.00  0.00     0.031 A 
ATOM     55  C   UNL A   1      38.155  32.685  32.991  1.00  0.00     0.049 A 
ATOM     56  C   UNL A   1      42.502  30.574  35.808  1.00  0.00     0.074 A 
ATOM     57  C   UNL A   1      37.362  33.602  33.658  1.00  0.00     0.029 A 
ATOM     58  N   UNL A   1      39.169  32.321  33.862  1.00  0.00    -0.354 N 
ATOM     59  N   UNL A   1      41.446  31.148  35.282  1.00  0.00    -0.248 NA
ATOM     60  C   UNL A   1      42.834  31.054  37.157  1.00  0.00     0.031 C 
ATOM     61  C   UNL A   1      37.932  33.838  34.912  1.00  0.00     0.029 A 
ATOM     62  C   UNL A   1      39.037  33.014  35.054  1.00  0.00     0.049 A 
ATOM     63  H   UNL A   1      39.879  31.669  33.664  1.00  0.00     0.167 HD
ATOM     64  C   UNL A   1      40.972  32.029  36.248  1.00  0.00     0.074 A 
ATOM     65  C   UNL A   1      41.844  31.901  37.396  1.00  0.00     0.031 C 
ATOM     66  C   UNL A   1      39.910  32.871  36.190  1.00  0.00     0.031 A 
BRANCH  53  67
ATOM     67  C   UNL A   1      36.867  32.689  30.815  1.00  0.00    -0.014 A 
ATOM     68  C   UNL A   1      37.047  33.741  29.903  1.00  0.00     0.009 A 
ATOM     69  C   UNL A   1      35.603  32.086  30.916  1.00  0.00     0.009 A 
ATOM     70  C   UNL A   1      35.976  34.200  29.132  1.00  0.00     0.001 A 
ATOM     71  C   UNL A   1      34.543  32.526  30.121  1.00  0.00     0.001 A 
ATOM     72  C   UNL A   1      34.728  33.588  29.237  1.00  0.00     0.000 A 
ENDBRANCH  53  67
BRANCH  54  73
ATOM     73  C   UNL A   1      44.564  29.002  35.997  1.00  0.00    -0.014 A 
ATOM     74  C   UNL A   1      44.427  27.962  36.931  1.00  0.00     0.009 A 
ATOM     75  C   UNL A   1      45.826  29.597  35.832  1.00  0.00     0.009 A 
ATOM     76  C   UNL A   1      45.517  27.555  37.705  1.00  0.00     0.001 A 
ATOM     77  C   UNL A   1      46.922  29.164  36.581  1.00  0.00     0.001 A 
ATOM     78  C   UNL A   1      46.764  28.153  37.527  1.00  0.00     0.000 A 
ENDBRANCH  54  73
BRANCH  66  79
ATOM     79  C   UNL A   1      39.599  33.682  37.420  1.00  0.00    -0.014 A 
ATOM     80  C   UNL A   1      38.647  33.256  38.360  1.00  0.00     0.009 A 
ATOM     81  C   UNL A   1      40.308  34.870  37.661  1.00  0.00     0.009 A 
ATOM     82  C   UNL A   1      38.386  34.025  39.496  1.00  0.00     0.001 A 
ATOM     83  C   UNL A   1      40.069  35.617  38.816  1.00  0.00     0.001 A 
ATOM     84  C   UNL A   1      39.100  35.200  39.726  1.00  0.00     0.000 A 
ENDBRANCH  66  79
ENDBRANCH  40  41
ENDBRANCH  33  35
ENDBRANCH  32  33
ENDBRANCH  31  32
ENDBRANCH  30  31
ENDBRANCH  29  30
ENDBRANCH  28  29
ENDBRANCH  27  28
ENDBRANCH  26  27
ENDBRANCH   1  26
TORSDOF 24
ENDMDL
MODEL 2
REMARK VINA RESULT:      -8.4      7.060     11.656
REMARK SMILES CC[C@@H](C)N(CC)c1cc(C(=O)OCCOCCOCCOCCOC(=O)c2ccc(-c3c4nc(c(-c5ccccc5)c5ccc([nH]5)c(-c5ccccc5)c5nc(c(-c6ccccc6)c6ccc3[nH]6)C=C5)C=C4)cc2)c2ccccc2n1
REMARK SMILES IDX 18 1 17 2 16 3 15 4 14 5 13 6 11 7 12 8 10 9 8 10 9 11 82 12
REMARK SMILES IDX 81 13 76 14 80 15 77 16 79 17 78 18 5 19 3 20 4 21 2 22 1 23
REMARK SMILES IDX 6 24 7 25 19 26 20 27 21 28 22 29 23 30 24 31 25 32 26 33
REMARK SMILES IDX 27 34 28 35 29 36 75 37 30 38 74 39 31 40 32 41 33 42 68 43
REMARK SMILES IDX 34 44 73 45 67 46 69 47 35 48 72 49 66 50 65 51 36 53 58 54
REMARK SMILES IDX 43 55 57 56 44 57 47 58 56 59 70 60 45 61 46 62 55 64 71 65
REMARK SMILES IDX 48 66 37 67 38 68 42 69 39 70 41 71 40 72 59 73 60 74 64 75
REMARK SMILES IDX 61 76 63 77 62 78 49 79 50 80 54 81 51 82 53 83 52 84
REMARK H PARENT 69 52 47 63
REMARK Flexibility Score: inf
ROOT
ATOM      1  C   UNL A   1      39.222  21.863  26.131  1.00  0.00     0.188 C 
ENDROOT
BRANCH   1   2
ATOM      2  C   UNL A   1      37.949  21.768  25.262  1.00  0.00     0.188 C 
BRANCH   2   3
ATOM      3  O   UNL A   1      36.948  22.705  25.616  1.00  0.00    -0.376 OA
BRANCH   3   4
ATOM      4  C   UNL A   1      36.417  23.595  24.654  1.00  0.00     0.202 C 
BRANCH   4   5
ATOM      5  C   UNL A   1      35.776  23.108  23.345  1.00  0.00     0.261 C 
BRANCH   5   6
ATOM      6  O   UNL A   1      34.366  22.893  23.378  1.00  0.00    -0.460 OA
BRANCH   6   7
ATOM      7  C   UNL A   1      33.594  23.726  22.651  1.00  0.00     0.339 C 
ATOM      8  O   UNL A   1      33.463  23.719  21.440  1.00  0.00    -0.246 OA
BRANCH   7   9
ATOM      9  C   UNL A   1      32.737  24.505  23.573  1.00  0.00     0.073 A 
ATOM     10  C   UNL A   1      31.966  26.701  24.156  1.00  0.00     0.130 A 
ATOM     11  C   UNL A   1      32.749  25.887  23.363  1.00  0.00     0.063 A 
ATOM     12  N   UNL A   1      31.236  26.178  25.156  1.00  0.00    -0.231 NA
ATOM     13  C   UNL A   1      31.230  24.855  25.383  1.00  0.00     0.074 A 
ATOM     14  C   UNL A   1      31.933  23.935  24.586  1.00  0.00     0.015 A 
ATOM     15  C   UNL A   1      30.502  24.385  26.468  1.00  0.00     0.029 A 
ATOM     16  C   UNL A   1      31.789  22.549  24.863  1.00  0.00     0.011 A 
ATOM     17  C   UNL A   1      30.393  23.024  26.757  1.00  0.00     0.002 A 
ATOM     18  C   UNL A   1      31.015  22.100  25.931  1.00  0.00     0.001 A 
BRANCH  10  19
ATOM     19  N   UNL A   1      31.994  28.073  23.979  1.00  0.00    -0.354 N 
BRANCH  19  20
ATOM     20  C   UNL A   1      33.226  28.814  24.298  1.00  0.00     0.080 C 
ATOM     21  C   UNL A   1      34.131  28.843  23.063  1.00  0.00     0.031 C 
BRANCH  20  22
ATOM     22  C   UNL A   1      33.932  28.290  25.564  1.00  0.00     0.021 C 
ATOM     23  C   UNL A   1      33.320  28.799  26.861  1.00  0.00     0.006 C 
ENDBRANCH  20  22
ENDBRANCH  19  20
BRANCH  19  24
ATOM     24  C   UNL A   1      30.733  28.797  23.827  1.00  0.00     0.115 C 
ATOM     25  C   UNL A   1      30.222  28.756  22.392  1.00  0.00     0.027 C 
ENDBRANCH  19  24
ENDBRANCH  10  19
ENDBRANCH   7   9
ENDBRANCH   6   7
ENDBRANCH   5   6
ENDBRANCH   4   5
ENDBRANCH   3   4
ENDBRANCH   2   3
ENDBRANCH   1   2
BRANCH   1  26
ATOM     26  O   UNL A   1      40.050  20.714  26.207  1.00  0.00    -0.377 OA
BRANCH  26  27
ATOM     27  C   UNL A   1      41.409  20.843  26.620  1.00  0.00     0.188 C 
BRANCH  27  28
ATOM     28  C   UNL A   1      42.345  21.963  26.100  1.00  0.00     0.188 C 
BRANCH  28  29
ATOM     29  O   UNL A   1      43.177  22.555  27.080  1.00  0.00    -0.376 OA
BRANCH  29  30
ATOM     30  C   UNL A   1      42.591  23.454  28.003  1.00  0.00     0.202 C 
BRANCH  30  31
ATOM     31  C   UNL A   1      41.527  24.416  27.459  1.00  0.00     0.261 C 
BRANCH  31  32
ATOM     32  O   UNL A   1      41.973  25.749  27.167  1.00  0.00    -0.460 OA
BRANCH  32  33
ATOM     33  C   UNL A   1      42.273  26.033  25.883  1.00  0.00     0.338 C 
ATOM     34  O   UNL A   1      41.491  26.243  24.969  1.00  0.00    -0.246 OA
BRANCH  33  35
ATOM     35  C   UNL A   1      43.733  26.231  25.801  1.00  0.00     0.060 A 
ATOM     36  C   UNL A   1      44.548  25.165  25.398  1.00  0.00     0.016 A 
ATOM     37  C   UNL A   1      44.291  27.471  26.114  1.00  0.00     0.016 A 
ATOM     38  C   UNL A   1      45.932  25.331  25.337  1.00  0.00     0.010 A 
ATOM     39  C   UNL A   1      45.678  27.630  26.074  1.00  0.00     0.010 A 
ATOM     40  C   UNL A   1      46.507  26.551  25.717  1.00  0.00    -0.014 A 
BRANCH  40  41
ATOM     41  C   UNL A   1      47.970  26.643  25.935  1.00  0.00     0.031 A 
ATOM     42  C   UNL A   1      48.857  26.830  24.735  1.00  0.00     0.074 A 
ATOM     43  C   UNL A   1      48.503  26.578  27.168  1.00  0.00     0.049 A 
ATOM     44  N   UNL A   1      50.163  26.871  24.665  1.00  0.00    -0.248 NA
ATOM     45  C   UNL A   1      48.178  26.990  23.438  1.00  0.00     0.031 C 
ATOM     46  C   UNL A   1      47.751  26.447  28.414  1.00  0.00     0.029 A 
ATOM     47  N   UNL A   1      49.817  26.606  27.567  1.00  0.00    -0.354 N 
ATOM     48  C   UNL A   1      50.460  27.059  23.321  1.00  0.00     0.074 A 
ATOM     49  C   UNL A   1      49.203  27.085  22.607  1.00  0.00     0.031 C 
ATOM     50  C   UNL A   1      48.618  26.387  29.440  1.00  0.00     0.029 A 
ATOM     51  C   UNL A   1      49.984  26.437  28.920  1.00  0.00     0.049 A 
ATOM     52  H   UNL A   1      50.568  26.732  26.943  1.00  0.00     0.167 HD
ATOM     53  C   UNL A   1      51.670  27.208  22.733  1.00  0.00     0.031 A 
ATOM     54  C   UNL A   1      51.110  26.307  29.648  1.00  0.00     0.031 A 
ATOM     55  C   UNL A   1      52.922  27.156  23.438  1.00  0.00     0.049 A 
ATOM     56  C   UNL A   1      52.449  26.377  28.958  1.00  0.00     0.074 A 
ATOM     57  C   UNL A   1      54.203  27.285  22.932  1.00  0.00     0.029 A 
ATOM     58  N   UNL A   1      53.048  26.950  24.803  1.00  0.00    -0.354 N 
ATOM     59  N   UNL A   1      52.718  26.571  27.689  1.00  0.00    -0.248 NA
ATOM     60  C   UNL A   1      53.641  26.218  29.804  1.00  0.00     0.031 C 
ATOM     61  C   UNL A   1      55.107  27.098  23.982  1.00  0.00     0.029 A 
ATOM     62  C   UNL A   1      54.388  26.925  25.154  1.00  0.00     0.049 A 
ATOM     63  H   UNL A   1      52.298  26.837  25.431  1.00  0.00     0.167 HD
ATOM     64  C   UNL A   1      54.105  26.591  27.593  1.00  0.00     0.074 A 
ATOM     65  C   UNL A   1      54.621  26.407  28.933  1.00  0.00     0.031 C 
ATOM     66  C   UNL A   1      54.885  26.747  26.493  1.00  0.00     0.031 A 
BRANCH  53  67
ATOM     67  C   UNL A   1      51.694  27.413  21.243  1.00  0.00    -0.014 A 
ATOM     68  C   UNL A   1      51.714  26.323  20.359  1.00  0.00     0.009 A 
ATOM     69  C   UNL A   1      51.663  28.714  20.718  1.00  0.00     0.009 A 
ATOM     70  C   UNL A   1      51.735  26.533  18.978  1.00  0.00     0.001 A 
ATOM     71  C   UNL A   1      51.651  28.920  19.337  1.00  0.00     0.001 A 
ATOM     72  C   UNL A   1      51.697  27.830  18.469  1.00  0.00     0.000 A 
ENDBRANCH  53  67
BRANCH  54  73
ATOM     73  C   UNL A   1      51.031  26.055  31.113  1.00  0.00    -0.014 A 
ATOM     74  C   UNL A   1      51.116  27.110  32.035  1.00  0.00     0.009 A 
ATOM     75  C   UNL A   1      50.917  24.742  31.599  1.00  0.00     0.009 A 
ATOM     76  C   UNL A   1      51.123  26.853  33.409  1.00  0.00     0.001 A 
ATOM     77  C   UNL A   1      50.888  24.491  32.973  1.00  0.00     0.001 A 
ATOM     78  C   UNL A   1      51.004  25.545  33.876  1.00  0.00     0.000 A 
ENDBRANCH  54  73
BRANCH  66  79
ATOM     79  C   UNL A   1      56.376  26.778  26.698  1.00  0.00    -0.014 A 
ATOM     80  C   UNL A   1      57.055  27.973  26.979  1.00  0.00     0.009 A 
ATOM     81  C   UNL A   1      57.104  25.577  26.653  1.00  0.00     0.009 A 
ATOM     82  C   UNL A   1      58.439  27.970  27.173  1.00  0.00     0.001 A 
ATOM     83  C   UNL A   1      58.480  25.573  26.883  1.00  0.00     0.001 A 
ATOM     84  C   UNL A   1      59.148  26.771  27.131  1.00  0.00     0.000 A 
ENDBRANCH  66  79
ENDBRANCH  40  41
ENDBRANCH  33  35
ENDBRANCH  32  33
ENDBRANCH  31  32
ENDBRANCH  30  31
ENDBRANCH  29  30
ENDBRANCH  28  29
ENDBRANCH  27  28
ENDBRANCH  26  27
ENDBRANCH   1  26
TORSDOF 24
ENDMDL
MODEL 3
REMARK VINA RESULT:      -8.3      3.873      5.459
REMARK SMILES CC[C@@H](C)N(CC)c1cc(C(=O)OCCOCCOCCOCCOC(=O)c2ccc(-c3c4nc(c(-c5ccccc5)c5ccc([nH]5)c(-c5ccccc5)c5nc(c(-c6ccccc6)c6ccc3[nH]6)C=C5)C=C4)cc2)c2ccccc2n1
REMARK SMILES IDX 18 1 17 2 16 3 15 4 14 5 13 6 11 7 12 8 10 9 8 10 9 11 82 12
REMARK SMILES IDX 81 13 76 14 80 15 77 16 79 17 78 18 5 19 3 20 4 21 2 22 1 23
REMARK SMILES IDX 6 24 7 25 19 26 20 27 21 28 22 29 23 30 24 31 25 32 26 33
REMARK SMILES IDX 27 34 28 35 29 36 75 37 30 38 74 39 31 40 32 41 33 42 68 43
REMARK SMILES IDX 34 44 73 45 67 46 69 47 35 48 72 49 66 50 65 51 36 53 58 54
REMARK SMILES IDX 43 55 57 56 44 57 47 58 56 59 70 60 45 61 46 62 55 64 71 65
REMARK SMILES IDX 48 66 37 67 38 68 42 69 39 70 41 71 40 72 59 73 60 74 64 75
REMARK SMILES IDX 61 76 63 77 62 78 49 79 50 80 54 81 51 82 53 83 52 84
REMARK H PARENT 69 52 47 63
REMARK Flexibility Score: inf
ROOT
ATOM      1  C   UNL A   1      38.866  22.012  26.539  1.00  0.00     0.188 C 
ENDROOT
BRANCH   1   2
ATOM      2  C   UNL A   1      38.072  22.174  25.223  1.00  0.00     0.188 C 
BRANCH   2   3
ATOM      3  O   UNL A   1      37.577  23.484  25.017  1.00  0.00    -0.376 OA
BRANCH   3   4
ATOM      4  C   UNL A   1      36.190  23.719  24.866  1.00  0.00     0.202 C 
BRANCH   4   5
ATOM      5  C   UNL A   1      35.436  23.398  23.566  1.00  0.00     0.261 C 
BRANCH   5   6
ATOM      6  O   UNL A   1      34.785  24.496  22.930  1.00  0.00    -0.460 OA
BRANCH   6   7
ATOM      7  C   UNL A   1      33.533  24.294  22.470  1.00  0.00     0.339 C 
ATOM      8  O   UNL A   1      33.217  23.610  21.513  1.00  0.00    -0.246 OA
BRANCH   7   9
ATOM      9  C   UNL A   1      32.571  24.843  23.452  1.00  0.00     0.073 A 
ATOM     10  C   UNL A   1      31.484  26.833  24.236  1.00  0.00     0.130 A 
ATOM     11  C   UNL A   1      32.379  26.226  23.378  1.00  0.00     0.063 A 
ATOM     12  N   UNL A   1      30.840  26.112  25.169  1.00  0.00    -0.231 NA
ATOM     13  C   UNL A   1      31.030  24.786  25.265  1.00  0.00     0.074 A 
ATOM     14  C   UNL A   1      31.861  24.064  24.392  1.00  0.00     0.015 A 
ATOM     15  C   UNL A   1      30.379  24.108  26.288  1.00  0.00     0.029 A 
ATOM     16  C   UNL A   1      31.923  22.651  24.529  1.00  0.00     0.011 A 
ATOM     17  C   UNL A   1      30.473  22.725  26.440  1.00  0.00     0.002 A 
ATOM     18  C   UNL A   1      31.224  21.989  25.536  1.00  0.00     0.001 A 
BRANCH  10  19
ATOM     19  N   UNL A   1      31.309  28.205  24.195  1.00  0.00    -0.354 N 
BRANCH  19  20
ATOM     20  C   UNL A   1      29.967  28.751  23.930  1.00  0.00     0.080 C 
ATOM     21  C   UNL A   1      29.273  27.891  22.869  1.00  0.00     0.031 C 
BRANCH  20  22
ATOM     22  C   UNL A   1      29.986  30.253  23.586  1.00  0.00     0.021 C 
ATOM     23  C   UNL A   1      28.605  30.889  23.538  1.00  0.00     0.006 C 
ENDBRANCH  20  22
ENDBRANCH  19  20
BRANCH  19  24
ATOM     24  C   UNL A   1      32.481  29.068  24.059  1.00  0.00     0.115 C 
ATOM     25  C   UNL A   1      33.156  29.327  25.401  1.00  0.00     0.027 C 
ENDBRANCH  19  24
ENDBRANCH  10  19
ENDBRANCH   7   9
ENDBRANCH   6   7
ENDBRANCH   5   6
ENDBRANCH   4   5
ENDBRANCH   3   4
ENDBRANCH   2   3
ENDBRANCH   1   2
BRANCH   1  26
ATOM     26  O   UNL A   1      40.178  22.550  26.582  1.00  0.00    -0.377 OA
BRANCH  26  27
ATOM     27  C   UNL A   1      41.228  21.922  25.851  1.00  0.00     0.188 C 
BRANCH  27  28
ATOM     28  C   UNL A   1      42.031  20.715  26.399  1.00  0.00     0.188 C 
BRANCH  28  29
ATOM     29  O   UNL A   1      42.320  19.704  25.451  1.00  0.00    -0.376 OA
BRANCH  29  30
ATOM     30  C   UNL A   1      43.662  19.535  25.037  1.00  0.00     0.202 C 
BRANCH  30  31
ATOM     31  C   UNL A   1      44.651  20.649  25.407  1.00  0.00     0.261 C 
BRANCH  31  32
ATOM     32  O   UNL A   1      45.309  21.297  24.308  1.00  0.00    -0.460 OA
BRANCH  32  33
ATOM     33  C   UNL A   1      44.701  22.375  23.772  1.00  0.00     0.338 C 
ATOM     34  O   UNL A   1      44.080  22.431  22.722  1.00  0.00    -0.246 OA
BRANCH  33  35
ATOM     35  C   UNL A   1      44.757  23.459  24.772  1.00  0.00     0.060 A 
ATOM     36  C   UNL A   1      45.992  23.812  25.334  1.00  0.00     0.016 A 
ATOM     37  C   UNL A   1      43.592  24.131  25.144  1.00  0.00     0.016 A 
ATOM     38  C   UNL A   1      46.057  24.819  26.295  1.00  0.00     0.010 A 
ATOM     39  C   UNL A   1      43.655  25.125  26.124  1.00  0.00     0.010 A 
ATOM     40  C   UNL A   1      44.883  25.450  26.728  1.00  0.00    -0.014 A 
BRANCH  40  41
ATOM     41  C   UNL A   1      44.904  26.301  27.941  1.00  0.00     0.031 A 
ATOM     42  C   UNL A   1      45.024  27.790  27.763  1.00  0.00     0.074 A 
ATOM     43  C   UNL A   1      44.803  25.772  29.173  1.00  0.00     0.049 A 
ATOM     44  N   UNL A   1      45.129  28.729  28.668  1.00  0.00    -0.248 NA
ATOM     45  C   UNL A   1      45.026  28.284  26.376  1.00  0.00     0.031 C 
ATOM     46  C   UNL A   1      44.635  24.353  29.478  1.00  0.00     0.029 A 
ATOM     47  N   UNL A   1      44.840  26.381  30.403  1.00  0.00    -0.354 N 
ATOM     48  C   UNL A   1      45.214  29.922  27.960  1.00  0.00     0.074 A 
ATOM     49  C   UNL A   1      45.186  29.586  26.554  1.00  0.00     0.031 C 
ATOM     50  C   UNL A   1      44.600  24.197  30.813  1.00  0.00     0.029 A 
ATOM     51  C   UNL A   1      44.783  25.499  31.455  1.00  0.00     0.049 A 
ATOM     52  H   UNL A   1      44.903  27.356  30.521  1.00  0.00     0.167 HD
ATOM     53  C   UNL A   1      45.296  31.187  28.438  1.00  0.00     0.031 A 
ATOM     54  C   UNL A   1      44.896  25.716  32.780  1.00  0.00     0.031 A 
ATOM     55  C   UNL A   1      45.350  31.520  29.835  1.00  0.00     0.049 A 
ATOM     56  C   UNL A   1      45.087  27.124  33.285  1.00  0.00     0.074 A 
ATOM     57  C   UNL A   1      45.443  32.770  30.421  1.00  0.00     0.029 A 
ATOM     58  N   UNL A   1      45.322  30.594  30.867  1.00  0.00    -0.354 N 
ATOM     59  N   UNL A   1      45.149  28.246  32.608  1.00  0.00    -0.248 NA
ATOM     60  C   UNL A   1      45.215  27.295  34.740  1.00  0.00     0.031 C 
ATOM     61  C   UNL A   1      45.533  32.597  31.804  1.00  0.00     0.029 A 
ATOM     62  C   UNL A   1      45.421  31.244  32.085  1.00  0.00     0.049 A 
ATOM     63  H   UNL A   1      45.245  29.619  30.751  1.00  0.00     0.167 HD
ATOM     64  C   UNL A   1      45.288  29.254  33.556  1.00  0.00     0.074 A 
ATOM     65  C   UNL A   1      45.284  28.613  34.853  1.00  0.00     0.031 C 
ATOM     66  C   UNL A   1      45.410  30.593  33.369  1.00  0.00     0.031 A 
BRANCH  53  67
ATOM     67  C   UNL A   1      45.361  32.301  27.431  1.00  0.00    -0.014 A 
ATOM     68  C   UNL A   1      44.195  32.842  26.866  1.00  0.00     0.009 A 
ATOM     69  C   UNL A   1      46.605  32.840  27.066  1.00  0.00     0.009 A 
ATOM     70  C   UNL A   1      44.275  33.878  25.933  1.00  0.00     0.001 A 
ATOM     71  C   UNL A   1      46.680  33.897  26.157  1.00  0.00     0.001 A 
ATOM     72  C   UNL A   1      45.517  34.409  25.584  1.00  0.00     0.000 A 
ENDBRANCH  53  67
BRANCH  54  73
ATOM     73  C   UNL A   1      44.876  24.572  33.732  1.00  0.00    -0.014 A 
ATOM     74  C   UNL A   1      46.054  23.881  34.059  1.00  0.00     0.009 A 
ATOM     75  C   UNL A   1      43.662  24.132  34.285  1.00  0.00     0.009 A 
ATOM     76  C   UNL A   1      46.011  22.758  34.889  1.00  0.00     0.001 A 
ATOM     77  C   UNL A   1      43.627  23.031  35.143  1.00  0.00     0.001 A 
ATOM     78  C   UNL A   1      44.799  22.336  35.434  1.00  0.00     0.000 A 
ENDBRANCH  54  73
BRANCH  66  79
ATOM     79  C   UNL A   1      45.496  31.460  34.596  1.00  0.00    -0.014 A 
ATOM     80  C   UNL A   1      44.346  31.961  35.225  1.00  0.00     0.009 A 
ATOM     81  C   UNL A   1      46.753  31.739  35.158  1.00  0.00     0.009 A 
ATOM     82  C   UNL A   1      44.456  32.757  36.368  1.00  0.00     0.001 A 
ATOM     83  C   UNL A   1      46.857  32.504  36.321  1.00  0.00     0.001 A 
ATOM     84  C   UNL A   1      45.709  33.022  36.918  1.00  0.00     0.000 A 
ENDBRANCH  66  79
ENDBRANCH  40  41
ENDBRANCH  33  35
ENDBRANCH  32  33
ENDBRANCH  31  32
ENDBRANCH  30  31
ENDBRANCH  29  30
ENDBRANCH  28  29
ENDBRANCH  27  28
ENDBRANCH  26  27
ENDBRANCH   1  26
TORSDOF 24
ENDMDL
