MODEL 1
REMARK VINA RESULT:      -9.9      0.000      0.000
REMARK SMILES C[C@@H]1CCCN(C(=O)CSc2nnc3c4ccccc4n(CC(=O)OCCOCCOCCOCCOC(=O)c4ccc(-c5c6nc(c(-c7ccccc7)c7ccc([nH]7)c(-c7ccccc7)c7nc(c(-c8ccccc8)c8ccc5[nH]8)C=C7)C=C6)cc4)c3n2)C1
REMARK SMILES IDX 29 1 28 2 27 3 26 4 25 5 23 6 24 7 22 8 21 9 11 10 12 11
REMARK SMILES IDX 89 12 13 13 88 14 14 15 15 16 20 17 16 18 19 19 17 20 18 21
REMARK SMILES IDX 10 22 9 23 7 24 8 25 6 26 1 27 2 28 3 29 90 30 4 31 5 32
REMARK SMILES IDX 30 33 31 34 32 35 33 36 34 37 35 38 36 39 37 40 38 41 39 42
REMARK SMILES IDX 40 43 41 44 87 45 42 46 86 47 43 48 44 49 45 50 80 51 46 52
REMARK SMILES IDX 85 53 79 54 81 55 47 56 84 57 78 58 77 59 48 61 70 62 55 63
REMARK SMILES IDX 69 64 56 65 59 66 68 67 82 68 57 69 58 70 67 72 83 73 60 74
REMARK SMILES IDX 49 75 50 76 54 77 51 78 53 79 52 80 71 81 72 82 76 83 73 84
REMARK SMILES IDX 75 85 74 86 61 87 62 88 66 89 63 90 65 91 64 92
REMARK H PARENT 81 60 59 71
REMARK Flexibility Score: inf
ROOT
ATOM      1  C   UNL A   1      38.375  21.873  25.812  1.00  0.00     0.188 C 
ENDROOT
BRANCH   1   2
ATOM      2  O   UNL A   1      37.269  21.326  25.106  1.00  0.00    -0.376 OA
BRANCH   2   3
ATOM      3  C   UNL A   1      36.039  22.011  25.030  1.00  0.00     0.202 C 
BRANCH   3   4
ATOM      4  C   UNL A   1      35.110  21.772  26.231  1.00  0.00     0.261 C 
BRANCH   4   5
ATOM      5  O   UNL A   1      34.652  22.970  26.898  1.00  0.00    -0.462 OA
BRANCH   5   6
ATOM      6  C   UNL A   1      33.374  22.961  27.358  1.00  0.00     0.326 C 
ATOM      7  O   UNL A   1      32.958  22.153  28.186  1.00  0.00    -0.250 OA
BRANCH   6   8
ATOM      8  C   UNL A   1      32.473  24.076  26.855  1.00  0.00     0.246 C 
BRANCH   8   9
ATOM      9  N   UNL A   1      32.863  24.833  25.667  1.00  0.00    -0.313 N 
ATOM     10  C   UNL A   1      32.641  22.918  22.696  1.00  0.00     0.211 A 
ATOM     11  N   UNL A   1      33.102  23.836  21.805  1.00  0.00    -0.122 NA
ATOM     12  N   UNL A   1      32.546  23.058  24.039  1.00  0.00    -0.201 NA
ATOM     13  N   UNL A   1      33.482  25.038  22.216  1.00  0.00    -0.144 NA
ATOM     14  C   UNL A   1      32.900  24.303  24.401  1.00  0.00     0.165 A 
ATOM     15  C   UNL A   1      33.343  25.293  23.541  1.00  0.00     0.138 A 
ATOM     16  C   UNL A   1      33.521  26.482  24.287  1.00  0.00     0.030 A 
ATOM     17  C   UNL A   1      33.063  26.212  25.586  1.00  0.00     0.053 A 
ATOM     18  C   UNL A   1      33.974  27.779  23.967  1.00  0.00     0.013 A 
ATOM     19  C   UNL A   1      32.952  27.238  26.542  1.00  0.00     0.027 A 
ATOM     20  C   UNL A   1      33.943  28.779  24.941  1.00  0.00     0.001 A 
ATOM     21  C   UNL A   1      33.417  28.516  26.202  1.00  0.00     0.002 A 
BRANCH  10  22
ATOM     22  S   UNL A   1      32.108  21.360  22.043  1.00  0.00    -0.074 SA
BRANCH  22  23
ATOM     23  C   UNL A   1      32.439  20.322  23.497  1.00  0.00     0.178 C 
BRANCH  23  24
ATOM     24  C   UNL A   1      32.496  18.829  23.195  1.00  0.00     0.233 C 
ATOM     25  O   UNL A   1      32.041  18.414  22.125  1.00  0.00    -0.274 OA
BRANCH  24  26
ATOM     26  N   UNL A   1      33.139  17.979  24.093  1.00  0.00    -0.342 N 
ATOM     27  C   UNL A   1      32.102  14.834  26.013  1.00  0.00     0.009 C 
ATOM     28  C   UNL A   1      32.925  15.713  25.077  1.00  0.00     0.005 C 
ATOM     29  C   UNL A   1      34.379  15.800  25.553  1.00  0.00     0.007 C 
ATOM     30  C   UNL A   1      32.321  17.121  24.955  1.00  0.00     0.122 C 
ATOM     31  C   UNL A   1      35.191  16.685  24.615  1.00  0.00     0.022 C 
ATOM     32  C   UNL A   1      34.557  18.059  24.445  1.00  0.00     0.119 C 
ENDBRANCH  24  26
ENDBRANCH  23  24
ENDBRANCH  22  23
ENDBRANCH  10  22
ENDBRANCH   8   9
ENDBRANCH   6   8
ENDBRANCH   5   6
ENDBRANCH   4   5
ENDBRANCH   3   4
ENDBRANCH   2   3
ENDBRANCH   1   2
BRANCH   1  33
ATOM     33  C   UNL A   1      39.727  21.174  25.954  1.00  0.00     0.188 C 
BRANCH  33  34
ATOM     34  O   UNL A   1      40.273  20.665  27.141  1.00  0.00    -0.377 OA
BRANCH  34  35
ATOM     35  C   UNL A   1      41.492  21.129  27.644  1.00  0.00     0.188 C 
BRANCH  35  36
ATOM     36  C   UNL A   1      41.972  22.539  27.323  1.00  0.00     0.188 C 
BRANCH  36  37
ATOM     37  O   UNL A   1      43.276  22.564  26.784  1.00  0.00    -0.376 OA
BRANCH  37  38
ATOM     38  C   UNL A   1      43.654  21.628  25.785  1.00  0.00     0.202 C 
BRANCH  38  39
ATOM     39  C   UNL A   1      45.114  21.265  25.429  1.00  0.00     0.261 C 
BRANCH  39  40
ATOM     40  O   UNL A   1      46.097  22.239  25.772  1.00  0.00    -0.460 OA
BRANCH  40  41
ATOM     41  C   UNL A   1      46.420  23.254  24.944  1.00  0.00     0.338 C 
ATOM     42  O   UNL A   1      46.598  23.216  23.738  1.00  0.00    -0.246 OA
BRANCH  41  43
ATOM     43  C   UNL A   1      46.157  24.463  25.758  1.00  0.00     0.060 A 
ATOM     44  C   UNL A   1      46.576  24.518  27.095  1.00  0.00     0.016 A 
ATOM     45  C   UNL A   1      45.125  25.289  25.292  1.00  0.00     0.016 A 
ATOM     46  C   UNL A   1      45.829  25.276  27.995  1.00  0.00     0.010 A 
ATOM     47  C   UNL A   1      44.372  26.028  26.200  1.00  0.00     0.010 A 
ATOM     48  C   UNL A   1      44.681  25.970  27.560  1.00  0.00    -0.014 A 
BRANCH  48  49
ATOM     49  C   UNL A   1      43.976  26.799  28.545  1.00  0.00     0.031 A 
ATOM     50  C   UNL A   1      44.814  27.934  29.005  1.00  0.00     0.074 A 
ATOM     51  C   UNL A   1      42.680  26.738  28.921  1.00  0.00     0.049 A 
ATOM     52  N   UNL A   1      45.190  28.231  30.204  1.00  0.00    -0.248 NA
ATOM     53  C   UNL A   1      45.412  28.766  27.946  1.00  0.00     0.031 C 
ATOM     54  C   UNL A   1      41.612  25.926  28.338  1.00  0.00     0.029 A 
ATOM     55  N   UNL A   1      42.020  27.496  29.855  1.00  0.00    -0.354 N 
ATOM     56  C   UNL A   1      45.962  29.378  30.067  1.00  0.00     0.074 A 
ATOM     57  C   UNL A   1      46.199  29.562  28.658  1.00  0.00     0.031 C 
ATOM     58  C   UNL A   1      40.417  26.377  28.782  1.00  0.00     0.029 A 
ATOM     59  C   UNL A   1      40.635  27.444  29.748  1.00  0.00     0.049 A 
ATOM     60  H   UNL A   1      42.484  28.029  30.540  1.00  0.00     0.167 HD
ATOM     61  C   UNL A   1      46.172  30.247  31.089  1.00  0.00     0.031 A 
ATOM     62  C   UNL A   1      39.728  28.267  30.334  1.00  0.00     0.031 A 
ATOM     63  C   UNL A   1      45.940  29.653  32.373  1.00  0.00     0.049 A 
ATOM     64  C   UNL A   1      40.384  28.968  31.460  1.00  0.00     0.074 A 
ATOM     65  C   UNL A   1      46.496  28.599  33.069  1.00  0.00     0.029 A 
ATOM     66  N   UNL A   1      44.761  29.957  33.009  1.00  0.00    -0.354 N 
ATOM     67  N   UNL A   1      40.752  28.397  32.570  1.00  0.00    -0.248 NA
ATOM     68  C   UNL A   1      40.949  30.287  31.221  1.00  0.00     0.031 C 
ATOM     69  C   UNL A   1      45.428  28.046  33.829  1.00  0.00     0.029 A 
ATOM     70  C   UNL A   1      44.283  28.807  33.580  1.00  0.00     0.049 A 
ATOM     71  H   UNL A   1      44.336  30.844  33.048  1.00  0.00     0.167 HD
ATOM     72  C   UNL A   1      41.895  29.079  32.957  1.00  0.00     0.074 A 
ATOM     73  C   UNL A   1      41.892  30.303  32.166  1.00  0.00     0.031 C 
ATOM     74  C   UNL A   1      42.877  28.462  33.677  1.00  0.00     0.031 A 
BRANCH  61  75
ATOM     75  C   UNL A   1      46.238  31.733  30.862  1.00  0.00    -0.014 A 
ATOM     76  C   UNL A   1      47.454  32.447  30.815  1.00  0.00     0.009 A 
ATOM     77  C   UNL A   1      45.088  32.418  30.443  1.00  0.00     0.009 A 
ATOM     78  C   UNL A   1      47.523  33.778  30.406  1.00  0.00     0.001 A 
ATOM     79  C   UNL A   1      45.160  33.738  29.982  1.00  0.00     0.001 A 
ATOM     80  C   UNL A   1      46.376  34.419  29.968  1.00  0.00     0.000 A 
ENDBRANCH  61  75
BRANCH  62  81
ATOM     81  C   UNL A   1      38.408  28.698  29.809  1.00  0.00    -0.014 A 
ATOM     82  C   UNL A   1      38.260  29.013  28.445  1.00  0.00     0.009 A 
ATOM     83  C   UNL A   1      37.354  29.045  30.671  1.00  0.00     0.009 A 
ATOM     84  C   UNL A   1      37.119  29.662  27.961  1.00  0.00     0.001 A 
ATOM     85  C   UNL A   1      36.213  29.705  30.186  1.00  0.00     0.001 A 
ATOM     86  C   UNL A   1      36.101  30.021  28.835  1.00  0.00     0.000 A 
ENDBRANCH  62  81
BRANCH  74  87
ATOM     87  C   UNL A   1      42.561  27.160  34.375  1.00  0.00    -0.014 A 
ATOM     88  C   UNL A   1      41.792  27.213  35.550  1.00  0.00     0.009 A 
ATOM     89  C   UNL A   1      43.133  25.929  34.013  1.00  0.00     0.009 A 
ATOM     90  C   UNL A   1      41.621  26.083  36.352  1.00  0.00     0.001 A 
ATOM     91  C   UNL A   1      42.931  24.790  34.799  1.00  0.00     0.001 A 
ATOM     92  C   UNL A   1      42.191  24.870  35.976  1.00  0.00     0.000 A 
ENDBRANCH  74  87
ENDBRANCH  48  49
ENDBRANCH  41  43
ENDBRANCH  40  41
ENDBRANCH  39  40
ENDBRANCH  38  39
ENDBRANCH  37  38
ENDBRANCH  36  37
ENDBRANCH  35  36
ENDBRANCH  34  35
ENDBRANCH  33  34
ENDBRANCH   1  33
TORSDOF 25
ENDMDL
MODEL 2
REMARK VINA RESULT:      -9.7      3.878      9.056
REMARK SMILES C[C@@H]1CCCN(C(=O)CSc2nnc3c4ccccc4n(CC(=O)OCCOCCOCCOCCOC(=O)c4ccc(-c5c6nc(c(-c7ccccc7)c7ccc([nH]7)c(-c7ccccc7)c7nc(c(-c8ccccc8)c8ccc5[nH]8)C=C7)C=C6)cc4)c3n2)C1
REMARK SMILES IDX 29 1 28 2 27 3 26 4 25 5 23 6 24 7 22 8 21 9 11 10 12 11
REMARK SMILES IDX 89 12 13 13 88 14 14 15 15 16 20 17 16 18 19 19 17 20 18 21
REMARK SMILES IDX 10 22 9 23 7 24 8 25 6 26 1 27 2 28 3 29 90 30 4 31 5 32
REMARK SMILES IDX 30 33 31 34 32 35 33 36 34 37 35 38 36 39 37 40 38 41 39 42
REMARK SMILES IDX 40 43 41 44 87 45 42 46 86 47 43 48 44 49 45 50 80 51 46 52
REMARK SMILES IDX 85 53 79 54 81 55 47 56 84 57 78 58 77 59 48 61 70 62 55 63
REMARK SMILES IDX 69 64 56 65 59 66 68 67 82 68 57 69 58 70 67 72 83 73 60 74
REMARK SMILES IDX 49 75 50 76 54 77 51 78 53 79 52 80 71 81 72 82 76 83 73 84
REMARK SMILES IDX 75 85 74 86 61 87 62 88 66 89 63 90 65 91 64 92
REMARK H PARENT 81 60 59 71
REMARK Flexibility Score: inf
ROOT
ATOM      1  C   UNL A   1      34.039  24.393  23.708  1.00  0.00     0.188 C 
ENDROOT
BRANCH   1   2
ATOM      2  O   UNL A   1      33.000  23.441  23.518  1.00  0.00    -0.376 OA
BRANCH   2   3
ATOM      3  C   UNL A   1      31.644  23.806  23.640  1.00  0.00     0.202 C 
BRANCH   3   4
ATOM      4  C   UNL A   1      31.240  24.273  25.047  1.00  0.00     0.261 C 
BRANCH   4   5
ATOM      5  O   UNL A   1      31.416  25.687  25.295  1.00  0.00    -0.462 OA
BRANCH   5   6
ATOM      6  C   UNL A   1      30.635  26.534  24.575  1.00  0.00     0.326 C 
ATOM      7  O   UNL A   1      29.418  26.401  24.461  1.00  0.00    -0.250 OA
BRANCH   6   8
ATOM      8  C   UNL A   1      31.336  27.734  23.964  1.00  0.00     0.246 C 
BRANCH   8   9
ATOM      9  N   UNL A   1      30.789  29.072  24.182  1.00  0.00    -0.313 N 
ATOM     10  C   UNL A   1      32.521  30.861  26.700  1.00  0.00     0.211 A 
ATOM     11  N   UNL A   1      31.778  32.000  26.714  1.00  0.00    -0.122 NA
ATOM     12  N   UNL A   1      32.303  29.752  25.956  1.00  0.00    -0.201 NA
ATOM     13  N   UNL A   1      30.731  32.129  25.911  1.00  0.00    -0.144 NA
ATOM     14  C   UNL A   1      31.260  29.946  25.129  1.00  0.00     0.165 A 
ATOM     15  C   UNL A   1      30.487  31.092  25.070  1.00  0.00     0.138 A 
ATOM     16  C   UNL A   1      29.556  30.945  24.016  1.00  0.00     0.030 A 
ATOM     17  C   UNL A   1      29.869  29.738  23.371  1.00  0.00     0.053 A 
ATOM     18  C   UNL A   1      28.516  31.752  23.510  1.00  0.00     0.013 A 
ATOM     19  C   UNL A   1      29.231  29.371  22.171  1.00  0.00     0.027 A 
ATOM     20  C   UNL A   1      27.824  31.346  22.366  1.00  0.00     0.001 A 
ATOM     21  C   UNL A   1      28.194  30.185  21.696  1.00  0.00     0.002 A 
BRANCH  10  22
ATOM     22  S   UNL A   1      33.932  30.807  27.770  1.00  0.00    -0.074 SA
BRANCH  22  23
ATOM     23  C   UNL A   1      34.059  32.579  28.151  1.00  0.00     0.178 C 
BRANCH  23  24
ATOM     24  C   UNL A   1      34.448  32.879  29.593  1.00  0.00     0.233 C 
ATOM     25  O   UNL A   1      35.034  32.013  30.250  1.00  0.00    -0.274 OA
BRANCH  24  26
ATOM     26  N   UNL A   1      34.213  34.151  30.110  1.00  0.00    -0.342 N 
ATOM     27  C   UNL A   1      33.417  37.563  28.565  1.00  0.00     0.009 C 
ATOM     28  C   UNL A   1      33.242  36.337  29.456  1.00  0.00     0.005 C 
ATOM     29  C   UNL A   1      33.200  36.742  30.934  1.00  0.00     0.007 C 
ATOM     30  C   UNL A   1      34.357  35.307  29.219  1.00  0.00     0.122 C 
ATOM     31  C   UNL A   1      33.029  35.511  31.815  1.00  0.00     0.022 C 
ATOM     32  C   UNL A   1      34.098  34.463  31.535  1.00  0.00     0.119 C 
ENDBRANCH  24  26
ENDBRANCH  23  24
ENDBRANCH  22  23
ENDBRANCH  10  22
ENDBRANCH   8   9
ENDBRANCH   6   8
ENDBRANCH   5   6
ENDBRANCH   4   5
ENDBRANCH   3   4
ENDBRANCH   2   3
ENDBRANCH   1   2
BRANCH   1  33
ATOM     33  C   UNL A   1      35.089  24.301  24.816  1.00  0.00     0.188 C 
BRANCH  33  34
ATOM     34  O   UNL A   1      36.325  23.644  24.728  1.00  0.00    -0.377 OA
BRANCH  34  35
ATOM     35  C   UNL A   1      36.459  22.425  24.057  1.00  0.00     0.188 C 
BRANCH  35  36
ATOM     36  C   UNL A   1      35.783  21.170  24.596  1.00  0.00     0.188 C 
BRANCH  36  37
ATOM     37  O   UNL A   1      36.600  20.448  25.491  1.00  0.00    -0.376 OA
BRANCH  37  38
ATOM     38  C   UNL A   1      37.655  19.635  24.998  1.00  0.00     0.202 C 
BRANCH  38  39
ATOM     39  C   UNL A   1      39.149  20.034  25.007  1.00  0.00     0.261 C 
BRANCH  39  40
ATOM     40  O   UNL A   1      40.038  19.100  25.616  1.00  0.00    -0.460 OA
BRANCH  40  41
ATOM     41  C   UNL A   1      41.328  19.401  25.874  1.00  0.00     0.338 C 
ATOM     42  O   UNL A   1      42.326  18.786  25.540  1.00  0.00    -0.246 OA
BRANCH  41  43
ATOM     43  C   UNL A   1      41.270  20.808  26.332  1.00  0.00     0.060 A 
ATOM     44  C   UNL A   1      42.117  21.770  25.765  1.00  0.00     0.016 A 
ATOM     45  C   UNL A   1      40.702  21.004  27.598  1.00  0.00     0.016 A 
ATOM     46  C   UNL A   1      42.530  22.841  26.555  1.00  0.00     0.010 A 
ATOM     47  C   UNL A   1      41.134  22.066  28.389  1.00  0.00     0.010 A 
ATOM     48  C   UNL A   1      42.097  22.946  27.894  1.00  0.00    -0.014 A 
BRANCH  48  49
ATOM     49  C   UNL A   1      42.519  24.131  28.651  1.00  0.00     0.031 A 
ATOM     50  C   UNL A   1      41.710  25.324  28.296  1.00  0.00     0.074 A 
ATOM     51  C   UNL A   1      43.388  24.204  29.682  1.00  0.00     0.049 A 
ATOM     52  N   UNL A   1      42.105  26.462  27.831  1.00  0.00    -0.248 NA
ATOM     53  C   UNL A   1      40.248  25.153  28.354  1.00  0.00     0.031 C 
ATOM     54  C   UNL A   1      44.022  23.100  30.403  1.00  0.00     0.029 A 
ATOM     55  N   UNL A   1      43.802  25.310  30.382  1.00  0.00    -0.354 N 
ATOM     56  C   UNL A   1      40.944  27.208  27.670  1.00  0.00     0.074 A 
ATOM     57  C   UNL A   1      39.835  26.306  27.845  1.00  0.00     0.031 C 
ATOM     58  C   UNL A   1      44.566  23.570  31.549  1.00  0.00     0.029 A 
ATOM     59  C   UNL A   1      44.403  25.015  31.600  1.00  0.00     0.049 A 
ATOM     60  H   UNL A   1      43.685  26.229  30.050  1.00  0.00     0.167 HD
ATOM     61  C   UNL A   1      40.944  28.565  27.631  1.00  0.00     0.031 A 
ATOM     62  C   UNL A   1      44.670  25.872  32.619  1.00  0.00     0.031 A 
ATOM     63  C   UNL A   1      42.230  29.107  27.305  1.00  0.00     0.049 A 
ATOM     64  C   UNL A   1      44.636  27.255  32.095  1.00  0.00     0.074 A 
ATOM     65  C   UNL A   1      43.074  29.012  26.217  1.00  0.00     0.029 A 
ATOM     66  N   UNL A   1      42.979  29.627  28.331  1.00  0.00    -0.354 N 
ATOM     67  N   UNL A   1      45.523  27.760  31.288  1.00  0.00    -0.248 NA
ATOM     68  C   UNL A   1      43.398  28.010  32.210  1.00  0.00     0.031 C 
ATOM     69  C   UNL A   1      44.389  29.080  26.756  1.00  0.00     0.029 A 
ATOM     70  C   UNL A   1      44.280  29.241  28.139  1.00  0.00     0.049 A 
ATOM     71  H   UNL A   1      42.642  30.179  29.072  1.00  0.00     0.167 HD
ATOM     72  C   UNL A   1      44.813  28.643  30.489  1.00  0.00     0.074 A 
ATOM     73  C   UNL A   1      43.549  28.849  31.184  1.00  0.00     0.031 C 
ATOM     74  C   UNL A   1      45.203  28.906  29.207  1.00  0.00     0.031 A 
BRANCH  61  75
ATOM     75  C   UNL A   1      39.838  29.373  28.254  1.00  0.00    -0.014 A 
ATOM     76  C   UNL A   1      38.633  29.669  27.580  1.00  0.00     0.009 A 
ATOM     77  C   UNL A   1      39.875  29.650  29.629  1.00  0.00     0.009 A 
ATOM     78  C   UNL A   1      37.537  30.239  28.225  1.00  0.00     0.001 A 
ATOM     79  C   UNL A   1      38.758  30.173  30.291  1.00  0.00     0.001 A 
ATOM     80  C   UNL A   1      37.592  30.473  29.589  1.00  0.00     0.000 A 
ENDBRANCH  61  75
BRANCH  62  81
ATOM     81  C   UNL A   1      44.674  25.588  34.076  1.00  0.00    -0.014 A 
ATOM     82  C   UNL A   1      45.879  25.269  34.730  1.00  0.00     0.009 A 
ATOM     83  C   UNL A   1      43.479  25.382  34.786  1.00  0.00     0.009 A 
ATOM     84  C   UNL A   1      45.895  24.749  36.028  1.00  0.00     0.001 A 
ATOM     85  C   UNL A   1      43.494  24.851  36.086  1.00  0.00     0.001 A 
ATOM     86  C   UNL A   1      44.701  24.526  36.702  1.00  0.00     0.000 A 
ENDBRANCH  62  81
BRANCH  74  87
ATOM     87  C   UNL A   1      46.605  28.537  28.781  1.00  0.00    -0.014 A 
ATOM     88  C   UNL A   1      47.549  29.570  28.661  1.00  0.00     0.009 A 
ATOM     89  C   UNL A   1      46.966  27.255  28.334  1.00  0.00     0.009 A 
ATOM     90  C   UNL A   1      48.803  29.339  28.091  1.00  0.00     0.001 A 
ATOM     91  C   UNL A   1      48.234  27.017  27.796  1.00  0.00     0.001 A 
ATOM     92  C   UNL A   1      49.146  28.062  27.659  1.00  0.00     0.000 A 
ENDBRANCH  74  87
ENDBRANCH  48  49
ENDBRANCH  41  43
ENDBRANCH  40  41
ENDBRANCH  39  40
ENDBRANCH  38  39
ENDBRANCH  37  38
ENDBRANCH  36  37
ENDBRANCH  35  36
ENDBRANCH  34  35
ENDBRANCH  33  34
ENDBRANCH   1  33
TORSDOF 25
ENDMDL
MODEL 3
REMARK VINA RESULT:      -9.5      3.777      9.142
REMARK SMILES C[C@@H]1CCCN(C(=O)CSc2nnc3c4ccccc4n(CC(=O)OCCOCCOCCOCCOC(=O)c4ccc(-c5c6nc(c(-c7ccccc7)c7ccc([nH]7)c(-c7ccccc7)c7nc(c(-c8ccccc8)c8ccc5[nH]8)C=C7)C=C6)cc4)c3n2)C1
REMARK SMILES IDX 29 1 28 2 27 3 26 4 25 5 23 6 24 7 22 8 21 9 11 10 12 11
REMARK SMILES IDX 89 12 13 13 88 14 14 15 15 16 20 17 16 18 19 19 17 20 18 21
REMARK SMILES IDX 10 22 9 23 7 24 8 25 6 26 1 27 2 28 3 29 90 30 4 31 5 32
REMARK SMILES IDX 30 33 31 34 32 35 33 36 34 37 35 38 36 39 37 40 38 41 39 42
REMARK SMILES IDX 40 43 41 44 87 45 42 46 86 47 43 48 44 49 45 50 80 51 46 52
REMARK SMILES IDX 85 53 79 54 81 55 47 56 84 57 78 58 77 59 48 61 70 62 55 63
REMARK SMILES IDX 69 64 56 65 59 66 68 67 82 68 57 69 58 70 67 72 83 73 60 74
REMARK SMILES IDX 49 75 50 76 54 77 51 78 53 79 52 80 71 81 72 82 76 83 73 84
REMARK SMILES IDX 75 85 74 86 61 87 62 88 66 89 63 90 65 91 64 92
REMARK H PARENT 81 60 59 71
REMARK Flexibility Score: inf
ROOT
ATOM      1  C   UNL A   1      31.591  22.457  23.647  1.00  0.00     0.188 C 
ENDROOT
BRANCH   1   2
ATOM      2  O   UNL A   1      31.409  23.667  24.372  1.00  0.00    -0.376 OA
BRANCH   2   3
ATOM      3  C   UNL A   1      31.227  23.661  25.771  1.00  0.00     0.202 C 
BRANCH   3   4
ATOM      4  C   UNL A   1      32.310  24.424  26.550  1.00  0.00     0.261 C 
BRANCH   4   5
ATOM      5  O   UNL A   1      32.428  25.827  26.218  1.00  0.00    -0.462 OA
BRANCH   5   6
ATOM      6  C   UNL A   1      33.563  26.208  25.577  1.00  0.00     0.326 C 
ATOM      7  O   UNL A   1      34.307  25.422  24.991  1.00  0.00    -0.250 OA
BRANCH   6   8
ATOM      8  C   UNL A   1      33.843  27.700  25.541  1.00  0.00     0.246 C 
BRANCH   8   9
ATOM      9  N   UNL A   1      32.744  28.631  25.288  1.00  0.00    -0.313 N 
ATOM     10  C   UNL A   1      32.974  31.578  27.237  1.00  0.00     0.211 A 
ATOM     11  N   UNL A   1      31.831  32.197  26.839  1.00  0.00    -0.122 NA
ATOM     12  N   UNL A   1      33.412  30.353  26.866  1.00  0.00    -0.201 NA
ATOM     13  N   UNL A   1      31.023  31.617  25.962  1.00  0.00    -0.144 NA
ATOM     14  C   UNL A   1      32.586  29.825  25.945  1.00  0.00     0.165 A 
ATOM     15  C   UNL A   1      31.428  30.418  25.473  1.00  0.00     0.138 A 
ATOM     16  C   UNL A   1      30.895  29.598  24.452  1.00  0.00     0.030 A 
ATOM     17  C   UNL A   1      31.821  28.564  24.243  1.00  0.00     0.053 A 
ATOM     18  C   UNL A   1      29.741  29.669  23.643  1.00  0.00     0.013 A 
ATOM     19  C   UNL A   1      31.669  27.659  23.176  1.00  0.00     0.027 A 
ATOM     20  C   UNL A   1      29.547  28.720  22.636  1.00  0.00     0.001 A 
ATOM     21  C   UNL A   1      30.509  27.746  22.394  1.00  0.00     0.002 A 
BRANCH  10  22
ATOM     22  S   UNL A   1      34.012  32.457  28.372  1.00  0.00    -0.074 SA
BRANCH  22  23
ATOM     23  C   UNL A   1      33.160  34.061  28.341  1.00  0.00     0.178 C 
BRANCH  23  24
ATOM     24  C   UNL A   1      33.947  35.196  28.987  1.00  0.00     0.233 C 
ATOM     25  O   UNL A   1      34.680  35.896  28.281  1.00  0.00    -0.274 OA
BRANCH  24  26
ATOM     26  N   UNL A   1      33.754  35.474  30.338  1.00  0.00    -0.342 N 
ATOM     27  C   UNL A   1      35.600  34.527  33.556  1.00  0.00     0.009 C 
ATOM     28  C   UNL A   1      34.972  35.428  32.498  1.00  0.00     0.005 C 
ATOM     29  C   UNL A   1      33.878  36.308  33.115  1.00  0.00     0.007 C 
ATOM     30  C   UNL A   1      34.399  34.609  31.331  1.00  0.00     0.122 C 
ATOM     31  C   UNL A   1      33.253  37.200  32.049  1.00  0.00     0.022 C 
ATOM     32  C   UNL A   1      32.743  36.392  30.863  1.00  0.00     0.119 C 
ENDBRANCH  24  26
ENDBRANCH  23  24
ENDBRANCH  22  23
ENDBRANCH  10  22
ENDBRANCH   8   9
ENDBRANCH   6   8
ENDBRANCH   5   6
ENDBRANCH   4   5
ENDBRANCH   3   4
ENDBRANCH   2   3
ENDBRANCH   1   2
BRANCH   1  33
ATOM     33  C   UNL A   1      32.940  21.759  23.477  1.00  0.00     0.188 C 
BRANCH  33  34
ATOM     34  O   UNL A   1      34.019  21.819  24.371  1.00  0.00    -0.377 OA
BRANCH  34  35
ATOM     35  C   UNL A   1      35.100  22.680  24.157  1.00  0.00     0.188 C 
BRANCH  35  36
ATOM     36  C   UNL A   1      36.418  22.461  24.890  1.00  0.00     0.188 C 
BRANCH  36  37
ATOM     37  O   UNL A   1      37.271  21.556  24.225  1.00  0.00    -0.376 OA
BRANCH  37  38
ATOM     38  C   UNL A   1      38.094  20.671  24.971  1.00  0.00     0.202 C 
BRANCH  38  39
ATOM     39  C   UNL A   1      39.297  21.109  25.838  1.00  0.00     0.261 C 
BRANCH  39  40
ATOM     40  O   UNL A   1      40.107  20.055  26.354  1.00  0.00    -0.460 OA
BRANCH  40  41
ATOM     41  C   UNL A   1      41.400  19.903  25.996  1.00  0.00     0.338 C 
ATOM     42  O   UNL A   1      41.847  19.357  25.002  1.00  0.00    -0.246 OA
BRANCH  41  43
ATOM     43  C   UNL A   1      42.118  20.849  26.881  1.00  0.00     0.060 A 
ATOM     44  C   UNL A   1      41.724  21.002  28.218  1.00  0.00     0.016 A 
ATOM     45  C   UNL A   1      42.846  21.850  26.225  1.00  0.00     0.016 A 
ATOM     46  C   UNL A   1      41.910  22.241  28.828  1.00  0.00     0.010 A 
ATOM     47  C   UNL A   1      43.012  23.091  26.834  1.00  0.00     0.010 A 
ATOM     48  C   UNL A   1      42.486  23.309  28.108  1.00  0.00    -0.014 A 
BRANCH  48  49
ATOM     49  C   UNL A   1      42.711  24.568  28.829  1.00  0.00     0.031 A 
ATOM     50  C   UNL A   1      41.731  25.609  28.431  1.00  0.00     0.074 A 
ATOM     51  C   UNL A   1      43.548  24.808  29.861  1.00  0.00     0.049 A 
ATOM     52  N   UNL A   1      41.949  26.780  27.930  1.00  0.00    -0.248 NA
ATOM     53  C   UNL A   1      40.312  25.216  28.487  1.00  0.00     0.031 C 
ATOM     54  C   UNL A   1      44.338  23.839  30.621  1.00  0.00     0.029 A 
ATOM     55  N   UNL A   1      43.779  25.986  30.526  1.00  0.00    -0.354 N 
ATOM     56  C   UNL A   1      40.688  27.331  27.739  1.00  0.00     0.074 A 
ATOM     57  C   UNL A   1      39.730  26.274  27.938  1.00  0.00     0.031 C 
ATOM     58  C   UNL A   1      44.791  24.424  31.753  1.00  0.00     0.029 A 
ATOM     59  C   UNL A   1      44.406  25.828  31.756  1.00  0.00     0.049 A 
ATOM     60  H   UNL A   1      43.523  26.865  30.164  1.00  0.00     0.167 HD
ATOM     61  C   UNL A   1      40.478  28.670  27.656  1.00  0.00     0.031 A 
ATOM     62  C   UNL A   1      44.526  26.747  32.747  1.00  0.00     0.031 A 
ATOM     63  C   UNL A   1      41.668  29.394  27.318  1.00  0.00     0.049 A 
ATOM     64  C   UNL A   1      44.284  28.090  32.178  1.00  0.00     0.074 A 
ATOM     65  C   UNL A   1      42.527  29.397  26.238  1.00  0.00     0.029 A 
ATOM     66  N   UNL A   1      42.317  30.056  28.330  1.00  0.00    -0.354 N 
ATOM     67  N   UNL A   1      45.090  28.701  31.360  1.00  0.00    -0.248 NA
ATOM     68  C   UNL A   1      42.942  28.648  32.262  1.00  0.00     0.031 C 
ATOM     69  C   UNL A   1      43.811  29.685  26.781  1.00  0.00     0.029 A 
ATOM     70  C   UNL A   1      43.664  29.871  28.157  1.00  0.00     0.049 A 
ATOM     71  H   UNL A   1      41.891  30.573  29.051  1.00  0.00     0.167 HD
ATOM     72  C   UNL A   1      44.260  29.438  30.529  1.00  0.00     0.074 A 
ATOM     73  C   UNL A   1      42.972  29.467  31.210  1.00  0.00     0.031 C 
ATOM     74  C   UNL A   1      44.617  29.717  29.240  1.00  0.00     0.031 A 
BRANCH  61  75
ATOM     75  C   UNL A   1      39.254  29.315  28.246  1.00  0.00    -0.014 A 
ATOM     76  C   UNL A   1      38.060  29.502  27.517  1.00  0.00     0.009 A 
ATOM     77  C   UNL A   1      39.187  29.530  29.630  1.00  0.00     0.009 A 
ATOM     78  C   UNL A   1      36.872  29.912  28.121  1.00  0.00     0.001 A 
ATOM     79  C   UNL A   1      37.984  29.891  30.249  1.00  0.00     0.001 A 
ATOM     80  C   UNL A   1      36.829  30.087  29.494  1.00  0.00     0.000 A 
ENDBRANCH  61  75
BRANCH  62  81
ATOM     81  C   UNL A   1      44.560  26.514  34.213  1.00  0.00    -0.014 A 
ATOM     82  C   UNL A   1      43.682  25.584  34.801  1.00  0.00     0.009 A 
ATOM     83  C   UNL A   1      45.267  27.370  35.075  1.00  0.00     0.009 A 
ATOM     84  C   UNL A   1      43.501  25.519  36.187  1.00  0.00     0.001 A 
ATOM     85  C   UNL A   1      45.078  27.312  36.466  1.00  0.00     0.001 A 
ATOM     86  C   UNL A   1      44.188  26.394  37.019  1.00  0.00     0.000 A 
ENDBRANCH  62  81
BRANCH  74  87
ATOM     87  C   UNL A   1      46.063  29.557  28.834  1.00  0.00    -0.014 A 
ATOM     88  C   UNL A   1      46.483  28.295  28.380  1.00  0.00     0.009 A 
ATOM     89  C   UNL A   1      47.041  30.543  29.047  1.00  0.00     0.009 A 
ATOM     90  C   UNL A   1      47.836  28.017  28.171  1.00  0.00     0.001 A 
ATOM     91  C   UNL A   1      48.391  30.274  28.803  1.00  0.00     0.001 A 
ATOM     92  C   UNL A   1      48.790  29.007  28.382  1.00  0.00     0.000 A 
ENDBRANCH  74  87
ENDBRANCH  48  49
ENDBRANCH  41  43
ENDBRANCH  40  41
ENDBRANCH  39  40
ENDBRANCH  38  39
ENDBRANCH  37  38
ENDBRANCH  36  37
ENDBRANCH  35  36
ENDBRANCH  34  35
ENDBRANCH  33  34
ENDBRANCH   1  33
TORSDOF 25
ENDMDL
