MODEL 1
REMARK VINA RESULT:      -8.6      0.000      0.000
REMARK SMILES C[C@@H](C(=O)OCCOCCOCCOCCOC(=O)c1ccc(-c2c3nc(c(-c4ccccc4)c4ccc([nH]4)c(-c4ccccc4)c4nc(c(-c5ccccc5)c5ccc2[nH]5)C=C4)C=C3)cc1)c1cccn(C(F)F)c1=O
REMARK SMILES IDX 11 1 10 2 9 3 8 4 7 5 6 6 5 7 3 8 4 9 2 10 1 11 68 12 69 13
REMARK SMILES IDX 76 14 70 15 72 16 77 17 71 18 73 19 74 20 75 21 12 22 13 23
REMARK SMILES IDX 14 24 15 25 16 26 17 27 18 28 19 29 20 30 21 31 67 32 22 33
REMARK SMILES IDX 66 34 23 35 24 36 25 37 60 38 26 39 65 40 59 41 61 42 27 43
REMARK SMILES IDX 64 44 58 45 57 46 28 48 50 49 35 50 49 51 36 52 39 53 48 54
REMARK SMILES IDX 62 55 37 56 38 57 47 59 63 60 40 61 29 62 30 63 34 64 31 65
REMARK SMILES IDX 33 66 32 67 51 68 52 69 56 70 53 71 55 72 54 73 41 74 42 75
REMARK SMILES IDX 46 76 43 77 45 78 44 79
REMARK H PARENT 61 47 39 58
REMARK Flexibility Score: inf
ROOT
ATOM      1  O   UNL A   1      34.873  22.837  27.066  1.00  0.00    -0.377 OA
ENDROOT
BRANCH   1   2
ATOM      2  C   UNL A   1      33.607  23.183  26.548  1.00  0.00     0.188 C 
BRANCH   2   3
ATOM      3  C   UNL A   1      32.525  22.092  26.679  1.00  0.00     0.188 C 
BRANCH   3   4
ATOM      4  O   UNL A   1      31.660  21.811  25.590  1.00  0.00    -0.376 OA
BRANCH   4   5
ATOM      5  C   UNL A   1      30.775  22.809  25.107  1.00  0.00     0.202 C 
BRANCH   5   6
ATOM      6  C   UNL A   1      31.129  23.690  23.891  1.00  0.00     0.261 C 
BRANCH   6   7
ATOM      7  O   UNL A   1      30.139  24.634  23.438  1.00  0.00    -0.463 OA
BRANCH   7   8
ATOM      8  C   UNL A   1      30.123  25.847  24.055  1.00  0.00     0.313 C 
ATOM      9  O   UNL A   1      29.485  26.074  25.078  1.00  0.00    -0.252 OA
BRANCH   8  10
ATOM     10  C   UNL A   1      30.992  26.916  23.361  1.00  0.00     0.132 C 
ATOM     11  C   UNL A   1      31.616  26.609  21.993  1.00  0.00     0.025 C 
BRANCH  10  12
ATOM     12  C   UNL A   1      32.002  27.419  24.386  1.00  0.00     0.032 A 
ATOM     13  C   UNL A   1      33.056  26.738  24.882  1.00  0.00     0.012 A 
ATOM     14  C   UNL A   1      31.767  28.811  24.904  1.00  0.00     0.259 A 
ATOM     15  C   UNL A   1      33.875  27.258  25.947  1.00  0.00     0.019 A 
ATOM     16  N   UNL A   1      32.609  29.246  25.910  1.00  0.00    -0.258 N 
ATOM     17  O   UNL A   1      30.884  29.510  24.413  1.00  0.00    -0.269 OA
ATOM     18  C   UNL A   1      33.629  28.477  26.430  1.00  0.00     0.095 A 
BRANCH  16  19
ATOM     19  C   UNL A   1      32.408  30.582  26.407  1.00  0.00     0.451 C 
ATOM     20  F   UNL A   1      31.207  30.659  27.040  1.00  0.00    -0.185 F 
ATOM     21  F   UNL A   1      33.351  30.853  27.351  1.00  0.00    -0.185 F 
ENDBRANCH  16  19
ENDBRANCH  10  12
ENDBRANCH   8  10
ENDBRANCH   7   8
ENDBRANCH   6   7
ENDBRANCH   5   6
ENDBRANCH   4   5
ENDBRANCH   3   4
ENDBRANCH   2   3
ENDBRANCH   1   2
BRANCH   1  22
ATOM     22  C   UNL A   1      35.732  22.122  26.192  1.00  0.00     0.188 C 
BRANCH  22  23
ATOM     23  C   UNL A   1      36.953  22.865  25.618  1.00  0.00     0.188 C 
BRANCH  23  24
ATOM     24  O   UNL A   1      38.039  22.009  25.274  1.00  0.00    -0.376 OA
BRANCH  24  25
ATOM     25  C   UNL A   1      37.761  20.695  24.816  1.00  0.00     0.202 C 
BRANCH  25  26
ATOM     26  C   UNL A   1      38.785  19.599  25.151  1.00  0.00     0.261 C 
BRANCH  26  27
ATOM     27  O   UNL A   1      39.617  19.828  26.299  1.00  0.00    -0.460 OA
BRANCH  27  28
ATOM     28  C   UNL A   1      40.954  19.771  26.134  1.00  0.00     0.338 C 
ATOM     29  O   UNL A   1      41.587  18.923  25.529  1.00  0.00    -0.246 OA
BRANCH  28  30
ATOM     30  C   UNL A   1      41.521  21.040  26.636  1.00  0.00     0.060 A 
ATOM     31  C   UNL A   1      41.434  21.324  28.006  1.00  0.00     0.016 A 
ATOM     32  C   UNL A   1      42.153  21.933  25.768  1.00  0.00     0.016 A 
ATOM     33  C   UNL A   1      41.949  22.519  28.506  1.00  0.00     0.010 A 
ATOM     34  C   UNL A   1      42.643  23.143  26.265  1.00  0.00     0.010 A 
ATOM     35  C   UNL A   1      42.510  23.457  27.630  1.00  0.00    -0.014 A 
BRANCH  35  36
ATOM     36  C   UNL A   1      42.750  24.841  28.098  1.00  0.00     0.031 A 
ATOM     37  C   UNL A   1      44.161  25.238  28.437  1.00  0.00     0.074 A 
ATOM     38  C   UNL A   1      41.753  25.737  28.197  1.00  0.00     0.049 A 
ATOM     39  N   UNL A   1      44.618  26.371  28.904  1.00  0.00    -0.248 NA
ATOM     40  C   UNL A   1      45.197  24.214  28.222  1.00  0.00     0.031 C 
ATOM     41  C   UNL A   1      40.356  25.497  27.843  1.00  0.00     0.029 A 
ATOM     42  N   UNL A   1      41.772  27.039  28.634  1.00  0.00    -0.354 N 
ATOM     43  C   UNL A   1      45.989  26.191  29.049  1.00  0.00     0.074 A 
ATOM     44  C   UNL A   1      46.285  24.834  28.650  1.00  0.00     0.031 C 
ATOM     45  C   UNL A   1      39.649  26.616  28.082  1.00  0.00     0.029 A 
ATOM     46  C   UNL A   1      40.535  27.636  28.641  1.00  0.00     0.049 A 
ATOM     47  H   UNL A   1      42.595  27.502  28.913  1.00  0.00     0.167 HD
ATOM     48  C   UNL A   1      46.919  27.076  29.476  1.00  0.00     0.031 A 
ATOM     49  C   UNL A   1      40.162  28.856  29.073  1.00  0.00     0.031 A 
ATOM     50  C   UNL A   1      46.621  28.420  29.890  1.00  0.00     0.049 A 
ATOM     51  C   UNL A   1      41.202  29.791  29.634  1.00  0.00     0.074 A 
ATOM     52  C   UNL A   1      47.494  29.401  30.325  1.00  0.00     0.029 A 
ATOM     53  N   UNL A   1      45.348  28.968  29.932  1.00  0.00    -0.354 N 
ATOM     54  N   UNL A   1      42.499  29.621  29.743  1.00  0.00    -0.248 NA
ATOM     55  C   UNL A   1      40.726  31.094  30.125  1.00  0.00     0.031 C 
ATOM     56  C   UNL A   1      46.742  30.519  30.697  1.00  0.00     0.029 A 
ATOM     57  C   UNL A   1      45.409  30.262  30.420  1.00  0.00     0.049 A 
ATOM     58  H   UNL A   1      44.524  28.506  29.655  1.00  0.00     0.167 HD
ATOM     59  C   UNL A   1      42.995  30.804  30.281  1.00  0.00     0.074 A 
ATOM     60  C   UNL A   1      41.862  31.688  30.462  1.00  0.00     0.031 C 
ATOM     61  C   UNL A   1      44.272  31.131  30.593  1.00  0.00     0.031 A 
BRANCH  48  62
ATOM     62  C   UNL A   1      48.341  26.597  29.564  1.00  0.00    -0.014 A 
ATOM     63  C   UNL A   1      48.820  25.916  30.695  1.00  0.00     0.009 A 
ATOM     64  C   UNL A   1      49.210  26.809  28.482  1.00  0.00     0.009 A 
ATOM     65  C   UNL A   1      50.149  25.491  30.754  1.00  0.00     0.001 A 
ATOM     66  C   UNL A   1      50.529  26.355  28.531  1.00  0.00     0.001 A 
ATOM     67  C   UNL A   1      51.000  25.706  29.670  1.00  0.00     0.000 A 
ENDBRANCH  48  62
BRANCH  49  68
ATOM     68  C   UNL A   1      38.733  29.267  29.017  1.00  0.00    -0.014 A 
ATOM     69  C   UNL A   1      37.882  29.060  30.113  1.00  0.00     0.009 A 
ATOM     70  C   UNL A   1      38.202  29.839  27.848  1.00  0.00     0.009 A 
ATOM     71  C   UNL A   1      36.526  29.389  30.032  1.00  0.00     0.001 A 
ATOM     72  C   UNL A   1      36.854  30.197  27.782  1.00  0.00     0.001 A 
ATOM     73  C   UNL A   1      36.015  29.962  28.868  1.00  0.00     0.000 A 
ENDBRANCH  49  68
BRANCH  61  74
ATOM     74  C   UNL A   1      44.526  32.519  31.117  1.00  0.00    -0.014 A 
ATOM     75  C   UNL A   1      44.537  32.796  32.493  1.00  0.00     0.009 A 
ATOM     76  C   UNL A   1      44.808  33.558  30.214  1.00  0.00     0.009 A 
ATOM     77  C   UNL A   1      44.787  34.092  32.950  1.00  0.00     0.001 A 
ATOM     78  C   UNL A   1      45.092  34.844  30.676  1.00  0.00     0.001 A 
ATOM     79  C   UNL A   1      45.071  35.113  32.043  1.00  0.00     0.000 A 
ENDBRANCH  61  74
ENDBRANCH  35  36
ENDBRANCH  28  30
ENDBRANCH  27  28
ENDBRANCH  26  27
ENDBRANCH  25  26
ENDBRANCH  24  25
ENDBRANCH  23  24
ENDBRANCH  22  23
ENDBRANCH   1  22
TORSDOF 22
ENDMDL
MODEL 2
REMARK VINA RESULT:      -8.6      3.911      9.064
REMARK SMILES C[C@@H](C(=O)OCCOCCOCCOCCOC(=O)c1ccc(-c2c3nc(c(-c4ccccc4)c4ccc([nH]4)c(-c4ccccc4)c4nc(c(-c5ccccc5)c5ccc2[nH]5)C=C4)C=C3)cc1)c1cccn(C(F)F)c1=O
REMARK SMILES IDX 11 1 10 2 9 3 8 4 7 5 6 6 5 7 3 8 4 9 2 10 1 11 68 12 69 13
REMARK SMILES IDX 76 14 70 15 72 16 77 17 71 18 73 19 74 20 75 21 12 22 13 23
REMARK SMILES IDX 14 24 15 25 16 26 17 27 18 28 19 29 20 30 21 31 67 32 22 33
REMARK SMILES IDX 66 34 23 35 24 36 25 37 60 38 26 39 65 40 59 41 61 42 27 43
REMARK SMILES IDX 64 44 58 45 57 46 28 48 50 49 35 50 49 51 36 52 39 53 48 54
REMARK SMILES IDX 62 55 37 56 38 57 47 59 63 60 40 61 29 62 30 63 34 64 31 65
REMARK SMILES IDX 33 66 32 67 51 68 52 69 56 70 53 71 55 72 54 73 41 74 42 75
REMARK SMILES IDX 46 76 43 77 45 78 44 79
REMARK H PARENT 61 47 39 58
REMARK Flexibility Score: inf
ROOT
ATOM      1  O   UNL A   1      35.313  33.801  27.973  1.00  0.00    -0.377 OA
ENDROOT
BRANCH   1   2
ATOM      2  C   UNL A   1      34.594  32.586  27.965  1.00  0.00     0.188 C 
BRANCH   2   3
ATOM      3  C   UNL A   1      35.378  31.357  28.463  1.00  0.00     0.188 C 
BRANCH   3   4
ATOM      4  O   UNL A   1      35.759  30.336  27.554  1.00  0.00    -0.376 OA
BRANCH   4   5
ATOM      5  C   UNL A   1      35.077  29.093  27.551  1.00  0.00     0.202 C 
BRANCH   5   6
ATOM      6  C   UNL A   1      34.136  28.686  26.398  1.00  0.00     0.261 C 
BRANCH   6   7
ATOM      7  O   UNL A   1      32.744  29.043  26.512  1.00  0.00    -0.463 OA
BRANCH   7   8
ATOM      8  C   UNL A   1      31.861  28.018  26.663  1.00  0.00     0.313 C 
ATOM      9  O   UNL A   1      31.245  27.807  27.703  1.00  0.00    -0.252 OA
BRANCH   8  10
ATOM     10  C   UNL A   1      31.690  27.148  25.402  1.00  0.00     0.132 C 
ATOM     11  C   UNL A   1      30.605  27.508  24.378  1.00  0.00     0.025 C 
BRANCH  10  12
ATOM     12  C   UNL A   1      31.633  25.693  25.855  1.00  0.00     0.032 A 
ATOM     13  C   UNL A   1      30.524  24.978  26.134  1.00  0.00     0.012 A 
ATOM     14  C   UNL A   1      32.963  25.012  26.028  1.00  0.00     0.259 A 
ATOM     15  C   UNL A   1      30.585  23.647  26.683  1.00  0.00     0.019 A 
ATOM     16  N   UNL A   1      32.936  23.727  26.539  1.00  0.00    -0.258 N 
ATOM     17  O   UNL A   1      33.996  25.584  25.692  1.00  0.00    -0.269 OA
ATOM     18  C   UNL A   1      31.772  23.069  26.874  1.00  0.00     0.095 A 
BRANCH  16  19
ATOM     19  C   UNL A   1      34.199  23.055  26.697  1.00  0.00     0.451 C 
ATOM     20  F   UNL A   1      34.169  22.283  27.816  1.00  0.00    -0.185 F 
ATOM     21  F   UNL A   1      34.383  22.201  25.653  1.00  0.00    -0.185 F 
ENDBRANCH  16  19
ENDBRANCH  10  12
ENDBRANCH   8  10
ENDBRANCH   7   8
ENDBRANCH   6   7
ENDBRANCH   5   6
ENDBRANCH   4   5
ENDBRANCH   3   4
ENDBRANCH   2   3
ENDBRANCH   1   2
BRANCH   1  22
ATOM     22  C   UNL A   1      35.267  34.547  29.178  1.00  0.00     0.188 C 
BRANCH  22  23
ATOM     23  C   UNL A   1      33.886  34.809  29.808  1.00  0.00     0.188 C 
BRANCH  23  24
ATOM     24  O   UNL A   1      33.778  34.376  31.161  1.00  0.00    -0.376 OA
BRANCH  24  25
ATOM     25  C   UNL A   1      34.481  33.212  31.569  1.00  0.00     0.202 C 
BRANCH  25  26
ATOM     26  C   UNL A   1      34.785  33.060  33.068  1.00  0.00     0.261 C 
BRANCH  26  27
ATOM     27  O   UNL A   1      35.898  32.222  33.415  1.00  0.00    -0.460 OA
BRANCH  27  28
ATOM     28  C   UNL A   1      37.113  32.797  33.529  1.00  0.00     0.338 C 
ATOM     29  O   UNL A   1      37.475  33.595  34.376  1.00  0.00    -0.246 OA
BRANCH  28  30
ATOM     30  C   UNL A   1      38.014  32.130  32.566  1.00  0.00     0.060 A 
ATOM     31  C   UNL A   1      38.975  31.232  33.051  1.00  0.00     0.016 A 
ATOM     32  C   UNL A   1      37.902  32.373  31.195  1.00  0.00     0.016 A 
ATOM     33  C   UNL A   1      39.849  30.599  32.167  1.00  0.00     0.010 A 
ATOM     34  C   UNL A   1      38.795  31.760  30.314  1.00  0.00     0.010 A 
ATOM     35  C   UNL A   1      39.796  30.898  30.801  1.00  0.00    -0.014 A 
BRANCH  35  36
ATOM     36  C   UNL A   1      40.916  30.492  29.920  1.00  0.00     0.031 A 
ATOM     37  C   UNL A   1      40.837  29.147  29.251  1.00  0.00     0.074 A 
ATOM     38  C   UNL A   1      41.966  31.300  29.693  1.00  0.00     0.049 A 
ATOM     39  N   UNL A   1      41.703  28.552  28.473  1.00  0.00    -0.248 NA
ATOM     40  C   UNL A   1      39.612  28.367  29.497  1.00  0.00     0.031 C 
ATOM     41  C   UNL A   1      42.133  32.649  30.231  1.00  0.00     0.029 A 
ATOM     42  N   UNL A   1      43.097  31.092  28.944  1.00  0.00    -0.354 N 
ATOM     43  C   UNL A   1      41.135  27.325  28.149  1.00  0.00     0.074 A 
ATOM     44  C   UNL A   1      39.865  27.249  28.835  1.00  0.00     0.031 C 
ATOM     45  C   UNL A   1      43.305  33.146  29.798  1.00  0.00     0.029 A 
ATOM     46  C   UNL A   1      43.986  32.138  28.986  1.00  0.00     0.049 A 
ATOM     47  H   UNL A   1      43.256  30.271  28.424  1.00  0.00     0.167 HD
ATOM     48  C   UNL A   1      41.625  26.350  27.349  1.00  0.00     0.031 A 
ATOM     49  C   UNL A   1      45.216  32.256  28.450  1.00  0.00     0.031 A 
ATOM     50  C   UNL A   1      42.896  26.420  26.681  1.00  0.00     0.049 A 
ATOM     51  C   UNL A   1      45.781  31.116  27.641  1.00  0.00     0.074 A 
ATOM     52  C   UNL A   1      43.477  25.490  25.837  1.00  0.00     0.029 A 
ATOM     53  N   UNL A   1      43.788  27.474  26.792  1.00  0.00    -0.354 N 
ATOM     54  N   UNL A   1      45.226  29.972  27.319  1.00  0.00    -0.248 NA
ATOM     55  C   UNL A   1      47.144  31.289  27.115  1.00  0.00     0.031 C 
ATOM     56  C   UNL A   1      44.751  25.951  25.494  1.00  0.00     0.029 A 
ATOM     57  C   UNL A   1      44.931  27.202  26.060  1.00  0.00     0.049 A 
ATOM     58  H   UNL A   1      43.631  28.295  27.313  1.00  0.00     0.167 HD
ATOM     59  C   UNL A   1      46.155  29.306  26.526  1.00  0.00     0.074 A 
ATOM     60  C   UNL A   1      47.303  30.181  26.406  1.00  0.00     0.031 C 
ATOM     61  C   UNL A   1      46.066  28.084  25.947  1.00  0.00     0.031 A 
BRANCH  48  62
ATOM     62  C   UNL A   1      40.802  25.101  27.198  1.00  0.00    -0.014 A 
ATOM     63  C   UNL A   1      39.596  25.097  26.479  1.00  0.00     0.009 A 
ATOM     64  C   UNL A   1      41.257  23.900  27.765  1.00  0.00     0.009 A 
ATOM     65  C   UNL A   1      38.845  23.924  26.364  1.00  0.00     0.001 A 
ATOM     66  C   UNL A   1      40.522  22.722  27.620  1.00  0.00     0.001 A 
ATOM     67  C   UNL A   1      39.312  22.738  26.929  1.00  0.00     0.000 A 
ENDBRANCH  48  62
BRANCH  49  68
ATOM     68  C   UNL A   1      46.017  33.490  28.672  1.00  0.00    -0.014 A 
ATOM     69  C   UNL A   1      46.852  33.613  29.793  1.00  0.00     0.009 A 
ATOM     70  C   UNL A   1      45.922  34.571  27.778  1.00  0.00     0.009 A 
ATOM     71  C   UNL A   1      47.552  34.799  30.030  1.00  0.00     0.001 A 
ATOM     72  C   UNL A   1      46.649  35.742  28.001  1.00  0.00     0.001 A 
ATOM     73  C   UNL A   1      47.454  35.860  29.131  1.00  0.00     0.000 A 
ENDBRANCH  49  68
BRANCH  61  74
ATOM     74  C   UNL A   1      47.218  27.636  25.089  1.00  0.00    -0.014 A 
ATOM     75  C   UNL A   1      48.290  26.903  25.620  1.00  0.00     0.009 A 
ATOM     76  C   UNL A   1      47.202  27.912  23.711  1.00  0.00     0.009 A 
ATOM     77  C   UNL A   1      49.341  26.490  24.796  1.00  0.00     0.001 A 
ATOM     78  C   UNL A   1      48.235  27.468  22.886  1.00  0.00     0.001 A 
ATOM     79  C   UNL A   1      49.309  26.767  23.430  1.00  0.00     0.000 A 
ENDBRANCH  61  74
ENDBRANCH  35  36
ENDBRANCH  28  30
ENDBRANCH  27  28
ENDBRANCH  26  27
ENDBRANCH  25  26
ENDBRANCH  24  25
ENDBRANCH  23  24
ENDBRANCH  22  23
ENDBRANCH   1  22
TORSDOF 22
ENDMDL
MODEL 3
REMARK VINA RESULT:      -8.5      4.003      8.821
REMARK SMILES C[C@@H](C(=O)OCCOCCOCCOCCOC(=O)c1ccc(-c2c3nc(c(-c4ccccc4)c4ccc([nH]4)c(-c4ccccc4)c4nc(c(-c5ccccc5)c5ccc2[nH]5)C=C4)C=C3)cc1)c1cccn(C(F)F)c1=O
REMARK SMILES IDX 11 1 10 2 9 3 8 4 7 5 6 6 5 7 3 8 4 9 2 10 1 11 68 12 69 13
REMARK SMILES IDX 76 14 70 15 72 16 77 17 71 18 73 19 74 20 75 21 12 22 13 23
REMARK SMILES IDX 14 24 15 25 16 26 17 27 18 28 19 29 20 30 21 31 67 32 22 33
REMARK SMILES IDX 66 34 23 35 24 36 25 37 60 38 26 39 65 40 59 41 61 42 27 43
REMARK SMILES IDX 64 44 58 45 57 46 28 48 50 49 35 50 49 51 36 52 39 53 48 54
REMARK SMILES IDX 62 55 37 56 38 57 47 59 63 60 40 61 29 62 30 63 34 64 31 65
REMARK SMILES IDX 33 66 32 67 51 68 52 69 56 70 53 71 55 72 54 73 41 74 42 75
REMARK SMILES IDX 46 76 43 77 45 78 44 79
REMARK H PARENT 61 47 39 58
REMARK Flexibility Score: inf
ROOT
ATOM      1  O   UNL A   1      34.517  34.174  27.958  1.00  0.00    -0.377 OA
ENDROOT
BRANCH   1   2
ATOM      2  C   UNL A   1      33.787  32.978  28.127  1.00  0.00     0.188 C 
BRANCH   2   3
ATOM      3  C   UNL A   1      34.641  31.714  28.348  1.00  0.00     0.188 C 
BRANCH   3   4
ATOM      4  O   UNL A   1      34.864  30.808  27.279  1.00  0.00    -0.376 OA
BRANCH   4   5
ATOM      5  C   UNL A   1      33.804  29.993  26.803  1.00  0.00     0.202 C 
BRANCH   5   6
ATOM      6  C   UNL A   1      34.002  28.491  26.516  1.00  0.00     0.261 C 
BRANCH   6   7
ATOM      7  O   UNL A   1      33.383  27.948  25.332  1.00  0.00    -0.463 OA
BRANCH   7   8
ATOM      8  C   UNL A   1      33.196  26.601  25.303  1.00  0.00     0.313 C 
ATOM      9  O   UNL A   1      33.969  25.802  25.823  1.00  0.00    -0.252 OA
BRANCH   8  10
ATOM     10  C   UNL A   1      31.914  26.161  24.567  1.00  0.00     0.132 C 
ATOM     11  C   UNL A   1      30.655  27.032  24.660  1.00  0.00     0.025 C 
BRANCH  10  12
ATOM     12  C   UNL A   1      31.664  24.699  24.919  1.00  0.00     0.032 A 
ATOM     13  C   UNL A   1      31.047  24.229  26.022  1.00  0.00     0.012 A 
ATOM     14  C   UNL A   1      32.190  23.692  23.933  1.00  0.00     0.259 A 
ATOM     15  C   UNL A   1      30.978  22.822  26.324  1.00  0.00     0.019 A 
ATOM     16  N   UNL A   1      32.066  22.361  24.285  1.00  0.00    -0.258 N 
ATOM     17  O   UNL A   1      32.668  24.067  22.865  1.00  0.00    -0.269 OA
ATOM     18  C   UNL A   1      31.488  21.939  25.464  1.00  0.00     0.095 A 
BRANCH  16  19
ATOM     19  C   UNL A   1      32.550  21.383  23.346  1.00  0.00     0.451 C 
ATOM     20  F   UNL A   1      32.680  20.179  23.965  1.00  0.00    -0.185 F 
ATOM     21  F   UNL A   1      31.621  21.207  22.366  1.00  0.00    -0.185 F 
ENDBRANCH  16  19
ENDBRANCH  10  12
ENDBRANCH   8  10
ENDBRANCH   7   8
ENDBRANCH   6   7
ENDBRANCH   5   6
ENDBRANCH   4   5
ENDBRANCH   3   4
ENDBRANCH   2   3
ENDBRANCH   1   2
BRANCH   1  22
ATOM     22  C   UNL A   1      34.560  35.044  29.076  1.00  0.00     0.188 C 
BRANCH  22  23
ATOM     23  C   UNL A   1      33.261  35.247  29.879  1.00  0.00     0.188 C 
BRANCH  23  24
ATOM     24  O   UNL A   1      33.320  34.737  31.208  1.00  0.00    -0.376 OA
BRANCH  24  25
ATOM     25  C   UNL A   1      34.318  33.782  31.535  1.00  0.00     0.202 C 
BRANCH  25  26
ATOM     26  C   UNL A   1      34.439  33.364  33.009  1.00  0.00     0.261 C 
BRANCH  26  27
ATOM     27  O   UNL A   1      35.743  32.965  33.458  1.00  0.00    -0.460 OA
BRANCH  27  28
ATOM     28  C   UNL A   1      36.803  33.696  33.056  1.00  0.00     0.338 C 
ATOM     29  O   UNL A   1      37.100  34.823  33.415  1.00  0.00    -0.246 OA
BRANCH  28  30
ATOM     30  C   UNL A   1      37.678  32.815  32.256  1.00  0.00     0.060 A 
ATOM     31  C   UNL A   1      38.572  31.965  32.921  1.00  0.00     0.016 A 
ATOM     32  C   UNL A   1      37.604  32.811  30.861  1.00  0.00     0.016 A 
ATOM     33  C   UNL A   1      39.419  31.132  32.191  1.00  0.00     0.010 A 
ATOM     34  C   UNL A   1      38.473  31.997  30.130  1.00  0.00     0.010 A 
ATOM     35  C   UNL A   1      39.408  31.181  30.792  1.00  0.00    -0.014 A 
BRANCH  35  36
ATOM     36  C   UNL A   1      40.516  30.557  30.031  1.00  0.00     0.031 A 
ATOM     37  C   UNL A   1      41.768  31.363  29.815  1.00  0.00     0.074 A 
ATOM     38  C   UNL A   1      40.431  29.300  29.563  1.00  0.00     0.049 A 
ATOM     39  N   UNL A   1      42.851  31.056  29.151  1.00  0.00    -0.248 NA
ATOM     40  C   UNL A   1      41.798  32.699  30.433  1.00  0.00     0.031 C 
ATOM     41  C   UNL A   1      39.300  28.395  29.755  1.00  0.00     0.029 A 
ATOM     42  N   UNL A   1      41.326  28.570  28.820  1.00  0.00    -0.354 N 
ATOM     43  C   UNL A   1      43.684  32.164  29.260  1.00  0.00     0.074 A 
ATOM     44  C   UNL A   1      42.971  33.159  30.029  1.00  0.00     0.031 C 
ATOM     45  C   UNL A   1      39.567  27.229  29.140  1.00  0.00     0.029 A 
ATOM     46  C   UNL A   1      40.869  27.320  28.479  1.00  0.00     0.049 A 
ATOM     47  H   UNL A   1      42.212  28.909  28.558  1.00  0.00     0.167 HD
ATOM     48  C   UNL A   1      44.932  32.337  28.767  1.00  0.00     0.031 A 
ATOM     49  C   UNL A   1      41.428  26.372  27.703  1.00  0.00     0.031 A 
ATOM     50  C   UNL A   1      45.634  31.353  27.988  1.00  0.00     0.049 A 
ATOM     51  C   UNL A   1      42.780  26.626  27.085  1.00  0.00     0.074 A 
ATOM     52  C   UNL A   1      46.907  31.426  27.454  1.00  0.00     0.029 A 
ATOM     53  N   UNL A   1      45.114  30.121  27.621  1.00  0.00    -0.354 N 
ATOM     54  N   UNL A   1      43.570  27.665  27.215  1.00  0.00    -0.248 NA
ATOM     55  C   UNL A   1      43.320  25.569  26.216  1.00  0.00     0.031 C 
ATOM     56  C   UNL A   1      47.132  30.267  26.704  1.00  0.00     0.029 A 
ATOM     57  C   UNL A   1      46.029  29.440  26.837  1.00  0.00     0.049 A 
ATOM     58  H   UNL A   1      44.227  29.782  27.881  1.00  0.00     0.167 HD
ATOM     59  C   UNL A   1      44.711  27.372  26.476  1.00  0.00     0.074 A 
ATOM     60  C   UNL A   1      44.515  26.053  25.912  1.00  0.00     0.031 C 
ATOM     61  C   UNL A   1      45.821  28.125  26.284  1.00  0.00     0.031 A 
BRANCH  48  62
ATOM     62  C   UNL A   1      45.596  33.663  29.014  1.00  0.00    -0.014 A 
ATOM     63  C   UNL A   1      45.482  34.725  28.102  1.00  0.00     0.009 A 
ATOM     64  C   UNL A   1      46.328  33.860  30.196  1.00  0.00     0.009 A 
ATOM     65  C   UNL A   1      46.118  35.943  28.353  1.00  0.00     0.001 A 
ATOM     66  C   UNL A   1      46.935  35.089  30.459  1.00  0.00     0.001 A 
ATOM     67  C   UNL A   1      46.839  36.125  29.533  1.00  0.00     0.000 A 
ENDBRANCH  48  62
BRANCH  49  68
ATOM     68  C   UNL A   1      40.710  25.096  27.442  1.00  0.00    -0.014 A 
ATOM     69  C   UNL A   1      41.153  23.892  28.011  1.00  0.00     0.009 A 
ATOM     70  C   UNL A   1      39.592  25.069  26.590  1.00  0.00     0.009 A 
ATOM     71  C   UNL A   1      40.513  22.686  27.710  1.00  0.00     0.001 A 
ATOM     72  C   UNL A   1      38.935  23.867  26.318  1.00  0.00     0.001 A 
ATOM     73  C   UNL A   1      39.401  22.676  26.868  1.00  0.00     0.000 A 
ENDBRANCH  49  68
BRANCH  61  74
ATOM     74  C   UNL A   1      46.936  27.524  25.470  1.00  0.00    -0.014 A 
ATOM     75  C   UNL A   1      47.069  27.785  24.098  1.00  0.00     0.009 A 
ATOM     76  C   UNL A   1      47.899  26.721  26.104  1.00  0.00     0.009 A 
ATOM     77  C   UNL A   1      48.120  27.221  23.371  1.00  0.00     0.001 A 
ATOM     78  C   UNL A   1      48.968  26.189  25.382  1.00  0.00     0.001 A 
ATOM     79  C   UNL A   1      49.072  26.431  24.014  1.00  0.00     0.000 A 
ENDBRANCH  61  74
ENDBRANCH  35  36
ENDBRANCH  28  30
ENDBRANCH  27  28
ENDBRANCH  26  27
ENDBRANCH  25  26
ENDBRANCH  24  25
ENDBRANCH  23  24
ENDBRANCH  22  23
ENDBRANCH   1  22
TORSDOF 22
ENDMDL
