MODEL 1
REMARK VINA RESULT:      -7.5      0.000      0.000
REMARK SMILES C[C@@H](C(=O)OCCOCCOCCOCCOC(=O)c1ccc(-c2c3nc(c(-c4ccccc4)c4ccc([nH]4)c(-c4ccccc4)c4nc(c(-c5ccccc5)c5ccc2[nH]5)C=C4)C=C3)cc1)c1ccc(C[C@H]2CCC[C@H]2O)cc1
REMARK SMILES IDX 10 1 9 2 8 3 7 4 6 5 5 6 3 7 4 8 2 9 1 10 68 11 69 12 80 13
REMARK SMILES IDX 70 14 79 15 71 16 72 17 73 18 74 19 77 20 75 21 76 22 78 23
REMARK SMILES IDX 11 25 12 26 13 27 14 28 15 29 16 30 17 31 18 32 19 33 20 34
REMARK SMILES IDX 21 35 67 36 22 37 66 38 23 39 24 40 25 41 60 42 26 43 65 44
REMARK SMILES IDX 59 45 61 46 27 47 64 48 58 49 57 50 28 52 50 53 35 54 49 55
REMARK SMILES IDX 36 56 39 57 48 58 62 59 37 60 38 61 47 63 63 64 40 65 29 66
REMARK SMILES IDX 30 67 34 68 31 69 33 70 32 71 51 72 52 73 56 74 53 75 55 76
REMARK SMILES IDX 54 77 41 78 42 79 46 80 43 81 45 82 44 83
REMARK H PARENT 78 24 61 51 39 62
REMARK Flexibility Score: inf
ROOT
ATOM      1  C   UNL A   1      42.470  20.450  26.107  1.00  0.00     0.188 C 
ENDROOT
BRANCH   1   2
ATOM      2  C   UNL A   1      41.159  20.146  26.850  1.00  0.00     0.188 C 
BRANCH   2   3
ATOM      3  O   UNL A   1      40.037  20.952  26.552  1.00  0.00    -0.376 OA
BRANCH   3   4
ATOM      4  C   UNL A   1      39.843  22.205  27.189  1.00  0.00     0.202 C 
BRANCH   4   5
ATOM      5  C   UNL A   1      39.985  23.596  26.528  1.00  0.00     0.261 C 
BRANCH   5   6
ATOM      6  O   UNL A   1      41.260  24.243  26.603  1.00  0.00    -0.463 OA
BRANCH   6   7
ATOM      7  C   UNL A   1      41.279  25.584  26.428  1.00  0.00     0.313 C 
ATOM      8  O   UNL A   1      40.911  26.141  25.398  1.00  0.00    -0.252 OA
BRANCH   7   9
ATOM      9  C   UNL A   1      41.736  26.358  27.678  1.00  0.00     0.126 C 
ATOM     10  C   UNL A   1      42.447  25.551  28.778  1.00  0.00     0.025 C 
BRANCH   9  11
ATOM     11  C   UNL A   1      40.652  27.336  28.134  1.00  0.00    -0.034 A 
ATOM     12  C   UNL A   1      40.019  27.063  29.357  1.00  0.00     0.005 A 
ATOM     13  C   UNL A   1      40.266  28.498  27.449  1.00  0.00     0.005 A 
ATOM     14  C   UNL A   1      38.989  27.863  29.835  1.00  0.00     0.004 A 
ATOM     15  C   UNL A   1      39.225  29.300  27.927  1.00  0.00     0.004 A 
ATOM     16  C   UNL A   1      38.523  28.939  29.079  1.00  0.00    -0.048 A 
BRANCH  16  17
ATOM     17  C   UNL A   1      37.216  29.594  29.440  1.00  0.00     0.041 C 
BRANCH  17  18
ATOM     18  C   UNL A   1      37.285  30.617  30.595  1.00  0.00     0.022 C 
ATOM     19  C   UNL A   1      38.146  31.868  30.329  1.00  0.00     0.007 C 
ATOM     20  C   UNL A   1      35.973  31.169  31.186  1.00  0.00     0.117 C 
ATOM     21  C   UNL A   1      37.504  33.009  31.119  1.00  0.00     0.003 C 
ATOM     22  C   UNL A   1      36.452  32.358  32.010  1.00  0.00     0.032 C 
BRANCH  20  23
ATOM     23  O   UNL A   1      35.027  31.653  30.250  1.00  0.00    -0.393 OA
ATOM     24  H   UNL A   1      35.258  32.561  29.998  1.00  0.00     0.210 HD
ENDBRANCH  20  23
ENDBRANCH  17  18
ENDBRANCH  16  17
ENDBRANCH   9  11
ENDBRANCH   7   9
ENDBRANCH   6   7
ENDBRANCH   5   6
ENDBRANCH   4   5
ENDBRANCH   3   4
ENDBRANCH   2   3
ENDBRANCH   1   2
BRANCH   1  25
ATOM     25  O   UNL A   1      43.086  21.672  26.459  1.00  0.00    -0.377 OA
BRANCH  25  26
ATOM     26  C   UNL A   1      44.126  22.153  25.627  1.00  0.00     0.188 C 
BRANCH  26  27
ATOM     27  C   UNL A   1      43.947  23.455  24.821  1.00  0.00     0.188 C 
BRANCH  27  28
ATOM     28  O   UNL A   1      45.084  23.857  24.069  1.00  0.00    -0.376 OA
BRANCH  28  29
ATOM     29  C   UNL A   1      46.378  23.625  24.605  1.00  0.00     0.202 C 
BRANCH  29  30
ATOM     30  C   UNL A   1      47.254  24.856  24.882  1.00  0.00     0.261 C 
BRANCH  30  31
ATOM     31  O   UNL A   1      46.755  26.111  24.397  1.00  0.00    -0.460 OA
BRANCH  31  32
ATOM     32  C   UNL A   1      47.395  27.232  24.792  1.00  0.00     0.338 C 
ATOM     33  O   UNL A   1      48.236  27.860  24.171  1.00  0.00    -0.246 OA
BRANCH  32  34
ATOM     34  C   UNL A   1      46.760  27.694  26.042  1.00  0.00     0.060 A 
ATOM     35  C   UNL A   1      45.385  27.486  26.220  1.00  0.00     0.016 A 
ATOM     36  C   UNL A   1      47.519  28.306  27.042  1.00  0.00     0.016 A 
ATOM     37  C   UNL A   1      44.758  27.923  27.387  1.00  0.00     0.010 A 
ATOM     38  C   UNL A   1      46.885  28.767  28.199  1.00  0.00     0.010 A 
ATOM     39  C   UNL A   1      45.497  28.608  28.359  1.00  0.00    -0.014 A 
BRANCH  39  40
ATOM     40  C   UNL A   1      44.787  29.348  29.430  1.00  0.00     0.031 A 
ATOM     41  C   UNL A   1      44.488  28.621  30.713  1.00  0.00     0.074 A 
ATOM     42  C   UNL A   1      44.437  30.638  29.285  1.00  0.00     0.049 A 
ATOM     43  N   UNL A   1      43.845  29.035  31.773  1.00  0.00    -0.248 NA
ATOM     44  C   UNL A   1      44.982  27.237  30.808  1.00  0.00     0.031 C 
ATOM     45  C   UNL A   1      44.719  31.469  28.117  1.00  0.00     0.029 A 
ATOM     46  N   UNL A   1      43.758  31.472  30.139  1.00  0.00    -0.354 N 
ATOM     47  C   UNL A   1      43.847  27.961  32.655  1.00  0.00     0.074 A 
ATOM     48  C   UNL A   1      44.527  26.869  31.996  1.00  0.00     0.031 C 
ATOM     49  C   UNL A   1      44.210  32.697  28.326  1.00  0.00     0.029 A 
ATOM     50  C   UNL A   1      43.534  32.724  29.622  1.00  0.00     0.049 A 
ATOM     51  H   UNL A   1      43.460  31.198  31.036  1.00  0.00     0.167 HD
ATOM     52  C   UNL A   1      43.333  27.890  33.905  1.00  0.00     0.031 A 
ATOM     53  C   UNL A   1      42.842  33.763  30.129  1.00  0.00     0.031 A 
ATOM     54  C   UNL A   1      42.639  28.970  34.553  1.00  0.00     0.049 A 
ATOM     55  C   UNL A   1      42.194  33.628  31.485  1.00  0.00     0.074 A 
ATOM     56  C   UNL A   1      42.089  29.003  35.822  1.00  0.00     0.029 A 
ATOM     57  N   UNL A   1      42.391  30.206  33.976  1.00  0.00    -0.354 N 
ATOM     58  N   UNL A   1      42.222  32.616  32.320  1.00  0.00    -0.248 NA
ATOM     59  C   UNL A   1      41.423  34.782  31.968  1.00  0.00     0.031 C 
ATOM     60  C   UNL A   1      41.447  30.233  35.987  1.00  0.00     0.029 A 
ATOM     61  C   UNL A   1      41.665  30.996  34.851  1.00  0.00     0.049 A 
ATOM     62  H   UNL A   1      42.687  30.481  33.078  1.00  0.00     0.167 HD
ATOM     63  C   UNL A   1      41.506  33.027  33.439  1.00  0.00     0.074 A 
ATOM     64  C   UNL A   1      41.068  34.383  33.181  1.00  0.00     0.031 C 
ATOM     65  C   UNL A   1      41.237  32.345  34.580  1.00  0.00     0.031 A 
BRANCH  52  66
ATOM     66  C   UNL A   1      43.461  26.580  34.632  1.00  0.00    -0.014 A 
ATOM     67  C   UNL A   1      42.482  25.579  34.520  1.00  0.00     0.009 A 
ATOM     68  C   UNL A   1      44.594  26.335  35.423  1.00  0.00     0.009 A 
ATOM     69  C   UNL A   1      42.619  24.376  35.216  1.00  0.00     0.001 A 
ATOM     70  C   UNL A   1      44.744  25.118  36.090  1.00  0.00     0.001 A 
ATOM     71  C   UNL A   1      43.752  24.144  35.996  1.00  0.00     0.000 A 
ENDBRANCH  52  66
BRANCH  53  72
ATOM     72  C   UNL A   1      42.696  35.021  29.348  1.00  0.00    -0.014 A 
ATOM     73  C   UNL A   1      43.589  36.088  29.532  1.00  0.00     0.009 A 
ATOM     74  C   UNL A   1      41.641  35.174  28.436  1.00  0.00     0.009 A 
ATOM     75  C   UNL A   1      43.411  37.290  28.842  1.00  0.00     0.001 A 
ATOM     76  C   UNL A   1      41.484  36.364  27.722  1.00  0.00     0.001 A 
ATOM     77  C   UNL A   1      42.361  37.425  27.933  1.00  0.00     0.000 A 
ENDBRANCH  53  72
BRANCH  65  78
ATOM     78  C   UNL A   1      40.474  33.067  35.657  1.00  0.00    -0.014 A 
ATOM     79  C   UNL A   1      39.079  32.957  35.772  1.00  0.00     0.009 A 
ATOM     80  C   UNL A   1      41.173  33.833  36.605  1.00  0.00     0.009 A 
ATOM     81  C   UNL A   1      38.399  33.629  36.789  1.00  0.00     0.001 A 
ATOM     82  C   UNL A   1      40.495  34.474  37.642  1.00  0.00     0.001 A 
ATOM     83  C   UNL A   1      39.107  34.382  37.727  1.00  0.00     0.000 A 
ENDBRANCH  65  78
ENDBRANCH  39  40
ENDBRANCH  32  34
ENDBRANCH  31  32
ENDBRANCH  30  31
ENDBRANCH  29  30
ENDBRANCH  28  29
ENDBRANCH  27  28
ENDBRANCH  26  27
ENDBRANCH  25  26
ENDBRANCH   1  25
TORSDOF 24
ENDMDL
MODEL 2
REMARK VINA RESULT:      -7.1      4.151      8.989
REMARK SMILES C[C@@H](C(=O)OCCOCCOCCOCCOC(=O)c1ccc(-c2c3nc(c(-c4ccccc4)c4ccc([nH]4)c(-c4ccccc4)c4nc(c(-c5ccccc5)c5ccc2[nH]5)C=C4)C=C3)cc1)c1ccc(C[C@H]2CCC[C@H]2O)cc1
REMARK SMILES IDX 10 1 9 2 8 3 7 4 6 5 5 6 3 7 4 8 2 9 1 10 68 11 69 12 80 13
REMARK SMILES IDX 70 14 79 15 71 16 72 17 73 18 74 19 77 20 75 21 76 22 78 23
REMARK SMILES IDX 11 25 12 26 13 27 14 28 15 29 16 30 17 31 18 32 19 33 20 34
REMARK SMILES IDX 21 35 67 36 22 37 66 38 23 39 24 40 25 41 60 42 26 43 65 44
REMARK SMILES IDX 59 45 61 46 27 47 64 48 58 49 57 50 28 52 50 53 35 54 49 55
REMARK SMILES IDX 36 56 39 57 48 58 62 59 37 60 38 61 47 63 63 64 40 65 29 66
REMARK SMILES IDX 30 67 34 68 31 69 33 70 32 71 51 72 52 73 56 74 53 75 55 76
REMARK SMILES IDX 54 77 41 78 42 79 46 80 43 81 45 82 44 83
REMARK H PARENT 78 24 61 51 39 62
REMARK Flexibility Score: inf
ROOT
ATOM      1  C   UNL A   1      31.024  28.203  23.827  1.00  0.00     0.188 C 
ENDROOT
BRANCH   1   2
ATOM      2  C   UNL A   1      30.388  27.047  23.038  1.00  0.00     0.188 C 
BRANCH   2   3
ATOM      3  O   UNL A   1      30.223  25.812  23.706  1.00  0.00    -0.376 OA
BRANCH   3   4
ATOM      4  C   UNL A   1      31.339  24.999  24.031  1.00  0.00     0.202 C 
BRANCH   4   5
ATOM      5  C   UNL A   1      31.296  23.499  24.404  1.00  0.00     0.261 C 
BRANCH   5   6
ATOM      6  O   UNL A   1      31.184  23.160  25.791  1.00  0.00    -0.463 OA
BRANCH   6   7
ATOM      7  C   UNL A   1      32.275  22.619  26.381  1.00  0.00     0.313 C 
ATOM      8  O   UNL A   1      32.500  22.684  27.585  1.00  0.00    -0.252 OA
BRANCH   7   9
ATOM      9  C   UNL A   1      33.175  21.841  25.404  1.00  0.00     0.126 C 
ATOM     10  C   UNL A   1      32.948  20.323  25.302  1.00  0.00     0.025 C 
BRANCH   9  11
ATOM     11  C   UNL A   1      34.626  22.314  25.513  1.00  0.00    -0.034 A 
ATOM     12  C   UNL A   1      35.622  21.327  25.491  1.00  0.00     0.005 A 
ATOM     13  C   UNL A   1      35.039  23.652  25.597  1.00  0.00     0.005 A 
ATOM     14  C   UNL A   1      36.967  21.649  25.632  1.00  0.00     0.004 A 
ATOM     15  C   UNL A   1      36.392  23.977  25.746  1.00  0.00     0.004 A 
ATOM     16  C   UNL A   1      37.355  22.971  25.850  1.00  0.00    -0.048 A 
BRANCH  16  17
ATOM     17  C   UNL A   1      38.755  23.269  26.320  1.00  0.00     0.041 C 
BRANCH  17  18
ATOM     18  C   UNL A   1      39.016  24.734  26.734  1.00  0.00     0.022 C 
ATOM     19  C   UNL A   1      38.921  25.031  28.244  1.00  0.00     0.007 C 
ATOM     20  C   UNL A   1      40.323  25.417  26.286  1.00  0.00     0.117 C 
ATOM     21  C   UNL A   1      39.907  26.165  28.522  1.00  0.00     0.003 C 
ATOM     22  C   UNL A   1      40.362  26.667  27.157  1.00  0.00     0.032 C 
BRANCH  20  23
ATOM     23  O   UNL A   1      41.515  24.692  26.529  1.00  0.00    -0.393 OA
ATOM     24  H   UNL A   1      41.481  24.303  27.418  1.00  0.00     0.210 HD
ENDBRANCH  20  23
ENDBRANCH  17  18
ENDBRANCH  16  17
ENDBRANCH   9  11
ENDBRANCH   7   9
ENDBRANCH   6   7
ENDBRANCH   5   6
ENDBRANCH   4   5
ENDBRANCH   3   4
ENDBRANCH   2   3
ENDBRANCH   1   2
BRANCH   1  25
ATOM     25  O   UNL A   1      32.377  28.464  23.517  1.00  0.00    -0.377 OA
BRANCH  25  26
ATOM     26  C   UNL A   1      33.370  27.905  24.360  1.00  0.00     0.188 C 
BRANCH  26  27
ATOM     27  C   UNL A   1      33.824  28.647  25.634  1.00  0.00     0.188 C 
BRANCH  27  28
ATOM     28  O   UNL A   1      33.343  29.978  25.757  1.00  0.00    -0.376 OA
BRANCH  28  29
ATOM     29  C   UNL A   1      32.759  30.386  26.984  1.00  0.00     0.202 C 
BRANCH  29  30
ATOM     30  C   UNL A   1      33.338  31.640  27.656  1.00  0.00     0.261 C 
BRANCH  30  31
ATOM     31  O   UNL A   1      34.766  31.773  27.625  1.00  0.00    -0.460 OA
BRANCH  31  32
ATOM     32  C   UNL A   1      35.288  32.985  27.906  1.00  0.00     0.338 C 
ATOM     33  O   UNL A   1      34.958  34.059  27.431  1.00  0.00    -0.246 OA
BRANCH  32  34
ATOM     34  C   UNL A   1      36.211  32.823  29.047  1.00  0.00     0.060 A 
ATOM     35  C   UNL A   1      37.261  33.738  29.203  1.00  0.00     0.016 A 
ATOM     36  C   UNL A   1      36.028  31.789  29.969  1.00  0.00     0.016 A 
ATOM     37  C   UNL A   1      38.155  33.600  30.266  1.00  0.00     0.010 A 
ATOM     38  C   UNL A   1      36.939  31.637  31.017  1.00  0.00     0.010 A 
ATOM     39  C   UNL A   1      38.026  32.520  31.148  1.00  0.00    -0.014 A 
BRANCH  39  40
ATOM     40  C   UNL A   1      39.141  32.189  32.066  1.00  0.00     0.031 A 
ATOM     41  C   UNL A   1      40.178  31.206  31.595  1.00  0.00     0.074 A 
ATOM     42  C   UNL A   1      39.253  32.761  33.278  1.00  0.00     0.049 A 
ATOM     43  N   UNL A   1      41.218  30.726  32.226  1.00  0.00    -0.248 NA
ATOM     44  C   UNL A   1      40.015  30.695  30.223  1.00  0.00     0.031 C 
ATOM     45  C   UNL A   1      38.349  33.769  33.829  1.00  0.00     0.029 A 
ATOM     46  N   UNL A   1      40.183  32.564  34.268  1.00  0.00    -0.354 N 
ATOM     47  C   UNL A   1      41.825  29.850  31.335  1.00  0.00     0.074 A 
ATOM     48  C   UNL A   1      41.023  29.841  30.132  1.00  0.00     0.031 C 
ATOM     49  C   UNL A   1      38.767  34.098  35.064  1.00  0.00     0.029 A 
ATOM     50  C   UNL A   1      39.942  33.297  35.404  1.00  0.00     0.049 A 
ATOM     51  H   UNL A   1      40.951  31.955  34.172  1.00  0.00     0.167 HD
ATOM     52  C   UNL A   1      42.952  29.120  31.500  1.00  0.00     0.031 A 
ATOM     53  C   UNL A   1      40.584  33.301  36.589  1.00  0.00     0.031 A 
ATOM     54  C   UNL A   1      43.739  29.113  32.704  1.00  0.00     0.049 A 
ATOM     55  C   UNL A   1      41.782  32.405  36.783  1.00  0.00     0.074 A 
ATOM     56  C   UNL A   1      44.904  28.416  32.968  1.00  0.00     0.029 A 
ATOM     57  N   UNL A   1      43.433  29.832  33.849  1.00  0.00    -0.354 N 
ATOM     58  N   UNL A   1      42.362  31.599  35.925  1.00  0.00    -0.248 NA
ATOM     59  C   UNL A   1      42.418  32.428  38.108  1.00  0.00     0.031 C 
ATOM     60  C   UNL A   1      45.265  28.659  34.296  1.00  0.00     0.029 A 
ATOM     61  C   UNL A   1      44.368  29.568  34.834  1.00  0.00     0.049 A 
ATOM     62  H   UNL A   1      42.665  30.440  33.946  1.00  0.00     0.167 HD
ATOM     63  C   UNL A   1      43.448  31.048  36.597  1.00  0.00     0.074 A 
ATOM     64  C   UNL A   1      43.454  31.622  37.926  1.00  0.00     0.031 C 
ATOM     65  C   UNL A   1      44.362  30.149  36.153  1.00  0.00     0.031 A 
BRANCH  52  66
ATOM     66  C   UNL A   1      43.371  28.229  30.364  1.00  0.00    -0.014 A 
ATOM     67  C   UNL A   1      43.121  26.847  30.383  1.00  0.00     0.009 A 
ATOM     68  C   UNL A   1      44.006  28.787  29.243  1.00  0.00     0.009 A 
ATOM     69  C   UNL A   1      43.532  26.039  29.319  1.00  0.00     0.001 A 
ATOM     70  C   UNL A   1      44.385  27.983  28.168  1.00  0.00     0.001 A 
ATOM     71  C   UNL A   1      44.159  26.608  28.211  1.00  0.00     0.000 A 
ENDBRANCH  52  66
BRANCH  53  72
ATOM     72  C   UNL A   1      40.098  34.160  37.703  1.00  0.00    -0.014 A 
ATOM     73  C   UNL A   1      39.286  33.629  38.717  1.00  0.00     0.009 A 
ATOM     74  C   UNL A   1      40.417  35.526  37.739  1.00  0.00     0.009 A 
ATOM     75  C   UNL A   1      38.782  34.455  39.726  1.00  0.00     0.001 A 
ATOM     76  C   UNL A   1      39.940  36.342  38.766  1.00  0.00     0.001 A 
ATOM     77  C   UNL A   1      39.113  35.809  39.753  1.00  0.00     0.000 A 
ENDBRANCH  53  72
BRANCH  65  78
ATOM     78  C   UNL A   1      45.473  29.765  37.092  1.00  0.00    -0.014 A 
ATOM     79  C   UNL A   1      45.372  28.648  37.935  1.00  0.00     0.009 A 
ATOM     80  C   UNL A   1      46.663  30.512  37.095  1.00  0.00     0.009 A 
ATOM     81  C   UNL A   1      46.424  28.310  38.789  1.00  0.00     0.001 A 
ATOM     82  C   UNL A   1      47.727  30.150  37.923  1.00  0.00     0.001 A 
ATOM     83  C   UNL A   1      47.603  29.057  38.777  1.00  0.00     0.000 A 
ENDBRANCH  65  78
ENDBRANCH  39  40
ENDBRANCH  32  34
ENDBRANCH  31  32
ENDBRANCH  30  31
ENDBRANCH  29  30
ENDBRANCH  28  29
ENDBRANCH  27  28
ENDBRANCH  26  27
ENDBRANCH  25  26
ENDBRANCH   1  25
TORSDOF 24
ENDMDL
MODEL 3
REMARK VINA RESULT:      -7.1      4.428     10.469
REMARK SMILES C[C@@H](C(=O)OCCOCCOCCOCCOC(=O)c1ccc(-c2c3nc(c(-c4ccccc4)c4ccc([nH]4)c(-c4ccccc4)c4nc(c(-c5ccccc5)c5ccc2[nH]5)C=C4)C=C3)cc1)c1ccc(C[C@H]2CCC[C@H]2O)cc1
REMARK SMILES IDX 10 1 9 2 8 3 7 4 6 5 5 6 3 7 4 8 2 9 1 10 68 11 69 12 80 13
REMARK SMILES IDX 70 14 79 15 71 16 72 17 73 18 74 19 77 20 75 21 76 22 78 23
REMARK SMILES IDX 11 25 12 26 13 27 14 28 15 29 16 30 17 31 18 32 19 33 20 34
REMARK SMILES IDX 21 35 67 36 22 37 66 38 23 39 24 40 25 41 60 42 26 43 65 44
REMARK SMILES IDX 59 45 61 46 27 47 64 48 58 49 57 50 28 52 50 53 35 54 49 55
REMARK SMILES IDX 36 56 39 57 48 58 62 59 37 60 38 61 47 63 63 64 40 65 29 66
REMARK SMILES IDX 30 67 34 68 31 69 33 70 32 71 51 72 52 73 56 74 53 75 55 76
REMARK SMILES IDX 54 77 41 78 42 79 46 80 43 81 45 82 44 83
REMARK H PARENT 78 24 61 51 39 62
REMARK Flexibility Score: inf
ROOT
ATOM      1  C   UNL A   1      40.394  29.992  30.221  1.00  0.00     0.188 C 
ENDROOT
BRANCH   1   2
ATOM      2  C   UNL A   1      39.541  31.260  30.380  1.00  0.00     0.188 C 
BRANCH   2   3
ATOM      3  O   UNL A   1      38.476  31.218  31.309  1.00  0.00    -0.376 OA
BRANCH   3   4
ATOM      4  C   UNL A   1      38.166  32.339  32.122  1.00  0.00     0.202 C 
BRANCH   4   5
ATOM      5  C   UNL A   1      36.764  32.722  32.651  1.00  0.00     0.261 C 
BRANCH   5   6
ATOM      6  O   UNL A   1      35.992  33.651  31.881  1.00  0.00    -0.463 OA
BRANCH   6   7
ATOM      7  C   UNL A   1      34.844  33.191  31.335  1.00  0.00     0.313 C 
ATOM      8  O   UNL A   1      33.972  32.610  31.974  1.00  0.00    -0.252 OA
BRANCH   7   9
ATOM      9  C   UNL A   1      34.696  33.534  29.842  1.00  0.00     0.126 C 
ATOM     10  C   UNL A   1      33.621  34.569  29.467  1.00  0.00     0.025 C 
BRANCH   9  11
ATOM     11  C   UNL A   1      34.760  32.268  28.987  1.00  0.00    -0.034 A 
ATOM     12  C   UNL A   1      33.721  32.066  28.066  1.00  0.00     0.005 A 
ATOM     13  C   UNL A   1      35.789  31.314  29.025  1.00  0.00     0.005 A 
ATOM     14  C   UNL A   1      33.662  30.923  27.277  1.00  0.00     0.004 A 
ATOM     15  C   UNL A   1      35.727  30.161  28.235  1.00  0.00     0.004 A 
ATOM     16  C   UNL A   1      34.619  29.919  27.420  1.00  0.00    -0.048 A 
BRANCH  16  17
ATOM     17  C   UNL A   1      34.374  28.563  26.810  1.00  0.00     0.041 C 
BRANCH  17  18
ATOM     18  C   UNL A   1      33.277  28.515  25.724  1.00  0.00     0.022 C 
ATOM     19  C   UNL A   1      33.777  28.380  24.273  1.00  0.00     0.007 C 
ATOM     20  C   UNL A   1      32.150  27.471  25.845  1.00  0.00     0.117 C 
ATOM     21  C   UNL A   1      32.703  27.595  23.518  1.00  0.00     0.003 C 
ATOM     22  C   UNL A   1      31.509  27.510  24.463  1.00  0.00     0.032 C 
BRANCH  20  23
ATOM     23  O   UNL A   1      32.564  26.138  26.085  1.00  0.00    -0.393 OA
ATOM     24  H   UNL A   1      32.044  25.534  25.532  1.00  0.00     0.210 HD
ENDBRANCH  20  23
ENDBRANCH  17  18
ENDBRANCH  16  17
ENDBRANCH   9  11
ENDBRANCH   7   9
ENDBRANCH   6   7
ENDBRANCH   5   6
ENDBRANCH   4   5
ENDBRANCH   3   4
ENDBRANCH   2   3
ENDBRANCH   1   2
BRANCH   1  25
ATOM     25  O   UNL A   1      40.108  29.221  29.072  1.00  0.00    -0.377 OA
BRANCH  25  26
ATOM     26  C   UNL A   1      40.683  27.929  28.981  1.00  0.00     0.188 C 
BRANCH  26  27
ATOM     27  C   UNL A   1      40.042  26.846  28.089  1.00  0.00     0.188 C 
BRANCH  27  28
ATOM     28  O   UNL A   1      39.903  25.571  28.701  1.00  0.00    -0.376 OA
BRANCH  28  29
ATOM     29  C   UNL A   1      39.700  24.434  27.878  1.00  0.00     0.202 C 
BRANCH  29  30
ATOM     30  C   UNL A   1      40.276  24.484  26.454  1.00  0.00     0.261 C 
BRANCH  30  31
ATOM     31  O   UNL A   1      41.312  23.537  26.157  1.00  0.00    -0.460 OA
BRANCH  31  32
ATOM     32  C   UNL A   1      42.311  23.401  27.055  1.00  0.00     0.338 C 
ATOM     33  O   UNL A   1      42.599  22.402  27.693  1.00  0.00    -0.246 OA
BRANCH  32  34
ATOM     34  C   UNL A   1      43.135  24.625  26.997  1.00  0.00     0.060 A 
ATOM     35  C   UNL A   1      43.477  25.152  25.744  1.00  0.00     0.016 A 
ATOM     36  C   UNL A   1      43.547  25.261  28.171  1.00  0.00     0.016 A 
ATOM     37  C   UNL A   1      44.264  26.301  25.662  1.00  0.00     0.010 A 
ATOM     38  C   UNL A   1      44.357  26.396  28.087  1.00  0.00     0.010 A 
ATOM     39  C   UNL A   1      44.748  26.898  26.832  1.00  0.00    -0.014 A 
BRANCH  39  40
ATOM     40  C   UNL A   1      45.831  27.906  26.745  1.00  0.00     0.031 A 
ATOM     41  C   UNL A   1      45.451  29.361  26.800  1.00  0.00     0.074 A 
ATOM     42  C   UNL A   1      47.123  27.548  26.644  1.00  0.00     0.049 A 
ATOM     43  N   UNL A   1      46.207  30.423  26.702  1.00  0.00    -0.248 NA
ATOM     44  C   UNL A   1      44.020  29.653  26.993  1.00  0.00     0.031 C 
ATOM     45  C   UNL A   1      47.627  26.176  26.637  1.00  0.00     0.029 A 
ATOM     46  N   UNL A   1      48.250  28.323  26.523  1.00  0.00    -0.354 N 
ATOM     47  C   UNL A   1      45.344  31.507  26.808  1.00  0.00     0.074 A 
ATOM     48  C   UNL A   1      44.007  30.976  26.948  1.00  0.00     0.031 C 
ATOM     49  C   UNL A   1      48.966  26.206  26.512  1.00  0.00     0.029 A 
ATOM     50  C   UNL A   1      49.407  27.596  26.389  1.00  0.00     0.049 A 
ATOM     51  H   UNL A   1      48.230  29.307  26.531  1.00  0.00     0.167 HD
ATOM     52  C   UNL A   1      45.638  32.829  26.794  1.00  0.00     0.031 A 
ATOM     53  C   UNL A   1      50.672  28.005  26.170  1.00  0.00     0.031 A 
ATOM     54  C   UNL A   1      46.966  33.357  26.634  1.00  0.00     0.049 A 
ATOM     55  C   UNL A   1      50.961  29.482  26.062  1.00  0.00     0.074 A 
ATOM     56  C   UNL A   1      47.371  34.679  26.617  1.00  0.00     0.029 A 
ATOM     57  N   UNL A   1      48.104  32.586  26.453  1.00  0.00    -0.354 N 
ATOM     58  N   UNL A   1      50.142  30.499  26.187  1.00  0.00    -0.248 NA
ATOM     59  C   UNL A   1      52.354  29.864  25.787  1.00  0.00     0.031 C 
ATOM     60  C   UNL A   1      48.743  34.711  26.356  1.00  0.00     0.029 A 
ATOM     61  C   UNL A   1      49.206  33.407  26.288  1.00  0.00     0.049 A 
ATOM     62  H   UNL A   1      48.125  31.602  26.443  1.00  0.00     0.167 HD
ATOM     63  C   UNL A   1      50.926  31.638  26.043  1.00  0.00     0.074 A 
ATOM     64  C   UNL A   1      52.286  31.187  25.835  1.00  0.00     0.031 C 
ATOM     65  C   UNL A   1      50.555  32.942  26.083  1.00  0.00     0.031 A 
BRANCH  52  66
ATOM     66  C   UNL A   1      44.490  33.793  26.907  1.00  0.00    -0.014 A 
ATOM     67  C   UNL A   1      44.038  34.254  28.154  1.00  0.00     0.009 A 
ATOM     68  C   UNL A   1      43.867  34.267  25.742  1.00  0.00     0.009 A 
ATOM     69  C   UNL A   1      42.960  35.141  28.231  1.00  0.00     0.001 A 
ATOM     70  C   UNL A   1      42.814  35.179  25.821  1.00  0.00     0.001 A 
ATOM     71  C   UNL A   1      42.354  35.607  27.065  1.00  0.00     0.000 A 
ENDBRANCH  52  66
BRANCH  53  72
ATOM     72  C   UNL A   1      51.766  27.010  26.011  1.00  0.00    -0.014 A 
ATOM     73  C   UNL A   1      52.448  26.507  27.130  1.00  0.00     0.009 A 
ATOM     74  C   UNL A   1      52.158  26.582  24.733  1.00  0.00     0.009 A 
ATOM     75  C   UNL A   1      53.516  25.620  26.970  1.00  0.00     0.001 A 
ATOM     76  C   UNL A   1      53.204  25.670  24.577  1.00  0.00     0.001 A 
ATOM     77  C   UNL A   1      53.890  25.199  25.694  1.00  0.00     0.000 A 
ENDBRANCH  53  72
BRANCH  65  78
ATOM     78  C   UNL A   1      51.638  33.977  25.946  1.00  0.00    -0.014 A 
ATOM     79  C   UNL A   1      52.364  34.436  27.056  1.00  0.00     0.009 A 
ATOM     80  C   UNL A   1      51.969  34.467  24.671  1.00  0.00     0.009 A 
ATOM     81  C   UNL A   1      53.372  35.389  26.897  1.00  0.00     0.001 A 
ATOM     82  C   UNL A   1      53.000  35.393  24.511  1.00  0.00     0.001 A 
ATOM     83  C   UNL A   1      53.693  35.862  25.624  1.00  0.00     0.000 A 
ENDBRANCH  65  78
ENDBRANCH  39  40
ENDBRANCH  32  34
ENDBRANCH  31  32
ENDBRANCH  30  31
ENDBRANCH  29  30
ENDBRANCH  28  29
ENDBRANCH  27  28
ENDBRANCH  26  27
ENDBRANCH  25  26
ENDBRANCH   1  25
TORSDOF 24
ENDMDL
