MODEL 1
REMARK VINA RESULT:      -9.5      0.000      0.000
REMARK SMILES CCn1cccc1C(=O)N(C)c1snc(C)c1C(=O)OCCOCCOCCOCCOC(=O)c1ccc(-c2c3nc(c(-c4ccccc4)c4ccc([nH]4)c(-c4ccccc4)c4nc(c(-c5ccccc5)c5ccc2[nH]5)C=C4)C=C3)cc1
REMARK SMILES IDX 25 1 24 2 23 3 22 4 21 5 20 6 18 7 19 8 17 9 12 10 13 11
REMARK SMILES IDX 14 12 15 13 16 14 10 15 11 16 8 17 9 18 7 19 3 20 4 21 5 22
REMARK SMILES IDX 6 23 2 24 1 25 26 26 27 27 28 28 29 29 30 30 31 31 32 32
REMARK SMILES IDX 33 33 34 34 35 35 36 36 82 37 37 38 81 39 38 40 39 41 40 42
REMARK SMILES IDX 75 43 41 44 80 45 74 46 76 47 42 48 79 49 73 50 72 51 43 53
REMARK SMILES IDX 65 54 50 55 64 56 51 57 54 58 63 59 77 60 52 61 53 62 62 64
REMARK SMILES IDX 78 65 55 66 44 67 45 68 49 69 46 70 48 71 47 72 66 73 67 74
REMARK SMILES IDX 71 75 68 76 70 77 69 78 56 79 57 80 61 81 58 82 60 83 59 84
REMARK H PARENT 76 52 54 63
REMARK Flexibility Score: inf
ROOT
ATOM      1  C   UNL A   1      38.617  22.200  25.781  1.00  0.00     0.188 C 
ENDROOT
BRANCH   1   2
ATOM      2  C   UNL A   1      37.639  21.094  25.305  1.00  0.00     0.188 C 
BRANCH   2   3
ATOM      3  O   UNL A   1      36.471  21.571  24.671  1.00  0.00    -0.376 OA
BRANCH   3   4
ATOM      4  C   UNL A   1      35.201  21.038  24.967  1.00  0.00     0.202 C 
BRANCH   4   5
ATOM      5  C   UNL A   1      33.989  21.601  24.220  1.00  0.00     0.261 C 
BRANCH   5   6
ATOM      6  O   UNL A   1      34.031  23.009  23.991  1.00  0.00    -0.460 OA
BRANCH   6   7
ATOM      7  C   UNL A   1      33.904  23.819  25.088  1.00  0.00     0.343 C 
ATOM      8  O   UNL A   1      34.635  24.750  25.332  1.00  0.00    -0.246 OA
BRANCH   7   9
ATOM      9  C   UNL A   1      32.640  23.565  25.785  1.00  0.00     0.117 A 
ATOM     10  C   UNL A   1      31.381  24.075  25.463  1.00  0.00     0.133 A 
ATOM     11  S   UNL A   1      30.265  23.467  26.624  1.00  0.00    -0.017 S 
ATOM     12  N   UNL A   1      31.366  22.788  27.626  1.00  0.00    -0.195 NA
ATOM     13  C   UNL A   1      32.579  22.930  27.096  1.00  0.00     0.068 A 
ATOM     14  C   UNL A   1      33.720  22.538  27.980  1.00  0.00     0.069 C 
BRANCH  10  15
ATOM     15  N   UNL A   1      30.879  24.958  24.461  1.00  0.00    -0.300 N 
ATOM     16  C   UNL A   1      30.675  24.462  23.117  1.00  0.00     0.154 C 
BRANCH  15  17
ATOM     17  C   UNL A   1      30.576  26.283  24.861  1.00  0.00     0.275 C 
ATOM     18  O   UNL A   1      30.424  26.473  26.078  1.00  0.00    -0.267 OA
BRANCH  17  19
ATOM     19  C   UNL A   1      30.388  27.477  23.976  1.00  0.00     0.107 A 
ATOM     20  N   UNL A   1      31.124  28.565  23.495  1.00  0.00    -0.344 N 
ATOM     21  C   UNL A   1      30.295  29.431  22.795  1.00  0.00     0.086 A 
ATOM     22  C   UNL A   1      29.038  28.908  22.739  1.00  0.00     0.020 A 
ATOM     23  C   UNL A   1      29.098  27.702  23.451  1.00  0.00     0.033 A 
BRANCH  20  24
ATOM     24  C   UNL A   1      32.517  28.954  23.625  1.00  0.00     0.119 C 
ATOM     25  C   UNL A   1      33.471  28.010  22.907  1.00  0.00     0.027 C 
ENDBRANCH  20  24
ENDBRANCH  17  19
ENDBRANCH  15  17
ENDBRANCH  10  15
ENDBRANCH   7   9
ENDBRANCH   6   7
ENDBRANCH   5   6
ENDBRANCH   4   5
ENDBRANCH   3   4
ENDBRANCH   2   3
ENDBRANCH   1   2
BRANCH   1  26
ATOM     26  O   UNL A   1      39.790  21.960  26.559  1.00  0.00    -0.377 OA
BRANCH  26  27
ATOM     27  C   UNL A   1      40.737  20.995  26.131  1.00  0.00     0.188 C 
BRANCH  27  28
ATOM     28  C   UNL A   1      42.015  20.859  26.982  1.00  0.00     0.188 C 
BRANCH  28  29
ATOM     29  O   UNL A   1      43.104  21.671  26.581  1.00  0.00    -0.376 OA
BRANCH  29  30
ATOM     30  C   UNL A   1      43.776  21.536  25.344  1.00  0.00     0.202 C 
BRANCH  30  31
ATOM     31  C   UNL A   1      44.091  22.726  24.437  1.00  0.00     0.261 C 
BRANCH  31  32
ATOM     32  O   UNL A   1      43.680  24.003  24.895  1.00  0.00    -0.460 OA
BRANCH  32  33
ATOM     33  C   UNL A   1      44.713  24.815  25.169  1.00  0.00     0.338 C 
ATOM     34  O   UNL A   1      45.799  24.882  24.624  1.00  0.00    -0.246 OA
BRANCH  33  35
ATOM     35  C   UNL A   1      44.423  25.546  26.385  1.00  0.00     0.060 A 
ATOM     36  C   UNL A   1      43.535  24.948  27.277  1.00  0.00     0.016 A 
ATOM     37  C   UNL A   1      44.673  26.922  26.343  1.00  0.00     0.016 A 
ATOM     38  C   UNL A   1      42.747  25.776  28.038  1.00  0.00     0.010 A 
ATOM     39  C   UNL A   1      43.845  27.749  27.062  1.00  0.00     0.010 A 
ATOM     40  C   UNL A   1      42.870  27.167  27.877  1.00  0.00    -0.014 A 
BRANCH  40  41
ATOM     41  C   UNL A   1      42.131  28.008  28.819  1.00  0.00     0.031 A 
ATOM     42  C   UNL A   1      42.860  27.924  30.178  1.00  0.00     0.074 A 
ATOM     43  C   UNL A   1      40.962  28.565  28.356  1.00  0.00     0.049 A 
ATOM     44  N   UNL A   1      42.360  27.993  31.363  1.00  0.00    -0.248 NA
ATOM     45  C   UNL A   1      44.328  27.617  30.258  1.00  0.00     0.031 C 
ATOM     46  C   UNL A   1      40.502  28.551  26.941  1.00  0.00     0.029 A 
ATOM     47  N   UNL A   1      39.918  29.251  28.949  1.00  0.00    -0.354 N 
ATOM     48  C   UNL A   1      43.422  27.968  32.290  1.00  0.00     0.074 A 
ATOM     49  C   UNL A   1      44.594  27.606  31.565  1.00  0.00     0.031 C 
ATOM     50  C   UNL A   1      39.265  29.094  26.815  1.00  0.00     0.029 A 
ATOM     51  C   UNL A   1      38.787  29.527  28.115  1.00  0.00     0.049 A 
ATOM     52  H   UNL A   1      39.950  29.534  29.891  1.00  0.00     0.167 HD
ATOM     53  C   UNL A   1      43.264  28.435  33.561  1.00  0.00     0.031 A 
ATOM     54  C   UNL A   1      37.551  30.020  28.471  1.00  0.00     0.031 A 
ATOM     55  C   UNL A   1      41.894  28.761  33.767  1.00  0.00     0.049 A 
ATOM     56  C   UNL A   1      37.710  30.396  29.878  1.00  0.00     0.074 A 
ATOM     57  C   UNL A   1      40.774  27.969  33.803  1.00  0.00     0.029 A 
ATOM     58  N   UNL A   1      41.545  30.052  33.441  1.00  0.00    -0.354 N 
ATOM     59  N   UNL A   1      38.335  31.453  30.298  1.00  0.00    -0.248 NA
ATOM     60  C   UNL A   1      37.200  29.482  30.909  1.00  0.00     0.031 C 
ATOM     61  C   UNL A   1      39.891  28.675  32.965  1.00  0.00     0.029 A 
ATOM     62  C   UNL A   1      40.350  29.984  32.780  1.00  0.00     0.049 A 
ATOM     63  H   UNL A   1      42.057  30.867  33.646  1.00  0.00     0.167 HD
ATOM     64  C   UNL A   1      38.642  31.091  31.582  1.00  0.00     0.074 A 
ATOM     65  C   UNL A   1      37.650  30.115  31.989  1.00  0.00     0.031 C 
ATOM     66  C   UNL A   1      39.944  31.101  31.973  1.00  0.00     0.031 A 
BRANCH  53  67
ATOM     67  C   UNL A   1      44.251  28.960  34.560  1.00  0.00    -0.014 A 
ATOM     68  C   UNL A   1      43.917  28.775  35.925  1.00  0.00     0.009 A 
ATOM     69  C   UNL A   1      45.231  29.908  34.260  1.00  0.00     0.009 A 
ATOM     70  C   UNL A   1      44.409  29.612  36.923  1.00  0.00     0.001 A 
ATOM     71  C   UNL A   1      45.766  30.717  35.273  1.00  0.00     0.001 A 
ATOM     72  C   UNL A   1      45.322  30.601  36.590  1.00  0.00     0.000 A 
ENDBRANCH  53  67
BRANCH  54  73
ATOM     73  C   UNL A   1      36.139  30.250  27.947  1.00  0.00    -0.014 A 
ATOM     74  C   UNL A   1      35.296  29.329  27.324  1.00  0.00     0.009 A 
ATOM     75  C   UNL A   1      35.569  31.554  28.108  1.00  0.00     0.009 A 
ATOM     76  C   UNL A   1      33.960  29.678  26.977  1.00  0.00     0.001 A 
ATOM     77  C   UNL A   1      34.244  31.893  27.815  1.00  0.00     0.001 A 
ATOM     78  C   UNL A   1      33.426  30.940  27.255  1.00  0.00     0.000 A 
ENDBRANCH  54  73
BRANCH  66  79
ATOM     79  C   UNL A   1      40.858  32.058  31.224  1.00  0.00    -0.014 A 
ATOM     80  C   UNL A   1      40.590  33.436  31.287  1.00  0.00     0.009 A 
ATOM     81  C   UNL A   1      41.906  31.650  30.377  1.00  0.00     0.009 A 
ATOM     82  C   UNL A   1      41.318  34.367  30.535  1.00  0.00     0.001 A 
ATOM     83  C   UNL A   1      42.635  32.583  29.614  1.00  0.00     0.001 A 
ATOM     84  C   UNL A   1      42.340  33.942  29.695  1.00  0.00     0.000 A 
ENDBRANCH  66  79
ENDBRANCH  40  41
ENDBRANCH  33  35
ENDBRANCH  32  33
ENDBRANCH  31  32
ENDBRANCH  30  31
ENDBRANCH  29  30
ENDBRANCH  28  29
ENDBRANCH  27  28
ENDBRANCH  26  27
ENDBRANCH   1  26
TORSDOF 24
ENDMDL
MODEL 2
REMARK VINA RESULT:      -9.4      3.852      8.628
REMARK SMILES CCn1cccc1C(=O)N(C)c1snc(C)c1C(=O)OCCOCCOCCOCCOC(=O)c1ccc(-c2c3nc(c(-c4ccccc4)c4ccc([nH]4)c(-c4ccccc4)c4nc(c(-c5ccccc5)c5ccc2[nH]5)C=C4)C=C3)cc1
REMARK SMILES IDX 25 1 24 2 23 3 22 4 21 5 20 6 18 7 19 8 17 9 12 10 13 11
REMARK SMILES IDX 14 12 15 13 16 14 10 15 11 16 8 17 9 18 7 19 3 20 4 21 5 22
REMARK SMILES IDX 6 23 2 24 1 25 26 26 27 27 28 28 29 29 30 30 31 31 32 32
REMARK SMILES IDX 33 33 34 34 35 35 36 36 82 37 37 38 81 39 38 40 39 41 40 42
REMARK SMILES IDX 75 43 41 44 80 45 74 46 76 47 42 48 79 49 73 50 72 51 43 53
REMARK SMILES IDX 65 54 50 55 64 56 51 57 54 58 63 59 77 60 52 61 53 62 62 64
REMARK SMILES IDX 78 65 55 66 44 67 45 68 49 69 46 70 48 71 47 72 66 73 67 74
REMARK SMILES IDX 71 75 68 76 70 77 69 78 56 79 57 80 61 81 58 82 60 83 59 84
REMARK H PARENT 76 52 54 63
REMARK Flexibility Score: inf
ROOT
ATOM      1  C   UNL A   1      34.838  31.101  27.774  1.00  0.00     0.188 C 
ENDROOT
BRANCH   1   2
ATOM      2  C   UNL A   1      33.445  30.546  27.375  1.00  0.00     0.188 C 
BRANCH   2   3
ATOM      3  O   UNL A   1      33.430  29.794  26.180  1.00  0.00    -0.376 OA
BRANCH   3   4
ATOM      4  C   UNL A   1      33.794  28.434  26.160  1.00  0.00     0.202 C 
BRANCH   4   5
ATOM      5  C   UNL A   1      32.776  27.406  26.661  1.00  0.00     0.261 C 
BRANCH   5   6
ATOM      6  O   UNL A   1      31.441  27.614  26.200  1.00  0.00    -0.460 OA
BRANCH   6   7
ATOM      7  C   UNL A   1      30.788  26.527  25.684  1.00  0.00     0.343 C 
ATOM      8  O   UNL A   1      29.925  25.914  26.268  1.00  0.00    -0.246 OA
BRANCH   7   9
ATOM      9  C   UNL A   1      31.094  26.355  24.261  1.00  0.00     0.117 A 
ATOM     10  C   UNL A   1      32.038  25.495  23.698  1.00  0.00     0.133 A 
ATOM     11  S   UNL A   1      31.986  25.717  21.992  1.00  0.00    -0.017 S 
ATOM     12  N   UNL A   1      30.988  27.013  21.987  1.00  0.00    -0.195 NA
ATOM     13  C   UNL A   1      30.610  27.274  23.238  1.00  0.00     0.068 A 
ATOM     14  C   UNL A   1      29.853  28.548  23.431  1.00  0.00     0.069 C 
BRANCH  10  15
ATOM     15  N   UNL A   1      32.988  24.565  24.216  1.00  0.00    -0.300 N 
ATOM     16  C   UNL A   1      34.396  24.897  24.180  1.00  0.00     0.154 C 
BRANCH  15  17
ATOM     17  C   UNL A   1      32.481  23.364  24.770  1.00  0.00     0.275 C 
ATOM     18  O   UNL A   1      32.128  23.410  25.960  1.00  0.00    -0.267 OA
BRANCH  17  19
ATOM     19  C   UNL A   1      32.351  22.035  24.093  1.00  0.00     0.107 A 
ATOM     20  N   UNL A   1      32.564  20.680  24.369  1.00  0.00    -0.344 N 
ATOM     21  C   UNL A   1      32.378  19.923  23.220  1.00  0.00     0.086 A 
ATOM     22  C   UNL A   1      31.977  20.735  22.202  1.00  0.00     0.020 A 
ATOM     23  C   UNL A   1      31.946  22.029  22.741  1.00  0.00     0.033 A 
BRANCH  20  24
ATOM     24  C   UNL A   1      32.966  19.965  25.567  1.00  0.00     0.119 C 
ATOM     25  C   UNL A   1      32.759  18.461  25.463  1.00  0.00     0.027 C 
ENDBRANCH  20  24
ENDBRANCH  17  19
ENDBRANCH  15  17
ENDBRANCH  10  15
ENDBRANCH   7   9
ENDBRANCH   6   7
ENDBRANCH   5   6
ENDBRANCH   4   5
ENDBRANCH   3   4
ENDBRANCH   2   3
ENDBRANCH   1   2
BRANCH   1  26
ATOM     26  O   UNL A   1      35.119  32.479  28.018  1.00  0.00    -0.377 OA
BRANCH  26  27
ATOM     27  C   UNL A   1      34.056  33.415  28.085  1.00  0.00     0.188 C 
BRANCH  27  28
ATOM     28  C   UNL A   1      34.191  34.538  29.133  1.00  0.00     0.188 C 
BRANCH  28  29
ATOM     29  O   UNL A   1      33.080  34.704  29.996  1.00  0.00    -0.376 OA
BRANCH  29  30
ATOM     30  C   UNL A   1      32.958  35.755  30.933  1.00  0.00     0.202 C 
BRANCH  30  31
ATOM     31  C   UNL A   1      33.052  35.536  32.443  1.00  0.00     0.261 C 
BRANCH  31  32
ATOM     32  O   UNL A   1      34.198  34.851  32.918  1.00  0.00    -0.460 OA
BRANCH  32  33
ATOM     33  C   UNL A   1      33.995  33.533  33.062  1.00  0.00     0.338 C 
ATOM     34  O   UNL A   1      32.979  32.946  33.387  1.00  0.00    -0.246 OA
BRANCH  33  35
ATOM     35  C   UNL A   1      35.264  32.847  32.937  1.00  0.00     0.060 A 
ATOM     36  C   UNL A   1      36.309  33.315  33.732  1.00  0.00     0.016 A 
ATOM     37  C   UNL A   1      35.452  32.125  31.753  1.00  0.00     0.016 A 
ATOM     38  C   UNL A   1      37.584  33.201  33.235  1.00  0.00     0.010 A 
ATOM     39  C   UNL A   1      36.721  32.063  31.232  1.00  0.00     0.010 A 
ATOM     40  C   UNL A   1      37.768  32.630  31.963  1.00  0.00    -0.014 A 
BRANCH  40  41
ATOM     41  C   UNL A   1      39.148  32.382  31.546  1.00  0.00     0.031 A 
ATOM     42  C   UNL A   1      39.670  31.188  32.376  1.00  0.00     0.074 A 
ATOM     43  C   UNL A   1      39.686  33.273  30.648  1.00  0.00     0.049 A 
ATOM     44  N   UNL A   1      40.871  30.957  32.782  1.00  0.00    -0.248 NA
ATOM     45  C   UNL A   1      38.733  30.154  32.930  1.00  0.00     0.031 C 
ATOM     46  C   UNL A   1      38.929  34.329  29.923  1.00  0.00     0.029 A 
ATOM     47  N   UNL A   1      40.957  33.495  30.150  1.00  0.00    -0.354 N 
ATOM     48  C   UNL A   1      40.886  29.698  33.417  1.00  0.00     0.074 A 
ATOM     49  C   UNL A   1      39.526  29.310  33.593  1.00  0.00     0.031 C 
ATOM     50  C   UNL A   1      39.752  35.113  29.183  1.00  0.00     0.029 A 
ATOM     51  C   UNL A   1      41.122  34.657  29.331  1.00  0.00     0.049 A 
ATOM     52  H   UNL A   1      41.707  32.888  30.349  1.00  0.00     0.167 HD
ATOM     53  C   UNL A   1      42.044  28.998  33.576  1.00  0.00     0.031 A 
ATOM     54  C   UNL A   1      42.287  35.222  28.858  1.00  0.00     0.031 A 
ATOM     55  C   UNL A   1      43.136  29.810  33.155  1.00  0.00     0.049 A 
ATOM     56  C   UNL A   1      43.324  34.251  29.213  1.00  0.00     0.074 A 
ATOM     57  C   UNL A   1      43.643  30.976  33.669  1.00  0.00     0.029 A 
ATOM     58  N   UNL A   1      43.465  29.703  31.823  1.00  0.00    -0.354 N 
ATOM     59  N   UNL A   1      43.532  33.128  28.597  1.00  0.00    -0.248 NA
ATOM     60  C   UNL A   1      44.149  34.511  30.400  1.00  0.00     0.031 C 
ATOM     61  C   UNL A   1      43.768  31.773  32.516  1.00  0.00     0.029 A 
ATOM     62  C   UNL A   1      43.703  30.970  31.371  1.00  0.00     0.049 A 
ATOM     63  H   UNL A   1      43.518  28.872  31.298  1.00  0.00     0.167 HD
ATOM     64  C   UNL A   1      44.185  32.409  29.562  1.00  0.00     0.074 A 
ATOM     65  C   UNL A   1      44.835  33.372  30.430  1.00  0.00     0.031 C 
ATOM     66  C   UNL A   1      43.666  31.217  29.956  1.00  0.00     0.031 A 
BRANCH  53  67
ATOM     67  C   UNL A   1      42.307  27.534  33.753  1.00  0.00    -0.014 A 
ATOM     68  C   UNL A   1      41.586  26.890  34.790  1.00  0.00     0.009 A 
ATOM     69  C   UNL A   1      43.435  26.880  33.252  1.00  0.00     0.009 A 
ATOM     70  C   UNL A   1      42.063  25.739  35.412  1.00  0.00     0.001 A 
ATOM     71  C   UNL A   1      43.887  25.692  33.846  1.00  0.00     0.001 A 
ATOM     72  C   UNL A   1      43.230  25.151  34.951  1.00  0.00     0.000 A 
ENDBRANCH  53  67
BRANCH  54  73
ATOM     73  C   UNL A   1      42.842  36.466  28.174  1.00  0.00    -0.014 A 
ATOM     74  C   UNL A   1      42.206  37.288  27.244  1.00  0.00     0.009 A 
ATOM     75  C   UNL A   1      44.171  36.879  28.512  1.00  0.00     0.009 A 
ATOM     76  C   UNL A   1      42.831  38.474  26.767  1.00  0.00     0.001 A 
ATOM     77  C   UNL A   1      44.775  38.067  28.088  1.00  0.00     0.001 A 
ATOM     78  C   UNL A   1      44.092  38.881  27.216  1.00  0.00     0.000 A 
ENDBRANCH  54  73
BRANCH  66  79
ATOM     79  C   UNL A   1      42.809  30.490  28.932  1.00  0.00    -0.014 A 
ATOM     80  C   UNL A   1      41.481  30.173  29.266  1.00  0.00     0.009 A 
ATOM     81  C   UNL A   1      43.287  30.015  27.696  1.00  0.00     0.009 A 
ATOM     82  C   UNL A   1      40.668  29.408  28.420  1.00  0.00     0.001 A 
ATOM     83  C   UNL A   1      42.474  29.240  26.845  1.00  0.00     0.001 A 
ATOM     84  C   UNL A   1      41.164  28.938  27.209  1.00  0.00     0.000 A 
ENDBRANCH  66  79
ENDBRANCH  40  41
ENDBRANCH  33  35
ENDBRANCH  32  33
ENDBRANCH  31  32
ENDBRANCH  30  31
ENDBRANCH  29  30
ENDBRANCH  28  29
ENDBRANCH  27  28
ENDBRANCH  26  27
ENDBRANCH   1  26
TORSDOF 24
ENDMDL
MODEL 3
REMARK VINA RESULT:      -9.3      1.567      3.158
REMARK SMILES CCn1cccc1C(=O)N(C)c1snc(C)c1C(=O)OCCOCCOCCOCCOC(=O)c1ccc(-c2c3nc(c(-c4ccccc4)c4ccc([nH]4)c(-c4ccccc4)c4nc(c(-c5ccccc5)c5ccc2[nH]5)C=C4)C=C3)cc1
REMARK SMILES IDX 25 1 24 2 23 3 22 4 21 5 20 6 18 7 19 8 17 9 12 10 13 11
REMARK SMILES IDX 14 12 15 13 16 14 10 15 11 16 8 17 9 18 7 19 3 20 4 21 5 22
REMARK SMILES IDX 6 23 2 24 1 25 26 26 27 27 28 28 29 29 30 30 31 31 32 32
REMARK SMILES IDX 33 33 34 34 35 35 36 36 82 37 37 38 81 39 38 40 39 41 40 42
REMARK SMILES IDX 75 43 41 44 80 45 74 46 76 47 42 48 79 49 73 50 72 51 43 53
REMARK SMILES IDX 65 54 50 55 64 56 51 57 54 58 63 59 77 60 52 61 53 62 62 64
REMARK SMILES IDX 78 65 55 66 44 67 45 68 49 69 46 70 48 71 47 72 66 73 67 74
REMARK SMILES IDX 71 75 68 76 70 77 69 78 56 79 57 80 61 81 58 82 60 83 59 84
REMARK H PARENT 76 52 54 63
REMARK Flexibility Score: inf
ROOT
ATOM      1  C   UNL A   1      38.833  21.737  25.957  1.00  0.00     0.188 C 
ENDROOT
BRANCH   1   2
ATOM      2  C   UNL A   1      37.680  21.181  25.081  1.00  0.00     0.188 C 
BRANCH   2   3
ATOM      3  O   UNL A   1      36.906  22.165  24.428  1.00  0.00    -0.376 OA
BRANCH   3   4
ATOM      4  C   UNL A   1      36.938  23.514  24.830  1.00  0.00     0.202 C 
BRANCH   4   5
ATOM      5  C   UNL A   1      35.723  24.078  25.569  1.00  0.00     0.261 C 
BRANCH   5   6
ATOM      6  O   UNL A   1      34.746  24.692  24.728  1.00  0.00    -0.460 OA
BRANCH   6   7
ATOM      7  C   UNL A   1      33.929  25.625  25.307  1.00  0.00     0.343 C 
ATOM      8  O   UNL A   1      34.298  26.437  26.125  1.00  0.00    -0.246 OA
BRANCH   7   9
ATOM      9  C   UNL A   1      32.626  25.673  24.638  1.00  0.00     0.117 A 
ATOM     10  C   UNL A   1      31.457  25.010  25.018  1.00  0.00     0.133 A 
ATOM     11  S   UNL A   1      30.241  25.408  23.867  1.00  0.00    -0.017 S 
ATOM     12  N   UNL A   1      31.213  26.187  22.806  1.00  0.00    -0.195 NA
ATOM     13  C   UNL A   1      32.447  26.236  23.305  1.00  0.00     0.068 A 
ATOM     14  C   UNL A   1      33.501  26.741  22.373  1.00  0.00     0.069 C 
BRANCH  10  15
ATOM     15  N   UNL A   1      31.106  24.111  26.069  1.00  0.00    -0.300 N 
ATOM     16  C   UNL A   1      29.789  24.194  26.661  1.00  0.00     0.154 C 
BRANCH  15  17
ATOM     17  C   UNL A   1      32.078  23.155  26.453  1.00  0.00     0.275 C 
ATOM     18  O   UNL A   1      32.527  23.256  27.605  1.00  0.00    -0.267 OA
BRANCH  17  19
ATOM     19  C   UNL A   1      32.650  22.054  25.614  1.00  0.00     0.107 A 
ATOM     20  N   UNL A   1      32.606  21.598  24.292  1.00  0.00    -0.344 N 
ATOM     21  C   UNL A   1      33.277  20.387  24.182  1.00  0.00     0.086 A 
ATOM     22  C   UNL A   1      33.826  20.062  25.386  1.00  0.00     0.020 A 
ATOM     23  C   UNL A   1      33.453  21.092  26.261  1.00  0.00     0.033 A 
BRANCH  20  24
ATOM     24  C   UNL A   1      31.983  22.114  23.087  1.00  0.00     0.119 C 
ATOM     25  C   UNL A   1      31.839  21.066  21.992  1.00  0.00     0.027 C 
ENDBRANCH  20  24
ENDBRANCH  17  19
ENDBRANCH  15  17
ENDBRANCH  10  15
ENDBRANCH   7   9
ENDBRANCH   6   7
ENDBRANCH   5   6
ENDBRANCH   4   5
ENDBRANCH   3   4
ENDBRANCH   2   3
ENDBRANCH   1   2
BRANCH   1  26
ATOM     26  O   UNL A   1      40.200  21.343  25.836  1.00  0.00    -0.377 OA
BRANCH  26  27
ATOM     27  C   UNL A   1      40.857  20.725  26.930  1.00  0.00     0.188 C 
BRANCH  27  28
ATOM     28  C   UNL A   1      41.891  19.635  26.586  1.00  0.00     0.188 C 
BRANCH  28  29
ATOM     29  O   UNL A   1      42.592  19.822  25.369  1.00  0.00    -0.376 OA
BRANCH  29  30
ATOM     30  C   UNL A   1      43.970  20.130  25.290  1.00  0.00     0.202 C 
BRANCH  30  31
ATOM     31  C   UNL A   1      44.494  21.559  25.154  1.00  0.00     0.261 C 
BRANCH  31  32
ATOM     32  O   UNL A   1      43.525  22.591  25.090  1.00  0.00    -0.460 OA
BRANCH  32  33
ATOM     33  C   UNL A   1      44.062  23.797  24.855  1.00  0.00     0.338 C 
ATOM     34  O   UNL A   1      45.131  24.072  24.342  1.00  0.00    -0.246 OA
BRANCH  33  35
ATOM     35  C   UNL A   1      43.232  24.808  25.477  1.00  0.00     0.060 A 
ATOM     36  C   UNL A   1      43.693  26.121  25.414  1.00  0.00     0.016 A 
ATOM     37  C   UNL A   1      42.331  24.346  26.443  1.00  0.00     0.016 A 
ATOM     38  C   UNL A   1      43.372  26.957  26.456  1.00  0.00     0.010 A 
ATOM     39  C   UNL A   1      42.058  25.164  27.511  1.00  0.00     0.010 A 
ATOM     40  C   UNL A   1      42.608  26.450  27.522  1.00  0.00    -0.014 A 
BRANCH  40  41
ATOM     41  C   UNL A   1      42.155  27.413  28.524  1.00  0.00     0.031 A 
ATOM     42  C   UNL A   1      43.036  27.220  29.778  1.00  0.00     0.074 A 
ATOM     43  C   UNL A   1      41.045  28.157  28.200  1.00  0.00     0.049 A 
ATOM     44  N   UNL A   1      42.718  27.386  31.015  1.00  0.00    -0.248 NA
ATOM     45  C   UNL A   1      44.428  26.668  29.675  1.00  0.00     0.031 C 
ATOM     46  C   UNL A   1      40.403  28.208  26.858  1.00  0.00     0.029 A 
ATOM     47  N   UNL A   1      40.220  29.018  28.901  1.00  0.00    -0.354 N 
ATOM     48  C   UNL A   1      43.875  27.189  31.796  1.00  0.00     0.074 A 
ATOM     49  C   UNL A   1      44.862  26.625  30.936  1.00  0.00     0.031 C 
ATOM     50  C   UNL A   1      39.269  28.952  26.877  1.00  0.00     0.029 A 
ATOM     51  C   UNL A   1      39.049  29.473  28.214  1.00  0.00     0.049 A 
ATOM     52  H   UNL A   1      40.425  29.301  29.822  1.00  0.00     0.167 HD
ATOM     53  C   UNL A   1      43.971  27.689  33.061  1.00  0.00     0.031 A 
ATOM     54  C   UNL A   1      37.972  30.174  28.712  1.00  0.00     0.031 A 
ATOM     55  C   UNL A   1      42.715  28.247  33.433  1.00  0.00     0.049 A 
ATOM     56  C   UNL A   1      38.380  30.532  30.073  1.00  0.00     0.074 A 
ATOM     57  C   UNL A   1      41.493  27.658  33.641  1.00  0.00     0.029 A 
ATOM     58  N   UNL A   1      42.546  29.574  33.114  1.00  0.00    -0.354 N 
ATOM     59  N   UNL A   1      39.224  31.471  30.373  1.00  0.00    -0.248 NA
ATOM     60  C   UNL A   1      37.867  29.729  31.191  1.00  0.00     0.031 C 
ATOM     61  C   UNL A   1      40.636  28.495  32.903  1.00  0.00     0.029 A 
ATOM     62  C   UNL A   1      41.279  29.705  32.617  1.00  0.00     0.049 A 
ATOM     63  H   UNL A   1      43.211  30.292  33.223  1.00  0.00     0.167 HD
ATOM     64  C   UNL A   1      39.636  31.075  31.617  1.00  0.00     0.074 A 
ATOM     65  C   UNL A   1      38.558  30.286  32.182  1.00  0.00     0.031 C 
ATOM     66  C   UNL A   1      40.962  30.866  31.834  1.00  0.00     0.031 A 
BRANCH  53  67
ATOM     67  C   UNL A   1      45.156  28.048  33.904  1.00  0.00    -0.014 A 
ATOM     68  C   UNL A   1      45.344  27.277  35.079  1.00  0.00     0.009 A 
ATOM     69  C   UNL A   1      45.828  29.270  33.822  1.00  0.00     0.009 A 
ATOM     70  C   UNL A   1      46.027  27.777  36.185  1.00  0.00     0.001 A 
ATOM     71  C   UNL A   1      46.560  29.750  34.918  1.00  0.00     0.001 A 
ATOM     72  C   UNL A   1      46.618  29.028  36.110  1.00  0.00     0.000 A 
ENDBRANCH  53  67
BRANCH  54  73
ATOM     73  C   UNL A   1      36.561  30.636  28.370  1.00  0.00    -0.014 A 
ATOM     74  C   UNL A   1      36.040  31.927  28.449  1.00  0.00     0.009 A 
ATOM     75  C   UNL A   1      35.632  29.655  27.893  1.00  0.00     0.009 A 
ATOM     76  C   UNL A   1      34.720  32.213  27.999  1.00  0.00     0.001 A 
ATOM     77  C   UNL A   1      34.352  29.933  27.404  1.00  0.00     0.001 A 
ATOM     78  C   UNL A   1      33.896  31.229  27.445  1.00  0.00     0.000 A 
ENDBRANCH  54  73
BRANCH  66  79
ATOM     79  C   UNL A   1      41.914  31.646  30.941  1.00  0.00    -0.014 A 
ATOM     80  C   UNL A   1      42.541  30.978  29.876  1.00  0.00     0.009 A 
ATOM     81  C   UNL A   1      42.298  32.981  31.171  1.00  0.00     0.009 A 
ATOM     82  C   UNL A   1      43.513  31.598  29.082  1.00  0.00     0.001 A 
ATOM     83  C   UNL A   1      43.281  33.607  30.379  1.00  0.00     0.001 A 
ATOM     84  C   UNL A   1      43.887  32.914  29.334  1.00  0.00     0.000 A 
ENDBRANCH  66  79
ENDBRANCH  40  41
ENDBRANCH  33  35
ENDBRANCH  32  33
ENDBRANCH  31  32
ENDBRANCH  30  31
ENDBRANCH  29  30
ENDBRANCH  28  29
ENDBRANCH  27  28
ENDBRANCH  26  27
ENDBRANCH   1  26
TORSDOF 24
ENDMDL
