MODEL 1
REMARK VINA RESULT:      -8.8      0.000      0.000
REMARK SMILES C#CC[N@H+](CC(=O)OCCOCCOCCOCCOC(=O)c1ccc(-c2c3nc(c(-c4ccccc4)c4ccc([nH]4)c(-c4ccccc4)c4nc(c(-c5ccccc5)c5ccc2[nH]5)C=C4)C=C3)cc1)[C@H](C)c1cc(C)ccc1C
REMARK SMILES IDX 13 1 12 2 11 3 10 4 9 5 8 6 6 7 7 8 5 9 4 10 3 12 2 13 1 14
REMARK SMILES IDX 71 15 72 16 73 17 74 18 79 19 75 20 78 21 80 22 76 23 77 24
REMARK SMILES IDX 14 25 15 26 16 27 17 28 18 29 19 30 20 31 21 32 22 33 23 34
REMARK SMILES IDX 24 35 70 36 25 37 69 38 26 39 27 40 28 41 63 42 29 43 68 44
REMARK SMILES IDX 62 45 64 46 30 47 67 48 61 49 60 50 31 52 53 53 38 54 52 55
REMARK SMILES IDX 39 56 42 57 51 58 65 59 40 60 41 61 50 63 66 64 43 65 32 66
REMARK SMILES IDX 33 67 37 68 34 69 36 70 35 71 54 72 55 73 59 74 56 75 58 76
REMARK SMILES IDX 57 77 44 78 45 79 49 80 46 81 48 82 47 83
REMARK H PARENT 4 11 64 51 42 62
REMARK Flexibility Score: inf
ROOT
ATOM      1  C   UNL A   1      37.008  21.564  24.413  1.00  0.00     0.188 C 
ENDROOT
BRANCH   1   2
ATOM      2  C   UNL A   1      36.609  23.054  24.388  1.00  0.00     0.188 C 
BRANCH   2   3
ATOM      3  O   UNL A   1      36.310  23.676  25.620  1.00  0.00    -0.376 OA
BRANCH   3   4
ATOM      4  C   UNL A   1      35.288  23.204  26.480  1.00  0.00     0.202 C 
BRANCH   4   5
ATOM      5  C   UNL A   1      33.818  22.989  26.084  1.00  0.00     0.261 C 
BRANCH   5   6
ATOM      6  O   UNL A   1      32.870  22.965  27.151  1.00  0.00    -0.459 OA
BRANCH   6   7
ATOM      7  C   UNL A   1      31.788  23.763  27.005  1.00  0.00     0.361 C 
ATOM      8  O   UNL A   1      30.658  23.459  27.383  1.00  0.00    -0.245 OA
BRANCH   7   9
ATOM      9  C   UNL A   1      32.066  25.151  26.437  1.00  0.00     0.387 C 
BRANCH   9  10
ATOM     10  N   UNL A   1      30.927  26.026  25.972  1.00  0.00    -0.310 N 
ATOM     11  H   UNL A   1      30.004  25.734  26.292  1.00  0.00     0.349 HD
BRANCH  10  12
ATOM     12  C   UNL A   1      31.106  27.380  26.552  1.00  0.00     0.354 C 
BRANCH  12  13
ATOM     13  C   UNL A   1      32.494  27.832  26.728  1.00  0.00    -0.047 C 
ATOM     14  C   UNL A   1      33.652  28.144  26.852  1.00  0.00     0.010 C 
ENDBRANCH  12  13
ENDBRANCH  10  12
BRANCH  10  15
ATOM     15  C   UNL A   1      30.912  25.939  24.455  1.00  0.00     0.213 C 
ATOM     16  C   UNL A   1      29.487  25.783  23.882  1.00  0.00     0.081 C 
BRANCH  15  17
ATOM     17  C   UNL A   1      31.890  24.998  23.709  1.00  0.00     0.012 A 
ATOM     18  C   UNL A   1      31.600  23.644  23.494  1.00  0.00     0.013 A 
ATOM     19  C   UNL A   1      33.122  25.469  23.168  1.00  0.00    -0.042 A 
ATOM     20  C   UNL A   1      32.360  22.822  22.639  1.00  0.00    -0.051 A 
ATOM     21  C   UNL A   1      33.895  24.637  22.327  1.00  0.00     0.004 A 
ATOM     22  C   UNL A   1      33.712  26.834  23.425  1.00  0.00     0.045 C 
ATOM     23  C   UNL A   1      31.901  21.425  22.343  1.00  0.00     0.044 C 
ATOM     24  C   UNL A   1      33.501  23.338  22.038  1.00  0.00     0.004 A 
ENDBRANCH  15  17
ENDBRANCH  10  15
ENDBRANCH   9  10
ENDBRANCH   7   9
ENDBRANCH   6   7
ENDBRANCH   5   6
ENDBRANCH   4   5
ENDBRANCH   3   4
ENDBRANCH   2   3
ENDBRANCH   1   2
BRANCH   1  25
ATOM     25  O   UNL A   1      38.240  21.187  24.998  1.00  0.00    -0.377 OA
BRANCH  25  26
ATOM     26  C   UNL A   1      38.787  21.934  26.073  1.00  0.00     0.188 C 
BRANCH  26  27
ATOM     27  C   UNL A   1      40.263  21.787  26.505  1.00  0.00     0.188 C 
BRANCH  27  28
ATOM     28  O   UNL A   1      40.776  20.470  26.484  1.00  0.00    -0.376 OA
BRANCH  28  29
ATOM     29  C   UNL A   1      42.181  20.300  26.396  1.00  0.00     0.202 C 
BRANCH  29  30
ATOM     30  C   UNL A   1      43.004  21.351  25.631  1.00  0.00     0.261 C 
BRANCH  30  31
ATOM     31  O   UNL A   1      43.484  22.472  26.392  1.00  0.00    -0.460 OA
BRANCH  31  32
ATOM     32  C   UNL A   1      43.598  23.661  25.763  1.00  0.00     0.338 C 
ATOM     33  O   UNL A   1      43.900  23.858  24.601  1.00  0.00    -0.246 OA
BRANCH  32  34
ATOM     34  C   UNL A   1      43.111  24.700  26.697  1.00  0.00     0.060 A 
ATOM     35  C   UNL A   1      43.678  25.982  26.659  1.00  0.00     0.016 A 
ATOM     36  C   UNL A   1      42.071  24.415  27.582  1.00  0.00     0.016 A 
ATOM     37  C   UNL A   1      43.204  26.985  27.509  1.00  0.00     0.010 A 
ATOM     38  C   UNL A   1      41.621  25.411  28.454  1.00  0.00     0.010 A 
ATOM     39  C   UNL A   1      42.193  26.695  28.432  1.00  0.00    -0.014 A 
BRANCH  39  40
ATOM     40  C   UNL A   1      41.815  27.683  29.471  1.00  0.00     0.031 A 
ATOM     41  C   UNL A   1      42.569  27.691  30.770  1.00  0.00     0.074 A 
ATOM     42  C   UNL A   1      40.802  28.546  29.276  1.00  0.00     0.049 A 
ATOM     43  N   UNL A   1      42.338  28.375  31.861  1.00  0.00    -0.248 NA
ATOM     44  C   UNL A   1      43.739  26.802  30.847  1.00  0.00     0.031 C 
ATOM     45  C   UNL A   1      40.033  28.685  28.041  1.00  0.00     0.029 A 
ATOM     46  N   UNL A   1      40.237  29.459  30.133  1.00  0.00    -0.354 N 
ATOM     47  C   UNL A   1      43.324  27.988  32.761  1.00  0.00     0.074 A 
ATOM     48  C   UNL A   1      44.138  26.994  32.096  1.00  0.00     0.031 C 
ATOM     49  C   UNL A   1      39.086  29.621  28.225  1.00  0.00     0.029 A 
ATOM     50  C   UNL A   1      39.148  30.106  29.603  1.00  0.00     0.049 A 
ATOM     51  H   UNL A   1      40.581  29.633  31.038  1.00  0.00     0.167 HD
ATOM     52  C   UNL A   1      43.531  28.420  34.028  1.00  0.00     0.031 A 
ATOM     53  C   UNL A   1      38.278  30.960  30.177  1.00  0.00     0.031 A 
ATOM     54  C   UNL A   1      42.700  29.387  34.696  1.00  0.00     0.049 A 
ATOM     55  C   UNL A   1      38.452  31.331  31.628  1.00  0.00     0.074 A 
ATOM     56  C   UNL A   1      42.833  29.898  35.976  1.00  0.00     0.029 A 
ATOM     57  N   UNL A   1      41.572  29.975  34.145  1.00  0.00    -0.354 N 
ATOM     58  N   UNL A   1      39.401  30.984  32.464  1.00  0.00    -0.248 NA
ATOM     59  C   UNL A   1      37.427  32.208  32.215  1.00  0.00     0.031 C 
ATOM     60  C   UNL A   1      41.740  30.734  36.226  1.00  0.00     0.029 A 
ATOM     61  C   UNL A   1      40.969  30.805  35.076  1.00  0.00     0.049 A 
ATOM     62  H   UNL A   1      41.247  29.823  33.228  1.00  0.00     0.167 HD
ATOM     63  C   UNL A   1      39.099  31.614  33.666  1.00  0.00     0.074 A 
ATOM     64  C   UNL A   1      37.894  32.385  33.444  1.00  0.00     0.031 C 
ATOM     65  C   UNL A   1      39.763  31.559  34.847  1.00  0.00     0.031 A 
BRANCH  52  66
ATOM     66  C   UNL A   1      44.672  27.803  34.791  1.00  0.00    -0.014 A 
ATOM     67  C   UNL A   1      45.955  28.371  34.784  1.00  0.00     0.009 A 
ATOM     68  C   UNL A   1      44.452  26.639  35.545  1.00  0.00     0.009 A 
ATOM     69  C   UNL A   1      47.003  27.762  35.477  1.00  0.00     0.001 A 
ATOM     70  C   UNL A   1      45.492  26.052  36.267  1.00  0.00     0.001 A 
ATOM     71  C   UNL A   1      46.770  26.606  36.221  1.00  0.00     0.000 A 
ENDBRANCH  52  66
BRANCH  53  72
ATOM     72  C   UNL A   1      37.134  31.498  29.392  1.00  0.00    -0.014 A 
ATOM     73  C   UNL A   1      35.973  30.734  29.205  1.00  0.00     0.009 A 
ATOM     74  C   UNL A   1      37.203  32.776  28.811  1.00  0.00     0.009 A 
ATOM     75  C   UNL A   1      34.914  31.227  28.437  1.00  0.00     0.001 A 
ATOM     76  C   UNL A   1      36.130  33.281  28.073  1.00  0.00     0.001 A 
ATOM     77  C   UNL A   1      34.991  32.502  27.879  1.00  0.00     0.000 A 
ENDBRANCH  53  72
BRANCH  65  78
ATOM     78  C   UNL A   1      39.211  32.362  35.995  1.00  0.00    -0.014 A 
ATOM     79  C   UNL A   1      39.588  33.700  36.194  1.00  0.00     0.009 A 
ATOM     80  C   UNL A   1      38.250  31.794  36.847  1.00  0.00     0.009 A 
ATOM     81  C   UNL A   1      39.030  34.443  37.238  1.00  0.00     0.001 A 
ATOM     82  C   UNL A   1      37.670  32.549  37.868  1.00  0.00     0.001 A 
ATOM     83  C   UNL A   1      38.066  33.871  38.068  1.00  0.00     0.000 A 
ENDBRANCH  65  78
ENDBRANCH  39  40
ENDBRANCH  32  34
ENDBRANCH  31  32
ENDBRANCH  30  31
ENDBRANCH  29  30
ENDBRANCH  28  29
ENDBRANCH  27  28
ENDBRANCH  26  27
ENDBRANCH  25  26
ENDBRANCH   1  25
TORSDOF 25
ENDMDL
MODEL 2
REMARK VINA RESULT:      -8.7      4.329      9.470
REMARK SMILES C#CC[N@H+](CC(=O)OCCOCCOCCOCCOC(=O)c1ccc(-c2c3nc(c(-c4ccccc4)c4ccc([nH]4)c(-c4ccccc4)c4nc(c(-c5ccccc5)c5ccc2[nH]5)C=C4)C=C3)cc1)[C@H](C)c1cc(C)ccc1C
REMARK SMILES IDX 13 1 12 2 11 3 10 4 9 5 8 6 6 7 7 8 5 9 4 10 3 12 2 13 1 14
REMARK SMILES IDX 71 15 72 16 73 17 74 18 79 19 75 20 78 21 80 22 76 23 77 24
REMARK SMILES IDX 14 25 15 26 16 27 17 28 18 29 19 30 20 31 21 32 22 33 23 34
REMARK SMILES IDX 24 35 70 36 25 37 69 38 26 39 27 40 28 41 63 42 29 43 68 44
REMARK SMILES IDX 62 45 64 46 30 47 67 48 61 49 60 50 31 52 53 53 38 54 52 55
REMARK SMILES IDX 39 56 42 57 51 58 65 59 40 60 41 61 50 63 66 64 43 65 32 66
REMARK SMILES IDX 33 67 37 68 34 69 36 70 35 71 54 72 55 73 59 74 56 75 58 76
REMARK SMILES IDX 57 77 44 78 45 79 49 80 46 81 48 82 47 83
REMARK H PARENT 4 11 64 51 42 62
REMARK Flexibility Score: inf
ROOT
ATOM      1  C   UNL A   1      32.567  29.394  25.150  1.00  0.00     0.188 C 
ENDROOT
BRANCH   1   2
ATOM      2  C   UNL A   1      31.165  28.943  24.693  1.00  0.00     0.188 C 
BRANCH   2   3
ATOM      3  O   UNL A   1      31.016  27.614  24.240  1.00  0.00    -0.376 OA
BRANCH   3   4
ATOM      4  C   UNL A   1      29.897  26.816  24.585  1.00  0.00     0.202 C 
BRANCH   4   5
ATOM      5  C   UNL A   1      29.877  25.734  25.678  1.00  0.00     0.261 C 
BRANCH   5   6
ATOM      6  O   UNL A   1      30.601  24.537  25.399  1.00  0.00    -0.459 OA
BRANCH   6   7
ATOM      7  C   UNL A   1      31.668  24.287  26.193  1.00  0.00     0.361 C 
ATOM      8  O   UNL A   1      31.600  24.172  27.415  1.00  0.00    -0.245 OA
BRANCH   7   9
ATOM      9  C   UNL A   1      32.984  24.031  25.464  1.00  0.00     0.387 C 
BRANCH   9  10
ATOM     10  N   UNL A   1      33.203  24.577  24.073  1.00  0.00    -0.310 N 
ATOM     11  H   UNL A   1      32.349  24.811  23.566  1.00  0.00     0.349 HD
BRANCH  10  12
ATOM     12  C   UNL A   1      33.932  25.864  24.183  1.00  0.00     0.354 C 
BRANCH  12  13
ATOM     13  C   UNL A   1      33.842  26.761  23.022  1.00  0.00    -0.047 C 
ATOM     14  C   UNL A   1      33.810  27.456  22.037  1.00  0.00     0.010 C 
ENDBRANCH  12  13
ENDBRANCH  10  12
BRANCH  10  15
ATOM     15  C   UNL A   1      33.892  23.476  23.285  1.00  0.00     0.213 C 
ATOM     16  C   UNL A   1      33.074  23.021  22.058  1.00  0.00     0.081 C 
BRANCH  15  17
ATOM     17  C   UNL A   1      34.493  22.245  24.009  1.00  0.00     0.012 A 
ATOM     18  C   UNL A   1      33.730  21.102  24.288  1.00  0.00     0.013 A 
ATOM     19  C   UNL A   1      35.864  22.194  24.395  1.00  0.00    -0.042 A 
ATOM     20  C   UNL A   1      34.296  19.896  24.743  1.00  0.00    -0.051 A 
ATOM     21  C   UNL A   1      36.425  20.989  24.872  1.00  0.00     0.004 A 
ATOM     22  C   UNL A   1      36.817  23.364  24.349  1.00  0.00     0.045 C 
ATOM     23  C   UNL A   1      33.437  18.672  24.877  1.00  0.00     0.044 C 
ATOM     24  C   UNL A   1      35.657  19.841  25.012  1.00  0.00     0.004 A 
ENDBRANCH  15  17
ENDBRANCH  10  15
ENDBRANCH   9  10
ENDBRANCH   7   9
ENDBRANCH   6   7
ENDBRANCH   5   6
ENDBRANCH   4   5
ENDBRANCH   3   4
ENDBRANCH   2   3
ENDBRANCH   1   2
BRANCH   1  25
ATOM     25  O   UNL A   1      32.715  30.030  26.405  1.00  0.00    -0.377 OA
BRANCH  25  26
ATOM     26  C   UNL A   1      33.895  29.848  27.173  1.00  0.00     0.188 C 
BRANCH  26  27
ATOM     27  C   UNL A   1      34.697  31.041  27.738  1.00  0.00     0.188 C 
BRANCH  27  28
ATOM     28  O   UNL A   1      33.924  32.082  28.301  1.00  0.00    -0.376 OA
BRANCH  28  29
ATOM     29  C   UNL A   1      34.544  32.939  29.247  1.00  0.00     0.202 C 
BRANCH  29  30
ATOM     30  C   UNL A   1      34.955  32.358  30.610  1.00  0.00     0.261 C 
BRANCH  30  31
ATOM     31  O   UNL A   1      36.340  32.011  30.771  1.00  0.00    -0.460 OA
BRANCH  31  32
ATOM     32  C   UNL A   1      36.633  30.841  31.377  1.00  0.00     0.338 C 
ATOM     33  O   UNL A   1      35.951  30.231  32.179  1.00  0.00    -0.246 OA
BRANCH  32  34
ATOM     34  C   UNL A   1      37.871  30.322  30.754  1.00  0.00     0.060 A 
ATOM     35  C   UNL A   1      38.894  29.816  31.570  1.00  0.00     0.016 A 
ATOM     36  C   UNL A   1      38.004  30.304  29.365  1.00  0.00     0.016 A 
ATOM     37  C   UNL A   1      40.053  29.288  30.996  1.00  0.00     0.010 A 
ATOM     38  C   UNL A   1      39.179  29.807  28.795  1.00  0.00     0.010 A 
ATOM     39  C   UNL A   1      40.215  29.309  29.606  1.00  0.00    -0.014 A 
BRANCH  39  40
ATOM     40  C   UNL A   1      41.512  28.938  28.992  1.00  0.00     0.031 A 
ATOM     41  C   UNL A   1      41.717  27.523  28.532  1.00  0.00     0.074 A 
ATOM     42  C   UNL A   1      42.504  29.837  28.864  1.00  0.00     0.049 A 
ATOM     43  N   UNL A   1      42.799  26.943  28.083  1.00  0.00    -0.248 NA
ATOM     44  C   UNL A   1      40.538  26.644  28.594  1.00  0.00     0.031 C 
ATOM     45  C   UNL A   1      42.415  31.254  29.210  1.00  0.00     0.029 A 
ATOM     46  N   UNL A   1      43.794  29.676  28.421  1.00  0.00    -0.354 N 
ATOM     47  C   UNL A   1      42.438  25.626  27.823  1.00  0.00     0.074 A 
ATOM     48  C   UNL A   1      41.045  25.489  28.188  1.00  0.00     0.031 C 
ATOM     49  C   UNL A   1      43.606  31.832  28.978  1.00  0.00     0.029 A 
ATOM     50  C   UNL A   1      44.553  30.817  28.519  1.00  0.00     0.049 A 
ATOM     51  H   UNL A   1      44.141  28.827  28.065  1.00  0.00     0.167 HD
ATOM     52  C   UNL A   1      43.200  24.622  27.327  1.00  0.00     0.031 A 
ATOM     53  C   UNL A   1      45.869  31.009  28.303  1.00  0.00     0.031 A 
ATOM     54  C   UNL A   1      44.594  24.755  26.994  1.00  0.00     0.049 A 
ATOM     55  C   UNL A   1      46.727  29.846  27.873  1.00  0.00     0.074 A 
ATOM     56  C   UNL A   1      45.450  23.799  26.476  1.00  0.00     0.029 A 
ATOM     57  N   UNL A   1      45.339  25.911  27.165  1.00  0.00    -0.354 N 
ATOM     58  N   UNL A   1      46.375  28.612  27.603  1.00  0.00    -0.248 NA
ATOM     59  C   UNL A   1      48.168  30.104  27.726  1.00  0.00     0.031 C 
ATOM     60  C   UNL A   1      46.732  24.354  26.408  1.00  0.00     0.029 A 
ATOM     61  C   UNL A   1      46.659  25.678  26.810  1.00  0.00     0.049 A 
ATOM     62  H   UNL A   1      44.985  26.769  27.490  1.00  0.00     0.167 HD
ATOM     63  C   UNL A   1      47.543  27.954  27.235  1.00  0.00     0.074 A 
ATOM     64  C   UNL A   1      48.610  28.930  27.293  1.00  0.00     0.031 C 
ATOM     65  C   UNL A   1      47.714  26.656  26.882  1.00  0.00     0.031 A 
BRANCH  52  66
ATOM     66  C   UNL A   1      42.548  23.274  27.171  1.00  0.00    -0.014 A 
ATOM     67  C   UNL A   1      42.346  22.696  25.907  1.00  0.00     0.009 A 
ATOM     68  C   UNL A   1      42.147  22.562  28.313  1.00  0.00     0.009 A 
ATOM     69  C   UNL A   1      41.713  21.457  25.789  1.00  0.00     0.001 A 
ATOM     70  C   UNL A   1      41.547  21.307  28.193  1.00  0.00     0.001 A 
ATOM     71  C   UNL A   1      41.319  20.762  26.932  1.00  0.00     0.000 A 
ENDBRANCH  52  66
BRANCH  53  72
ATOM     72  C   UNL A   1      46.473  32.350  28.526  1.00  0.00    -0.014 A 
ATOM     73  C   UNL A   1      46.566  33.276  27.476  1.00  0.00     0.009 A 
ATOM     74  C   UNL A   1      46.975  32.709  29.788  1.00  0.00     0.009 A 
ATOM     75  C   UNL A   1      47.165  34.522  27.679  1.00  0.00     0.001 A 
ATOM     76  C   UNL A   1      47.544  33.967  29.997  1.00  0.00     0.001 A 
ATOM     77  C   UNL A   1      47.646  34.869  28.940  1.00  0.00     0.000 A 
ENDBRANCH  53  72
BRANCH  65  78
ATOM     78  C   UNL A   1      49.106  26.211  26.515  1.00  0.00    -0.014 A 
ATOM     79  C   UNL A   1      49.631  26.443  25.234  1.00  0.00     0.009 A 
ATOM     80  C   UNL A   1      49.927  25.614  27.487  1.00  0.00     0.009 A 
ATOM     81  C   UNL A   1      50.940  26.064  24.927  1.00  0.00     0.001 A 
ATOM     82  C   UNL A   1      51.245  25.268  27.187  1.00  0.00     0.001 A 
ATOM     83  C   UNL A   1      51.749  25.486  25.905  1.00  0.00     0.000 A 
ENDBRANCH  65  78
ENDBRANCH  39  40
ENDBRANCH  32  34
ENDBRANCH  31  32
ENDBRANCH  30  31
ENDBRANCH  29  30
ENDBRANCH  28  29
ENDBRANCH  27  28
ENDBRANCH  26  27
ENDBRANCH  25  26
ENDBRANCH   1  25
TORSDOF 25
ENDMDL
MODEL 3
REMARK VINA RESULT:      -8.7      1.680      6.284
REMARK SMILES C#CC[N@H+](CC(=O)OCCOCCOCCOCCOC(=O)c1ccc(-c2c3nc(c(-c4ccccc4)c4ccc([nH]4)c(-c4ccccc4)c4nc(c(-c5ccccc5)c5ccc2[nH]5)C=C4)C=C3)cc1)[C@H](C)c1cc(C)ccc1C
REMARK SMILES IDX 13 1 12 2 11 3 10 4 9 5 8 6 6 7 7 8 5 9 4 10 3 12 2 13 1 14
REMARK SMILES IDX 71 15 72 16 73 17 74 18 79 19 75 20 78 21 80 22 76 23 77 24
REMARK SMILES IDX 14 25 15 26 16 27 17 28 18 29 19 30 20 31 21 32 22 33 23 34
REMARK SMILES IDX 24 35 70 36 25 37 69 38 26 39 27 40 28 41 63 42 29 43 68 44
REMARK SMILES IDX 62 45 64 46 30 47 67 48 61 49 60 50 31 52 53 53 38 54 52 55
REMARK SMILES IDX 39 56 42 57 51 58 65 59 40 60 41 61 50 63 66 64 43 65 32 66
REMARK SMILES IDX 33 67 37 68 34 69 36 70 35 71 54 72 55 73 59 74 56 75 58 76
REMARK SMILES IDX 57 77 44 78 45 79 49 80 46 81 48 82 47 83
REMARK H PARENT 4 11 64 51 42 62
REMARK Flexibility Score: inf
ROOT
ATOM      1  C   UNL A   1      37.130  21.838  24.691  1.00  0.00     0.188 C 
ENDROOT
BRANCH   1   2
ATOM      2  C   UNL A   1      36.637  23.298  24.757  1.00  0.00     0.188 C 
BRANCH   2   3
ATOM      3  O   UNL A   1      36.169  23.780  26.000  1.00  0.00    -0.376 OA
BRANCH   3   4
ATOM      4  C   UNL A   1      34.800  23.740  26.362  1.00  0.00     0.202 C 
BRANCH   4   5
ATOM      5  C   UNL A   1      33.677  24.552  25.694  1.00  0.00     0.261 C 
BRANCH   5   6
ATOM      6  O   UNL A   1      32.348  24.277  26.135  1.00  0.00    -0.459 OA
BRANCH   6   7
ATOM      7  C   UNL A   1      31.512  25.339  26.205  1.00  0.00     0.361 C 
ATOM      8  O   UNL A   1      30.328  25.257  26.526  1.00  0.00    -0.245 OA
BRANCH   7   9
ATOM      9  C   UNL A   1      32.158  26.701  25.973  1.00  0.00     0.387 C 
BRANCH   9  10
ATOM     10  N   UNL A   1      31.300  27.932  25.805  1.00  0.00    -0.310 N 
ATOM     11  H   UNL A   1      30.385  27.881  26.254  1.00  0.00     0.349 HD
BRANCH  10  12
ATOM     12  C   UNL A   1      31.975  29.071  26.474  1.00  0.00     0.354 C 
BRANCH  12  13
ATOM     13  C   UNL A   1      33.392  28.877  26.815  1.00  0.00    -0.047 C 
ATOM     14  C   UNL A   1      34.561  28.685  27.038  1.00  0.00     0.010 C 
ENDBRANCH  12  13
ENDBRANCH  10  12
BRANCH  10  15
ATOM     15  C   UNL A   1      31.048  28.078  24.314  1.00  0.00     0.213 C 
ATOM     16  C   UNL A   1      32.296  28.559  23.543  1.00  0.00     0.081 C 
BRANCH  15  17
ATOM     17  C   UNL A   1      29.787  28.815  23.796  1.00  0.00     0.012 A 
ATOM     18  C   UNL A   1      29.774  30.199  23.575  1.00  0.00     0.013 A 
ATOM     19  C   UNL A   1      28.585  28.118  23.480  1.00  0.00    -0.042 A 
ATOM     20  C   UNL A   1      28.726  30.859  22.905  1.00  0.00    -0.051 A 
ATOM     21  C   UNL A   1      27.525  28.785  22.827  1.00  0.00     0.004 A 
ATOM     22  C   UNL A   1      28.320  26.667  23.798  1.00  0.00     0.045 C 
ATOM     23  C   UNL A   1      28.852  32.317  22.574  1.00  0.00     0.044 C 
ATOM     24  C   UNL A   1      27.608  30.135  22.511  1.00  0.00     0.004 A 
ENDBRANCH  15  17
ENDBRANCH  10  15
ENDBRANCH   9  10
ENDBRANCH   7   9
ENDBRANCH   6   7
ENDBRANCH   5   6
ENDBRANCH   4   5
ENDBRANCH   3   4
ENDBRANCH   2   3
ENDBRANCH   1   2
BRANCH   1  25
ATOM     25  O   UNL A   1      38.388  21.507  25.246  1.00  0.00    -0.377 OA
BRANCH  25  26
ATOM     26  C   UNL A   1      38.925  22.262  26.321  1.00  0.00     0.188 C 
BRANCH  26  27
ATOM     27  C   UNL A   1      40.444  22.346  26.585  1.00  0.00     0.188 C 
BRANCH  27  28
ATOM     28  O   UNL A   1      41.175  21.165  26.322  1.00  0.00    -0.376 OA
BRANCH  28  29
ATOM     29  C   UNL A   1      42.535  21.290  25.935  1.00  0.00     0.202 C 
BRANCH  29  30
ATOM     30  C   UNL A   1      43.016  22.632  25.360  1.00  0.00     0.261 C 
BRANCH  30  31
ATOM     31  O   UNL A   1      43.608  23.556  26.288  1.00  0.00    -0.460 OA
BRANCH  31  32
ATOM     32  C   UNL A   1      43.742  24.843  25.902  1.00  0.00     0.338 C 
ATOM     33  O   UNL A   1      44.097  25.256  24.814  1.00  0.00    -0.246 OA
BRANCH  32  34
ATOM     34  C   UNL A   1      43.203  25.687  26.992  1.00  0.00     0.060 A 
ATOM     35  C   UNL A   1      43.764  26.950  27.227  1.00  0.00     0.016 A 
ATOM     36  C   UNL A   1      42.122  25.243  27.753  1.00  0.00     0.016 A 
ATOM     37  C   UNL A   1      43.243  27.775  28.227  1.00  0.00     0.010 A 
ATOM     38  C   UNL A   1      41.623  26.056  28.775  1.00  0.00     0.010 A 
ATOM     39  C   UNL A   1      42.189  27.319  29.027  1.00  0.00    -0.014 A 
BRANCH  39  40
ATOM     40  C   UNL A   1      41.754  28.092  30.215  1.00  0.00     0.031 A 
ATOM     41  C   UNL A   1      40.586  29.027  30.081  1.00  0.00     0.074 A 
ATOM     42  C   UNL A   1      42.399  27.985  31.390  1.00  0.00     0.049 A 
ATOM     43  N   UNL A   1      40.108  29.889  30.941  1.00  0.00    -0.248 NA
ATOM     44  C   UNL A   1      39.864  28.985  28.799  1.00  0.00     0.031 C 
ATOM     45  C   UNL A   1      43.503  27.071  31.671  1.00  0.00     0.029 A 
ATOM     46  N   UNL A   1      42.221  28.674  32.565  1.00  0.00    -0.354 N 
ATOM     47  C   UNL A   1      39.040  30.504  30.300  1.00  0.00     0.074 A 
ATOM     48  C   UNL A   1      38.956  29.933  28.973  1.00  0.00     0.031 C 
ATOM     49  C   UNL A   1      43.915  27.265  32.936  1.00  0.00     0.029 A 
ATOM     50  C   UNL A   1      43.140  28.351  33.534  1.00  0.00     0.049 A 
ATOM     51  H   UNL A   1      41.504  29.335  32.699  1.00  0.00     0.167 HD
ATOM     52  C   UNL A   1      38.205  31.460  30.774  1.00  0.00     0.031 A 
ATOM     53  C   UNL A   1      43.356  28.898  34.746  1.00  0.00     0.031 A 
ATOM     54  C   UNL A   1      38.311  32.046  32.084  1.00  0.00     0.049 A 
ATOM     55  C   UNL A   1      42.495  30.048  35.205  1.00  0.00     0.074 A 
ATOM     56  C   UNL A   1      37.507  33.015  32.661  1.00  0.00     0.029 A 
ATOM     57  N   UNL A   1      39.291  31.733  33.012  1.00  0.00    -0.354 N 
ATOM     58  N   UNL A   1      41.470  30.605  34.606  1.00  0.00    -0.248 NA
ATOM     59  C   UNL A   1      42.829  30.649  36.505  1.00  0.00     0.031 C 
ATOM     60  C   UNL A   1      38.049  33.343  33.907  1.00  0.00     0.029 A 
ATOM     61  C   UNL A   1      39.144  32.526  34.140  1.00  0.00     0.049 A 
ATOM     62  H   UNL A   1      39.989  31.050  32.889  1.00  0.00     0.167 HD
ATOM     63  C   UNL A   1      41.025  31.605  35.464  1.00  0.00     0.074 A 
ATOM     64  C   UNL A   1      41.876  31.562  36.634  1.00  0.00     0.031 C 
ATOM     65  C   UNL A   1      40.003  32.481  35.295  1.00  0.00     0.031 A 
BRANCH  52  66
ATOM     66  C   UNL A   1      37.138  31.969  29.842  1.00  0.00    -0.014 A 
ATOM     67  C   UNL A   1      37.379  33.035  28.960  1.00  0.00     0.009 A 
ATOM     68  C   UNL A   1      35.875  31.357  29.833  1.00  0.00     0.009 A 
ATOM     69  C   UNL A   1      36.364  33.507  28.126  1.00  0.00     0.001 A 
ATOM     70  C   UNL A   1      34.873  31.806  28.972  1.00  0.00     0.001 A 
ATOM     71  C   UNL A   1      35.113  32.890  28.130  1.00  0.00     0.000 A 
ENDBRANCH  52  66
BRANCH  53  72
ATOM     72  C   UNL A   1      44.460  28.392  35.606  1.00  0.00    -0.014 A 
ATOM     73  C   UNL A   1      44.226  27.380  36.549  1.00  0.00     0.009 A 
ATOM     74  C   UNL A   1      45.754  28.930  35.499  1.00  0.00     0.009 A 
ATOM     75  C   UNL A   1      45.257  26.931  37.379  1.00  0.00     0.001 A 
ATOM     76  C   UNL A   1      46.790  28.456  36.307  1.00  0.00     0.001 A 
ATOM     77  C   UNL A   1      46.539  27.464  37.252  1.00  0.00     0.000 A 
ENDBRANCH  53  72
BRANCH  65  78
ATOM     78  C   UNL A   1      39.734  33.461  36.407  1.00  0.00    -0.014 A 
ATOM     79  C   UNL A   1      40.249  34.766  36.367  1.00  0.00     0.009 A 
ATOM     80  C   UNL A   1      38.897  33.093  37.473  1.00  0.00     0.009 A 
ATOM     81  C   UNL A   1      39.950  35.675  37.384  1.00  0.00     0.001 A 
ATOM     82  C   UNL A   1      38.573  34.014  38.471  1.00  0.00     0.001 A 
ATOM     83  C   UNL A   1      39.106  35.302  38.430  1.00  0.00     0.000 A 
ENDBRANCH  65  78
ENDBRANCH  39  40
ENDBRANCH  32  34
ENDBRANCH  31  32
ENDBRANCH  30  31
ENDBRANCH  29  30
ENDBRANCH  28  29
ENDBRANCH  27  28
ENDBRANCH  26  27
ENDBRANCH  25  26
ENDBRANCH   1  25
TORSDOF 25
ENDMDL
