MODEL 1
REMARK VINA RESULT:      -9.9      0.000      0.000
REMARK SMILES CC[C@@H](C)[C@H](NC(=O)[C@H]1CCCN(S(=O)(=O)c2ccccc2)C1)C(=O)OCCOCCOCCOCCOC(=O)c1ccc(-c2c3nc(c(-c4ccccc4)c4ccc([nH]4)c(-c4ccccc4)c4nc(c(-c5ccccc5)c5ccc2[nH]5)C=C4)C=C3)cc1
REMARK SMILES IDX 31 1 30 2 29 3 28 4 27 5 26 6 24 7 25 8 5 9 3 10 4 11 2 12
REMARK SMILES IDX 1 13 6 14 7 15 8 17 9 18 10 19 23 20 11 21 13 22 12 23 14 24
REMARK SMILES IDX 15 25 16 26 17 27 18 28 22 29 19 30 21 31 20 32 32 33 33 34
REMARK SMILES IDX 34 35 35 36 36 37 37 38 38 39 39 40 40 41 41 42 42 43 88 44
REMARK SMILES IDX 43 45 87 46 44 47 45 48 46 49 81 50 47 51 86 52 80 53 82 54
REMARK SMILES IDX 48 55 85 56 79 57 78 58 49 60 71 61 56 62 70 63 57 64 60 65
REMARK SMILES IDX 69 66 83 67 58 68 59 69 68 71 84 72 61 73 50 74 51 75 55 76
REMARK SMILES IDX 52 77 54 78 53 79 72 80 73 81 77 82 74 83 76 84 75 85 62 86
REMARK SMILES IDX 63 87 67 88 64 89 66 90 65 91
REMARK H PARENT 6 16 82 59 60 70
REMARK Flexibility Score: inf
ROOT
ATOM      1  C   UNL A   1      34.293  31.950  28.585  1.00  0.00     0.188 C 
ENDROOT
BRANCH   1   2
ATOM      2  C   UNL A   1      34.342  30.822  27.378  1.00  0.00     0.188 C 
BRANCH   2   3
ATOM      3  O   UNL A   1      33.228  30.150  26.433  1.00  0.00    -0.376 OA
BRANCH   3   4
ATOM      4  C   UNL A   1      31.588  30.227  25.509  1.00  0.00     0.202 C 
BRANCH   4   5
ATOM      5  C   UNL A   1      30.825  29.363  24.410  1.00  0.00     0.261 C 
BRANCH   5   6
ATOM      6  O   UNL A   1      30.923  27.966  24.124  1.00  0.00    -0.462 OA
BRANCH   6   7
ATOM      7  C   UNL A   1      31.376  27.188  23.126  1.00  0.00     0.328 C 
ATOM      8  O   UNL A   1      31.013  27.492  21.985  1.00  0.00    -0.250 OA
BRANCH   7   9
ATOM      9  C   UNL A   1      32.502  26.120  23.312  1.00  0.00     0.195 C 
BRANCH   9  10
ATOM     10  C   UNL A   1      33.697  26.867  24.000  1.00  0.00     0.019 C 
ATOM     11  C   UNL A   1      33.571  26.755  25.526  1.00  0.00     0.010 C 
BRANCH  10  12
ATOM     12  C   UNL A   1      33.900  28.319  23.514  1.00  0.00     0.002 C 
ATOM     13  C   UNL A   1      34.349  28.395  22.055  1.00  0.00     0.004 C 
ENDBRANCH  10  12
ENDBRANCH   9  10
BRANCH   9  14
ATOM     14  N   UNL A   1      32.941  25.329  22.164  1.00  0.00    -0.342 N 
ATOM     15  C   UNL A   1      32.804  24.028  21.829  1.00  0.00     0.225 C 
ATOM     16  H   UNL A   1      33.438  25.853  21.496  1.00  0.00     0.164 HD
ATOM     17  O   UNL A   1      33.426  23.662  20.826  1.00  0.00    -0.275 OA
BRANCH  15  18
ATOM     18  C   UNL A   1      31.945  23.019  22.606  1.00  0.00     0.094 C 
ATOM     19  C   UNL A   1      31.753  21.235  21.899  1.00  0.00     0.016 C 
ATOM     20  C   UNL A   1      32.390  23.171  24.544  1.00  0.00     0.116 C 
ATOM     21  C   UNL A   1      32.296  19.760  22.953  1.00  0.00     0.018 C 
ATOM     22  N   UNL A   1      32.689  21.605  25.593  1.00  0.00    -0.197 NA
ATOM     23  C   UNL A   1      32.776  19.951  24.762  1.00  0.00     0.102 C 
BRANCH  22  24
ATOM     24  S   UNL A   1      33.655  21.917  26.954  1.00  0.00     0.243 S 
ATOM     25  O   UNL A   1      33.130  23.126  27.565  1.00  0.00    -0.207 OA
ATOM     26  O   UNL A   1      33.727  20.698  27.728  1.00  0.00    -0.207 OA
BRANCH  24  27
ATOM     27  C   UNL A   1      35.302  22.279  26.380  1.00  0.00     0.082 A 
ATOM     28  C   UNL A   1      35.747  23.603  26.267  1.00  0.00     0.022 A 
ATOM     29  C   UNL A   1      36.046  21.241  25.804  1.00  0.00     0.022 A 
ATOM     30  C   UNL A   1      36.944  23.876  25.592  1.00  0.00     0.001 A 
ATOM     31  C   UNL A   1      37.238  21.521  25.135  1.00  0.00     0.001 A 
ATOM     32  C   UNL A   1      37.685  22.837  25.026  1.00  0.00     0.000 A 
ENDBRANCH  24  27
ENDBRANCH  22  24
ENDBRANCH  15  18
ENDBRANCH   9  14
ENDBRANCH   7   9
ENDBRANCH   6   7
ENDBRANCH   5   6
ENDBRANCH   4   5
ENDBRANCH   3   4
ENDBRANCH   2   3
ENDBRANCH   1   2
BRANCH   1  33
ATOM     33  O   UNL A   1      33.910  33.313  28.344  1.00  0.00    -0.377 OA
BRANCH  33  34
ATOM     34  C   UNL A   1      34.424  34.428  29.099  1.00  0.00     0.188 C 
BRANCH  34  35
ATOM     35  C   UNL A   1      33.796  34.920  30.427  1.00  0.00     0.188 C 
BRANCH  35  36
ATOM     36  O   UNL A   1      33.693  34.008  31.501  1.00  0.00    -0.376 OA
BRANCH  36  37
ATOM     37  C   UNL A   1      34.805  33.957  32.365  1.00  0.00     0.202 C 
BRANCH  37  38
ATOM     38  C   UNL A   1      35.240  32.568  32.873  1.00  0.00     0.261 C 
BRANCH  38  39
ATOM     39  O   UNL A   1      36.058  31.787  31.980  1.00  0.00    -0.460 OA
BRANCH  39  40
ATOM     40  C   UNL A   1      37.084  32.461  31.388  1.00  0.00     0.338 C 
ATOM     41  O   UNL A   1      37.280  33.663  31.416  1.00  0.00    -0.246 OA
BRANCH  40  42
ATOM     42  C   UNL A   1      38.053  31.495  30.805  1.00  0.00     0.060 A 
ATOM     43  C   UNL A   1      38.969  30.859  31.662  1.00  0.00     0.016 A 
ATOM     44  C   UNL A   1      38.105  31.255  29.431  1.00  0.00     0.016 A 
ATOM     45  C   UNL A   1      39.980  30.041  31.145  1.00  0.00     0.010 A 
ATOM     46  C   UNL A   1      39.140  30.465  28.909  1.00  0.00     0.010 A 
ATOM     47  C   UNL A   1      40.117  29.906  29.757  1.00  0.00    -0.014 A 
BRANCH  47  48
ATOM     48  C   UNL A   1      41.442  29.546  29.178  1.00  0.00     0.031 A 
ATOM     49  C   UNL A   1      41.599  28.126  28.690  1.00  0.00     0.074 A 
ATOM     50  C   UNL A   1      42.473  30.404  29.069  1.00  0.00     0.049 A 
ATOM     51  N   UNL A   1      42.675  27.474  28.332  1.00  0.00    -0.248 NA
ATOM     52  C   UNL A   1      40.360  27.331  28.608  1.00  0.00     0.031 C 
ATOM     53  C   UNL A   1      42.439  31.829  29.382  1.00  0.00     0.029 A 
ATOM     54  N   UNL A   1      43.770  30.177  28.665  1.00  0.00    -0.354 N 
ATOM     55  C   UNL A   1      42.244  26.188  28.023  1.00  0.00     0.074 A 
ATOM     56  C   UNL A   1      40.817  26.148  28.236  1.00  0.00     0.031 C 
ATOM     57  C   UNL A   1      43.666  32.349  29.175  1.00  0.00     0.029 A 
ATOM     58  C   UNL A   1      44.581  31.281  28.770  1.00  0.00     0.049 A 
ATOM     59  H   UNL A   1      44.086  29.307  28.333  1.00  0.00     0.167 HD
ATOM     60  C   UNL A   1      42.971  25.124  27.612  1.00  0.00     0.031 A 
ATOM     61  C   UNL A   1      45.916  31.401  28.601  1.00  0.00     0.031 A 
ATOM     62  C   UNL A   1      44.391  25.157  27.406  1.00  0.00     0.049 A 
ATOM     63  C   UNL A   1      46.729  30.178  28.246  1.00  0.00     0.074 A 
ATOM     64  C   UNL A   1      45.231  24.130  27.014  1.00  0.00     0.029 A 
ATOM     65  N   UNL A   1      45.178  26.283  27.576  1.00  0.00    -0.354 N 
ATOM     66  N   UNL A   1      46.324  28.953  28.005  1.00  0.00    -0.248 NA
ATOM     67  C   UNL A   1      48.187  30.353  28.153  1.00  0.00     0.031 C 
ATOM     68  C   UNL A   1      46.539  24.625  26.999  1.00  0.00     0.029 A 
ATOM     69  C   UNL A   1      46.502  25.973  27.320  1.00  0.00     0.049 A 
ATOM     70  H   UNL A   1      44.847  27.171  27.840  1.00  0.00     0.167 HD
ATOM     71  C   UNL A   1      47.470  28.223  27.704  1.00  0.00     0.074 A 
ATOM     72  C   UNL A   1      48.585  29.144  27.781  1.00  0.00     0.031 C 
ATOM     73  C   UNL A   1      47.592  26.909  27.392  1.00  0.00     0.031 A 
BRANCH  60  74
ATOM     74  C   UNL A   1      42.242  23.821  27.437  1.00  0.00    -0.014 A 
ATOM     75  C   UNL A   1      41.763  23.405  26.184  1.00  0.00     0.009 A 
ATOM     76  C   UNL A   1      42.022  23.002  28.555  1.00  0.00     0.009 A 
ATOM     77  C   UNL A   1      41.045  22.214  26.064  1.00  0.00     0.001 A 
ATOM     78  C   UNL A   1      41.331  21.796  28.427  1.00  0.00     0.001 A 
ATOM     79  C   UNL A   1      40.833  21.409  27.183  1.00  0.00     0.000 A 
ENDBRANCH  60  74
BRANCH  61  80
ATOM     80  C   UNL A   1      46.596  32.709  28.823  1.00  0.00    -0.014 A 
ATOM     81  C   UNL A   1      46.800  33.604  27.761  1.00  0.00     0.009 A 
ATOM     82  C   UNL A   1      47.095  33.047  30.091  1.00  0.00     0.009 A 
ATOM     83  C   UNL A   1      47.506  34.795  27.959  1.00  0.00     0.001 A 
ATOM     84  C   UNL A   1      47.773  34.252  30.294  1.00  0.00     0.001 A 
ATOM     85  C   UNL A   1      47.986  35.121  29.226  1.00  0.00     0.000 A 
ENDBRANCH  61  80
BRANCH  73  86
ATOM     86  C   UNL A   1      48.967  26.397  27.058  1.00  0.00    -0.014 A 
ATOM     87  C   UNL A   1      49.786  25.808  28.033  1.00  0.00     0.009 A 
ATOM     88  C   UNL A   1      49.418  26.452  25.730  1.00  0.00     0.009 A 
ATOM     89  C   UNL A   1      51.045  25.311  27.687  1.00  0.00     0.001 A 
ATOM     90  C   UNL A   1      50.664  25.929  25.383  1.00  0.00     0.001 A 
ATOM     91  C   UNL A   1      51.480  25.367  26.364  1.00  0.00     0.000 A 
ENDBRANCH  73  86
ENDBRANCH  47  48
ENDBRANCH  40  42
ENDBRANCH  39  40
ENDBRANCH  38  39
ENDBRANCH  37  38
ENDBRANCH  36  37
ENDBRANCH  35  36
ENDBRANCH  34  35
ENDBRANCH  33  34
ENDBRANCH   1  33
TORSDOF 26
ENDMDL
MODEL 2
REMARK VINA RESULT:      -9.6      3.387      4.793
REMARK SMILES CC[C@@H](C)[C@H](NC(=O)[C@H]1CCCN(S(=O)(=O)c2ccccc2)C1)C(=O)OCCOCCOCCOCCOC(=O)c1ccc(-c2c3nc(c(-c4ccccc4)c4ccc([nH]4)c(-c4ccccc4)c4nc(c(-c5ccccc5)c5ccc2[nH]5)C=C4)C=C3)cc1
REMARK SMILES IDX 31 1 30 2 29 3 28 4 27 5 26 6 24 7 25 8 5 9 3 10 4 11 2 12
REMARK SMILES IDX 1 13 6 14 7 15 8 17 9 18 10 19 23 20 11 21 13 22 12 23 14 24
REMARK SMILES IDX 15 25 16 26 17 27 18 28 22 29 19 30 21 31 20 32 32 33 33 34
REMARK SMILES IDX 34 35 35 36 36 37 37 38 38 39 39 40 40 41 41 42 42 43 88 44
REMARK SMILES IDX 43 45 87 46 44 47 45 48 46 49 81 50 47 51 86 52 80 53 82 54
REMARK SMILES IDX 48 55 85 56 79 57 78 58 49 60 71 61 56 62 70 63 57 64 60 65
REMARK SMILES IDX 69 66 83 67 58 68 59 69 68 71 84 72 61 73 50 74 51 75 55 76
REMARK SMILES IDX 52 77 54 78 53 79 72 80 73 81 77 82 74 83 76 84 75 85 62 86
REMARK SMILES IDX 63 87 67 88 64 89 66 90 65 91
REMARK H PARENT 6 16 82 59 60 70
REMARK Flexibility Score: inf
ROOT
ATOM      1  C   UNL A   1      34.036  31.678  28.275  1.00  0.00     0.188 C 
ENDROOT
BRANCH   1   2
ATOM      2  C   UNL A   1      33.871  30.422  27.213  1.00  0.00     0.188 C 
BRANCH   2   3
ATOM      3  O   UNL A   1      32.731  29.989  26.166  1.00  0.00    -0.376 OA
BRANCH   3   4
ATOM      4  C   UNL A   1      31.296  30.417  25.022  1.00  0.00     0.202 C 
BRANCH   4   5
ATOM      5  C   UNL A   1      30.230  29.628  24.141  1.00  0.00     0.261 C 
BRANCH   5   6
ATOM      6  O   UNL A   1      30.193  28.246  23.782  1.00  0.00    -0.462 OA
BRANCH   6   7
ATOM      7  C   UNL A   1      30.802  27.434  22.900  1.00  0.00     0.328 C 
ATOM      8  O   UNL A   1      30.630  27.694  21.705  1.00  0.00    -0.250 OA
BRANCH   7   9
ATOM      9  C   UNL A   1      31.881  26.379  23.306  1.00  0.00     0.195 C 
BRANCH   9  10
ATOM     10  C   UNL A   1      32.886  27.129  24.247  1.00  0.00     0.019 C 
ATOM     11  C   UNL A   1      33.915  27.896  23.405  1.00  0.00     0.010 C 
BRANCH  10  12
ATOM     12  C   UNL A   1      33.535  26.231  25.323  1.00  0.00     0.002 C 
ATOM     13  C   UNL A   1      34.386  27.022  26.316  1.00  0.00     0.004 C 
ENDBRANCH  10  12
ENDBRANCH   9  10
BRANCH   9  14
ATOM     14  N   UNL A   1      32.570  25.617  22.266  1.00  0.00    -0.342 N 
ATOM     15  C   UNL A   1      32.648  24.299  21.981  1.00  0.00     0.225 C 
ATOM     16  H   UNL A   1      33.084  26.182  21.645  1.00  0.00     0.164 HD
ATOM     17  O   UNL A   1      33.443  23.989  21.088  1.00  0.00    -0.275 OA
BRANCH  15  18
ATOM     18  C   UNL A   1      31.826  23.210  22.687  1.00  0.00     0.094 C 
ATOM     19  C   UNL A   1      31.671  21.483  21.844  1.00  0.00     0.016 C 
ATOM     20  C   UNL A   1      32.295  23.222  24.625  1.00  0.00     0.116 C 
ATOM     21  C   UNL A   1      32.266  19.945  22.771  1.00  0.00     0.018 C 
ATOM     22  N   UNL A   1      32.650  21.587  25.544  1.00  0.00    -0.197 NA
ATOM     23  C   UNL A   1      32.766  20.006  24.584  1.00  0.00     0.102 C 
BRANCH  22  24
ATOM     24  S   UNL A   1      33.627  21.817  26.913  1.00  0.00     0.243 S 
ATOM     25  O   UNL A   1      33.122  23.001  27.586  1.00  0.00    -0.207 OA
ATOM     26  O   UNL A   1      33.685  20.560  27.625  1.00  0.00    -0.207 OA
BRANCH  24  27
ATOM     27  C   UNL A   1      35.276  22.184  26.348  1.00  0.00     0.082 A 
ATOM     28  C   UNL A   1      35.758  23.500  26.351  1.00  0.00     0.022 A 
ATOM     29  C   UNL A   1      35.981  21.184  25.667  1.00  0.00     0.022 A 
ATOM     30  C   UNL A   1      36.953  23.801  25.684  1.00  0.00     0.001 A 
ATOM     31  C   UNL A   1      37.172  21.491  25.009  1.00  0.00     0.001 A 
ATOM     32  C   UNL A   1      37.655  22.798  25.013  1.00  0.00     0.000 A 
ENDBRANCH  24  27
ENDBRANCH  22  24
ENDBRANCH  15  18
ENDBRANCH   9  14
ENDBRANCH   7   9
ENDBRANCH   6   7
ENDBRANCH   5   6
ENDBRANCH   4   5
ENDBRANCH   3   4
ENDBRANCH   2   3
ENDBRANCH   1   2
BRANCH   1  33
ATOM     33  O   UNL A   1      34.097  33.045  27.840  1.00  0.00    -0.377 OA
BRANCH  33  34
ATOM     34  C   UNL A   1      34.317  34.155  28.734  1.00  0.00     0.188 C 
BRANCH  34  35
ATOM     35  C   UNL A   1      33.336  35.346  28.871  1.00  0.00     0.188 C 
BRANCH  35  36
ATOM     36  O   UNL A   1      32.491  35.395  30.002  1.00  0.00    -0.376 OA
BRANCH  36  37
ATOM     37  C   UNL A   1      32.934  36.215  31.059  1.00  0.00     0.202 C 
BRANCH  37  38
ATOM     38  C   UNL A   1      32.988  35.587  32.465  1.00  0.00     0.261 C 
BRANCH  38  39
ATOM     39  O   UNL A   1      34.223  34.939  32.829  1.00  0.00    -0.460 OA
BRANCH  39  40
ATOM     40  C   UNL A   1      34.122  33.612  33.121  1.00  0.00     0.338 C 
ATOM     41  O   UNL A   1      33.095  32.975  33.277  1.00  0.00    -0.246 OA
BRANCH  40  42
ATOM     42  C   UNL A   1      35.468  32.982  33.079  1.00  0.00     0.060 A 
ATOM     43  C   UNL A   1      36.482  33.501  33.905  1.00  0.00     0.016 A 
ATOM     44  C   UNL A   1      35.755  31.933  32.203  1.00  0.00     0.016 A 
ATOM     45  C   UNL A   1      37.794  33.024  33.809  1.00  0.00     0.010 A 
ATOM     46  C   UNL A   1      37.077  31.482  32.080  1.00  0.00     0.010 A 
ATOM     47  C   UNL A   1      38.112  32.068  32.836  1.00  0.00    -0.014 A 
BRANCH  47  48
ATOM     48  C   UNL A   1      39.510  31.964  32.331  1.00  0.00     0.031 A 
ATOM     49  C   UNL A   1      40.343  30.834  32.887  1.00  0.00     0.074 A 
ATOM     50  C   UNL A   1      40.048  32.804  31.428  1.00  0.00     0.049 A 
ATOM     51  N   UNL A   1      41.629  30.613  32.794  1.00  0.00    -0.248 NA
ATOM     52  C   UNL A   1      39.614  29.818  33.666  1.00  0.00     0.031 C 
ATOM     53  C   UNL A   1      39.340  33.862  30.714  1.00  0.00     0.029 A 
ATOM     54  N   UNL A   1      41.342  32.892  30.966  1.00  0.00    -0.354 N 
ATOM     55  C   UNL A   1      41.862  29.459  33.535  1.00  0.00     0.074 A 
ATOM     56  C   UNL A   1      40.593  29.027  34.071  1.00  0.00     0.031 C 
ATOM     57  C   UNL A   1      40.214  34.507  29.916  1.00  0.00     0.029 A 
ATOM     58  C   UNL A   1      41.550  33.943  30.105  1.00  0.00     0.049 A 
ATOM     59  H   UNL A   1      42.051  32.261  31.227  1.00  0.00     0.167 HD
ATOM     60  C   UNL A   1      43.031  28.818  33.765  1.00  0.00     0.031 A 
ATOM     61  C   UNL A   1      42.696  34.417  29.571  1.00  0.00     0.031 A 
ATOM     62  C   UNL A   1      44.295  29.248  33.241  1.00  0.00     0.049 A 
ATOM     63  C   UNL A   1      44.007  33.754  29.925  1.00  0.00     0.074 A 
ATOM     64  C   UNL A   1      45.545  28.687  33.432  1.00  0.00     0.029 A 
ATOM     65  N   UNL A   1      44.466  30.348  32.418  1.00  0.00    -0.354 N 
ATOM     66  N   UNL A   1      44.228  32.694  30.666  1.00  0.00    -0.248 NA
ATOM     67  C   UNL A   1      45.229  34.362  29.376  1.00  0.00     0.031 C 
ATOM     68  C   UNL A   1      46.482  29.483  32.764  1.00  0.00     0.029 A 
ATOM     69  C   UNL A   1      45.805  30.500  32.108  1.00  0.00     0.049 A 
ATOM     70  H   UNL A   1      43.743  30.935  32.100  1.00  0.00     0.167 HD
ATOM     71  C   UNL A   1      45.605  32.494  30.648  1.00  0.00     0.074 A 
ATOM     72  C   UNL A   1      46.168  33.534  29.813  1.00  0.00     0.031 C 
ATOM     73  C   UNL A   1      46.340  31.537  31.266  1.00  0.00     0.031 A 
BRANCH  60  74
ATOM     74  C   UNL A   1      42.992  27.631  34.687  1.00  0.00    -0.014 A 
ATOM     75  C   UNL A   1      42.829  27.778  36.074  1.00  0.00     0.009 A 
ATOM     76  C   UNL A   1      43.134  26.342  34.153  1.00  0.00     0.009 A 
ATOM     77  C   UNL A   1      42.849  26.659  36.909  1.00  0.00     0.001 A 
ATOM     78  C   UNL A   1      43.122  25.222  34.985  1.00  0.00     0.001 A 
ATOM     79  C   UNL A   1      42.991  25.383  36.364  1.00  0.00     0.000 A 
ENDBRANCH  60  74
BRANCH  61  80
ATOM     80  C   UNL A   1      42.684  35.621  28.691  1.00  0.00    -0.014 A 
ATOM     81  C   UNL A   1      42.515  35.497  27.303  1.00  0.00     0.009 A 
ATOM     82  C   UNL A   1      42.895  36.900  29.231  1.00  0.00     0.009 A 
ATOM     83  C   UNL A   1      42.581  36.621  26.475  1.00  0.00     0.001 A 
ATOM     84  C   UNL A   1      42.929  38.026  28.404  1.00  0.00     0.001 A 
ATOM     85  C   UNL A   1      42.782  37.886  27.026  1.00  0.00     0.000 A 
ENDBRANCH  61  80
BRANCH  73  86
ATOM     86  C   UNL A   1      47.825  31.533  31.022  1.00  0.00    -0.014 A 
ATOM     87  C   UNL A   1      48.710  32.197  31.885  1.00  0.00     0.009 A 
ATOM     88  C   UNL A   1      48.345  30.798  29.945  1.00  0.00     0.009 A 
ATOM     89  C   UNL A   1      50.087  32.149  31.653  1.00  0.00     0.001 A 
ATOM     90  C   UNL A   1      49.722  30.729  29.734  1.00  0.00     0.001 A 
ATOM     91  C   UNL A   1      50.591  31.412  30.583  1.00  0.00     0.000 A 
ENDBRANCH  73  86
ENDBRANCH  47  48
ENDBRANCH  40  42
ENDBRANCH  39  40
ENDBRANCH  38  39
ENDBRANCH  37  38
ENDBRANCH  36  37
ENDBRANCH  35  36
ENDBRANCH  34  35
ENDBRANCH  33  34
ENDBRANCH   1  33
TORSDOF 26
ENDMDL
MODEL 3
REMARK VINA RESULT:      -9.2      3.611      9.103
REMARK SMILES CC[C@@H](C)[C@H](NC(=O)[C@H]1CCCN(S(=O)(=O)c2ccccc2)C1)C(=O)OCCOCCOCCOCCOC(=O)c1ccc(-c2c3nc(c(-c4ccccc4)c4ccc([nH]4)c(-c4ccccc4)c4nc(c(-c5ccccc5)c5ccc2[nH]5)C=C4)C=C3)cc1
REMARK SMILES IDX 31 1 30 2 29 3 28 4 27 5 26 6 24 7 25 8 5 9 3 10 4 11 2 12
REMARK SMILES IDX 1 13 6 14 7 15 8 17 9 18 10 19 23 20 11 21 13 22 12 23 14 24
REMARK SMILES IDX 15 25 16 26 17 27 18 28 22 29 19 30 21 31 20 32 32 33 33 34
REMARK SMILES IDX 34 35 35 36 36 37 37 38 38 39 39 40 40 41 41 42 42 43 88 44
REMARK SMILES IDX 43 45 87 46 44 47 45 48 46 49 81 50 47 51 86 52 80 53 82 54
REMARK SMILES IDX 48 55 85 56 79 57 78 58 49 60 71 61 56 62 70 63 57 64 60 65
REMARK SMILES IDX 69 66 83 67 58 68 59 69 68 71 84 72 61 73 50 74 51 75 55 76
REMARK SMILES IDX 52 77 54 78 53 79 72 80 73 81 77 82 74 83 76 84 75 85 62 86
REMARK SMILES IDX 63 87 67 88 64 89 66 90 65 91
REMARK H PARENT 6 16 82 59 60 70
REMARK Flexibility Score: inf
ROOT
ATOM      1  C   UNL A   1      33.894  25.942  24.488  1.00  0.00     0.188 C 
ENDROOT
BRANCH   1   2
ATOM      2  C   UNL A   1      32.722  27.099  24.629  1.00  0.00     0.188 C 
BRANCH   2   3
ATOM      3  O   UNL A   1      32.747  28.690  24.861  1.00  0.00    -0.376 OA
BRANCH   3   4
ATOM      4  C   UNL A   1      32.531  30.197  25.970  1.00  0.00     0.202 C 
BRANCH   4   5
ATOM      5  C   UNL A   1      33.185  30.768  27.305  1.00  0.00     0.261 C 
BRANCH   5   6
ATOM      6  O   UNL A   1      33.815  32.029  27.542  1.00  0.00    -0.462 OA
BRANCH   6   7
ATOM      7  C   UNL A   1      33.476  33.227  28.048  1.00  0.00     0.328 C 
ATOM      8  O   UNL A   1      32.362  33.659  27.736  1.00  0.00    -0.250 OA
BRANCH   7   9
ATOM      9  C   UNL A   1      34.289  33.947  29.172  1.00  0.00     0.195 C 
BRANCH   9  10
ATOM     10  C   UNL A   1      33.618  35.351  29.359  1.00  0.00     0.019 C 
ATOM     11  C   UNL A   1      34.122  36.318  28.278  1.00  0.00     0.010 C 
BRANCH  10  12
ATOM     12  C   UNL A   1      33.740  35.926  30.787  1.00  0.00     0.002 C 
ATOM     13  C   UNL A   1      32.583  35.503  31.693  1.00  0.00     0.004 C 
ENDBRANCH  10  12
ENDBRANCH   9  10
BRANCH   9  14
ATOM     14  N   UNL A   1      35.743  34.047  29.057  1.00  0.00    -0.342 N 
ATOM     15  C   UNL A   1      36.750  33.170  29.257  1.00  0.00     0.225 C 
ATOM     16  H   UNL A   1      36.051  34.938  28.776  1.00  0.00     0.164 HD
ATOM     17  O   UNL A   1      37.891  33.639  29.193  1.00  0.00    -0.275 OA
BRANCH  15  18
ATOM     18  C   UNL A   1      36.552  31.675  29.548  1.00  0.00     0.094 C 
ATOM     19  C   UNL A   1      36.708  30.424  28.089  1.00  0.00     0.016 C 
ATOM     20  C   UNL A   1      37.534  31.222  31.224  1.00  0.00     0.116 C 
ATOM     21  C   UNL A   1      37.997  29.042  28.190  1.00  0.00     0.018 C 
ATOM     22  N   UNL A   1      38.632  29.664  31.310  1.00  0.00    -0.197 NA
ATOM     23  C   UNL A   1      38.954  28.687  29.769  1.00  0.00     0.102 C 
BRANCH  22  24
ATOM     24  S   UNL A   1      39.840  29.793  32.496  1.00  0.00     0.243 S 
ATOM     25  O   UNL A   1      39.845  31.180  32.931  1.00  0.00    -0.207 OA
ATOM     26  O   UNL A   1      39.618  28.742  33.464  1.00  0.00    -0.207 OA
BRANCH  24  27
ATOM     27  C   UNL A   1      41.408  29.471  31.713  1.00  0.00     0.082 A 
ATOM     28  C   UNL A   1      42.282  28.506  32.232  1.00  0.00     0.022 A 
ATOM     29  C   UNL A   1      41.857  30.368  30.737  1.00  0.00     0.022 A 
ATOM     30  C   UNL A   1      43.598  28.438  31.754  1.00  0.00     0.001 A 
ATOM     31  C   UNL A   1      43.168  30.291  30.265  1.00  0.00     0.001 A 
ATOM     32  C   UNL A   1      44.038  29.330  30.776  1.00  0.00     0.000 A 
ENDBRANCH  24  27
ENDBRANCH  22  24
ENDBRANCH  15  18
ENDBRANCH   9  14
ENDBRANCH   7   9
ENDBRANCH   6   7
ENDBRANCH   5   6
ENDBRANCH   4   5
ENDBRANCH   3   4
ENDBRANCH   2   3
ENDBRANCH   1   2
BRANCH   1  33
ATOM     33  O   UNL A   1      33.963  25.056  23.360  1.00  0.00    -0.377 OA
BRANCH  33  34
ATOM     34  C   UNL A   1      34.584  23.755  23.408  1.00  0.00     0.188 C 
BRANCH  34  35
ATOM     35  C   UNL A   1      35.246  23.174  24.682  1.00  0.00     0.188 C 
BRANCH  35  36
ATOM     36  O   UNL A   1      35.388  21.773  24.786  1.00  0.00    -0.376 OA
BRANCH  36  37
ATOM     37  C   UNL A   1      36.535  21.326  25.471  1.00  0.00     0.202 C 
BRANCH  37  38
ATOM     38  C   UNL A   1      37.841  22.113  25.249  1.00  0.00     0.261 C 
BRANCH  38  39
ATOM     39  O   UNL A   1      38.788  22.104  26.335  1.00  0.00    -0.460 OA
BRANCH  39  40
ATOM     40  C   UNL A   1      39.828  21.235  26.195  1.00  0.00     0.338 C 
ATOM     41  O   UNL A   1      39.756  20.039  25.976  1.00  0.00    -0.246 OA
BRANCH  40  42
ATOM     42  C   UNL A   1      41.114  21.983  26.196  1.00  0.00     0.060 A 
ATOM     43  C   UNL A   1      42.317  21.256  26.159  1.00  0.00     0.016 A 
ATOM     44  C   UNL A   1      41.146  23.375  26.290  1.00  0.00     0.016 A 
ATOM     45  C   UNL A   1      43.549  21.908  26.285  1.00  0.00     0.010 A 
ATOM     46  C   UNL A   1      42.378  24.026  26.454  1.00  0.00     0.010 A 
ATOM     47  C   UNL A   1      43.579  23.290  26.515  1.00  0.00    -0.014 A 
BRANCH  47  48
ATOM     48  C   UNL A   1      44.755  23.900  27.196  1.00  0.00     0.031 A 
ATOM     49  C   UNL A   1      44.689  23.985  28.702  1.00  0.00     0.074 A 
ATOM     50  C   UNL A   1      45.842  24.361  26.552  1.00  0.00     0.049 A 
ATOM     51  N   UNL A   1      45.454  24.635  29.542  1.00  0.00    -0.248 NA
ATOM     52  C   UNL A   1      43.595  23.235  29.344  1.00  0.00     0.031 C 
ATOM     53  C   UNL A   1      46.105  24.241  25.121  1.00  0.00     0.029 A 
ATOM     54  N   UNL A   1      46.935  25.041  27.040  1.00  0.00    -0.354 N 
ATOM     55  C   UNL A   1      44.906  24.401  30.799  1.00  0.00     0.074 A 
ATOM     56  C   UNL A   1      43.751  23.557  30.617  1.00  0.00     0.031 C 
ATOM     57  C   UNL A   1      47.277  24.845  24.842  1.00  0.00     0.029 A 
ATOM     58  C   UNL A   1      47.817  25.441  26.065  1.00  0.00     0.049 A 
ATOM     59  H   UNL A   1      47.071  25.224  27.997  1.00  0.00     0.167 HD
ATOM     60  C   UNL A   1      45.318  24.861  32.004  1.00  0.00     0.031 A 
ATOM     61  C   UNL A   1      48.907  26.233  26.148  1.00  0.00     0.031 A 
ATOM     62  C   UNL A   1      46.462  25.706  32.189  1.00  0.00     0.049 A 
ATOM     63  C   UNL A   1      49.291  26.825  27.485  1.00  0.00     0.074 A 
ATOM     64  C   UNL A   1      46.954  26.249  33.362  1.00  0.00     0.029 A 
ATOM     65  N   UNL A   1      47.295  26.129  31.166  1.00  0.00    -0.354 N 
ATOM     66  N   UNL A   1      48.741  26.643  28.662  1.00  0.00    -0.248 NA
ATOM     67  C   UNL A   1      50.441  27.743  27.499  1.00  0.00     0.031 C 
ATOM     68  C   UNL A   1      48.057  27.046  33.039  1.00  0.00     0.029 A 
ATOM     69  C   UNL A   1      48.287  26.946  31.676  1.00  0.00     0.049 A 
ATOM     70  H   UNL A   1      47.196  25.884  30.218  1.00  0.00     0.167 HD
ATOM     71  C   UNL A   1      49.493  27.398  29.557  1.00  0.00     0.074 A 
ATOM     72  C   UNL A   1      50.546  28.030  28.789  1.00  0.00     0.031 C 
ATOM     73  C   UNL A   1      49.330  27.555  30.894  1.00  0.00     0.031 A 
BRANCH  60  74
ATOM     74  C   UNL A   1      44.470  24.514  33.196  1.00  0.00    -0.014 A 
ATOM     75  C   UNL A   1      43.597  25.447  33.777  1.00  0.00     0.009 A 
ATOM     76  C   UNL A   1      44.559  23.229  33.751  1.00  0.00     0.009 A 
ATOM     77  C   UNL A   1      42.861  25.110  34.915  1.00  0.00     0.001 A 
ATOM     78  C   UNL A   1      43.800  22.884  34.870  1.00  0.00     0.001 A 
ATOM     79  C   UNL A   1      42.960  23.829  35.458  1.00  0.00     0.000 A 
ENDBRANCH  60  74
BRANCH  61  80
ATOM     80  C   UNL A   1      49.693  26.577  24.929  1.00  0.00    -0.014 A 
ATOM     81  C   UNL A   1      51.077  26.348  24.875  1.00  0.00     0.009 A 
ATOM     82  C   UNL A   1      49.070  27.186  23.827  1.00  0.00     0.009 A 
ATOM     83  C   UNL A   1      51.821  26.742  23.759  1.00  0.00     0.001 A 
ATOM     84  C   UNL A   1      49.811  27.551  22.700  1.00  0.00     0.001 A 
ATOM     85  C   UNL A   1      51.187  27.337  22.670  1.00  0.00     0.000 A 
ENDBRANCH  61  80
BRANCH  73  86
ATOM     86  C   UNL A   1      50.338  28.400  31.624  1.00  0.00    -0.014 A 
ATOM     87  C   UNL A   1      51.537  27.855  32.107  1.00  0.00     0.009 A 
ATOM     88  C   UNL A   1      50.107  29.777  31.771  1.00  0.00     0.009 A 
ATOM     89  C   UNL A   1      52.471  28.670  32.753  1.00  0.00     0.001 A 
ATOM     90  C   UNL A   1      51.054  30.592  32.390  1.00  0.00     0.001 A 
ATOM     91  C   UNL A   1      52.231  30.036  32.889  1.00  0.00     0.000 A 
ENDBRANCH  73  86
ENDBRANCH  47  48
ENDBRANCH  40  42
ENDBRANCH  39  40
ENDBRANCH  38  39
ENDBRANCH  37  38
ENDBRANCH  36  37
ENDBRANCH  35  36
ENDBRANCH  34  35
ENDBRANCH  33  34
ENDBRANCH   1  33
TORSDOF 26
ENDMDL
