MODEL 1
REMARK VINA RESULT:      -9.5      0.000      0.000
REMARK SMILES Nc1nc2ccccc2nc1N1CCC(C(=O)OCCOCCOCCOCCOC(=O)c2ccc(-c3c4nc(c(-c5ccccc5)c5ccc([nH]5)c(-c5ccccc5)c5nc(c(-c6ccccc6)c6ccc3[nH]6)C=C5)C=C4)cc2)CC1
REMARK SMILES IDX 24 1 23 2 22 3 21 4 20 5 19 6 18 7 16 8 17 9 15 10 12 11
REMARK SMILES IDX 13 12 82 13 14 14 81 15 11 16 2 17 3 18 4 19 10 20 5 21 9 22
REMARK SMILES IDX 6 23 8 24 7 25 1 26 25 29 26 30 27 31 28 32 29 33 30 34
REMARK SMILES IDX 31 35 32 36 33 37 34 38 80 39 35 40 79 41 36 42 37 43 38 44
REMARK SMILES IDX 73 45 39 46 78 47 72 48 74 49 40 50 77 51 71 52 70 53 41 55
REMARK SMILES IDX 63 56 48 57 62 58 49 59 52 60 61 61 75 62 50 63 51 64 60 66
REMARK SMILES IDX 76 67 53 68 42 69 43 70 47 71 44 72 46 73 45 74 64 75 65 76
REMARK SMILES IDX 69 77 66 78 68 79 67 80 54 81 55 82 59 83 56 84 58 85 57 86
REMARK H PARENT 1 27 1 28 74 54 52 65
REMARK Flexibility Score: inf
ROOT
ATOM      1  O   UNL A   1      33.632  27.716  25.333  1.00  0.00    -0.377 OA
ENDROOT
BRANCH   1   2
ATOM      2  C   UNL A   1      33.668  26.434  25.929  1.00  0.00     0.188 C 
BRANCH   2   3
ATOM      3  C   UNL A   1      34.430  25.372  25.126  1.00  0.00     0.188 C 
BRANCH   3   4
ATOM      4  O   UNL A   1      35.146  24.341  25.789  1.00  0.00    -0.376 OA
BRANCH   4   5
ATOM      5  C   UNL A   1      36.365  23.842  25.254  1.00  0.00     0.202 C 
BRANCH   5   6
ATOM      6  C   UNL A   1      36.709  22.345  25.319  1.00  0.00     0.261 C 
BRANCH   6   7
ATOM      7  O   UNL A   1      35.780  21.517  26.043  1.00  0.00    -0.463 OA
BRANCH   7   8
ATOM      8  C   UNL A   1      35.014  20.701  25.286  1.00  0.00     0.309 C 
ATOM      9  O   UNL A   1      35.420  19.681  24.736  1.00  0.00    -0.252 OA
BRANCH   8  10
ATOM     10  C   UNL A   1      33.577  21.147  25.124  1.00  0.00     0.103 C 
ATOM     11  N   UNL A   1      31.260  22.715  24.549  1.00  0.00    -0.353 N 
ATOM     12  C   UNL A   1      31.424  22.145  25.878  1.00  0.00     0.119 C 
ATOM     13  C   UNL A   1      31.999  22.121  23.436  1.00  0.00     0.119 C 
ATOM     14  C   UNL A   1      32.902  21.971  26.225  1.00  0.00     0.037 C 
ATOM     15  C   UNL A   1      33.465  21.922  23.809  1.00  0.00     0.037 C 
BRANCH  11  16
ATOM     16  C   UNL A   1      30.957  24.073  24.466  1.00  0.00     0.172 A 
ATOM     17  C   UNL A   1      30.278  24.733  25.525  1.00  0.00     0.167 A 
ATOM     18  N   UNL A   1      29.975  26.043  25.486  1.00  0.00    -0.226 NA
ATOM     19  C   UNL A   1      30.379  26.717  24.397  1.00  0.00     0.091 A 
ATOM     20  N   UNL A   1      31.376  24.768  23.385  1.00  0.00    -0.225 NA
ATOM     21  C   UNL A   1      30.106  28.075  24.304  1.00  0.00     0.031 A 
ATOM     22  C   UNL A   1      31.081  26.081  23.344  1.00  0.00     0.091 A 
ATOM     23  C   UNL A   1      30.501  28.821  23.193  1.00  0.00     0.002 A 
ATOM     24  C   UNL A   1      31.469  26.834  22.243  1.00  0.00     0.031 A 
ATOM     25  C   UNL A   1      31.184  28.198  22.158  1.00  0.00     0.002 A 
BRANCH  17  26
ATOM     26  N   UNL A   1      29.887  24.055  26.678  1.00  0.00    -0.381 N 
ATOM     27  H   UNL A   1      29.196  23.356  26.627  1.00  0.00     0.158 HD
ATOM     28  H   UNL A   1      30.301  24.276  27.543  1.00  0.00     0.158 HD
ENDBRANCH  17  26
ENDBRANCH  11  16
ENDBRANCH   8  10
ENDBRANCH   7   8
ENDBRANCH   6   7
ENDBRANCH   5   6
ENDBRANCH   4   5
ENDBRANCH   3   4
ENDBRANCH   2   3
ENDBRANCH   1   2
BRANCH   1  29
ATOM     29  C   UNL A   1      33.771  28.840  26.196  1.00  0.00     0.188 C 
BRANCH  29  30
ATOM     30  C   UNL A   1      32.490  29.521  26.714  1.00  0.00     0.188 C 
BRANCH  30  31
ATOM     31  O   UNL A   1      32.022  30.562  25.861  1.00  0.00    -0.376 OA
BRANCH  31  32
ATOM     32  C   UNL A   1      31.110  31.507  26.412  1.00  0.00     0.202 C 
BRANCH  32  33
ATOM     33  C   UNL A   1      31.694  32.881  26.780  1.00  0.00     0.261 C 
BRANCH  33  34
ATOM     34  O   UNL A   1      32.992  32.881  27.404  1.00  0.00    -0.460 OA
BRANCH  34  35
ATOM     35  C   UNL A   1      33.324  33.886  28.239  1.00  0.00     0.338 C 
ATOM     36  O   UNL A   1      32.649  34.855  28.536  1.00  0.00    -0.246 OA
BRANCH  35  37
ATOM     37  C   UNL A   1      34.581  33.499  28.915  1.00  0.00     0.060 A 
ATOM     38  C   UNL A   1      34.559  32.757  30.100  1.00  0.00     0.016 A 
ATOM     39  C   UNL A   1      35.800  33.910  28.361  1.00  0.00     0.016 A 
ATOM     40  C   UNL A   1      35.763  32.393  30.708  1.00  0.00     0.010 A 
ATOM     41  C   UNL A   1      37.003  33.555  28.977  1.00  0.00     0.010 A 
ATOM     42  C   UNL A   1      36.993  32.769  30.138  1.00  0.00    -0.014 A 
BRANCH  42  43
ATOM     43  C   UNL A   1      38.250  32.158  30.631  1.00  0.00     0.031 A 
ATOM     44  C   UNL A   1      39.062  32.761  31.735  1.00  0.00     0.074 A 
ATOM     45  C   UNL A   1      38.665  31.026  30.031  1.00  0.00     0.049 A 
ATOM     46  N   UNL A   1      40.130  32.275  32.319  1.00  0.00    -0.248 NA
ATOM     47  C   UNL A   1      38.637  34.070  32.247  1.00  0.00     0.031 C 
ATOM     48  C   UNL A   1      37.969  30.368  28.923  1.00  0.00     0.029 A 
ATOM     49  N   UNL A   1      39.755  30.227  30.265  1.00  0.00    -0.354 N 
ATOM     50  C   UNL A   1      40.497  33.206  33.280  1.00  0.00     0.074 A 
ATOM     51  C   UNL A   1      39.561  34.307  33.173  1.00  0.00     0.031 C 
ATOM     52  C   UNL A   1      38.635  29.253  28.590  1.00  0.00     0.029 A 
ATOM     53  C   UNL A   1      39.815  29.131  29.441  1.00  0.00     0.049 A 
ATOM     54  H   UNL A   1      40.429  30.423  30.956  1.00  0.00     0.167 HD
ATOM     55  C   UNL A   1      41.513  33.135  34.173  1.00  0.00     0.031 A 
ATOM     56  C   UNL A   1      40.711  28.128  29.376  1.00  0.00     0.031 A 
ATOM     57  C   UNL A   1      42.455  32.043  34.251  1.00  0.00     0.049 A 
ATOM     58  C   UNL A   1      41.848  28.092  30.354  1.00  0.00     0.074 A 
ATOM     59  C   UNL A   1      43.475  31.859  35.169  1.00  0.00     0.029 A 
ATOM     60  N   UNL A   1      42.507  30.969  33.377  1.00  0.00    -0.354 N 
ATOM     61  N   UNL A   1      42.121  28.927  31.327  1.00  0.00    -0.248 NA
ATOM     62  C   UNL A   1      42.790  26.969  30.241  1.00  0.00     0.031 C 
ATOM     63  C   UNL A   1      44.193  30.718  34.803  1.00  0.00     0.029 A 
ATOM     64  C   UNL A   1      43.570  30.144  33.707  1.00  0.00     0.049 A 
ATOM     65  H   UNL A   1      41.881  30.815  32.632  1.00  0.00     0.167 HD
ATOM     66  C   UNL A   1      43.252  28.424  31.954  1.00  0.00     0.074 A 
ATOM     67  C   UNL A   1      43.604  27.199  31.264  1.00  0.00     0.031 C 
ATOM     68  C   UNL A   1      43.930  28.933  33.010  1.00  0.00     0.031 A 
BRANCH  55  69
ATOM     69  C   UNL A   1      41.681  34.260  35.158  1.00  0.00    -0.014 A 
ATOM     70  C   UNL A   1      40.949  34.258  36.358  1.00  0.00     0.009 A 
ATOM     71  C   UNL A   1      42.451  35.391  34.839  1.00  0.00     0.009 A 
ATOM     72  C   UNL A   1      40.969  35.366  37.206  1.00  0.00     0.001 A 
ATOM     73  C   UNL A   1      42.491  36.488  35.703  1.00  0.00     0.001 A 
ATOM     74  C   UNL A   1      41.741  36.480  36.879  1.00  0.00     0.000 A 
ENDBRANCH  55  69
BRANCH  56  75
ATOM     75  C   UNL A   1      40.517  27.056  28.366  1.00  0.00    -0.014 A 
ATOM     76  C   UNL A   1      41.087  27.169  27.087  1.00  0.00     0.009 A 
ATOM     77  C   UNL A   1      39.691  25.957  28.647  1.00  0.00     0.009 A 
ATOM     78  C   UNL A   1      40.810  26.220  26.101  1.00  0.00     0.001 A 
ATOM     79  C   UNL A   1      39.442  24.993  27.667  1.00  0.00     0.001 A 
ATOM     80  C   UNL A   1      39.990  25.132  26.393  1.00  0.00     0.000 A 
ENDBRANCH  56  75
BRANCH  68  81
ATOM     81  C   UNL A   1      45.136  28.180  33.505  1.00  0.00    -0.014 A 
ATOM     82  C   UNL A   1      44.990  27.216  34.517  1.00  0.00     0.009 A 
ATOM     83  C   UNL A   1      46.425  28.497  33.051  1.00  0.00     0.009 A 
ATOM     84  C   UNL A   1      46.111  26.602  35.078  1.00  0.00     0.001 A 
ATOM     85  C   UNL A   1      47.542  27.858  33.593  1.00  0.00     0.001 A 
ATOM     86  C   UNL A   1      47.385  26.921  34.614  1.00  0.00     0.000 A 
ENDBRANCH  68  81
ENDBRANCH  42  43
ENDBRANCH  35  37
ENDBRANCH  34  35
ENDBRANCH  33  34
ENDBRANCH  32  33
ENDBRANCH  31  32
ENDBRANCH  30  31
ENDBRANCH  29  30
ENDBRANCH   1  29
TORSDOF 22
ENDMDL
MODEL 2
REMARK VINA RESULT:      -9.3      2.313      7.148
REMARK SMILES Nc1nc2ccccc2nc1N1CCC(C(=O)OCCOCCOCCOCCOC(=O)c2ccc(-c3c4nc(c(-c5ccccc5)c5ccc([nH]5)c(-c5ccccc5)c5nc(c(-c6ccccc6)c6ccc3[nH]6)C=C5)C=C4)cc2)CC1
REMARK SMILES IDX 24 1 23 2 22 3 21 4 20 5 19 6 18 7 16 8 17 9 15 10 12 11
REMARK SMILES IDX 13 12 82 13 14 14 81 15 11 16 2 17 3 18 4 19 10 20 5 21 9 22
REMARK SMILES IDX 6 23 8 24 7 25 1 26 25 29 26 30 27 31 28 32 29 33 30 34
REMARK SMILES IDX 31 35 32 36 33 37 34 38 80 39 35 40 79 41 36 42 37 43 38 44
REMARK SMILES IDX 73 45 39 46 78 47 72 48 74 49 40 50 77 51 71 52 70 53 41 55
REMARK SMILES IDX 63 56 48 57 62 58 49 59 52 60 61 61 75 62 50 63 51 64 60 66
REMARK SMILES IDX 76 67 53 68 42 69 43 70 47 71 44 72 46 73 45 74 64 75 65 76
REMARK SMILES IDX 69 77 66 78 68 79 67 80 54 81 55 82 59 83 56 84 58 85 57 86
REMARK H PARENT 1 27 1 28 74 54 52 65
REMARK Flexibility Score: inf
ROOT
ATOM      1  O   UNL A   1      33.168  32.662  27.509  1.00  0.00    -0.377 OA
ENDROOT
BRANCH   1   2
ATOM      2  C   UNL A   1      32.961  31.281  27.285  1.00  0.00     0.188 C 
BRANCH   2   3
ATOM      3  C   UNL A   1      31.722  30.945  26.446  1.00  0.00     0.188 C 
BRANCH   3   4
ATOM      4  O   UNL A   1      31.787  29.961  25.424  1.00  0.00    -0.376 OA
BRANCH   4   5
ATOM      5  C   UNL A   1      30.754  29.850  24.454  1.00  0.00     0.202 C 
BRANCH   5   6
ATOM      6  C   UNL A   1      30.599  28.583  23.597  1.00  0.00     0.261 C 
BRANCH   6   7
ATOM      7  O   UNL A   1      30.737  27.331  24.294  1.00  0.00    -0.463 OA
BRANCH   7   8
ATOM      8  C   UNL A   1      29.765  26.422  24.060  1.00  0.00     0.309 C 
ATOM      9  O   UNL A   1      28.579  26.700  23.903  1.00  0.00    -0.252 OA
BRANCH   8  10
ATOM     10  C   UNL A   1      30.233  24.983  24.028  1.00  0.00     0.103 C 
ATOM     11  N   UNL A   1      31.767  22.609  24.433  1.00  0.00    -0.353 N 
ATOM     12  C   UNL A   1      31.434  23.020  23.077  1.00  0.00     0.119 C 
ATOM     13  C   UNL A   1      30.957  23.117  25.538  1.00  0.00     0.119 C 
ATOM     14  C   UNL A   1      31.265  24.536  22.988  1.00  0.00     0.037 C 
ATOM     15  C   UNL A   1      30.768  24.626  25.417  1.00  0.00     0.037 C 
BRANCH  11  16
ATOM     16  C   UNL A   1      33.100  22.303  24.702  1.00  0.00     0.172 A 
ATOM     17  C   UNL A   1      33.559  20.958  24.666  1.00  0.00     0.167 A 
ATOM     18  N   UNL A   1      34.839  20.624  24.910  1.00  0.00    -0.226 NA
ATOM     19  C   UNL A   1      35.683  21.637  25.163  1.00  0.00     0.091 A 
ATOM     20  N   UNL A   1      33.965  23.314  24.936  1.00  0.00    -0.225 NA
ATOM     21  C   UNL A   1      37.020  21.356  25.412  1.00  0.00     0.031 A 
ATOM     22  C   UNL A   1      35.248  22.985  25.176  1.00  0.00     0.091 A 
ATOM     23  C   UNL A   1      37.938  22.371  25.682  1.00  0.00     0.002 A 
ATOM     24  C   UNL A   1      36.172  23.987  25.446  1.00  0.00     0.031 A 
ATOM     25  C   UNL A   1      37.512  23.692  25.701  1.00  0.00     0.002 A 
BRANCH  17  26
ATOM     26  N   UNL A   1      32.703  19.901  24.367  1.00  0.00    -0.381 N 
ATOM     27  H   UNL A   1      31.881  20.064  23.852  1.00  0.00     0.158 HD
ATOM     28  H   UNL A   1      32.921  18.991  24.673  1.00  0.00     0.158 HD
ENDBRANCH  17  26
ENDBRANCH  11  16
ENDBRANCH   8  10
ENDBRANCH   7   8
ENDBRANCH   6   7
ENDBRANCH   5   6
ENDBRANCH   4   5
ENDBRANCH   3   4
ENDBRANCH   2   3
ENDBRANCH   1   2
BRANCH   1  29
ATOM     29  C   UNL A   1      34.048  33.025  28.569  1.00  0.00     0.188 C 
BRANCH  29  30
ATOM     30  C   UNL A   1      34.763  34.386  28.484  1.00  0.00     0.188 C 
BRANCH  30  31
ATOM     31  O   UNL A   1      33.872  35.496  28.563  1.00  0.00    -0.376 OA
BRANCH  31  32
ATOM     32  C   UNL A   1      33.000  35.564  29.687  1.00  0.00     0.202 C 
BRANCH  32  33
ATOM     33  C   UNL A   1      32.987  36.895  30.458  1.00  0.00     0.261 C 
BRANCH  33  34
ATOM     34  O   UNL A   1      33.115  36.808  31.890  1.00  0.00    -0.460 OA
BRANCH  34  35
ATOM     35  C   UNL A   1      32.823  35.647  32.510  1.00  0.00     0.338 C 
ATOM     36  O   UNL A   1      31.721  35.221  32.803  1.00  0.00    -0.246 OA
BRANCH  35  37
ATOM     37  C   UNL A   1      34.074  34.860  32.582  1.00  0.00     0.060 A 
ATOM     38  C   UNL A   1      35.318  35.494  32.642  1.00  0.00     0.016 A 
ATOM     39  C   UNL A   1      33.993  33.462  32.565  1.00  0.00     0.016 A 
ATOM     40  C   UNL A   1      36.481  34.725  32.725  1.00  0.00     0.010 A 
ATOM     41  C   UNL A   1      35.158  32.694  32.636  1.00  0.00     0.010 A 
ATOM     42  C   UNL A   1      36.407  33.320  32.747  1.00  0.00    -0.014 A 
BRANCH  42  43
ATOM     43  C   UNL A   1      37.607  32.526  33.104  1.00  0.00     0.031 A 
ATOM     44  C   UNL A   1      38.150  31.442  32.225  1.00  0.00     0.074 A 
ATOM     45  C   UNL A   1      38.201  32.799  34.282  1.00  0.00     0.049 A 
ATOM     46  N   UNL A   1      39.244  30.739  32.381  1.00  0.00    -0.248 NA
ATOM     47  C   UNL A   1      37.373  31.094  31.028  1.00  0.00     0.031 C 
ATOM     48  C   UNL A   1      37.739  33.812  35.233  1.00  0.00     0.029 A 
ATOM     49  N   UNL A   1      39.315  32.262  34.876  1.00  0.00    -0.354 N 
ATOM     50  C   UNL A   1      39.301  29.877  31.297  1.00  0.00     0.074 A 
ATOM     51  C   UNL A   1      38.108  30.116  30.509  1.00  0.00     0.031 C 
ATOM     52  C   UNL A   1      38.576  33.841  36.280  1.00  0.00     0.029 A 
ATOM     53  C   UNL A   1      39.616  32.835  36.087  1.00  0.00     0.049 A 
ATOM     54  H   UNL A   1      39.844  31.536  34.475  1.00  0.00     0.167 HD
ATOM     55  C   UNL A   1      40.269  28.980  30.986  1.00  0.00     0.031 A 
ATOM     56  C   UNL A   1      40.621  32.592  36.949  1.00  0.00     0.031 A 
ATOM     57  C   UNL A   1      41.440  28.734  31.794  1.00  0.00     0.049 A 
ATOM     58  C   UNL A   1      41.661  31.569  36.598  1.00  0.00     0.074 A 
ATOM     59  C   UNL A   1      42.505  27.891  31.520  1.00  0.00     0.029 A 
ATOM     60  N   UNL A   1      41.693  29.306  33.030  1.00  0.00    -0.354 N 
ATOM     61  N   UNL A   1      41.758  30.836  35.516  1.00  0.00    -0.248 NA
ATOM     62  C   UNL A   1      42.739  31.351  37.573  1.00  0.00     0.031 C 
ATOM     63  C   UNL A   1      43.359  27.892  32.624  1.00  0.00     0.029 A 
ATOM     64  C   UNL A   1      42.873  28.800  33.552  1.00  0.00     0.049 A 
ATOM     65  H   UNL A   1      41.119  29.974  33.473  1.00  0.00     0.167 HD
ATOM     66  C   UNL A   1      42.914  30.084  35.669  1.00  0.00     0.074 A 
ATOM     67  C   UNL A   1      43.496  30.464  36.940  1.00  0.00     0.031 C 
ATOM     68  C   UNL A   1      43.444  29.166  34.825  1.00  0.00     0.031 A 
BRANCH  55  69
ATOM     69  C   UNL A   1      40.129  28.187  29.716  1.00  0.00    -0.014 A 
ATOM     70  C   UNL A   1      39.474  26.943  29.733  1.00  0.00     0.009 A 
ATOM     71  C   UNL A   1      40.766  28.598  28.534  1.00  0.00     0.009 A 
ATOM     72  C   UNL A   1      39.475  26.122  28.604  1.00  0.00     0.001 A 
ATOM     73  C   UNL A   1      40.742  27.787  27.396  1.00  0.00     0.001 A 
ATOM     74  C   UNL A   1      40.108  26.545  27.436  1.00  0.00     0.000 A 
ENDBRANCH  55  69
BRANCH  56  75
ATOM     75  C   UNL A   1      40.699  33.383  38.204  1.00  0.00    -0.014 A 
ATOM     76  C   UNL A   1      39.968  32.994  39.339  1.00  0.00     0.009 A 
ATOM     77  C   UNL A   1      41.434  34.576  38.247  1.00  0.00     0.009 A 
ATOM     78  C   UNL A   1      39.948  33.798  40.481  1.00  0.00     0.001 A 
ATOM     79  C   UNL A   1      41.438  35.363  39.402  1.00  0.00     0.001 A 
ATOM     80  C   UNL A   1      40.685  34.981  40.511  1.00  0.00     0.000 A 
ENDBRANCH  56  75
BRANCH  68  81
ATOM     81  C   UNL A   1      44.725  28.488  35.231  1.00  0.00    -0.014 A 
ATOM     82  C   UNL A   1      44.679  27.323  36.016  1.00  0.00     0.009 A 
ATOM     83  C   UNL A   1      45.972  29.056  34.933  1.00  0.00     0.009 A 
ATOM     84  C   UNL A   1      45.855  26.755  36.511  1.00  0.00     0.001 A 
ATOM     85  C   UNL A   1      47.148  28.467  35.403  1.00  0.00     0.001 A 
ATOM     86  C   UNL A   1      47.088  27.325  36.201  1.00  0.00     0.000 A 
ENDBRANCH  68  81
ENDBRANCH  42  43
ENDBRANCH  35  37
ENDBRANCH  34  35
ENDBRANCH  33  34
ENDBRANCH  32  33
ENDBRANCH  31  32
ENDBRANCH  30  31
ENDBRANCH  29  30
ENDBRANCH   1  29
TORSDOF 22
ENDMDL
MODEL 3
REMARK VINA RESULT:      -9.2      4.273      6.561
REMARK SMILES Nc1nc2ccccc2nc1N1CCC(C(=O)OCCOCCOCCOCCOC(=O)c2ccc(-c3c4nc(c(-c5ccccc5)c5ccc([nH]5)c(-c5ccccc5)c5nc(c(-c6ccccc6)c6ccc3[nH]6)C=C5)C=C4)cc2)CC1
REMARK SMILES IDX 24 1 23 2 22 3 21 4 20 5 19 6 18 7 16 8 17 9 15 10 12 11
REMARK SMILES IDX 13 12 82 13 14 14 81 15 11 16 2 17 3 18 4 19 10 20 5 21 9 22
REMARK SMILES IDX 6 23 8 24 7 25 1 26 25 29 26 30 27 31 28 32 29 33 30 34
REMARK SMILES IDX 31 35 32 36 33 37 34 38 80 39 35 40 79 41 36 42 37 43 38 44
REMARK SMILES IDX 73 45 39 46 78 47 72 48 74 49 40 50 77 51 71 52 70 53 41 55
REMARK SMILES IDX 63 56 48 57 62 58 49 59 52 60 61 61 75 62 50 63 51 64 60 66
REMARK SMILES IDX 76 67 53 68 42 69 43 70 47 71 44 72 46 73 45 74 64 75 65 76
REMARK SMILES IDX 69 77 66 78 68 79 67 80 54 81 55 82 59 83 56 84 58 85 57 86
REMARK H PARENT 1 27 1 28 74 54 52 65
REMARK Flexibility Score: inf
ROOT
ATOM      1  O   UNL A   1      33.799  30.616  27.183  1.00  0.00    -0.377 OA
ENDROOT
BRANCH   1   2
ATOM      2  C   UNL A   1      32.721  30.119  26.415  1.00  0.00     0.188 C 
BRANCH   2   3
ATOM      3  C   UNL A   1      33.117  29.115  25.325  1.00  0.00     0.188 C 
BRANCH   3   4
ATOM      4  O   UNL A   1      32.348  28.997  24.137  1.00  0.00    -0.376 OA
BRANCH   4   5
ATOM      5  C   UNL A   1      30.937  28.826  24.198  1.00  0.00     0.202 C 
BRANCH   5   6
ATOM      6  C   UNL A   1      30.294  27.444  24.002  1.00  0.00     0.261 C 
BRANCH   6   7
ATOM      7  O   UNL A   1      31.144  26.312  24.263  1.00  0.00    -0.463 OA
BRANCH   7   8
ATOM      8  C   UNL A   1      31.221  25.924  25.555  1.00  0.00     0.309 C 
ATOM      9  O   UNL A   1      30.394  26.214  26.416  1.00  0.00    -0.252 OA
BRANCH   8  10
ATOM     10  C   UNL A   1      32.446  25.107  25.904  1.00  0.00     0.103 C 
ATOM     11  N   UNL A   1      34.467  23.089  25.892  1.00  0.00    -0.353 N 
ATOM     12  C   UNL A   1      33.705  23.327  27.108  1.00  0.00     0.119 C 
ATOM     13  C   UNL A   1      34.524  24.146  24.882  1.00  0.00     0.119 C 
ATOM     14  C   UNL A   1      32.309  23.863  26.787  1.00  0.00     0.037 C 
ATOM     15  C   UNL A   1      33.129  24.693  24.598  1.00  0.00     0.037 C 
BRANCH  11  16
ATOM     16  C   UNL A   1      34.575  21.772  25.449  1.00  0.00     0.172 A 
ATOM     17  C   UNL A   1      35.827  21.099  25.466  1.00  0.00     0.167 A 
ATOM     18  N   UNL A   1      35.970  19.826  25.056  1.00  0.00    -0.226 NA
ATOM     19  C   UNL A   1      34.853  19.200  24.653  1.00  0.00     0.091 A 
ATOM     20  N   UNL A   1      33.455  21.122  25.061  1.00  0.00    -0.225 NA
ATOM     21  C   UNL A   1      34.934  17.880  24.229  1.00  0.00     0.031 A 
ATOM     22  C   UNL A   1      33.593  19.846  24.655  1.00  0.00     0.091 A 
ATOM     23  C   UNL A   1      33.804  17.184  23.798  1.00  0.00     0.002 A 
ATOM     24  C   UNL A   1      32.474  19.143  24.224  1.00  0.00     0.031 A 
ATOM     25  C   UNL A   1      32.569  17.819  23.794  1.00  0.00     0.002 A 
BRANCH  17  26
ATOM     26  N   UNL A   1      36.987  21.724  25.918  1.00  0.00    -0.381 N 
ATOM     27  H   UNL A   1      37.099  22.695  25.805  1.00  0.00     0.158 HD
ATOM     28  H   UNL A   1      37.695  21.194  26.350  1.00  0.00     0.158 HD
ENDBRANCH  17  26
ENDBRANCH  11  16
ENDBRANCH   8  10
ENDBRANCH   7   8
ENDBRANCH   6   7
ENDBRANCH   5   6
ENDBRANCH   4   5
ENDBRANCH   3   4
ENDBRANCH   2   3
ENDBRANCH   1   2
BRANCH   1  29
ATOM     29  C   UNL A   1      33.670  31.933  27.712  1.00  0.00     0.188 C 
BRANCH  29  30
ATOM     30  C   UNL A   1      34.504  32.302  28.952  1.00  0.00     0.188 C 
BRANCH  30  31
ATOM     31  O   UNL A   1      35.715  32.983  28.633  1.00  0.00    -0.376 OA
BRANCH  31  32
ATOM     32  C   UNL A   1      36.161  33.993  29.534  1.00  0.00     0.202 C 
BRANCH  32  33
ATOM     33  C   UNL A   1      36.060  33.662  31.032  1.00  0.00     0.261 C 
BRANCH  33  34
ATOM     34  O   UNL A   1      37.079  32.796  31.568  1.00  0.00    -0.460 OA
BRANCH  34  35
ATOM     35  C   UNL A   1      36.874  31.464  31.579  1.00  0.00     0.338 C 
ATOM     36  O   UNL A   1      35.839  30.875  31.836  1.00  0.00    -0.246 OA
BRANCH  35  37
ATOM     37  C   UNL A   1      38.081  30.829  31.005  1.00  0.00     0.060 A 
ATOM     38  C   UNL A   1      38.261  30.750  29.621  1.00  0.00     0.016 A 
ATOM     39  C   UNL A   1      39.034  30.281  31.874  1.00  0.00     0.016 A 
ATOM     40  C   UNL A   1      39.418  30.158  29.109  1.00  0.00     0.010 A 
ATOM     41  C   UNL A   1      40.184  29.679  31.360  1.00  0.00     0.010 A 
ATOM     42  C   UNL A   1      40.398  29.640  29.975  1.00  0.00    -0.014 A 
BRANCH  42  43
ATOM     43  C   UNL A   1      41.729  29.264  29.439  1.00  0.00     0.031 A 
ATOM     44  C   UNL A   1      42.876  30.223  29.383  1.00  0.00     0.074 A 
ATOM     45  C   UNL A   1      41.876  28.009  28.973  1.00  0.00     0.049 A 
ATOM     46  N   UNL A   1      44.115  29.991  29.023  1.00  0.00    -0.248 NA
ATOM     47  C   UNL A   1      42.611  31.616  29.769  1.00  0.00     0.031 C 
ATOM     48  C   UNL A   1      40.815  27.001  28.948  1.00  0.00     0.029 A 
ATOM     49  N   UNL A   1      42.964  27.367  28.441  1.00  0.00    -0.354 N 
ATOM     50  C   UNL A   1      44.784  31.199  29.155  1.00  0.00     0.074 A 
ATOM     51  C   UNL A   1      43.803  32.174  29.589  1.00  0.00     0.031 C 
ATOM     52  C   UNL A   1      41.311  25.858  28.451  1.00  0.00     0.029 A 
ATOM     53  C   UNL A   1      42.713  26.060  28.100  1.00  0.00     0.049 A 
ATOM     54  H   UNL A   1      43.839  27.800  28.315  1.00  0.00     0.167 HD
ATOM     55  C   UNL A   1      46.097  31.459  28.944  1.00  0.00     0.031 A 
ATOM     56  C   UNL A   1      43.518  25.120  27.572  1.00  0.00     0.031 A 
ATOM     57  C   UNL A   1      47.058  30.483  28.487  1.00  0.00     0.049 A 
ATOM     58  C   UNL A   1      44.960  25.444  27.315  1.00  0.00     0.074 A 
ATOM     59  C   UNL A   1      48.422  30.645  28.311  1.00  0.00     0.029 A 
ATOM     60  N   UNL A   1      46.760  29.181  28.117  1.00  0.00    -0.354 N 
ATOM     61  N   UNL A   1      45.603  26.563  27.544  1.00  0.00    -0.248 NA
ATOM     62  C   UNL A   1      45.793  24.376  26.745  1.00  0.00     0.031 C 
ATOM     63  C   UNL A   1      48.935  29.469  27.760  1.00  0.00     0.029 A 
ATOM     64  C   UNL A   1      47.907  28.544  27.671  1.00  0.00     0.049 A 
ATOM     65  H   UNL A   1      45.866  28.770  28.165  1.00  0.00     0.167 HD
ATOM     66  C   UNL A   1      46.918  26.330  27.166  1.00  0.00     0.074 A 
ATOM     67  C   UNL A   1      46.986  24.957  26.711  1.00  0.00     0.031 C 
ATOM     68  C   UNL A   1      47.972  27.181  27.202  1.00  0.00     0.031 A 
BRANCH  55  69
ATOM     69  C   UNL A   1      46.602  32.852  29.205  1.00  0.00    -0.014 A 
ATOM     70  C   UNL A   1      46.998  33.224  30.502  1.00  0.00     0.009 A 
ATOM     71  C   UNL A   1      46.552  33.837  28.205  1.00  0.00     0.009 A 
ATOM     72  C   UNL A   1      47.315  34.552  30.796  1.00  0.00     0.001 A 
ATOM     73  C   UNL A   1      46.897  35.160  28.496  1.00  0.00     0.001 A 
ATOM     74  C   UNL A   1      47.266  35.518  29.792  1.00  0.00     0.000 A 
ENDBRANCH  55  69
BRANCH  56  75
ATOM     75  C   UNL A   1      42.964  23.767  27.306  1.00  0.00    -0.014 A 
ATOM     76  C   UNL A   1      42.497  23.427  26.025  1.00  0.00     0.009 A 
ATOM     77  C   UNL A   1      42.820  22.841  28.349  1.00  0.00     0.009 A 
ATOM     78  C   UNL A   1      41.871  22.199  25.801  1.00  0.00     0.001 A 
ATOM     79  C   UNL A   1      42.221  21.600  28.114  1.00  0.00     0.001 A 
ATOM     80  C   UNL A   1      41.736  21.287  26.846  1.00  0.00     0.000 A 
ENDBRANCH  56  75
BRANCH  68  81
ATOM     81  C   UNL A   1      49.308  26.672  26.733  1.00  0.00    -0.014 A 
ATOM     82  C   UNL A   1      49.645  26.748  25.371  1.00  0.00     0.009 A 
ATOM     83  C   UNL A   1      50.185  26.022  27.614  1.00  0.00     0.009 A 
ATOM     84  C   UNL A   1      50.822  26.164  24.898  1.00  0.00     0.001 A 
ATOM     85  C   UNL A   1      51.378  25.467  27.143  1.00  0.00     0.001 A 
ATOM     86  C   UNL A   1      51.689  25.528  25.785  1.00  0.00     0.000 A 
ENDBRANCH  68  81
ENDBRANCH  42  43
ENDBRANCH  35  37
ENDBRANCH  34  35
ENDBRANCH  33  34
ENDBRANCH  32  33
ENDBRANCH  31  32
ENDBRANCH  30  31
ENDBRANCH  29  30
ENDBRANCH   1  29
TORSDOF 22
ENDMDL
