MODEL 1
REMARK VINA RESULT:      -8.6      0.000      0.000
REMARK SMILES [NH3+]CCOCC(=O)N1C[C@@H](C(=O)OCCOCCOCCOCCOC(=O)c2ccc(-c3c4nc(c(-c5ccccc5)c5ccc([nH]5)c(-c5ccccc5)c5nc(c(-c6ccccc6)c6ccc3[nH]6)C=C5)C=C4)cc2)Oc2ccccc21
REMARK SMILES IDX 17 1 16 2 15 3 14 4 13 5 11 6 12 7 10 8 8 9 9 10 82 11 77 12
REMARK SMILES IDX 81 13 76 14 78 15 80 16 79 17 6 18 7 19 5 20 4 21 3 22 2 23
REMARK SMILES IDX 1 24 18 28 19 29 20 30 21 31 22 32 23 33 24 34 25 35 26 36
REMARK SMILES IDX 27 37 28 38 29 39 75 40 30 41 74 42 31 43 32 44 33 45 68 46
REMARK SMILES IDX 34 47 73 48 67 49 69 50 35 51 72 52 66 53 65 54 36 56 58 57
REMARK SMILES IDX 43 58 57 59 44 60 47 61 56 62 70 63 45 64 46 65 55 67 71 68
REMARK SMILES IDX 48 69 37 70 38 71 42 72 39 73 41 74 40 75 59 76 60 77 64 78
REMARK SMILES IDX 61 79 63 80 62 81 49 82 50 83 54 84 51 85 53 86 52 87
REMARK H PARENT 1 25 1 26 1 27 69 55 47 66
REMARK Flexibility Score: inf
ROOT
ATOM      1  C   UNL A   1      33.683  27.037  26.053  1.00  0.00     0.188 C 
ENDROOT
BRANCH   1   2
ATOM      2  O   UNL A   1      32.498  26.700  25.349  1.00  0.00    -0.376 OA
BRANCH   2   3
ATOM      3  C   UNL A   1      32.516  25.618  24.422  1.00  0.00     0.202 C 
BRANCH   3   4
ATOM      4  C   UNL A   1      33.849  24.970  23.990  1.00  0.00     0.261 C 
BRANCH   4   5
ATOM      5  O   UNL A   1      33.854  23.522  23.949  1.00  0.00    -0.460 OA
BRANCH   5   6
ATOM      6  C   UNL A   1      33.320  22.907  22.864  1.00  0.00     0.349 C 
ATOM      7  O   UNL A   1      33.710  23.102  21.716  1.00  0.00    -0.248 OA
BRANCH   6   8
ATOM      8  C   UNL A   1      32.112  21.969  23.165  1.00  0.00     0.302 C 
ATOM      9  N   UNL A   1      33.045  20.839  25.118  1.00  0.00    -0.303 N 
ATOM     10  C   UNL A   1      32.001  21.768  24.664  1.00  0.00     0.183 C 
ATOM     11  C   UNL A   1      33.168  19.672  24.292  1.00  0.00     0.086 A 
ATOM     12  C   UNL A   1      32.483  19.640  23.066  1.00  0.00     0.144 A 
ATOM     13  C   UNL A   1      33.858  18.519  24.685  1.00  0.00     0.030 A 
ATOM     14  O   UNL A   1      31.863  20.734  22.510  1.00  0.00    -0.475 OA
ATOM     15  C   UNL A   1      32.404  18.466  22.308  1.00  0.00     0.049 A 
ATOM     16  C   UNL A   1      33.815  17.354  23.905  1.00  0.00     0.002 A 
ATOM     17  C   UNL A   1      33.069  17.319  22.731  1.00  0.00     0.004 A 
BRANCH   9  18
ATOM     18  C   UNL A   1      33.848  21.093  26.225  1.00  0.00     0.253 C 
ATOM     19  O   UNL A   1      33.426  21.278  27.369  1.00  0.00    -0.272 OA
BRANCH  18  20
ATOM     20  C   UNL A   1      35.368  21.183  25.963  1.00  0.00     0.260 C 
BRANCH  20  21
ATOM     21  O   UNL A   1      36.112  22.349  26.252  1.00  0.00    -0.366 OA
BRANCH  21  22
ATOM     22  C   UNL A   1      37.337  22.512  25.538  1.00  0.00     0.222 C 
BRANCH  22  23
ATOM     23  C   UNL A   1      37.263  23.534  24.402  1.00  0.00     0.287 C 
BRANCH  23  24
ATOM     24  N   UNL A   1      36.807  22.980  23.128  1.00  0.00    -0.356 N 
ATOM     25  H   UNL A   1      37.351  23.386  22.367  1.00  0.00     0.344 HD
ATOM     26  H   UNL A   1      35.821  23.200  22.995  1.00  0.00     0.344 HD
ATOM     27  H   UNL A   1      36.933  21.967  23.133  1.00  0.00     0.344 HD
ENDBRANCH  23  24
ENDBRANCH  22  23
ENDBRANCH  21  22
ENDBRANCH  20  21
ENDBRANCH  18  20
ENDBRANCH   9  18
ENDBRANCH   6   8
ENDBRANCH   5   6
ENDBRANCH   4   5
ENDBRANCH   3   4
ENDBRANCH   2   3
ENDBRANCH   1   2
BRANCH   1  28
ATOM     28  C   UNL A   1      33.729  28.334  26.866  1.00  0.00     0.188 C 
BRANCH  28  29
ATOM     29  O   UNL A   1      33.688  29.518  26.101  1.00  0.00    -0.377 OA
BRANCH  29  30
ATOM     30  C   UNL A   1      32.725  29.640  25.067  1.00  0.00     0.188 C 
BRANCH  30  31
ATOM     31  C   UNL A   1      31.384  30.313  25.391  1.00  0.00     0.188 C 
BRANCH  31  32
ATOM     32  O   UNL A   1      31.309  30.866  26.695  1.00  0.00    -0.376 OA
BRANCH  32  33
ATOM     33  C   UNL A   1      31.640  32.233  26.894  1.00  0.00     0.202 C 
BRANCH  33  34
ATOM     34  C   UNL A   1      32.953  32.597  27.611  1.00  0.00     0.261 C 
BRANCH  34  35
ATOM     35  O   UNL A   1      33.383  33.968  27.552  1.00  0.00    -0.460 OA
BRANCH  35  36
ATOM     36  C   UNL A   1      33.394  34.690  28.688  1.00  0.00     0.338 C 
ATOM     37  O   UNL A   1      32.502  35.411  29.110  1.00  0.00    -0.246 OA
BRANCH  36  38
ATOM     38  C   UNL A   1      34.597  34.315  29.463  1.00  0.00     0.060 A 
ATOM     39  C   UNL A   1      35.854  34.466  28.864  1.00  0.00     0.016 A 
ATOM     40  C   UNL A   1      34.494  33.801  30.759  1.00  0.00     0.016 A 
ATOM     41  C   UNL A   1      37.007  34.074  29.543  1.00  0.00     0.010 A 
ATOM     42  C   UNL A   1      35.651  33.383  31.429  1.00  0.00     0.010 A 
ATOM     43  C   UNL A   1      36.910  33.487  30.811  1.00  0.00    -0.014 A 
BRANCH  43  44
ATOM     44  C   UNL A   1      38.101  32.826  31.401  1.00  0.00     0.031 A 
ATOM     45  C   UNL A   1      38.661  31.605  30.723  1.00  0.00     0.074 A 
ATOM     46  C   UNL A   1      38.709  33.324  32.493  1.00  0.00     0.049 A 
ATOM     47  N   UNL A   1      39.675  30.852  31.068  1.00  0.00    -0.248 NA
ATOM     48  C   UNL A   1      37.986  31.177  29.486  1.00  0.00     0.031 C 
ATOM     49  C   UNL A   1      38.309  34.534  33.207  1.00  0.00     0.029 A 
ATOM     50  N   UNL A   1      39.800  32.865  33.189  1.00  0.00    -0.354 N 
ATOM     51  C   UNL A   1      39.754  29.859  30.098  1.00  0.00     0.074 A 
ATOM     52  C   UNL A   1      38.671  30.089  29.167  1.00  0.00     0.031 C 
ATOM     53  C   UNL A   1      39.141  34.719  34.247  1.00  0.00     0.029 A 
ATOM     54  C   UNL A   1      40.105  33.621  34.295  1.00  0.00     0.049 A 
ATOM     55  H   UNL A   1      40.314  32.069  32.921  1.00  0.00     0.167 HD
ATOM     56  C   UNL A   1      40.650  28.850  29.990  1.00  0.00     0.031 A 
ATOM     57  C   UNL A   1      41.036  33.431  35.250  1.00  0.00     0.031 A 
ATOM     58  C   UNL A   1      41.717  28.609  30.925  1.00  0.00     0.049 A 
ATOM     59  C   UNL A   1      41.953  32.239  35.165  1.00  0.00     0.074 A 
ATOM     60  C   UNL A   1      42.683  27.617  30.894  1.00  0.00     0.029 A 
ATOM     61  N   UNL A   1      41.951  29.359  32.066  1.00  0.00    -0.354 N 
ATOM     62  N   UNL A   1      42.036  31.320  34.232  1.00  0.00    -0.248 NA
ATOM     63  C   UNL A   1      42.910  32.058  36.268  1.00  0.00     0.031 C 
ATOM     64  C   UNL A   1      43.455  27.724  32.054  1.00  0.00     0.029 A 
ATOM     65  C   UNL A   1      43.018  28.828  32.770  1.00  0.00     0.049 A 
ATOM     66  H   UNL A   1      41.435  30.153  32.336  1.00  0.00     0.167 HD
ATOM     67  C   UNL A   1      43.064  30.470  34.624  1.00  0.00     0.074 A 
ATOM     68  C   UNL A   1      43.592  30.996  35.866  1.00  0.00     0.031 C 
ATOM     69  C   UNL A   1      43.529  29.353  34.011  1.00  0.00     0.031 A 
BRANCH  56  70
ATOM     70  C   UNL A   1      40.482  27.894  28.840  1.00  0.00    -0.014 A 
ATOM     71  C   UNL A   1      41.079  28.134  27.591  1.00  0.00     0.009 A 
ATOM     72  C   UNL A   1      39.739  26.717  29.020  1.00  0.00     0.009 A 
ATOM     73  C   UNL A   1      40.906  27.231  26.540  1.00  0.00     0.001 A 
ATOM     74  C   UNL A   1      39.595  25.800  27.978  1.00  0.00     0.001 A 
ATOM     75  C   UNL A   1      40.169  26.063  26.736  1.00  0.00     0.000 A 
ENDBRANCH  56  70
BRANCH  57  76
ATOM     76  C   UNL A   1      41.129  34.371  36.401  1.00  0.00    -0.014 A 
ATOM     77  C   UNL A   1      40.321  34.204  37.535  1.00  0.00     0.009 A 
ATOM     78  C   UNL A   1      42.013  35.463  36.356  1.00  0.00     0.009 A 
ATOM     79  C   UNL A   1      40.375  35.123  38.587  1.00  0.00     0.001 A 
ATOM     80  C   UNL A   1      42.091  36.360  37.422  1.00  0.00     0.001 A 
ATOM     81  C   UNL A   1      41.264  36.197  38.532  1.00  0.00     0.000 A 
ENDBRANCH  57  76
BRANCH  69  82
ATOM     82  C   UNL A   1      44.683  28.636  34.659  1.00  0.00    -0.014 A 
ATOM     83  C   UNL A   1      44.475  27.669  35.655  1.00  0.00     0.009 A 
ATOM     84  C   UNL A   1      45.995  28.901  34.236  1.00  0.00     0.009 A 
ATOM     85  C   UNL A   1      45.558  27.009  36.239  1.00  0.00     0.001 A 
ATOM     86  C   UNL A   1      47.074  28.217  34.798  1.00  0.00     0.001 A 
ATOM     87  C   UNL A   1      46.856  27.280  35.805  1.00  0.00     0.000 A 
ENDBRANCH  69  82
ENDBRANCH  43  44
ENDBRANCH  36  38
ENDBRANCH  35  36
ENDBRANCH  34  35
ENDBRANCH  33  34
ENDBRANCH  32  33
ENDBRANCH  31  32
ENDBRANCH  30  31
ENDBRANCH  29  30
ENDBRANCH  28  29
ENDBRANCH   1  28
TORSDOF 26
ENDMDL
MODEL 2
REMARK VINA RESULT:      -8.5      0.893      5.703
REMARK SMILES [NH3+]CCOCC(=O)N1C[C@@H](C(=O)OCCOCCOCCOCCOC(=O)c2ccc(-c3c4nc(c(-c5ccccc5)c5ccc([nH]5)c(-c5ccccc5)c5nc(c(-c6ccccc6)c6ccc3[nH]6)C=C5)C=C4)cc2)Oc2ccccc21
REMARK SMILES IDX 17 1 16 2 15 3 14 4 13 5 11 6 12 7 10 8 8 9 9 10 82 11 77 12
REMARK SMILES IDX 81 13 76 14 78 15 80 16 79 17 6 18 7 19 5 20 4 21 3 22 2 23
REMARK SMILES IDX 1 24 18 28 19 29 20 30 21 31 22 32 23 33 24 34 25 35 26 36
REMARK SMILES IDX 27 37 28 38 29 39 75 40 30 41 74 42 31 43 32 44 33 45 68 46
REMARK SMILES IDX 34 47 73 48 67 49 69 50 35 51 72 52 66 53 65 54 36 56 58 57
REMARK SMILES IDX 43 58 57 59 44 60 47 61 56 62 70 63 45 64 46 65 55 67 71 68
REMARK SMILES IDX 48 69 37 70 38 71 42 72 39 73 41 74 40 75 59 76 60 77 64 78
REMARK SMILES IDX 61 79 63 80 62 81 49 82 50 83 54 84 51 85 53 86 52 87
REMARK H PARENT 1 25 1 26 1 27 69 55 47 66
REMARK Flexibility Score: inf
ROOT
ATOM      1  C   UNL A   1      33.585  27.203  25.952  1.00  0.00     0.188 C 
ENDROOT
BRANCH   1   2
ATOM      2  O   UNL A   1      32.502  26.855  25.104  1.00  0.00    -0.376 OA
BRANCH   2   3
ATOM      3  C   UNL A   1      32.535  25.618  24.395  1.00  0.00     0.202 C 
BRANCH   3   4
ATOM      4  C   UNL A   1      33.875  25.014  23.923  1.00  0.00     0.261 C 
BRANCH   4   5
ATOM      5  O   UNL A   1      33.919  23.568  23.860  1.00  0.00    -0.460 OA
BRANCH   5   6
ATOM      6  C   UNL A   1      33.316  22.950  22.814  1.00  0.00     0.349 C 
ATOM      7  O   UNL A   1      33.637  23.135  21.642  1.00  0.00    -0.248 OA
BRANCH   6   8
ATOM      8  C   UNL A   1      32.123  22.022  23.194  1.00  0.00     0.302 C 
ATOM      9  N   UNL A   1      33.162  20.902  25.098  1.00  0.00    -0.303 N 
ATOM     10  C   UNL A   1      32.099  21.834  24.698  1.00  0.00     0.183 C 
ATOM     11  C   UNL A   1      33.229  19.727  24.276  1.00  0.00     0.086 A 
ATOM     12  C   UNL A   1      32.472  19.690  23.093  1.00  0.00     0.144 A 
ATOM     13  C   UNL A   1      33.934  18.573  24.638  1.00  0.00     0.030 A 
ATOM     14  O   UNL A   1      31.827  20.784  22.565  1.00  0.00    -0.475 OA
ATOM     15  C   UNL A   1      32.342  18.510  22.352  1.00  0.00     0.049 A 
ATOM     16  C   UNL A   1      33.838  17.403  23.872  1.00  0.00     0.002 A 
ATOM     17  C   UNL A   1      33.024  17.363  22.744  1.00  0.00     0.004 A 
BRANCH   9  18
ATOM     18  C   UNL A   1      34.031  21.160  26.154  1.00  0.00     0.253 C 
ATOM     19  O   UNL A   1      33.676  21.433  27.302  1.00  0.00    -0.272 OA
BRANCH  18  20
ATOM     20  C   UNL A   1      35.539  21.135  25.822  1.00  0.00     0.260 C 
BRANCH  20  21
ATOM     21  O   UNL A   1      36.034  21.492  24.548  1.00  0.00    -0.366 OA
BRANCH  21  22
ATOM     22  C   UNL A   1      37.453  21.594  24.425  1.00  0.00     0.222 C 
BRANCH  22  23
ATOM     23  C   UNL A   1      38.171  21.889  25.744  1.00  0.00     0.287 C 
BRANCH  23  24
ATOM     24  N   UNL A   1      38.820  23.198  25.791  1.00  0.00    -0.356 N 
ATOM     25  H   UNL A   1      39.762  23.097  26.171  1.00  0.00     0.344 HD
ATOM     26  H   UNL A   1      38.280  23.824  26.388  1.00  0.00     0.344 HD
ATOM     27  H   UNL A   1      38.873  23.586  24.849  1.00  0.00     0.344 HD
ENDBRANCH  23  24
ENDBRANCH  22  23
ENDBRANCH  21  22
ENDBRANCH  20  21
ENDBRANCH  18  20
ENDBRANCH   9  18
ENDBRANCH   6   8
ENDBRANCH   5   6
ENDBRANCH   4   5
ENDBRANCH   3   4
ENDBRANCH   2   3
ENDBRANCH   1   2
BRANCH   1  28
ATOM     28  C   UNL A   1      33.465  28.436  26.852  1.00  0.00     0.188 C 
BRANCH  28  29
ATOM     29  O   UNL A   1      33.308  29.659  26.168  1.00  0.00    -0.377 OA
BRANCH  29  30
ATOM     30  C   UNL A   1      32.268  29.788  25.211  1.00  0.00     0.188 C 
BRANCH  30  31
ATOM     31  C   UNL A   1      31.152  30.807  25.476  1.00  0.00     0.188 C 
BRANCH  31  32
ATOM     32  O   UNL A   1      31.235  31.448  26.739  1.00  0.00    -0.376 OA
BRANCH  32  33
ATOM     33  C   UNL A   1      31.629  32.811  26.806  1.00  0.00     0.202 C 
BRANCH  33  34
ATOM     34  C   UNL A   1      32.898  33.193  27.592  1.00  0.00     0.261 C 
BRANCH  34  35
ATOM     35  O   UNL A   1      33.245  34.587  27.651  1.00  0.00    -0.460 OA
BRANCH  35  36
ATOM     36  C   UNL A   1      33.240  35.202  28.848  1.00  0.00     0.338 C 
ATOM     37  O   UNL A   1      32.372  35.938  29.293  1.00  0.00    -0.246 OA
BRANCH  36  38
ATOM     38  C   UNL A   1      34.377  34.684  29.639  1.00  0.00     0.060 A 
ATOM     39  C   UNL A   1      35.632  34.582  29.024  1.00  0.00     0.016 A 
ATOM     40  C   UNL A   1      34.213  34.282  30.969  1.00  0.00     0.016 A 
ATOM     41  C   UNL A   1      36.716  34.049  29.721  1.00  0.00     0.010 A 
ATOM     42  C   UNL A   1      35.296  33.722  31.658  1.00  0.00     0.010 A 
ATOM     43  C   UNL A   1      36.544  33.572  31.027  1.00  0.00    -0.014 A 
BRANCH  43  44
ATOM     44  C   UNL A   1      37.619  32.763  31.654  1.00  0.00     0.031 A 
ATOM     45  C   UNL A   1      38.146  33.180  33.001  1.00  0.00     0.074 A 
ATOM     46  C   UNL A   1      38.092  31.650  31.064  1.00  0.00     0.049 A 
ATOM     47  N   UNL A   1      39.094  32.644  33.726  1.00  0.00    -0.248 NA
ATOM     48  C   UNL A   1      37.514  34.361  33.613  1.00  0.00     0.031 C 
ATOM     49  C   UNL A   1      37.625  31.101  29.794  1.00  0.00     0.029 A 
ATOM     50  N   UNL A   1      39.075  30.781  31.468  1.00  0.00    -0.354 N 
ATOM     51  C   UNL A   1      39.178  33.424  34.873  1.00  0.00     0.074 A 
ATOM     52  C   UNL A   1      38.205  34.486  34.736  1.00  0.00     0.031 C 
ATOM     53  C   UNL A   1      38.328  29.988  29.518  1.00  0.00     0.029 A 
ATOM     54  C   UNL A   1      39.319  29.770  30.570  1.00  0.00     0.049 A 
ATOM     55  H   UNL A   1      39.560  30.874  32.320  1.00  0.00     0.167 HD
ATOM     56  C   UNL A   1      39.989  33.270  35.946  1.00  0.00     0.031 A 
ATOM     57  C   UNL A   1      40.253  28.799  30.584  1.00  0.00     0.031 A 
ATOM     58  C   UNL A   1      40.971  32.225  36.077  1.00  0.00     0.049 A 
ATOM     59  C   UNL A   1      41.216  28.713  31.740  1.00  0.00     0.074 A 
ATOM     60  C   UNL A   1      41.833  31.979  37.132  1.00  0.00     0.029 A 
ATOM     61  N   UNL A   1      41.230  31.261  35.116  1.00  0.00    -0.354 N 
ATOM     62  N   UNL A   1      41.272  29.441  32.829  1.00  0.00    -0.248 NA
ATOM     63  C   UNL A   1      42.247  27.666  31.666  1.00  0.00     0.031 C 
ATOM     64  C   UNL A   1      42.662  30.911  36.779  1.00  0.00     0.029 A 
ATOM     65  C   UNL A   1      42.267  30.444  35.535  1.00  0.00     0.049 A 
ATOM     66  H   UNL A   1      40.747  31.169  34.263  1.00  0.00     0.167 HD
ATOM     67  C   UNL A   1      42.324  28.926  33.578  1.00  0.00     0.074 A 
ATOM     68  C   UNL A   1      42.863  27.809  32.831  1.00  0.00     0.031 C 
ATOM     69  C   UNL A   1      42.802  29.341  34.778  1.00  0.00     0.031 A 
BRANCH  56  70
ATOM     70  C   UNL A   1      39.884  34.290  37.048  1.00  0.00    -0.014 A 
ATOM     71  C   UNL A   1      40.583  35.507  36.992  1.00  0.00     0.009 A 
ATOM     72  C   UNL A   1      39.043  34.042  38.144  1.00  0.00     0.009 A 
ATOM     73  C   UNL A   1      40.468  36.436  38.028  1.00  0.00     0.001 A 
ATOM     74  C   UNL A   1      38.906  34.985  39.162  1.00  0.00     0.001 A 
ATOM     75  C   UNL A   1      39.626  36.177  39.109  1.00  0.00     0.000 A 
ENDBRANCH  56  70
BRANCH  57  76
ATOM     76  C   UNL A   1      40.358  27.846  29.445  1.00  0.00    -0.014 A 
ATOM     77  C   UNL A   1      41.246  28.084  28.385  1.00  0.00     0.009 A 
ATOM     78  C   UNL A   1      39.543  26.703  29.399  1.00  0.00     0.009 A 
ATOM     79  C   UNL A   1      41.297  27.213  27.293  1.00  0.00     0.001 A 
ATOM     80  C   UNL A   1      39.621  25.815  28.325  1.00  0.00     0.001 A 
ATOM     81  C   UNL A   1      40.489  26.077  27.267  1.00  0.00     0.000 A 
ENDBRANCH  57  76
BRANCH  69  82
ATOM     82  C   UNL A   1      43.952  28.571  35.371  1.00  0.00    -0.014 A 
ATOM     83  C   UNL A   1      43.735  27.451  36.190  1.00  0.00     0.009 A 
ATOM     84  C   UNL A   1      45.271  28.945  35.070  1.00  0.00     0.009 A 
ATOM     85  C   UNL A   1      44.816  26.746  36.724  1.00  0.00     0.001 A 
ATOM     86  C   UNL A   1      46.349  28.219  35.578  1.00  0.00     0.001 A 
ATOM     87  C   UNL A   1      46.121  27.127  36.412  1.00  0.00     0.000 A 
ENDBRANCH  69  82
ENDBRANCH  43  44
ENDBRANCH  36  38
ENDBRANCH  35  36
ENDBRANCH  34  35
ENDBRANCH  33  34
ENDBRANCH  32  33
ENDBRANCH  31  32
ENDBRANCH  30  31
ENDBRANCH  29  30
ENDBRANCH  28  29
ENDBRANCH   1  28
TORSDOF 26
ENDMDL
MODEL 3
REMARK VINA RESULT:      -8.3      3.816     10.025
REMARK SMILES [NH3+]CCOCC(=O)N1C[C@@H](C(=O)OCCOCCOCCOCCOC(=O)c2ccc(-c3c4nc(c(-c5ccccc5)c5ccc([nH]5)c(-c5ccccc5)c5nc(c(-c6ccccc6)c6ccc3[nH]6)C=C5)C=C4)cc2)Oc2ccccc21
REMARK SMILES IDX 17 1 16 2 15 3 14 4 13 5 11 6 12 7 10 8 8 9 9 10 82 11 77 12
REMARK SMILES IDX 81 13 76 14 78 15 80 16 79 17 6 18 7 19 5 20 4 21 3 22 2 23
REMARK SMILES IDX 1 24 18 28 19 29 20 30 21 31 22 32 23 33 24 34 25 35 26 36
REMARK SMILES IDX 27 37 28 38 29 39 75 40 30 41 74 42 31 43 32 44 33 45 68 46
REMARK SMILES IDX 34 47 73 48 67 49 69 50 35 51 72 52 66 53 65 54 36 56 58 57
REMARK SMILES IDX 43 58 57 59 44 60 47 61 56 62 70 63 45 64 46 65 55 67 71 68
REMARK SMILES IDX 48 69 37 70 38 71 42 72 39 73 41 74 40 75 59 76 60 77 64 78
REMARK SMILES IDX 61 79 63 80 62 81 49 82 50 83 54 84 51 85 53 86 52 87
REMARK H PARENT 1 25 1 26 1 27 69 55 47 66
REMARK Flexibility Score: inf
ROOT
ATOM      1  C   UNL A   1      33.054  27.014  25.660  1.00  0.00     0.188 C 
ENDROOT
BRANCH   1   2
ATOM      2  O   UNL A   1      34.054  27.832  26.248  1.00  0.00    -0.376 OA
BRANCH   2   3
ATOM      3  C   UNL A   1      33.863  29.244  26.301  1.00  0.00     0.202 C 
BRANCH   3   4
ATOM      4  C   UNL A   1      34.055  30.017  27.623  1.00  0.00     0.261 C 
BRANCH   4   5
ATOM      5  O   UNL A   1      33.970  31.459  27.521  1.00  0.00    -0.460 OA
BRANCH   5   6
ATOM      6  C   UNL A   1      35.055  32.195  27.869  1.00  0.00     0.349 C 
ATOM      7  O   UNL A   1      35.222  33.361  27.520  1.00  0.00    -0.248 OA
BRANCH   6   8
ATOM      8  C   UNL A   1      36.130  31.433  28.701  1.00  0.00     0.302 C 
ATOM      9  N   UNL A   1      35.829  32.625  30.811  1.00  0.00    -0.303 N 
ATOM     10  C   UNL A   1      35.663  31.328  30.139  1.00  0.00     0.183 C 
ATOM     11  C   UNL A   1      37.104  33.236  30.562  1.00  0.00     0.086 A 
ATOM     12  C   UNL A   1      37.933  32.684  29.570  1.00  0.00     0.144 A 
ATOM     13  C   UNL A   1      37.611  34.298  31.321  1.00  0.00     0.030 A 
ATOM     14  O   UNL A   1      37.521  31.718  28.682  1.00  0.00    -0.475 OA
ATOM     15  C   UNL A   1      39.257  33.108  29.413  1.00  0.00     0.049 A 
ATOM     16  C   UNL A   1      38.924  34.752  31.134  1.00  0.00     0.002 A 
ATOM     17  C   UNL A   1      39.755  34.143  30.199  1.00  0.00     0.004 A 
BRANCH   9  18
ATOM     18  C   UNL A   1      34.829  33.206  31.584  1.00  0.00     0.253 C 
ATOM     19  O   UNL A   1      34.435  32.765  32.665  1.00  0.00    -0.272 OA
BRANCH  18  20
ATOM     20  C   UNL A   1      34.156  34.467  30.999  1.00  0.00     0.260 C 
BRANCH  20  21
ATOM     21  O   UNL A   1      32.856  34.870  31.380  1.00  0.00    -0.366 OA
BRANCH  21  22
ATOM     22  C   UNL A   1      32.590  36.272  31.337  1.00  0.00     0.222 C 
BRANCH  22  23
ATOM     23  C   UNL A   1      33.177  37.052  32.515  1.00  0.00     0.287 C 
BRANCH  23  24
ATOM     24  N   UNL A   1      34.037  38.168  32.125  1.00  0.00    -0.356 N 
ATOM     25  H   UNL A   1      33.558  39.049  32.314  1.00  0.00     0.344 HD
ATOM     26  H   UNL A   1      34.247  38.104  31.129  1.00  0.00     0.344 HD
ATOM     27  H   UNL A   1      34.905  38.132  32.659  1.00  0.00     0.344 HD
ENDBRANCH  23  24
ENDBRANCH  22  23
ENDBRANCH  21  22
ENDBRANCH  20  21
ENDBRANCH  18  20
ENDBRANCH   9  18
ENDBRANCH   6   8
ENDBRANCH   5   6
ENDBRANCH   4   5
ENDBRANCH   3   4
ENDBRANCH   2   3
ENDBRANCH   1   2
BRANCH   1  28
ATOM     28  C   UNL A   1      33.327  25.519  25.471  1.00  0.00     0.188 C 
BRANCH  28  29
ATOM     29  O   UNL A   1      33.024  25.016  24.188  1.00  0.00    -0.377 OA
BRANCH  29  30
ATOM     30  C   UNL A   1      33.050  23.615  23.971  1.00  0.00     0.188 C 
BRANCH  30  31
ATOM     31  C   UNL A   1      33.096  22.686  25.192  1.00  0.00     0.188 C 
BRANCH  31  32
ATOM     32  O   UNL A   1      34.345  22.041  25.387  1.00  0.00    -0.376 OA
BRANCH  32  33
ATOM     33  C   UNL A   1      35.449  22.394  24.566  1.00  0.00     0.202 C 
BRANCH  33  34
ATOM     34  C   UNL A   1      36.815  21.724  24.806  1.00  0.00     0.261 C 
BRANCH  34  35
ATOM     35  O   UNL A   1      37.550  22.121  25.977  1.00  0.00    -0.460 OA
BRANCH  35  36
ATOM     36  C   UNL A   1      38.872  21.872  26.023  1.00  0.00     0.338 C 
ATOM     37  O   UNL A   1      39.472  20.977  25.446  1.00  0.00    -0.246 OA
BRANCH  36  38
ATOM     38  C   UNL A   1      39.529  22.989  26.735  1.00  0.00     0.060 A 
ATOM     39  C   UNL A   1      39.091  24.295  26.483  1.00  0.00     0.016 A 
ATOM     40  C   UNL A   1      40.579  22.762  27.630  1.00  0.00     0.016 A 
ATOM     41  C   UNL A   1      39.720  25.379  27.096  1.00  0.00     0.010 A 
ATOM     42  C   UNL A   1      41.227  23.852  28.224  1.00  0.00     0.010 A 
ATOM     43  C   UNL A   1      40.823  25.167  27.934  1.00  0.00    -0.014 A 
BRANCH  43  44
ATOM     44  C   UNL A   1      41.649  26.326  28.355  1.00  0.00     0.031 A 
ATOM     45  C   UNL A   1      42.952  26.582  27.645  1.00  0.00     0.074 A 
ATOM     46  C   UNL A   1      41.235  27.169  29.319  1.00  0.00     0.049 A 
ATOM     47  N   UNL A   1      43.846  27.514  27.856  1.00  0.00    -0.248 NA
ATOM     48  C   UNL A   1      43.288  25.661  26.546  1.00  0.00     0.031 C 
ATOM     49  C   UNL A   1      39.968  27.073  30.040  1.00  0.00     0.029 A 
ATOM     50  N   UNL A   1      41.846  28.276  29.853  1.00  0.00    -0.354 N 
ATOM     51  C   UNL A   1      44.852  27.288  26.924  1.00  0.00     0.074 A 
ATOM     52  C   UNL A   1      44.473  26.116  26.166  1.00  0.00     0.031 C 
ATOM     53  C   UNL A   1      39.899  28.079  30.929  1.00  0.00     0.029 A 
ATOM     54  C   UNL A   1      41.131  28.864  30.868  1.00  0.00     0.049 A 
ATOM     55  H   UNL A   1      42.715  28.616  29.538  1.00  0.00     0.167 HD
ATOM     56  C   UNL A   1      45.989  27.994  26.716  1.00  0.00     0.031 A 
ATOM     57  C   UNL A   1      41.447  29.898  31.672  1.00  0.00     0.031 A 
ATOM     58  C   UNL A   1      46.377  29.149  27.481  1.00  0.00     0.049 A 
ATOM     59  C   UNL A   1      42.768  30.601  31.490  1.00  0.00     0.074 A 
ATOM     60  C   UNL A   1      47.506  29.939  27.337  1.00  0.00     0.029 A 
ATOM     61  N   UNL A   1      45.656  29.673  28.542  1.00  0.00    -0.354 N 
ATOM     62  N   UNL A   1      43.701  30.395  30.592  1.00  0.00    -0.248 NA
ATOM     63  C   UNL A   1      43.077  31.684  32.436  1.00  0.00     0.031 C 
ATOM     64  C   UNL A   1      47.502  30.895  28.357  1.00  0.00     0.029 A 
ATOM     65  C   UNL A   1      46.335  30.748  29.090  1.00  0.00     0.049 A 
ATOM     66  H   UNL A   1      44.788  29.331  28.858  1.00  0.00     0.167 HD
ATOM     67  C   UNL A   1      44.692  31.334  30.849  1.00  0.00     0.074 A 
ATOM     68  C   UNL A   1      44.237  32.127  31.972  1.00  0.00     0.031 C 
ATOM     69  C   UNL A   1      45.876  31.524  30.214  1.00  0.00     0.031 A 
BRANCH  56  70
ATOM     70  C   UNL A   1      46.923  27.503  25.643  1.00  0.00    -0.014 A 
ATOM     71  C   UNL A   1      47.882  26.509  25.902  1.00  0.00     0.009 A 
ATOM     72  C   UNL A   1      46.819  28.020  24.343  1.00  0.00     0.009 A 
ATOM     73  C   UNL A   1      48.738  26.072  24.889  1.00  0.00     0.001 A 
ATOM     74  C   UNL A   1      47.653  27.558  23.325  1.00  0.00     0.001 A 
ATOM     75  C   UNL A   1      48.619  26.593  23.601  1.00  0.00     0.000 A 
ENDBRANCH  56  70
BRANCH  57  76
ATOM     76  C   UNL A   1      40.517  30.313  32.757  1.00  0.00    -0.014 A 
ATOM     77  C   UNL A   1      40.598  29.740  34.035  1.00  0.00     0.009 A 
ATOM     78  C   UNL A   1      39.519  31.270  32.508  1.00  0.00     0.009 A 
ATOM     79  C   UNL A   1      39.685  30.095  35.032  1.00  0.00     0.001 A 
ATOM     80  C   UNL A   1      38.629  31.650  33.515  1.00  0.00     0.001 A 
ATOM     81  C   UNL A   1      38.705  31.054  34.772  1.00  0.00     0.000 A 
ENDBRANCH  57  76
BRANCH  69  82
ATOM     82  C   UNL A   1      46.753  32.646  30.701  1.00  0.00    -0.014 A 
ATOM     83  C   UNL A   1      47.728  32.436  31.689  1.00  0.00     0.009 A 
ATOM     84  C   UNL A   1      46.630  33.924  30.132  1.00  0.00     0.009 A 
ATOM     85  C   UNL A   1      48.536  33.490  32.122  1.00  0.00     0.001 A 
ATOM     86  C   UNL A   1      47.461  34.967  30.542  1.00  0.00     0.001 A 
ATOM     87  C   UNL A   1      48.405  34.753  31.544  1.00  0.00     0.000 A 
ENDBRANCH  69  82
ENDBRANCH  43  44
ENDBRANCH  36  38
ENDBRANCH  35  36
ENDBRANCH  34  35
ENDBRANCH  33  34
ENDBRANCH  32  33
ENDBRANCH  31  32
ENDBRANCH  30  31
ENDBRANCH  29  30
ENDBRANCH  28  29
ENDBRANCH   1  28
TORSDOF 26
ENDMDL
