MODEL 1
REMARK VINA RESULT:      -7.8      0.000      0.000
REMARK SMILES CC[NH2+][C@]1(C(=O)OCCOCCOCCOCCOC(=O)c2ccc(-c3c4nc(c(-c5ccccc5)c5ccc([nH]5)c(-c5ccccc5)c5nc(c(-c6ccccc6)c6ccc3[nH]6)C=C5)C=C4)cc2)CC[C@H](SC2COC2)C1
REMARK SMILES IDX 13 1 12 2 11 3 10 4 9 5 8 6 7 7 5 8 6 9 4 10 70 11 78 12
REMARK SMILES IDX 71 13 72 14 3 15 2 18 1 19 73 20 74 21 75 22 77 23 76 24
REMARK SMILES IDX 14 25 15 26 16 27 17 28 18 29 19 30 20 31 21 32 22 33 23 34
REMARK SMILES IDX 69 35 24 36 68 37 25 38 26 39 27 40 62 41 28 42 67 43 61 44
REMARK SMILES IDX 63 45 29 46 66 47 60 48 59 49 30 51 52 52 37 53 51 54 38 55
REMARK SMILES IDX 41 56 50 57 64 58 39 59 40 60 49 62 65 63 42 64 31 65 32 66
REMARK SMILES IDX 36 67 33 68 35 69 34 70 53 71 54 72 58 73 55 74 57 75 56 76
REMARK SMILES IDX 43 77 44 78 48 79 45 80 47 81 46 82
REMARK H PARENT 3 16 3 17 63 50 41 61
REMARK Flexibility Score: inf
ROOT
ATOM      1  O   UNL A   1      33.860  28.927  27.552  1.00  0.00    -0.377 OA
ENDROOT
BRANCH   1   2
ATOM      2  C   UNL A   1      33.310  28.162  26.497  1.00  0.00     0.188 C 
BRANCH   2   3
ATOM      3  C   UNL A   1      31.905  28.602  26.048  1.00  0.00     0.188 C 
BRANCH   3   4
ATOM      4  O   UNL A   1      31.757  29.335  24.850  1.00  0.00    -0.376 OA
BRANCH   4   5
ATOM      5  C   UNL A   1      31.796  28.783  23.544  1.00  0.00     0.202 C 
BRANCH   5   6
ATOM      6  C   UNL A   1      31.042  27.560  23.010  1.00  0.00     0.261 C 
BRANCH   6   7
ATOM      7  O   UNL A   1      31.760  26.347  22.872  1.00  0.00    -0.459 OA
BRANCH   7   8
ATOM      8  C   UNL A   1      31.441  25.406  23.793  1.00  0.00     0.368 C 
ATOM      9  O   UNL A   1      30.329  25.291  24.300  1.00  0.00    -0.245 OA
BRANCH   8  10
ATOM     10  C   UNL A   1      32.641  24.545  24.193  1.00  0.00     0.195 C 
ATOM     11  C   UNL A   1      33.841  25.493  24.135  1.00  0.00     0.082 C 
ATOM     12  C   UNL A   1      32.592  24.188  25.697  1.00  0.00     0.095 C 
ATOM     13  C   UNL A   1      34.856  24.857  25.051  1.00  0.00     0.022 C 
ATOM     14  C   UNL A   1      34.057  24.219  26.187  1.00  0.00     0.054 C 
BRANCH  10  15
ATOM     15  N   UNL A   1      32.750  23.248  23.481  1.00  0.00    -0.332 N 
ATOM     16  H   UNL A   1      32.653  23.441  22.484  1.00  0.00     0.347 HD
ATOM     17  H   UNL A   1      33.649  22.873  23.780  1.00  0.00     0.347 HD
BRANCH  15  18
ATOM     18  C   UNL A   1      31.799  22.197  23.808  1.00  0.00     0.257 C 
ATOM     19  C   UNL A   1      32.494  20.848  23.635  1.00  0.00     0.071 C 
ENDBRANCH  15  18
ENDBRANCH  10  15
BRANCH  14  20
ATOM     20  S   UNL A   1      34.668  22.554  26.597  1.00  0.00    -0.150 SA
BRANCH  20  21
ATOM     21  C   UNL A   1      35.861  22.149  25.291  1.00  0.00     0.098 C 
ATOM     22  C   UNL A   1      37.352  22.326  25.581  1.00  0.00     0.177 C 
ATOM     23  C   UNL A   1      36.223  20.686  25.051  1.00  0.00     0.177 C 
ATOM     24  O   UNL A   1      37.640  21.015  25.018  1.00  0.00    -0.379 OA
ENDBRANCH  20  21
ENDBRANCH  14  20
ENDBRANCH   8  10
ENDBRANCH   7   8
ENDBRANCH   6   7
ENDBRANCH   5   6
ENDBRANCH   4   5
ENDBRANCH   3   4
ENDBRANCH   2   3
ENDBRANCH   1   2
BRANCH   1  25
ATOM     25  C   UNL A   1      34.516  30.154  27.233  1.00  0.00     0.188 C 
BRANCH  25  26
ATOM     26  C   UNL A   1      33.916  31.527  27.619  1.00  0.00     0.188 C 
BRANCH  26  27
ATOM     27  O   UNL A   1      34.838  32.432  28.199  1.00  0.00    -0.376 OA
BRANCH  27  28
ATOM     28  C   UNL A   1      34.420  33.159  29.343  1.00  0.00     0.202 C 
BRANCH  28  29
ATOM     29  C   UNL A   1      34.978  32.662  30.684  1.00  0.00     0.261 C 
BRANCH  29  30
ATOM     30  O   UNL A   1      35.668  31.400  30.639  1.00  0.00    -0.460 OA
BRANCH  30  31
ATOM     31  C   UNL A   1      36.505  31.120  31.662  1.00  0.00     0.338 C 
ATOM     32  O   UNL A   1      36.207  30.878  32.813  1.00  0.00    -0.246 OA
BRANCH  31  33
ATOM     33  C   UNL A   1      37.865  30.960  31.103  1.00  0.00     0.060 A 
ATOM     34  C   UNL A   1      38.011  30.802  29.719  1.00  0.00     0.016 A 
ATOM     35  C   UNL A   1      38.984  30.946  31.939  1.00  0.00     0.016 A 
ATOM     36  C   UNL A   1      39.276  30.590  29.173  1.00  0.00     0.010 A 
ATOM     37  C   UNL A   1      40.249  30.717  31.390  1.00  0.00     0.010 A 
ATOM     38  C   UNL A   1      40.397  30.503  30.009  1.00  0.00    -0.014 A 
BRANCH  38  39
ATOM     39  C   UNL A   1      41.689  30.035  29.450  1.00  0.00     0.031 A 
ATOM     40  C   UNL A   1      41.818  28.598  29.021  1.00  0.00     0.074 A 
ATOM     41  C   UNL A   1      42.721  30.881  29.281  1.00  0.00     0.049 A 
ATOM     42  N   UNL A   1      42.840  27.979  28.484  1.00  0.00    -0.248 NA
ATOM     43  C   UNL A   1      40.635  27.745  29.221  1.00  0.00     0.031 C 
ATOM     44  C   UNL A   1      42.715  32.303  29.619  1.00  0.00     0.029 A 
ATOM     45  N   UNL A   1      43.977  30.659  28.775  1.00  0.00    -0.354 N 
ATOM     46  C   UNL A   1      42.425  26.668  28.286  1.00  0.00     0.074 A 
ATOM     47  C   UNL A   1      41.073  26.571  28.792  1.00  0.00     0.031 C 
ATOM     48  C   UNL A   1      43.912  32.829  29.305  1.00  0.00     0.029 A 
ATOM     49  C   UNL A   1      44.776  31.776  28.776  1.00  0.00     0.049 A 
ATOM     50  H   UNL A   1      44.278  29.783  28.441  1.00  0.00     0.167 HD
ATOM     51  C   UNL A   1      43.104  25.637  27.726  1.00  0.00     0.031 A 
ATOM     52  C   UNL A   1      46.061  31.929  28.403  1.00  0.00     0.031 A 
ATOM     53  C   UNL A   1      44.457  25.723  27.243  1.00  0.00     0.049 A 
ATOM     54  C   UNL A   1      46.819  30.748  27.857  1.00  0.00     0.074 A 
ATOM     55  C   UNL A   1      45.226  24.737  26.649  1.00  0.00     0.029 A 
ATOM     56  N   UNL A   1      45.248  26.859  27.310  1.00  0.00    -0.354 N 
ATOM     57  N   UNL A   1      46.405  29.522  27.643  1.00  0.00    -0.248 NA
ATOM     58  C   UNL A   1      48.222  30.980  27.485  1.00  0.00     0.031 C 
ATOM     59  C   UNL A   1      46.503  25.258  26.417  1.00  0.00     0.029 A 
ATOM     60  C   UNL A   1      46.507  26.590  26.797  1.00  0.00     0.049 A 
ATOM     61  H   UNL A   1      44.959  27.729  27.669  1.00  0.00     0.167 HD
ATOM     62  C   UNL A   1      47.486  28.847  27.086  1.00  0.00     0.074 A 
ATOM     63  C   UNL A   1      48.565  29.807  26.973  1.00  0.00     0.031 C 
ATOM     64  C   UNL A   1      47.578  27.549  26.702  1.00  0.00     0.031 A 
BRANCH  51  65
ATOM     65  C   UNL A   1      42.398  24.310  27.643  1.00  0.00    -0.014 A 
ATOM     66  C   UNL A   1      41.592  23.975  26.544  1.00  0.00     0.009 A 
ATOM     67  C   UNL A   1      42.569  23.367  28.669  1.00  0.00     0.009 A 
ATOM     68  C   UNL A   1      40.942  22.739  26.491  1.00  0.00     0.001 A 
ATOM     69  C   UNL A   1      41.945  22.121  28.599  1.00  0.00     0.001 A 
ATOM     70  C   UNL A   1      41.124  21.811  27.516  1.00  0.00     0.000 A 
ENDBRANCH  51  65
BRANCH  52  71
ATOM     71  C   UNL A   1      46.729  33.251  28.543  1.00  0.00    -0.014 A 
ATOM     72  C   UNL A   1      46.707  34.184  27.495  1.00  0.00     0.009 A 
ATOM     73  C   UNL A   1      47.422  33.574  29.721  1.00  0.00     0.009 A 
ATOM     74  C   UNL A   1      47.390  35.398  27.612  1.00  0.00     0.001 A 
ATOM     75  C   UNL A   1      48.074  34.802  29.848  1.00  0.00     0.001 A 
ATOM     76  C   UNL A   1      48.068  35.708  28.790  1.00  0.00     0.000 A 
ENDBRANCH  52  71
BRANCH  64  77
ATOM     77  C   UNL A   1      48.881  27.107  26.089  1.00  0.00    -0.014 A 
ATOM     78  C   UNL A   1      49.137  27.255  24.717  1.00  0.00     0.009 A 
ATOM     79  C   UNL A   1      49.874  26.537  26.904  1.00  0.00     0.009 A 
ATOM     80  C   UNL A   1      50.334  26.791  24.165  1.00  0.00     0.001 A 
ATOM     81  C   UNL A   1      51.084  26.108  26.356  1.00  0.00     0.001 A 
ATOM     82  C   UNL A   1      51.306  26.221  24.985  1.00  0.00     0.000 A 
ENDBRANCH  64  77
ENDBRANCH  38  39
ENDBRANCH  31  33
ENDBRANCH  30  31
ENDBRANCH  29  30
ENDBRANCH  28  29
ENDBRANCH  27  28
ENDBRANCH  26  27
ENDBRANCH  25  26
ENDBRANCH   1  25
TORSDOF 24
ENDMDL
MODEL 2
REMARK VINA RESULT:      -7.7      4.259      5.400
REMARK SMILES CC[NH2+][C@]1(C(=O)OCCOCCOCCOCCOC(=O)c2ccc(-c3c4nc(c(-c5ccccc5)c5ccc([nH]5)c(-c5ccccc5)c5nc(c(-c6ccccc6)c6ccc3[nH]6)C=C5)C=C4)cc2)CC[C@H](SC2COC2)C1
REMARK SMILES IDX 13 1 12 2 11 3 10 4 9 5 8 6 7 7 5 8 6 9 4 10 70 11 78 12
REMARK SMILES IDX 71 13 72 14 3 15 2 18 1 19 73 20 74 21 75 22 77 23 76 24
REMARK SMILES IDX 14 25 15 26 16 27 17 28 18 29 19 30 20 31 21 32 22 33 23 34
REMARK SMILES IDX 69 35 24 36 68 37 25 38 26 39 27 40 62 41 28 42 67 43 61 44
REMARK SMILES IDX 63 45 29 46 66 47 60 48 59 49 30 51 52 52 37 53 51 54 38 55
REMARK SMILES IDX 41 56 50 57 64 58 39 59 40 60 49 62 65 63 42 64 31 65 32 66
REMARK SMILES IDX 36 67 33 68 35 69 34 70 53 71 54 72 58 73 55 74 57 75 56 76
REMARK SMILES IDX 43 77 44 78 48 79 45 80 47 81 46 82
REMARK H PARENT 3 16 3 17 63 50 41 61
REMARK Flexibility Score: inf
ROOT
ATOM      1  O   UNL A   1      32.505  29.837  25.951  1.00  0.00    -0.377 OA
ENDROOT
BRANCH   1   2
ATOM      2  C   UNL A   1      33.449  28.872  26.373  1.00  0.00     0.188 C 
BRANCH   2   3
ATOM      3  C   UNL A   1      33.614  27.674  25.422  1.00  0.00     0.188 C 
BRANCH   3   4
ATOM      4  O   UNL A   1      33.542  27.881  24.026  1.00  0.00    -0.376 OA
BRANCH   4   5
ATOM      5  C   UNL A   1      33.541  26.854  23.048  1.00  0.00     0.202 C 
BRANCH   5   6
ATOM      6  C   UNL A   1      32.347  26.289  22.270  1.00  0.00     0.261 C 
BRANCH   6   7
ATOM      7  O   UNL A   1      31.886  24.994  22.611  1.00  0.00    -0.459 OA
BRANCH   7   8
ATOM      8  C   UNL A   1      32.807  24.016  22.443  1.00  0.00     0.368 C 
ATOM      9  O   UNL A   1      33.407  23.810  21.391  1.00  0.00    -0.245 OA
BRANCH   8  10
ATOM     10  C   UNL A   1      32.967  23.139  23.687  1.00  0.00     0.195 C 
ATOM     11  C   UNL A   1      31.694  23.379  24.502  1.00  0.00     0.082 C 
ATOM     12  C   UNL A   1      32.838  21.640  23.331  1.00  0.00     0.095 C 
ATOM     13  C   UNL A   1      31.573  22.149  25.365  1.00  0.00     0.022 C 
ATOM     14  C   UNL A   1      32.091  20.987  24.517  1.00  0.00     0.054 C 
BRANCH  10  15
ATOM     15  N   UNL A   1      34.270  23.270  24.385  1.00  0.00    -0.332 N 
ATOM     16  H   UNL A   1      34.553  24.247  24.318  1.00  0.00     0.347 HD
ATOM     17  H   UNL A   1      34.086  22.919  25.325  1.00  0.00     0.347 HD
BRANCH  15  18
ATOM     18  C   UNL A   1      35.389  22.467  23.918  1.00  0.00     0.257 C 
ATOM     19  C   UNL A   1      36.587  22.736  24.826  1.00  0.00     0.071 C 
ENDBRANCH  15  18
ENDBRANCH  10  15
BRANCH  14  20
ATOM     20  S   UNL A   1      33.176  19.879  25.471  1.00  0.00    -0.150 SA
BRANCH  20  21
ATOM     21  C   UNL A   1      33.749  18.633  24.283  1.00  0.00     0.098 C 
ATOM     22  C   UNL A   1      34.043  17.220  24.789  1.00  0.00     0.177 C 
ATOM     23  C   UNL A   1      32.726  17.948  23.383  1.00  0.00     0.177 C 
ATOM     24  O   UNL A   1      33.298  16.643  23.680  1.00  0.00    -0.379 OA
ENDBRANCH  20  21
ENDBRANCH  14  20
ENDBRANCH   8  10
ENDBRANCH   7   8
ENDBRANCH   6   7
ENDBRANCH   5   6
ENDBRANCH   4   5
ENDBRANCH   3   4
ENDBRANCH   2   3
ENDBRANCH   1   2
BRANCH   1  25
ATOM     25  C   UNL A   1      32.036  30.792  26.903  1.00  0.00     0.188 C 
BRANCH  25  26
ATOM     26  C   UNL A   1      31.396  32.133  26.469  1.00  0.00     0.188 C 
BRANCH  26  27
ATOM     27  O   UNL A   1      31.865  33.267  27.178  1.00  0.00    -0.376 OA
BRANCH  27  28
ATOM     28  C   UNL A   1      33.102  33.154  27.862  1.00  0.00     0.202 C 
BRANCH  28  29
ATOM     29  C   UNL A   1      33.551  34.404  28.630  1.00  0.00     0.261 C 
BRANCH  29  30
ATOM     30  O   UNL A   1      34.753  34.255  29.408  1.00  0.00    -0.460 OA
BRANCH  30  31
ATOM     31  C   UNL A   1      34.605  34.049  30.735  1.00  0.00     0.338 C 
ATOM     32  O   UNL A   1      33.603  34.214  31.399  1.00  0.00    -0.246 OA
BRANCH  31  33
ATOM     33  C   UNL A   1      35.833  33.389  31.230  1.00  0.00     0.060 A 
ATOM     34  C   UNL A   1      37.077  33.904  30.846  1.00  0.00     0.016 A 
ATOM     35  C   UNL A   1      35.756  32.261  32.051  1.00  0.00     0.016 A 
ATOM     36  C   UNL A   1      38.249  33.265  31.250  1.00  0.00     0.010 A 
ATOM     37  C   UNL A   1      36.932  31.614  32.442  1.00  0.00     0.010 A 
ATOM     38  C   UNL A   1      38.183  32.093  32.014  1.00  0.00    -0.014 A 
BRANCH  38  39
ATOM     39  C   UNL A   1      39.413  31.291  32.228  1.00  0.00     0.031 A 
ATOM     40  C   UNL A   1      39.729  30.174  31.269  1.00  0.00     0.074 A 
ATOM     41  C   UNL A   1      40.264  31.577  33.229  1.00  0.00     0.049 A 
ATOM     42  N   UNL A   1      40.757  29.364  31.247  1.00  0.00    -0.248 NA
ATOM     43  C   UNL A   1      38.755  29.942  30.189  1.00  0.00     0.031 C 
ATOM     44  C   UNL A   1      40.096  32.655  34.202  1.00  0.00     0.029 A 
ATOM     45  N   UNL A   1      41.447  30.980  33.586  1.00  0.00    -0.354 N 
ATOM     46  C   UNL A   1      40.554  28.526  30.157  1.00  0.00     0.074 A 
ATOM     47  C   UNL A   1      39.288  28.902  29.565  1.00  0.00     0.031 C 
ATOM     48  C   UNL A   1      41.143  32.645  35.045  1.00  0.00     0.029 A 
ATOM     49  C   UNL A   1      42.037  31.544  34.691  1.00  0.00     0.049 A 
ATOM     50  H   UNL A   1      41.838  30.221  33.097  1.00  0.00     0.167 HD
ATOM     51  C   UNL A   1      41.351  27.537  29.685  1.00  0.00     0.031 A 
ATOM     52  C   UNL A   1      43.161  31.203  35.349  1.00  0.00     0.031 A 
ATOM     53  C   UNL A   1      42.598  27.144  30.284  1.00  0.00     0.049 A 
ATOM     54  C   UNL A   1      43.989  30.048  34.849  1.00  0.00     0.074 A 
ATOM     55  C   UNL A   1      43.483  26.162  29.872  1.00  0.00     0.029 A 
ATOM     56  N   UNL A   1      43.134  27.706  31.433  1.00  0.00    -0.354 N 
ATOM     57  N   UNL A   1      43.803  29.285  33.798  1.00  0.00    -0.248 NA
ATOM     58  C   UNL A   1      45.195  29.718  35.624  1.00  0.00     0.031 C 
ATOM     59  C   UNL A   1      44.520  26.085  30.809  1.00  0.00     0.029 A 
ATOM     60  C   UNL A   1      44.321  27.070  31.762  1.00  0.00     0.049 A 
ATOM     61  H   UNL A   1      42.731  28.447  31.940  1.00  0.00     0.167 HD
ATOM     62  C   UNL A   1      44.882  28.408  33.770  1.00  0.00     0.074 A 
ATOM     63  C   UNL A   1      45.728  28.749  34.894  1.00  0.00     0.031 C 
ATOM     64  C   UNL A   1      45.148  27.408  32.891  1.00  0.00     0.031 A 
BRANCH  51  65
ATOM     65  C   UNL A   1      40.870  26.782  28.474  1.00  0.00    -0.014 A 
ATOM     66  C   UNL A   1      41.378  27.050  27.193  1.00  0.00     0.009 A 
ATOM     67  C   UNL A   1      39.916  25.764  28.624  1.00  0.00     0.009 A 
ATOM     68  C   UNL A   1      40.914  26.341  26.083  1.00  0.00     0.001 A 
ATOM     69  C   UNL A   1      39.476  25.035  27.519  1.00  0.00     0.001 A 
ATOM     70  C   UNL A   1      39.967  25.329  26.248  1.00  0.00     0.000 A 
ENDBRANCH  51  65
BRANCH  52  71
ATOM     71  C   UNL A   1      43.573  31.952  36.566  1.00  0.00    -0.014 A 
ATOM     72  C   UNL A   1      44.450  33.044  36.477  1.00  0.00     0.009 A 
ATOM     73  C   UNL A   1      43.113  31.555  37.832  1.00  0.00     0.009 A 
ATOM     74  C   UNL A   1      44.880  33.703  37.632  1.00  0.00     0.001 A 
ATOM     75  C   UNL A   1      43.518  32.238  38.981  1.00  0.00     0.001 A 
ATOM     76  C   UNL A   1      44.410  33.303  38.882  1.00  0.00     0.000 A 
ENDBRANCH  52  71
BRANCH  64  77
ATOM     77  C   UNL A   1      46.428  26.641  33.095  1.00  0.00    -0.014 A 
ATOM     78  C   UNL A   1      46.473  25.481  33.884  1.00  0.00     0.009 A 
ATOM     79  C   UNL A   1      47.610  27.084  32.478  1.00  0.00     0.009 A 
ATOM     80  C   UNL A   1      47.683  24.816  34.098  1.00  0.00     0.001 A 
ATOM     81  C   UNL A   1      48.810  26.397  32.662  1.00  0.00     0.001 A 
ATOM     82  C   UNL A   1      48.849  25.273  33.486  1.00  0.00     0.000 A 
ENDBRANCH  64  77
ENDBRANCH  38  39
ENDBRANCH  31  33
ENDBRANCH  30  31
ENDBRANCH  29  30
ENDBRANCH  28  29
ENDBRANCH  27  28
ENDBRANCH  26  27
ENDBRANCH  25  26
ENDBRANCH   1  25
TORSDOF 24
ENDMDL
MODEL 3
REMARK VINA RESULT:      -7.5      4.152      5.088
REMARK SMILES CC[NH2+][C@]1(C(=O)OCCOCCOCCOCCOC(=O)c2ccc(-c3c4nc(c(-c5ccccc5)c5ccc([nH]5)c(-c5ccccc5)c5nc(c(-c6ccccc6)c6ccc3[nH]6)C=C5)C=C4)cc2)CC[C@H](SC2COC2)C1
REMARK SMILES IDX 13 1 12 2 11 3 10 4 9 5 8 6 7 7 5 8 6 9 4 10 70 11 78 12
REMARK SMILES IDX 71 13 72 14 3 15 2 18 1 19 73 20 74 21 75 22 77 23 76 24
REMARK SMILES IDX 14 25 15 26 16 27 17 28 18 29 19 30 20 31 21 32 22 33 23 34
REMARK SMILES IDX 69 35 24 36 68 37 25 38 26 39 27 40 62 41 28 42 67 43 61 44
REMARK SMILES IDX 63 45 29 46 66 47 60 48 59 49 30 51 52 52 37 53 51 54 38 55
REMARK SMILES IDX 41 56 50 57 64 58 39 59 40 60 49 62 65 63 42 64 31 65 32 66
REMARK SMILES IDX 36 67 33 68 35 69 34 70 53 71 54 72 58 73 55 74 57 75 56 76
REMARK SMILES IDX 43 77 44 78 48 79 45 80 47 81 46 82
REMARK H PARENT 3 16 3 17 63 50 41 61
REMARK Flexibility Score: inf
ROOT
ATOM      1  O   UNL A   1      32.431  30.305  25.499  1.00  0.00    -0.377 OA
ENDROOT
BRANCH   1   2
ATOM      2  C   UNL A   1      33.247  29.152  25.588  1.00  0.00     0.188 C 
BRANCH   2   3
ATOM      3  C   UNL A   1      32.493  27.818  25.448  1.00  0.00     0.188 C 
BRANCH   3   4
ATOM      4  O   UNL A   1      31.085  27.825  25.329  1.00  0.00    -0.376 OA
BRANCH   4   5
ATOM      5  C   UNL A   1      30.331  26.941  24.516  1.00  0.00     0.202 C 
BRANCH   5   6
ATOM      6  C   UNL A   1      29.605  25.657  24.934  1.00  0.00     0.261 C 
BRANCH   6   7
ATOM      7  O   UNL A   1      30.392  24.517  25.230  1.00  0.00    -0.459 OA
BRANCH   7   8
ATOM      8  C   UNL A   1      30.979  23.952  24.148  1.00  0.00     0.368 C 
ATOM      9  O   UNL A   1      30.396  23.728  23.090  1.00  0.00    -0.245 OA
BRANCH   8  10
ATOM     10  C   UNL A   1      32.431  23.550  24.409  1.00  0.00     0.195 C 
ATOM     11  C   UNL A   1      33.263  24.491  23.535  1.00  0.00     0.082 C 
ATOM     12  C   UNL A   1      32.875  23.964  25.832  1.00  0.00     0.095 C 
ATOM     13  C   UNL A   1      34.617  24.510  24.199  1.00  0.00     0.022 C 
ATOM     14  C   UNL A   1      34.350  24.410  25.701  1.00  0.00     0.054 C 
BRANCH  10  15
ATOM     15  N   UNL A   1      32.707  22.095  24.317  1.00  0.00    -0.332 N 
ATOM     16  H   UNL A   1      32.354  21.777  23.414  1.00  0.00     0.347 HD
ATOM     17  H   UNL A   1      33.715  22.023  24.454  1.00  0.00     0.347 HD
BRANCH  15  18
ATOM     18  C   UNL A   1      32.145  21.217  25.331  1.00  0.00     0.257 C 
ATOM     19  C   UNL A   1      32.940  19.914  25.334  1.00  0.00     0.071 C 
ENDBRANCH  15  18
ENDBRANCH  10  15
BRANCH  14  20
ATOM     20  S   UNL A   1      35.484  23.244  26.518  1.00  0.00    -0.150 SA
BRANCH  20  21
ATOM     21  C   UNL A   1      36.595  22.662  25.207  1.00  0.00     0.098 C 
ATOM     22  C   UNL A   1      37.943  22.059  25.603  1.00  0.00     0.177 C 
ATOM     23  C   UNL A   1      36.331  21.302  24.567  1.00  0.00     0.177 C 
ATOM     24  O   UNL A   1      37.735  20.940  24.696  1.00  0.00    -0.379 OA
ENDBRANCH  20  21
ENDBRANCH  14  20
ENDBRANCH   8  10
ENDBRANCH   7   8
ENDBRANCH   6   7
ENDBRANCH   5   6
ENDBRANCH   4   5
ENDBRANCH   3   4
ENDBRANCH   2   3
ENDBRANCH   1   2
BRANCH   1  25
ATOM     25  C   UNL A   1      32.236  31.092  26.673  1.00  0.00     0.188 C 
BRANCH  25  26
ATOM     26  C   UNL A   1      31.396  32.392  26.657  1.00  0.00     0.188 C 
BRANCH  26  27
ATOM     27  O   UNL A   1      31.941  33.456  27.416  1.00  0.00    -0.376 OA
BRANCH  27  28
ATOM     28  C   UNL A   1      33.263  33.309  27.906  1.00  0.00     0.202 C 
BRANCH  28  29
ATOM     29  C   UNL A   1      33.890  34.573  28.512  1.00  0.00     0.261 C 
BRANCH  29  30
ATOM     30  O   UNL A   1      35.073  34.359  29.302  1.00  0.00    -0.460 OA
BRANCH  30  31
ATOM     31  C   UNL A   1      34.896  34.097  30.616  1.00  0.00     0.338 C 
ATOM     32  O   UNL A   1      33.879  34.229  31.263  1.00  0.00    -0.246 OA
BRANCH  31  33
ATOM     33  C   UNL A   1      36.117  33.424  31.112  1.00  0.00     0.060 A 
ATOM     34  C   UNL A   1      37.361  33.832  30.616  1.00  0.00     0.016 A 
ATOM     35  C   UNL A   1      36.032  32.387  32.044  1.00  0.00     0.016 A 
ATOM     36  C   UNL A   1      38.522  33.175  31.022  1.00  0.00     0.010 A 
ATOM     37  C   UNL A   1      37.196  31.719  32.437  1.00  0.00     0.010 A 
ATOM     38  C   UNL A   1      38.442  32.087  31.901  1.00  0.00    -0.014 A 
BRANCH  38  39
ATOM     39  C   UNL A   1      39.642  31.246  32.131  1.00  0.00     0.031 A 
ATOM     40  C   UNL A   1      39.931  30.115  31.180  1.00  0.00     0.074 A 
ATOM     41  C   UNL A   1      40.491  31.507  33.141  1.00  0.00     0.049 A 
ATOM     42  N   UNL A   1      40.932  29.271  31.172  1.00  0.00    -0.248 NA
ATOM     43  C   UNL A   1      38.963  29.911  30.090  1.00  0.00     0.031 C 
ATOM     44  C   UNL A   1      40.349  32.593  34.109  1.00  0.00     0.029 A 
ATOM     45  N   UNL A   1      41.650  30.872  33.513  1.00  0.00    -0.354 N 
ATOM     46  C   UNL A   1      40.713  28.436  30.083  1.00  0.00     0.074 A 
ATOM     47  C   UNL A   1      39.468  28.852  29.475  1.00  0.00     0.031 C 
ATOM     48  C   UNL A   1      41.386  32.552  34.963  1.00  0.00     0.029 A 
ATOM     49  C   UNL A   1      42.246  31.420  34.623  1.00  0.00     0.049 A 
ATOM     50  H   UNL A   1      42.020  30.099  33.031  1.00  0.00     0.167 HD
ATOM     51  C   UNL A   1      41.482  27.420  29.622  1.00  0.00     0.031 A 
ATOM     52  C   UNL A   1      43.351  31.044  35.294  1.00  0.00     0.031 A 
ATOM     53  C   UNL A   1      42.709  26.988  30.237  1.00  0.00     0.049 A 
ATOM     54  C   UNL A   1      44.146  29.861  34.808  1.00  0.00     0.074 A 
ATOM     55  C   UNL A   1      43.565  25.975  29.838  1.00  0.00     0.029 A 
ATOM     56  N   UNL A   1      43.251  27.536  31.390  1.00  0.00    -0.354 N 
ATOM     57  N   UNL A   1      43.946  29.101  33.757  1.00  0.00    -0.248 NA
ATOM     58  C   UNL A   1      45.331  29.494  35.597  1.00  0.00     0.031 C 
ATOM     59  C   UNL A   1      44.589  25.868  30.787  1.00  0.00     0.029 A 
ATOM     60  C   UNL A   1      44.412  26.863  31.735  1.00  0.00     0.049 A 
ATOM     61  H   UNL A   1      42.867  28.292  31.890  1.00  0.00     0.167 HD
ATOM     62  C   UNL A   1      44.995  28.188  33.744  1.00  0.00     0.074 A 
ATOM     63  C   UNL A   1      45.840  28.505  34.876  1.00  0.00     0.031 C 
ATOM     64  C   UNL A   1      45.237  27.177  32.872  1.00  0.00     0.031 A 
BRANCH  51  65
ATOM     65  C   UNL A   1      40.990  26.677  28.410  1.00  0.00    -0.014 A 
ATOM     66  C   UNL A   1      40.015  25.672  28.511  1.00  0.00     0.009 A 
ATOM     67  C   UNL A   1      41.490  27.009  27.140  1.00  0.00     0.009 A 
ATOM     68  C   UNL A   1      39.577  24.991  27.372  1.00  0.00     0.001 A 
ATOM     69  C   UNL A   1      41.028  26.351  26.000  1.00  0.00     0.001 A 
ATOM     70  C   UNL A   1      40.080  25.336  26.117  1.00  0.00     0.000 A 
ENDBRANCH  51  65
BRANCH  52  71
ATOM     71  C   UNL A   1      43.774  31.784  36.514  1.00  0.00    -0.014 A 
ATOM     72  C   UNL A   1      44.681  32.852  36.430  1.00  0.00     0.009 A 
ATOM     73  C   UNL A   1      43.294  31.403  37.777  1.00  0.00     0.009 A 
ATOM     74  C   UNL A   1      45.121  33.501  37.587  1.00  0.00     0.001 A 
ATOM     75  C   UNL A   1      43.709  32.076  38.928  1.00  0.00     0.001 A 
ATOM     76  C   UNL A   1      44.630  33.116  38.834  1.00  0.00     0.000 A 
ENDBRANCH  52  71
BRANCH  64  77
ATOM     77  C   UNL A   1      46.489  26.368  33.092  1.00  0.00    -0.014 A 
ATOM     78  C   UNL A   1      46.484  25.204  33.876  1.00  0.00     0.009 A 
ATOM     79  C   UNL A   1      47.694  26.777  32.497  1.00  0.00     0.009 A 
ATOM     80  C   UNL A   1      47.669  24.499  34.107  1.00  0.00     0.001 A 
ATOM     81  C   UNL A   1      48.868  26.050  32.697  1.00  0.00     0.001 A 
ATOM     82  C   UNL A   1      48.858  24.922  33.515  1.00  0.00     0.000 A 
ENDBRANCH  64  77
ENDBRANCH  38  39
ENDBRANCH  31  33
ENDBRANCH  30  31
ENDBRANCH  29  30
ENDBRANCH  28  29
ENDBRANCH  27  28
ENDBRANCH  26  27
ENDBRANCH  25  26
ENDBRANCH   1  25
TORSDOF 24
ENDMDL
