MODEL 1
REMARK VINA RESULT:      -9.2      0.000      0.000
REMARK SMILES COc1ccc(-n2c(SCc3cn(-c4ccc(C(=O)OCCOCCOCCOCCOC(=O)c5ccc(-c6c7nc(c(-c8ccccc8)c8ccc([nH]8)c(-c8ccccc8)c8nc(c(-c9ccccc9)c9ccc6[nH]9)C=C8)C=C7)cc5)cc4)nn3)nc3ccccc3c2=O)cc1
REMARK SMILES IDX 24 1 23 2 22 3 21 4 20 5 18 6 19 7 17 8 14 9 15 10 84 11
REMARK SMILES IDX 16 12 83 13 13 14 11 15 12 16 86 17 85 18 10 19 9 20 8 21
REMARK SMILES IDX 7 22 94 23 87 24 93 25 95 26 88 27 92 28 89 29 91 30 90 31
REMARK SMILES IDX 6 32 3 33 4 34 97 35 5 36 96 37 2 38 1 39 25 40 26 41 27 42
REMARK SMILES IDX 28 43 29 44 30 45 31 46 32 47 33 48 34 49 35 50 36 51 82 52
REMARK SMILES IDX 37 53 81 54 38 55 39 56 40 57 75 58 41 59 80 60 74 61 76 62
REMARK SMILES IDX 42 63 79 64 73 65 72 66 43 68 65 69 50 70 64 71 51 72 54 73
REMARK SMILES IDX 63 74 77 75 52 76 53 77 62 79 78 80 55 81 44 82 45 83 49 84
REMARK SMILES IDX 46 85 48 86 47 87 66 88 67 89 71 90 68 91 70 92 69 93 56 94
REMARK SMILES IDX 57 95 61 96 58 97 60 98 59 99
REMARK H PARENT 76 67 54 78
REMARK Flexibility Score: inf
ROOT
ATOM      1  C   UNL A   1      32.176  27.723  25.183  1.00  0.00     0.188 C 
ENDROOT
BRANCH   1   2
ATOM      2  O   UNL A   1      32.753  27.553  23.896  1.00  0.00    -0.376 OA
BRANCH   2   3
ATOM      3  C   UNL A   1      32.194  26.583  23.032  1.00  0.00     0.202 C 
BRANCH   3   4
ATOM      4  C   UNL A   1      31.487  25.441  23.762  1.00  0.00     0.261 C 
BRANCH   4   5
ATOM      5  O   UNL A   1      32.380  24.506  24.365  1.00  0.00    -0.460 OA
BRANCH   5   6
ATOM      6  C   UNL A   1      33.111  23.738  23.527  1.00  0.00     0.338 C 
ATOM      7  O   UNL A   1      32.795  23.308  22.437  1.00  0.00    -0.246 OA
BRANCH   6   8
ATOM      8  C   UNL A   1      34.471  23.697  24.089  1.00  0.00     0.060 A 
ATOM      9  C   UNL A   1      36.965  23.564  25.166  1.00  0.00     0.066 A 
ATOM     10  C   UNL A   1      36.730  22.840  24.001  1.00  0.00     0.029 A 
ATOM     11  C   UNL A   1      36.031  24.442  25.729  1.00  0.00     0.029 A 
ATOM     12  C   UNL A   1      35.445  22.882  23.480  1.00  0.00     0.018 A 
ATOM     13  C   UNL A   1      34.778  24.521  25.174  1.00  0.00     0.018 A 
BRANCH   9  14
ATOM     14  N   UNL A   1      38.061  23.256  25.951  1.00  0.00    -0.220 N 
ATOM     15  C   UNL A   1      39.832  23.514  27.129  1.00  0.00     0.093 A 
ATOM     16  C   UNL A   1      38.678  24.148  26.779  1.00  0.00     0.141 A 
ATOM     17  N   UNL A   1      39.823  22.257  26.590  1.00  0.00    -0.134 NA
ATOM     18  N   UNL A   1      38.676  22.072  25.959  1.00  0.00    -0.062 NA
BRANCH  15  19
ATOM     19  C   UNL A   1      40.973  24.079  27.852  1.00  0.00     0.138 C 
BRANCH  19  20
ATOM     20  S   UNL A   1      40.617  25.758  28.322  1.00  0.00    -0.081 SA
BRANCH  20  21
ATOM     21  C   UNL A   1      41.281  26.755  26.967  1.00  0.00     0.176 A 
ATOM     22  N   UNL A   1      42.617  27.099  27.116  1.00  0.00    -0.255 N 
ATOM     23  C   UNL A   1      42.879  28.313  27.740  1.00  0.00     0.266 A 
ATOM     24  N   UNL A   1      40.437  27.659  26.564  1.00  0.00    -0.223 NA
ATOM     25  C   UNL A   1      41.647  29.062  28.145  1.00  0.00     0.066 A 
ATOM     26  O   UNL A   1      43.988  28.768  28.004  1.00  0.00    -0.268 OA
ATOM     27  C   UNL A   1      40.451  28.734  27.477  1.00  0.00     0.079 A 
ATOM     28  C   UNL A   1      41.625  29.864  29.283  1.00  0.00     0.016 A 
ATOM     29  C   UNL A   1      39.233  29.232  27.937  1.00  0.00     0.029 A 
ATOM     30  C   UNL A   1      40.392  30.307  29.772  1.00  0.00     0.001 A 
ATOM     31  C   UNL A   1      39.203  29.998  29.101  1.00  0.00     0.002 A 
BRANCH  22  32
ATOM     32  C   UNL A   1      43.639  26.288  26.546  1.00  0.00     0.052 A 
ATOM     33  C   UNL A   1      45.152  24.072  25.759  1.00  0.00     0.119 A 
ATOM     34  C   UNL A   1      44.245  24.631  24.866  1.00  0.00     0.048 A 
ATOM     35  C   UNL A   1      45.433  24.715  26.965  1.00  0.00     0.048 A 
ATOM     36  C   UNL A   1      43.468  25.726  25.270  1.00  0.00     0.030 A 
ATOM     37  C   UNL A   1      44.706  25.853  27.340  1.00  0.00     0.030 A 
BRANCH  33  38
ATOM     38  O   UNL A   1      45.776  22.900  25.425  1.00  0.00    -0.497 OA
ATOM     39  C   UNL A   1      46.568  23.058  24.241  1.00  0.00     0.278 C 
ENDBRANCH  33  38
ENDBRANCH  22  32
ENDBRANCH  20  21
ENDBRANCH  19  20
ENDBRANCH  15  19
ENDBRANCH   9  14
ENDBRANCH   6   8
ENDBRANCH   5   6
ENDBRANCH   4   5
ENDBRANCH   3   4
ENDBRANCH   2   3
ENDBRANCH   1   2
BRANCH   1  40
ATOM     40  C   UNL A   1      31.767  29.180  25.498  1.00  0.00     0.188 C 
BRANCH  40  41
ATOM     41  O   UNL A   1      32.770  30.163  25.714  1.00  0.00    -0.377 OA
BRANCH  41  42
ATOM     42  C   UNL A   1      32.758  30.938  26.910  1.00  0.00     0.188 C 
BRANCH  42  43
ATOM     43  C   UNL A   1      34.051  31.243  27.717  1.00  0.00     0.188 C 
BRANCH  43  44
ATOM     44  O   UNL A   1      34.418  32.614  27.800  1.00  0.00    -0.376 OA
BRANCH  44  45
ATOM     45  C   UNL A   1      33.429  33.624  27.780  1.00  0.00     0.202 C 
BRANCH  45  46
ATOM     46  C   UNL A   1      33.427  34.534  29.003  1.00  0.00     0.261 C 
BRANCH  46  47
ATOM     47  O   UNL A   1      33.585  33.815  30.213  1.00  0.00    -0.460 OA
BRANCH  47  48
ATOM     48  C   UNL A   1      34.240  34.485  31.180  1.00  0.00     0.338 C 
ATOM     49  O   UNL A   1      34.196  35.675  31.430  1.00  0.00    -0.246 OA
BRANCH  48  50
ATOM     50  C   UNL A   1      35.130  33.543  31.853  1.00  0.00     0.060 A 
ATOM     51  C   UNL A   1      35.701  34.001  33.042  1.00  0.00     0.016 A 
ATOM     52  C   UNL A   1      35.686  32.520  31.077  1.00  0.00     0.016 A 
ATOM     53  C   UNL A   1      37.006  33.663  33.279  1.00  0.00     0.010 A 
ATOM     54  C   UNL A   1      36.999  32.220  31.288  1.00  0.00     0.010 A 
ATOM     55  C   UNL A   1      37.658  32.883  32.322  1.00  0.00    -0.014 A 
BRANCH  55  56
ATOM     56  C   UNL A   1      39.089  32.764  32.413  1.00  0.00     0.031 A 
ATOM     57  C   UNL A   1      39.525  31.701  33.334  1.00  0.00     0.074 A 
ATOM     58  C   UNL A   1      39.888  33.481  31.604  1.00  0.00     0.049 A 
ATOM     59  N   UNL A   1      40.286  31.814  34.367  1.00  0.00    -0.248 NA
ATOM     60  C   UNL A   1      38.922  30.368  33.158  1.00  0.00     0.031 C 
ATOM     61  C   UNL A   1      39.491  34.327  30.472  1.00  0.00     0.029 A 
ATOM     62  N   UNL A   1      41.244  33.475  31.529  1.00  0.00    -0.354 N 
ATOM     63  C   UNL A   1      40.409  30.524  34.867  1.00  0.00     0.074 A 
ATOM     64  C   UNL A   1      39.417  29.719  34.207  1.00  0.00     0.031 C 
ATOM     65  C   UNL A   1      40.570  34.537  29.685  1.00  0.00     0.029 A 
ATOM     66  C   UNL A   1      41.733  33.933  30.315  1.00  0.00     0.049 A 
ATOM     67  H   UNL A   1      41.823  33.173  32.265  1.00  0.00     0.167 HD
ATOM     68  C   UNL A   1      41.504  30.144  35.573  1.00  0.00     0.031 A 
ATOM     69  C   UNL A   1      42.978  33.724  29.824  1.00  0.00     0.031 A 
ATOM     70  C   UNL A   1      42.215  31.269  36.118  1.00  0.00     0.049 A 
ATOM     71  C   UNL A   1      43.842  33.289  30.949  1.00  0.00     0.074 A 
ATOM     72  C   UNL A   1      41.877  32.297  36.978  1.00  0.00     0.029 A 
ATOM     73  N   UNL A   1      43.363  31.666  35.479  1.00  0.00    -0.354 N 
ATOM     74  N   UNL A   1      44.208  34.069  31.924  1.00  0.00    -0.248 NA
ATOM     75  C   UNL A   1      43.956  31.863  31.222  1.00  0.00     0.031 C 
ATOM     76  C   UNL A   1      42.581  33.435  36.493  1.00  0.00     0.029 A 
ATOM     77  C   UNL A   1      43.340  33.035  35.390  1.00  0.00     0.049 A 
ATOM     78  H   UNL A   1      44.076  31.075  35.144  1.00  0.00     0.167 HD
ATOM     79  C   UNL A   1      44.176  33.264  33.055  1.00  0.00     0.074 A 
ATOM     80  C   UNL A   1      44.137  31.896  32.545  1.00  0.00     0.031 C 
ATOM     81  C   UNL A   1      43.887  33.788  34.283  1.00  0.00     0.031 A 
BRANCH  68  82
ATOM     82  C   UNL A   1      42.138  28.793  35.377  1.00  0.00    -0.014 A 
ATOM     83  C   UNL A   1      42.713  28.494  34.134  1.00  0.00     0.009 A 
ATOM     84  C   UNL A   1      41.944  27.714  36.266  1.00  0.00     0.009 A 
ATOM     85  C   UNL A   1      43.019  27.175  33.779  1.00  0.00     0.001 A 
ATOM     86  C   UNL A   1      42.292  26.406  35.935  1.00  0.00     0.001 A 
ATOM     87  C   UNL A   1      42.804  26.132  34.677  1.00  0.00     0.000 A 
ENDBRANCH  68  82
BRANCH  69  88
ATOM     88  C   UNL A   1      43.395  33.605  28.410  1.00  0.00    -0.014 A 
ATOM     89  C   UNL A   1      43.606  34.751  27.629  1.00  0.00     0.009 A 
ATOM     90  C   UNL A   1      43.817  32.370  27.884  1.00  0.00     0.009 A 
ATOM     91  C   UNL A   1      44.243  34.664  26.383  1.00  0.00     0.001 A 
ATOM     92  C   UNL A   1      44.441  32.280  26.636  1.00  0.00     0.001 A 
ATOM     93  C   UNL A   1      44.667  33.432  25.892  1.00  0.00     0.000 A 
ENDBRANCH  69  88
BRANCH  81  94
ATOM     94  C   UNL A   1      43.857  35.292  34.415  1.00  0.00    -0.014 A 
ATOM     95  C   UNL A   1      42.719  36.061  34.112  1.00  0.00     0.009 A 
ATOM     96  C   UNL A   1      44.954  35.937  35.006  1.00  0.00     0.009 A 
ATOM     97  C   UNL A   1      42.695  37.437  34.357  1.00  0.00     0.001 A 
ATOM     98  C   UNL A   1      44.921  37.307  35.274  1.00  0.00     0.001 A 
ATOM     99  C   UNL A   1      43.795  38.058  34.943  1.00  0.00     0.000 A 
ENDBRANCH  81  94
ENDBRANCH  55  56
ENDBRANCH  48  50
ENDBRANCH  47  48
ENDBRANCH  46  47
ENDBRANCH  45  46
ENDBRANCH  44  45
ENDBRANCH  43  44
ENDBRANCH  42  43
ENDBRANCH  41  42
ENDBRANCH  40  41
ENDBRANCH   1  40
TORSDOF 26
ENDMDL
MODEL 2
REMARK VINA RESULT:      -8.5      3.536      9.974
REMARK SMILES COc1ccc(-n2c(SCc3cn(-c4ccc(C(=O)OCCOCCOCCOCCOC(=O)c5ccc(-c6c7nc(c(-c8ccccc8)c8ccc([nH]8)c(-c8ccccc8)c8nc(c(-c9ccccc9)c9ccc6[nH]9)C=C8)C=C7)cc5)cc4)nn3)nc3ccccc3c2=O)cc1
REMARK SMILES IDX 24 1 23 2 22 3 21 4 20 5 18 6 19 7 17 8 14 9 15 10 84 11
REMARK SMILES IDX 16 12 83 13 13 14 11 15 12 16 86 17 85 18 10 19 9 20 8 21
REMARK SMILES IDX 7 22 94 23 87 24 93 25 95 26 88 27 92 28 89 29 91 30 90 31
REMARK SMILES IDX 6 32 3 33 4 34 97 35 5 36 96 37 2 38 1 39 25 40 26 41 27 42
REMARK SMILES IDX 28 43 29 44 30 45 31 46 32 47 33 48 34 49 35 50 36 51 82 52
REMARK SMILES IDX 37 53 81 54 38 55 39 56 40 57 75 58 41 59 80 60 74 61 76 62
REMARK SMILES IDX 42 63 79 64 73 65 72 66 43 68 65 69 50 70 64 71 51 72 54 73
REMARK SMILES IDX 63 74 77 75 52 76 53 77 62 79 78 80 55 81 44 82 45 83 49 84
REMARK SMILES IDX 46 85 48 86 47 87 66 88 67 89 71 90 68 91 70 92 69 93 56 94
REMARK SMILES IDX 57 95 61 96 58 97 60 98 59 99
REMARK H PARENT 76 67 54 78
REMARK Flexibility Score: inf
ROOT
ATOM      1  C   UNL A   1      34.278  35.907  33.535  1.00  0.00     0.188 C 
ENDROOT
BRANCH   1   2
ATOM      2  O   UNL A   1      33.228  36.664  32.948  1.00  0.00    -0.376 OA
BRANCH   2   3
ATOM      3  C   UNL A   1      32.455  36.061  31.930  1.00  0.00     0.202 C 
BRANCH   3   4
ATOM      4  C   UNL A   1      32.928  36.397  30.515  1.00  0.00     0.261 C 
BRANCH   4   5
ATOM      5  O   UNL A   1      33.994  35.568  30.055  1.00  0.00    -0.460 OA
BRANCH   5   6
ATOM      6  C   UNL A   1      34.100  35.403  28.718  1.00  0.00     0.338 C 
ATOM      7  O   UNL A   1      34.447  36.217  27.887  1.00  0.00    -0.246 OA
BRANCH   6   8
ATOM      8  C   UNL A   1      33.925  33.963  28.467  1.00  0.00     0.060 A 
ATOM      9  C   UNL A   1      33.644  31.309  27.947  1.00  0.00     0.066 A 
ATOM     10  C   UNL A   1      34.702  31.693  28.765  1.00  0.00     0.029 A 
ATOM     11  C   UNL A   1      32.661  32.195  27.491  1.00  0.00     0.029 A 
ATOM     12  C   UNL A   1      34.861  33.052  28.993  1.00  0.00     0.018 A 
ATOM     13  C   UNL A   1      32.794  33.533  27.769  1.00  0.00     0.018 A 
BRANCH   9  14
ATOM     14  N   UNL A   1      33.659  30.060  27.353  1.00  0.00    -0.220 N 
ATOM     15  C   UNL A   1      33.048  28.079  26.809  1.00  0.00     0.093 A 
ATOM     16  C   UNL A   1      32.545  29.296  27.157  1.00  0.00     0.141 A 
ATOM     17  N   UNL A   1      34.409  28.177  26.716  1.00  0.00    -0.134 NA
ATOM     18  N   UNL A   1      34.764  29.431  26.945  1.00  0.00    -0.062 NA
BRANCH  15  19
ATOM     19  C   UNL A   1      32.314  26.820  26.667  1.00  0.00     0.138 C 
BRANCH  19  20
ATOM     20  S   UNL A   1      33.295  25.653  25.749  1.00  0.00    -0.081 SA
BRANCH  20  21
ATOM     21  C   UNL A   1      32.165  25.005  24.493  1.00  0.00     0.176 A 
ATOM     22  N   UNL A   1      32.799  24.428  23.402  1.00  0.00    -0.255 N 
ATOM     23  C   UNL A   1      33.049  25.261  22.318  1.00  0.00     0.266 A 
ATOM     24  N   UNL A   1      31.153  25.795  24.291  1.00  0.00    -0.223 NA
ATOM     25  C   UNL A   1      32.573  26.667  22.515  1.00  0.00     0.066 A 
ATOM     26  O   UNL A   1      33.637  24.952  21.286  1.00  0.00    -0.268 OA
ATOM     27  C   UNL A   1      31.570  26.873  23.483  1.00  0.00     0.079 A 
ATOM     28  C   UNL A   1      33.246  27.749  21.954  1.00  0.00     0.016 A 
ATOM     29  C   UNL A   1      31.226  28.167  23.870  1.00  0.00     0.029 A 
ATOM     30  C   UNL A   1      32.937  29.039  22.394  1.00  0.00     0.001 A 
ATOM     31  C   UNL A   1      31.929  29.248  23.343  1.00  0.00     0.002 A 
BRANCH  22  32
ATOM     32  C   UNL A   1      33.062  23.029  23.377  1.00  0.00     0.052 A 
ATOM     33  C   UNL A   1      33.269  20.343  24.129  1.00  0.00     0.119 A 
ATOM     34  C   UNL A   1      32.152  20.769  23.419  1.00  0.00     0.048 A 
ATOM     35  C   UNL A   1      34.354  21.202  24.307  1.00  0.00     0.048 A 
ATOM     36  C   UNL A   1      32.037  22.121  23.064  1.00  0.00     0.030 A 
ATOM     37  C   UNL A   1      34.268  22.537  23.889  1.00  0.00     0.030 A 
BRANCH  33  38
ATOM     38  O   UNL A   1      33.293  19.067  24.625  1.00  0.00    -0.497 OA
ATOM     39  C   UNL A   1      34.623  18.686  24.999  1.00  0.00     0.278 C 
ENDBRANCH  33  38
ENDBRANCH  22  32
ENDBRANCH  20  21
ENDBRANCH  19  20
ENDBRANCH  15  19
ENDBRANCH   9  14
ENDBRANCH   6   8
ENDBRANCH   5   6
ENDBRANCH   4   5
ENDBRANCH   3   4
ENDBRANCH   2   3
ENDBRANCH   1   2
BRANCH   1  40
ATOM     40  C   UNL A   1      34.161  34.385  33.296  1.00  0.00     0.188 C 
BRANCH  40  41
ATOM     41  O   UNL A   1      35.166  33.708  32.553  1.00  0.00    -0.377 OA
BRANCH  41  42
ATOM     42  C   UNL A   1      36.397  33.359  33.181  1.00  0.00     0.188 C 
BRANCH  42  43
ATOM     43  C   UNL A   1      37.514  34.404  33.461  1.00  0.00     0.188 C 
BRANCH  43  44
ATOM     44  O   UNL A   1      38.666  34.315  32.634  1.00  0.00    -0.376 OA
BRANCH  44  45
ATOM     45  C   UNL A   1      38.538  34.032  31.254  1.00  0.00     0.202 C 
BRANCH  45  46
ATOM     46  C   UNL A   1      39.861  33.884  30.512  1.00  0.00     0.261 C 
BRANCH  46  47
ATOM     47  O   UNL A   1      40.974  34.230  31.315  1.00  0.00    -0.460 OA
BRANCH  47  48
ATOM     48  C   UNL A   1      41.902  33.262  31.435  1.00  0.00     0.338 C 
ATOM     49  O   UNL A   1      42.873  33.241  32.167  1.00  0.00    -0.246 OA
BRANCH  48  50
ATOM     50  C   UNL A   1      41.611  32.237  30.436  1.00  0.00     0.060 A 
ATOM     51  C   UNL A   1      40.645  31.299  30.802  1.00  0.00     0.016 A 
ATOM     52  C   UNL A   1      42.587  31.997  29.462  1.00  0.00     0.016 A 
ATOM     53  C   UNL A   1      40.862  29.999  30.430  1.00  0.00     0.010 A 
ATOM     54  C   UNL A   1      42.830  30.696  29.130  1.00  0.00     0.010 A 
ATOM     55  C   UNL A   1      42.025  29.718  29.710  1.00  0.00    -0.014 A 
BRANCH  55  56
ATOM     56  C   UNL A   1      42.408  28.337  29.565  1.00  0.00     0.031 A 
ATOM     57  C   UNL A   1      43.136  27.812  30.731  1.00  0.00     0.074 A 
ATOM     58  C   UNL A   1      41.984  27.618  28.511  1.00  0.00     0.049 A 
ATOM     59  N   UNL A   1      44.312  27.287  30.758  1.00  0.00    -0.248 NA
ATOM     60  C   UNL A   1      42.529  28.026  32.057  1.00  0.00     0.031 C 
ATOM     61  C   UNL A   1      41.016  28.017  27.483  1.00  0.00     0.029 A 
ATOM     62  N   UNL A   1      42.218  26.311  28.229  1.00  0.00    -0.354 N 
ATOM     63  C   UNL A   1      44.520  26.933  32.084  1.00  0.00     0.074 A 
ATOM     64  C   UNL A   1      43.487  27.568  32.857  1.00  0.00     0.031 C 
ATOM     65  C   UNL A   1      40.562  26.909  26.857  1.00  0.00     0.029 A 
ATOM     66  C   UNL A   1      41.283  25.754  27.369  1.00  0.00     0.049 A 
ATOM     67  H   UNL A   1      42.977  25.806  28.599  1.00  0.00     0.167 HD
ATOM     68  C   UNL A   1      45.349  25.912  32.419  1.00  0.00     0.031 A 
ATOM     69  C   UNL A   1      41.051  24.432  27.186  1.00  0.00     0.031 A 
ATOM     70  C   UNL A   1      46.282  25.605  31.368  1.00  0.00     0.049 A 
ATOM     71  C   UNL A   1      42.212  23.688  27.733  1.00  0.00     0.074 A 
ATOM     72  C   UNL A   1      47.253  26.326  30.703  1.00  0.00     0.029 A 
ATOM     73  N   UNL A   1      46.025  24.501  30.593  1.00  0.00    -0.354 N 
ATOM     74  N   UNL A   1      43.396  23.696  27.192  1.00  0.00    -0.248 NA
ATOM     75  C   UNL A   1      42.171  23.271  29.128  1.00  0.00     0.031 C 
ATOM     76  C   UNL A   1      47.212  25.857  29.359  1.00  0.00     0.029 A 
ATOM     77  C   UNL A   1      46.248  24.848  29.285  1.00  0.00     0.049 A 
ATOM     78  H   UNL A   1      45.734  23.618  30.917  1.00  0.00     0.167 HD
ATOM     79  C   UNL A   1      44.277  23.716  28.266  1.00  0.00     0.074 A 
ATOM     80  C   UNL A   1      43.474  23.328  29.422  1.00  0.00     0.031 C 
ATOM     81  C   UNL A   1      45.494  24.328  28.165  1.00  0.00     0.031 A 
BRANCH  68  82
ATOM     82  C   UNL A   1      44.998  24.939  33.512  1.00  0.00    -0.014 A 
ATOM     83  C   UNL A   1      45.923  24.723  34.543  1.00  0.00     0.009 A 
ATOM     84  C   UNL A   1      43.924  24.029  33.419  1.00  0.00     0.009 A 
ATOM     85  C   UNL A   1      45.810  23.617  35.394  1.00  0.00     0.001 A 
ATOM     86  C   UNL A   1      43.781  22.954  34.295  1.00  0.00     0.001 A 
ATOM     87  C   UNL A   1      44.742  22.732  35.266  1.00  0.00     0.000 A 
ENDBRANCH  68  82
BRANCH  69  88
ATOM     88  C   UNL A   1      39.779  23.768  26.829  1.00  0.00    -0.014 A 
ATOM     89  C   UNL A   1      38.614  24.521  26.619  1.00  0.00     0.009 A 
ATOM     90  C   UNL A   1      39.753  22.409  26.462  1.00  0.00     0.009 A 
ATOM     91  C   UNL A   1      37.479  23.941  26.035  1.00  0.00     0.001 A 
ATOM     92  C   UNL A   1      38.618  21.827  25.891  1.00  0.00     0.001 A 
ATOM     93  C   UNL A   1      37.485  22.599  25.664  1.00  0.00     0.000 A 
ENDBRANCH  69  88
BRANCH  81  94
ATOM     94  C   UNL A   1      45.955  24.752  26.792  1.00  0.00    -0.014 A 
ATOM     95  C   UNL A   1      45.601  25.986  26.216  1.00  0.00     0.009 A 
ATOM     96  C   UNL A   1      46.896  23.955  26.122  1.00  0.00     0.009 A 
ATOM     97  C   UNL A   1      46.141  26.391  24.992  1.00  0.00     0.001 A 
ATOM     98  C   UNL A   1      47.455  24.370  24.911  1.00  0.00     0.001 A 
ATOM     99  C   UNL A   1      47.072  25.583  24.343  1.00  0.00     0.000 A 
ENDBRANCH  81  94
ENDBRANCH  55  56
ENDBRANCH  48  50
ENDBRANCH  47  48
ENDBRANCH  46  47
ENDBRANCH  45  46
ENDBRANCH  44  45
ENDBRANCH  43  44
ENDBRANCH  42  43
ENDBRANCH  41  42
ENDBRANCH  40  41
ENDBRANCH   1  40
TORSDOF 26
ENDMDL
MODEL 3
REMARK VINA RESULT:      -8.3      3.767     10.597
REMARK SMILES COc1ccc(-n2c(SCc3cn(-c4ccc(C(=O)OCCOCCOCCOCCOC(=O)c5ccc(-c6c7nc(c(-c8ccccc8)c8ccc([nH]8)c(-c8ccccc8)c8nc(c(-c9ccccc9)c9ccc6[nH]9)C=C8)C=C7)cc5)cc4)nn3)nc3ccccc3c2=O)cc1
REMARK SMILES IDX 24 1 23 2 22 3 21 4 20 5 18 6 19 7 17 8 14 9 15 10 84 11
REMARK SMILES IDX 16 12 83 13 13 14 11 15 12 16 86 17 85 18 10 19 9 20 8 21
REMARK SMILES IDX 7 22 94 23 87 24 93 25 95 26 88 27 92 28 89 29 91 30 90 31
REMARK SMILES IDX 6 32 3 33 4 34 97 35 5 36 96 37 2 38 1 39 25 40 26 41 27 42
REMARK SMILES IDX 28 43 29 44 30 45 31 46 32 47 33 48 34 49 35 50 36 51 82 52
REMARK SMILES IDX 37 53 81 54 38 55 39 56 40 57 75 58 41 59 80 60 74 61 76 62
REMARK SMILES IDX 42 63 79 64 73 65 72 66 43 68 65 69 50 70 64 71 51 72 54 73
REMARK SMILES IDX 63 74 77 75 52 76 53 77 62 79 78 80 55 81 44 82 45 83 49 84
REMARK SMILES IDX 46 85 48 86 47 87 66 88 67 89 71 90 68 91 70 92 69 93 56 94
REMARK SMILES IDX 57 95 61 96 58 97 60 98 59 99
REMARK H PARENT 76 67 54 78
REMARK Flexibility Score: inf
ROOT
ATOM      1  C   UNL A   1      34.407  35.853  33.566  1.00  0.00     0.188 C 
ENDROOT
BRANCH   1   2
ATOM      2  O   UNL A   1      33.251  36.529  33.091  1.00  0.00    -0.376 OA
BRANCH   2   3
ATOM      3  C   UNL A   1      32.459  35.895  32.106  1.00  0.00     0.202 C 
BRANCH   3   4
ATOM      4  C   UNL A   1      32.818  36.294  30.674  1.00  0.00     0.261 C 
BRANCH   4   5
ATOM      5  O   UNL A   1      33.904  35.546  30.126  1.00  0.00    -0.460 OA
BRANCH   5   6
ATOM      6  C   UNL A   1      33.962  35.462  28.779  1.00  0.00     0.338 C 
ATOM      7  O   UNL A   1      34.229  36.340  27.984  1.00  0.00    -0.246 OA
BRANCH   6   8
ATOM      8  C   UNL A   1      33.855  34.031  28.452  1.00  0.00     0.060 A 
ATOM      9  C   UNL A   1      33.702  31.397  27.793  1.00  0.00     0.066 A 
ATOM     10  C   UNL A   1      34.707  31.779  28.676  1.00  0.00     0.029 A 
ATOM     11  C   UNL A   1      32.706  32.267  27.335  1.00  0.00     0.029 A 
ATOM     12  C   UNL A   1      34.802  33.131  28.976  1.00  0.00     0.018 A 
ATOM     13  C   UNL A   1      32.774  33.594  27.682  1.00  0.00     0.018 A 
BRANCH   9  14
ATOM     14  N   UNL A   1      33.793  30.180  27.141  1.00  0.00    -0.220 N 
ATOM     15  C   UNL A   1      33.217  28.289  26.313  1.00  0.00     0.093 A 
ATOM     16  C   UNL A   1      32.726  29.529  26.593  1.00  0.00     0.141 A 
ATOM     17  N   UNL A   1      34.552  28.269  26.609  1.00  0.00    -0.134 NA
ATOM     18  N   UNL A   1      34.918  29.474  27.013  1.00  0.00    -0.062 NA
BRANCH  15  19
ATOM     19  C   UNL A   1      32.463  27.109  25.887  1.00  0.00     0.138 C 
BRANCH  19  20
ATOM     20  S   UNL A   1      33.589  25.818  25.404  1.00  0.00    -0.081 SA
BRANCH  20  21
ATOM     21  C   UNL A   1      33.257  25.567  23.644  1.00  0.00     0.176 A 
ATOM     22  N   UNL A   1      31.973  25.120  23.365  1.00  0.00    -0.255 N 
ATOM     23  C   UNL A   1      31.798  23.744  23.288  1.00  0.00     0.266 A 
ATOM     24  N   UNL A   1      34.264  25.019  23.029  1.00  0.00    -0.223 NA
ATOM     25  C   UNL A   1      33.055  22.961  23.516  1.00  0.00     0.066 A 
ATOM     26  O   UNL A   1      30.737  23.157  23.099  1.00  0.00    -0.268 OA
ATOM     27  C   UNL A   1      34.274  23.638  23.313  1.00  0.00     0.079 A 
ATOM     28  C   UNL A   1      33.034  21.712  24.128  1.00  0.00     0.016 A 
ATOM     29  C   UNL A   1      35.475  23.048  23.702  1.00  0.00     0.029 A 
ATOM     30  C   UNL A   1      34.238  21.156  24.571  1.00  0.00     0.001 A 
ATOM     31  C   UNL A   1      35.453  21.817  24.355  1.00  0.00     0.002 A 
BRANCH  22  32
ATOM     32  C   UNL A   1      30.937  26.048  23.063  1.00  0.00     0.052 A 
ATOM     33  C   UNL A   1      29.250  28.277  23.145  1.00  0.00     0.119 A 
ATOM     34  C   UNL A   1      30.341  28.278  22.284  1.00  0.00     0.048 A 
ATOM     35  C   UNL A   1      28.897  27.111  23.826  1.00  0.00     0.048 A 
ATOM     36  C   UNL A   1      31.201  27.170  22.262  1.00  0.00     0.030 A 
ATOM     37  C   UNL A   1      29.718  25.978  23.750  1.00  0.00     0.030 A 
BRANCH  33  38
ATOM     38  O   UNL A   1      28.519  29.426  23.292  1.00  0.00    -0.497 OA
ATOM     39  C   UNL A   1      27.854  29.772  22.071  1.00  0.00     0.278 C 
ENDBRANCH  33  38
ENDBRANCH  22  32
ENDBRANCH  20  21
ENDBRANCH  19  20
ENDBRANCH  15  19
ENDBRANCH   9  14
ENDBRANCH   6   8
ENDBRANCH   5   6
ENDBRANCH   4   5
ENDBRANCH   3   4
ENDBRANCH   2   3
ENDBRANCH   1   2
BRANCH   1  40
ATOM     40  C   UNL A   1      34.430  34.343  33.232  1.00  0.00     0.188 C 
BRANCH  40  41
ATOM     41  O   UNL A   1      35.462  33.818  32.409  1.00  0.00    -0.377 OA
BRANCH  41  42
ATOM     42  C   UNL A   1      36.762  33.601  32.954  1.00  0.00     0.188 C 
BRANCH  42  43
ATOM     43  C   UNL A   1      37.817  34.737  33.066  1.00  0.00     0.188 C 
BRANCH  43  44
ATOM     44  O   UNL A   1      38.984  34.577  32.270  1.00  0.00    -0.376 OA
BRANCH  44  45
ATOM     45  C   UNL A   1      38.890  34.077  30.951  1.00  0.00     0.202 C 
BRANCH  45  46
ATOM     46  C   UNL A   1      40.207  34.062  30.183  1.00  0.00     0.261 C 
BRANCH  46  47
ATOM     47  O   UNL A   1      41.267  34.649  30.915  1.00  0.00    -0.460 OA
BRANCH  47  48
ATOM     48  C   UNL A   1      42.379  33.895  30.994  1.00  0.00     0.338 C 
ATOM     49  O   UNL A   1      43.344  34.054  31.718  1.00  0.00    -0.246 OA
BRANCH  48  50
ATOM     50  C   UNL A   1      42.297  32.865  29.961  1.00  0.00     0.060 A 
ATOM     51  C   UNL A   1      41.599  31.711  30.319  1.00  0.00     0.016 A 
ATOM     52  C   UNL A   1      43.257  32.901  28.943  1.00  0.00     0.016 A 
ATOM     53  C   UNL A   1      42.104  30.515  29.882  1.00  0.00     0.010 A 
ATOM     54  C   UNL A   1      43.788  31.709  28.546  1.00  0.00     0.010 A 
ATOM     55  C   UNL A   1      43.266  30.546  29.109  1.00  0.00    -0.014 A 
BRANCH  55  56
ATOM     56  C   UNL A   1      43.960  29.304  28.889  1.00  0.00     0.031 A 
ATOM     57  C   UNL A   1      45.005  29.038  29.891  1.00  0.00     0.074 A 
ATOM     58  C   UNL A   1      43.549  28.451  27.935  1.00  0.00     0.049 A 
ATOM     59  N   UNL A   1      46.261  28.833  29.688  1.00  0.00    -0.248 NA
ATOM     60  C   UNL A   1      44.623  29.154  31.310  1.00  0.00     0.031 C 
ATOM     61  C   UNL A   1      42.334  28.541  27.115  1.00  0.00     0.029 A 
ATOM     62  N   UNL A   1      44.056  27.235  27.610  1.00  0.00    -0.354 N 
ATOM     63  C   UNL A   1      46.798  28.607  30.948  1.00  0.00     0.074 A 
ATOM     64  C   UNL A   1      45.799  28.994  31.908  1.00  0.00     0.031 C 
ATOM     65  C   UNL A   1      42.075  27.324  26.585  1.00  0.00     0.029 A 
ATOM     66  C   UNL A   1      43.154  26.418  26.945  1.00  0.00     0.049 A 
ATOM     67  H   UNL A   1      44.976  26.959  27.825  1.00  0.00     0.167 HD
ATOM     68  C   UNL A   1      47.911  27.849  31.114  1.00  0.00     0.031 A 
ATOM     69  C   UNL A   1      43.243  25.073  26.807  1.00  0.00     0.031 A 
ATOM     70  C   UNL A   1      48.678  27.741  29.902  1.00  0.00     0.049 A 
ATOM     71  C   UNL A   1      44.639  24.677  27.117  1.00  0.00     0.074 A 
ATOM     72  C   UNL A   1      49.286  28.654  29.063  1.00  0.00     0.029 A 
ATOM     73  N   UNL A   1      48.577  26.572  29.188  1.00  0.00    -0.354 N 
ATOM     74  N   UNL A   1      45.657  24.962  26.358  1.00  0.00    -0.248 NA
ATOM     75  C   UNL A   1      44.970  24.331  28.492  1.00  0.00     0.031 C 
ATOM     76  C   UNL A   1      49.117  28.126  27.751  1.00  0.00     0.029 A 
ATOM     77  C   UNL A   1      48.452  26.902  27.863  1.00  0.00     0.049 A 
ATOM     78  H   UNL A   1      48.591  25.661  29.560  1.00  0.00     0.167 HD
ATOM     79  C   UNL A   1      46.688  25.257  27.241  1.00  0.00     0.074 A 
ATOM     80  C   UNL A   1      46.244  24.733  28.529  1.00  0.00     0.031 C 
ATOM     81  C   UNL A   1      47.663  26.154  26.908  1.00  0.00     0.031 A 
BRANCH  68  82
ATOM     82  C   UNL A   1      48.036  26.872  32.252  1.00  0.00    -0.014 A 
ATOM     83  C   UNL A   1      49.286  26.712  32.867  1.00  0.00     0.009 A 
ATOM     84  C   UNL A   1      47.049  25.911  32.554  1.00  0.00     0.009 A 
ATOM     85  C   UNL A   1      49.548  25.611  33.690  1.00  0.00     0.001 A 
ATOM     86  C   UNL A   1      47.292  24.839  33.413  1.00  0.00     0.001 A 
ATOM     87  C   UNL A   1      48.554  24.674  33.959  1.00  0.00     0.000 A 
ENDBRANCH  68  82
BRANCH  69  88
ATOM     88  C   UNL A   1      42.144  24.090  26.701  1.00  0.00    -0.014 A 
ATOM     89  C   UNL A   1      42.297  22.928  25.930  1.00  0.00     0.009 A 
ATOM     90  C   UNL A   1      41.020  24.170  27.545  1.00  0.00     0.009 A 
ATOM     91  C   UNL A   1      41.376  21.875  26.026  1.00  0.00     0.001 A 
ATOM     92  C   UNL A   1      40.095  23.127  27.633  1.00  0.00     0.001 A 
ATOM     93  C   UNL A   1      40.282  21.972  26.882  1.00  0.00     0.000 A 
ENDBRANCH  69  88
BRANCH  81  94
ATOM     94  C   UNL A   1      47.733  26.616  25.473  1.00  0.00    -0.014 A 
ATOM     95  C   UNL A   1      46.902  27.627  24.957  1.00  0.00     0.009 A 
ATOM     96  C   UNL A   1      48.765  26.127  24.658  1.00  0.00     0.009 A 
ATOM     97  C   UNL A   1      47.075  28.106  23.655  1.00  0.00     0.001 A 
ATOM     98  C   UNL A   1      48.954  26.623  23.366  1.00  0.00     0.001 A 
ATOM     99  C   UNL A   1      48.105  27.606  22.862  1.00  0.00     0.000 A 
ENDBRANCH  81  94
ENDBRANCH  55  56
ENDBRANCH  48  50
ENDBRANCH  47  48
ENDBRANCH  46  47
ENDBRANCH  45  46
ENDBRANCH  44  45
ENDBRANCH  43  44
ENDBRANCH  42  43
ENDBRANCH  41  42
ENDBRANCH  40  41
ENDBRANCH   1  40
TORSDOF 26
ENDMDL
