MODEL 1
REMARK VINA RESULT:      -9.0      0.000      0.000
REMARK SMILES COc1ccc2c(c1)c(CC(=O)OCCOCCOCCOCCOC(=O)c1ccc(-c3c4nc(c(-c5ccccc5)c5ccc([nH]5)c(-c5ccccc5)c5nc(c(-c6ccccc6)c6ccc3[nH]6)C=C5)C=C4)cc1)c(C)n2Cc1ccn(C(F)F)c(=O)c1
REMARK SMILES IDX 18 1 17 2 16 3 15 4 14 5 13 6 11 7 12 8 10 9 9 10 3 11 4 12
REMARK SMILES IDX 8 13 5 14 7 15 6 16 78 17 76 18 77 19 2 20 1 21 79 22 80 23
REMARK SMILES IDX 81 24 89 25 82 26 87 27 83 28 88 29 84 30 85 31 86 32 19 33
REMARK SMILES IDX 20 34 21 35 22 36 23 37 24 38 25 39 26 40 27 41 28 42 29 43
REMARK SMILES IDX 75 44 30 45 74 46 31 47 32 48 33 49 68 50 34 51 73 52 67 53
REMARK SMILES IDX 69 54 35 55 72 56 66 57 65 58 36 60 58 61 43 62 57 63 44 64
REMARK SMILES IDX 47 65 56 66 70 67 45 68 46 69 55 71 71 72 48 73 37 74 38 75
REMARK SMILES IDX 42 76 39 77 41 78 40 79 59 80 60 81 64 82 61 83 63 84 62 85
REMARK SMILES IDX 49 86 50 87 54 88 51 89 53 90 52 91
REMARK H PARENT 69 59 47 70
REMARK Flexibility Score: inf
ROOT
ATOM      1  C   UNL A   1      32.202  22.787  27.334  1.00  0.00     0.188 C 
ENDROOT
BRANCH   1   2
ATOM      2  C   UNL A   1      30.929  22.391  26.596  1.00  0.00     0.188 C 
BRANCH   2   3
ATOM      3  O   UNL A   1      31.076  22.311  25.188  1.00  0.00    -0.376 OA
BRANCH   3   4
ATOM      4  C   UNL A   1      31.795  23.358  24.552  1.00  0.00     0.202 C 
BRANCH   4   5
ATOM      5  C   UNL A   1      30.979  24.428  23.797  1.00  0.00     0.261 C 
BRANCH   5   6
ATOM      6  O   UNL A   1      29.708  24.804  24.373  1.00  0.00    -0.463 OA
BRANCH   6   7
ATOM      7  C   UNL A   1      29.692  25.640  25.437  1.00  0.00     0.310 C 
ATOM      8  O   UNL A   1      29.566  25.239  26.592  1.00  0.00    -0.252 OA
BRANCH   7   9
ATOM      9  C   UNL A   1      29.957  27.117  25.119  1.00  0.00     0.160 C 
BRANCH   9  10
ATOM     10  C   UNL A   1      31.361  27.678  25.266  1.00  0.00    -0.008 A 
ATOM     11  C   UNL A   1      33.556  27.500  22.112  1.00  0.00     0.119 A 
ATOM     12  C   UNL A   1      34.594  28.277  22.608  1.00  0.00     0.048 A 
ATOM     13  C   UNL A   1      32.485  27.166  22.951  1.00  0.00     0.057 A 
ATOM     14  C   UNL A   1      34.575  28.738  23.935  1.00  0.00     0.031 A 
ATOM     15  C   UNL A   1      32.392  27.687  24.263  1.00  0.00     0.007 A 
ATOM     16  C   UNL A   1      33.470  28.424  24.756  1.00  0.00     0.049 A 
ATOM     17  N   UNL A   1      33.203  28.684  26.096  1.00  0.00    -0.340 N 
ATOM     18  C   UNL A   1      31.974  28.122  26.432  1.00  0.00     0.020 A 
ATOM     19  C   UNL A   1      31.455  27.995  27.818  1.00  0.00     0.065 C 
BRANCH  11  20
ATOM     20  O   UNL A   1      33.429  27.031  20.833  1.00  0.00    -0.497 OA
ATOM     21  C   UNL A   1      32.700  25.828  20.625  1.00  0.00     0.278 C 
ENDBRANCH  11  20
BRANCH  17  22
ATOM     22  C   UNL A   1      34.202  29.240  27.029  1.00  0.00     0.158 C 
BRANCH  22  23
ATOM     23  C   UNL A   1      34.064  30.716  27.339  1.00  0.00    -0.021 A 
ATOM     24  C   UNL A   1      35.253  31.466  27.688  1.00  0.00     0.024 A 
ATOM     25  C   UNL A   1      32.910  31.394  27.194  1.00  0.00     0.077 A 
ATOM     26  C   UNL A   1      35.181  32.753  28.041  1.00  0.00     0.095 A 
ATOM     27  C   UNL A   1      32.827  32.859  27.494  1.00  0.00     0.255 A 
ATOM     28  N   UNL A   1      33.983  33.435  27.996  1.00  0.00    -0.258 N 
ATOM     29  O   UNL A   1      31.767  33.440  27.288  1.00  0.00    -0.269 OA
BRANCH  28  30
ATOM     30  C   UNL A   1      33.936  34.828  28.365  1.00  0.00     0.451 C 
ATOM     31  F   UNL A   1      33.294  34.990  29.546  1.00  0.00    -0.185 F 
ATOM     32  F   UNL A   1      35.177  35.357  28.483  1.00  0.00    -0.185 F 
ENDBRANCH  28  30
ENDBRANCH  22  23
ENDBRANCH  17  22
ENDBRANCH   9  10
ENDBRANCH   7   9
ENDBRANCH   6   7
ENDBRANCH   5   6
ENDBRANCH   4   5
ENDBRANCH   3   4
ENDBRANCH   2   3
ENDBRANCH   1   2
BRANCH   1  33
ATOM     33  O   UNL A   1      33.294  21.921  27.511  1.00  0.00    -0.377 OA
BRANCH  33  34
ATOM     34  C   UNL A   1      34.591  22.436  27.420  1.00  0.00     0.188 C 
BRANCH  34  35
ATOM     35  C   UNL A   1      35.258  22.268  26.052  1.00  0.00     0.188 C 
BRANCH  35  36
ATOM     36  O   UNL A   1      35.976  21.087  25.691  1.00  0.00    -0.376 OA
BRANCH  36  37
ATOM     37  C   UNL A   1      36.978  21.120  24.686  1.00  0.00     0.202 C 
BRANCH  37  38
ATOM     38  C   UNL A   1      38.450  21.091  25.138  1.00  0.00     0.261 C 
BRANCH  38  39
ATOM     39  O   UNL A   1      38.844  22.249  25.880  1.00  0.00    -0.460 OA
BRANCH  39  40
ATOM     40  C   UNL A   1      40.082  22.258  26.432  1.00  0.00     0.338 C 
ATOM     41  O   UNL A   1      41.078  21.671  26.048  1.00  0.00    -0.246 OA
BRANCH  40  42
ATOM     42  C   UNL A   1      40.082  23.385  27.391  1.00  0.00     0.060 A 
ATOM     43  C   UNL A   1      39.081  24.358  27.355  1.00  0.00     0.016 A 
ATOM     44  C   UNL A   1      41.282  23.615  28.081  1.00  0.00     0.016 A 
ATOM     45  C   UNL A   1      39.359  25.621  27.873  1.00  0.00     0.010 A 
ATOM     46  C   UNL A   1      41.556  24.883  28.596  1.00  0.00     0.010 A 
ATOM     47  C   UNL A   1      40.617  25.905  28.446  1.00  0.00    -0.014 A 
BRANCH  47  48
ATOM     48  C   UNL A   1      40.770  27.210  29.104  1.00  0.00     0.031 A 
ATOM     49  C   UNL A   1      41.904  27.988  28.537  1.00  0.00     0.074 A 
ATOM     50  C   UNL A   1      39.953  27.839  29.975  1.00  0.00     0.049 A 
ATOM     51  N   UNL A   1      42.940  28.469  29.143  1.00  0.00    -0.248 NA
ATOM     52  C   UNL A   1      41.916  28.147  27.072  1.00  0.00     0.031 C 
ATOM     53  C   UNL A   1      38.608  27.461  30.408  1.00  0.00     0.029 A 
ATOM     54  N   UNL A   1      40.143  29.059  30.575  1.00  0.00    -0.354 N 
ATOM     55  C   UNL A   1      43.687  29.093  28.151  1.00  0.00     0.074 A 
ATOM     56  C   UNL A   1      43.082  28.757  26.888  1.00  0.00     0.031 C 
ATOM     57  C   UNL A   1      38.021  28.530  31.001  1.00  0.00     0.029 A 
ATOM     58  C   UNL A   1      38.987  29.617  31.100  1.00  0.00     0.049 A 
ATOM     59  H   UNL A   1      41.022  29.500  30.627  1.00  0.00     0.167 HD
ATOM     60  C   UNL A   1      44.666  29.996  28.416  1.00  0.00     0.031 A 
ATOM     61  C   UNL A   1      38.819  30.899  31.507  1.00  0.00     0.031 A 
ATOM     62  C   UNL A   1      45.131  29.940  29.771  1.00  0.00     0.049 A 
ATOM     63  C   UNL A   1      40.150  31.506  31.736  1.00  0.00     0.074 A 
ATOM     64  C   UNL A   1      45.747  28.983  30.550  1.00  0.00     0.029 A 
ATOM     65  N   UNL A   1      44.689  30.910  30.635  1.00  0.00    -0.354 N 
ATOM     66  N   UNL A   1      40.938  31.205  32.724  1.00  0.00    -0.248 NA
ATOM     67  C   UNL A   1      40.751  32.307  30.680  1.00  0.00     0.031 C 
ATOM     68  C   UNL A   1      45.272  29.211  31.874  1.00  0.00     0.029 A 
ATOM     69  C   UNL A   1      44.396  30.297  31.827  1.00  0.00     0.049 A 
ATOM     70  H   UNL A   1      44.598  31.869  30.435  1.00  0.00     0.167 HD
ATOM     71  C   UNL A   1      42.216  31.403  32.227  1.00  0.00     0.074 A 
ATOM     72  C   UNL A   1      42.033  32.225  31.039  1.00  0.00     0.031 C 
ATOM     73  C   UNL A   1      43.265  30.645  32.663  1.00  0.00     0.031 A 
BRANCH  60  74
ATOM     74  C   UNL A   1      44.968  31.140  27.489  1.00  0.00    -0.014 A 
ATOM     75  C   UNL A   1      44.030  32.156  27.210  1.00  0.00     0.009 A 
ATOM     76  C   UNL A   1      46.283  31.356  27.054  1.00  0.00     0.009 A 
ATOM     77  C   UNL A   1      44.368  33.307  26.499  1.00  0.00     0.001 A 
ATOM     78  C   UNL A   1      46.639  32.532  26.384  1.00  0.00     0.001 A 
ATOM     79  C   UNL A   1      45.681  33.503  26.100  1.00  0.00     0.000 A 
ENDBRANCH  60  74
BRANCH  61  80
ATOM     80  C   UNL A   1      37.606  31.748  31.481  1.00  0.00    -0.014 A 
ATOM     81  C   UNL A   1      37.638  33.013  30.869  1.00  0.00     0.009 A 
ATOM     82  C   UNL A   1      36.506  31.451  32.307  1.00  0.00     0.009 A 
ATOM     83  C   UNL A   1      36.638  33.961  31.109  1.00  0.00     0.001 A 
ATOM     84  C   UNL A   1      35.509  32.404  32.554  1.00  0.00     0.001 A 
ATOM     85  C   UNL A   1      35.585  33.664  31.967  1.00  0.00     0.000 A 
ENDBRANCH  61  80
BRANCH  73  86
ATOM     86  C   UNL A   1      43.097  29.861  33.945  1.00  0.00    -0.014 A 
ATOM     87  C   UNL A   1      43.320  30.520  35.165  1.00  0.00     0.009 A 
ATOM     88  C   UNL A   1      42.850  28.478  33.978  1.00  0.00     0.009 A 
ATOM     89  C   UNL A   1      43.290  29.823  36.376  1.00  0.00     0.001 A 
ATOM     90  C   UNL A   1      42.784  27.786  35.192  1.00  0.00     0.001 A 
ATOM     91  C   UNL A   1      43.014  28.458  36.390  1.00  0.00     0.000 A 
ENDBRANCH  73  86
ENDBRANCH  47  48
ENDBRANCH  40  42
ENDBRANCH  39  40
ENDBRANCH  38  39
ENDBRANCH  37  38
ENDBRANCH  36  37
ENDBRANCH  35  36
ENDBRANCH  34  35
ENDBRANCH  33  34
ENDBRANCH   1  33
TORSDOF 25
ENDMDL
MODEL 2
REMARK VINA RESULT:      -8.0      5.269     11.516
REMARK SMILES COc1ccc2c(c1)c(CC(=O)OCCOCCOCCOCCOC(=O)c1ccc(-c3c4nc(c(-c5ccccc5)c5ccc([nH]5)c(-c5ccccc5)c5nc(c(-c6ccccc6)c6ccc3[nH]6)C=C5)C=C4)cc1)c(C)n2Cc1ccn(C(F)F)c(=O)c1
REMARK SMILES IDX 18 1 17 2 16 3 15 4 14 5 13 6 11 7 12 8 10 9 9 10 3 11 4 12
REMARK SMILES IDX 8 13 5 14 7 15 6 16 78 17 76 18 77 19 2 20 1 21 79 22 80 23
REMARK SMILES IDX 81 24 89 25 82 26 87 27 83 28 88 29 84 30 85 31 86 32 19 33
REMARK SMILES IDX 20 34 21 35 22 36 23 37 24 38 25 39 26 40 27 41 28 42 29 43
REMARK SMILES IDX 75 44 30 45 74 46 31 47 32 48 33 49 68 50 34 51 73 52 67 53
REMARK SMILES IDX 69 54 35 55 72 56 66 57 65 58 36 60 58 61 43 62 57 63 44 64
REMARK SMILES IDX 47 65 56 66 70 67 45 68 46 69 55 71 71 72 48 73 37 74 38 75
REMARK SMILES IDX 42 76 39 77 41 78 40 79 59 80 60 81 64 82 61 83 63 84 62 85
REMARK SMILES IDX 49 86 50 87 54 88 51 89 53 90 52 91
REMARK H PARENT 69 59 47 70
REMARK Flexibility Score: inf
ROOT
ATOM      1  C   UNL A   1      45.112  32.045  26.394  1.00  0.00     0.188 C 
ENDROOT
BRANCH   1   2
ATOM      2  C   UNL A   1      44.287  31.300  27.437  1.00  0.00     0.188 C 
BRANCH   2   3
ATOM      3  O   UNL A   1      44.294  29.891  27.282  1.00  0.00    -0.376 OA
BRANCH   3   4
ATOM      4  C   UNL A   1      45.539  29.279  26.976  1.00  0.00     0.202 C 
BRANCH   4   5
ATOM      5  C   UNL A   1      45.531  28.106  25.975  1.00  0.00     0.261 C 
BRANCH   5   6
ATOM      6  O   UNL A   1      45.553  26.773  26.532  1.00  0.00    -0.463 OA
BRANCH   6   7
ATOM      7  C   UNL A   1      45.012  25.756  25.823  1.00  0.00     0.310 C 
ATOM      8  O   UNL A   1      44.400  25.933  24.772  1.00  0.00    -0.252 OA
BRANCH   7   9
ATOM      9  C   UNL A   1      45.312  24.349  26.355  1.00  0.00     0.160 C 
BRANCH   9  10
ATOM     10  C   UNL A   1      44.173  23.369  26.575  1.00  0.00    -0.008 A 
ATOM     11  C   UNL A   1      44.518  19.993  24.762  1.00  0.00     0.119 A 
ATOM     12  C   UNL A   1      43.444  19.376  25.390  1.00  0.00     0.048 A 
ATOM     13  C   UNL A   1      44.779  21.345  25.018  1.00  0.00     0.057 A 
ATOM     14  C   UNL A   1      42.626  20.090  26.282  1.00  0.00     0.031 A 
ATOM     15  C   UNL A   1      44.031  22.068  25.977  1.00  0.00     0.007 A 
ATOM     16  C   UNL A   1      42.927  21.442  26.557  1.00  0.00     0.049 A 
ATOM     17  N   UNL A   1      42.280  22.399  27.332  1.00  0.00    -0.340 N 
ATOM     18  C   UNL A   1      42.976  23.602  27.242  1.00  0.00     0.020 A 
ATOM     19  C   UNL A   1      42.474  24.907  27.745  1.00  0.00     0.065 C 
BRANCH  11  20
ATOM     20  O   UNL A   1      45.415  19.403  23.916  1.00  0.00    -0.497 OA
ATOM     21  C   UNL A   1      44.958  18.972  22.640  1.00  0.00     0.278 C 
ENDBRANCH  11  20
BRANCH  17  22
ATOM     22  C   UNL A   1      40.944  22.196  27.924  1.00  0.00     0.158 C 
BRANCH  22  23
ATOM     23  C   UNL A   1      39.770  22.455  27.005  1.00  0.00    -0.021 A 
ATOM     24  C   UNL A   1      39.258  23.806  26.895  1.00  0.00     0.024 A 
ATOM     25  C   UNL A   1      39.249  21.516  26.193  1.00  0.00     0.077 A 
ATOM     26  C   UNL A   1      38.180  24.080  26.156  1.00  0.00     0.095 A 
ATOM     27  C   UNL A   1      38.099  21.826  25.285  1.00  0.00     0.255 A 
ATOM     28  N   UNL A   1      37.572  23.102  25.397  1.00  0.00    -0.258 N 
ATOM     29  O   UNL A   1      37.702  20.950  24.523  1.00  0.00    -0.269 OA
BRANCH  28  30
ATOM     30  C   UNL A   1      36.420  23.429  24.594  1.00  0.00     0.451 C 
ATOM     31  F   UNL A   1      36.723  23.372  23.275  1.00  0.00    -0.185 F 
ATOM     32  F   UNL A   1      35.390  22.582  24.827  1.00  0.00    -0.185 F 
ENDBRANCH  28  30
ENDBRANCH  22  23
ENDBRANCH  17  22
ENDBRANCH   9  10
ENDBRANCH   7   9
ENDBRANCH   6   7
ENDBRANCH   5   6
ENDBRANCH   4   5
ENDBRANCH   3   4
ENDBRANCH   2   3
ENDBRANCH   1   2
BRANCH   1  33
ATOM     33  O   UNL A   1      44.607  32.431  25.141  1.00  0.00    -0.377 OA
BRANCH  33  34
ATOM     34  C   UNL A   1      44.432  33.792  24.868  1.00  0.00     0.188 C 
BRANCH  34  35
ATOM     35  C   UNL A   1      43.651  34.568  25.933  1.00  0.00     0.188 C 
BRANCH  35  36
ATOM     36  O   UNL A   1      44.298  35.376  26.918  1.00  0.00    -0.376 OA
BRANCH  36  37
ATOM     37  C   UNL A   1      45.527  36.028  26.634  1.00  0.00     0.202 C 
BRANCH  37  38
ATOM     38  C   UNL A   1      45.854  37.313  27.416  1.00  0.00     0.261 C 
BRANCH  38  39
ATOM     39  O   UNL A   1      45.037  37.503  28.575  1.00  0.00    -0.460 OA
BRANCH  39  40
ATOM     40  C   UNL A   1      45.637  37.460  29.789  1.00  0.00     0.338 C 
ATOM     41  O   UNL A   1      46.433  38.255  30.260  1.00  0.00    -0.246 OA
BRANCH  40  42
ATOM     42  C   UNL A   1      44.887  36.452  30.570  1.00  0.00     0.060 A 
ATOM     43  C   UNL A   1      43.761  35.822  30.035  1.00  0.00     0.016 A 
ATOM     44  C   UNL A   1      45.140  36.418  31.950  1.00  0.00     0.016 A 
ATOM     45  C   UNL A   1      42.808  35.304  30.908  1.00  0.00     0.010 A 
ATOM     46  C   UNL A   1      44.180  35.901  32.821  1.00  0.00     0.010 A 
ATOM     47  C   UNL A   1      42.986  35.390  32.305  1.00  0.00    -0.014 A 
BRANCH  47  48
ATOM     48  C   UNL A   1      42.011  34.685  33.147  1.00  0.00     0.031 A 
ATOM     49  C   UNL A   1      42.094  33.209  32.976  1.00  0.00     0.074 A 
ATOM     50  C   UNL A   1      41.222  35.157  34.135  1.00  0.00     0.049 A 
ATOM     51  N   UNL A   1      41.167  32.381  32.617  1.00  0.00    -0.248 NA
ATOM     52  C   UNL A   1      43.432  32.611  33.130  1.00  0.00     0.031 C 
ATOM     53  C   UNL A   1      41.214  36.485  34.747  1.00  0.00     0.029 A 
ATOM     54  N   UNL A   1      40.312  34.459  34.891  1.00  0.00    -0.354 N 
ATOM     55  C   UNL A   1      41.777  31.132  32.606  1.00  0.00     0.074 A 
ATOM     56  C   UNL A   1      43.188  31.347  32.803  1.00  0.00     0.031 C 
ATOM     57  C   UNL A   1      40.526  36.427  35.914  1.00  0.00     0.029 A 
ATOM     58  C   UNL A   1      39.944  35.099  36.065  1.00  0.00     0.049 A 
ATOM     59  H   UNL A   1      39.953  33.582  34.624  1.00  0.00     0.167 HD
ATOM     60  C   UNL A   1      41.082  29.966  32.607  1.00  0.00     0.031 A 
ATOM     61  C   UNL A   1      39.283  34.550  37.114  1.00  0.00     0.031 A 
ATOM     62  C   UNL A   1      39.714  30.128  32.212  1.00  0.00     0.049 A 
ATOM     63  C   UNL A   1      38.614  33.310  36.660  1.00  0.00     0.074 A 
ATOM     64  C   UNL A   1      39.075  30.555  31.066  1.00  0.00     0.029 A 
ATOM     65  N   UNL A   1      38.762  30.120  33.199  1.00  0.00    -0.354 N 
ATOM     66  N   UNL A   1      37.578  33.274  35.877  1.00  0.00    -0.248 NA
ATOM     67  C   UNL A   1      39.274  32.032  36.880  1.00  0.00     0.031 C 
ATOM     68  C   UNL A   1      37.880  31.189  31.513  1.00  0.00     0.029 A 
ATOM     69  C   UNL A   1      37.857  31.109  32.907  1.00  0.00     0.049 A 
ATOM     70  H   UNL A   1      38.734  29.516  33.975  1.00  0.00     0.167 HD
ATOM     71  C   UNL A   1      37.705  32.085  35.179  1.00  0.00     0.074 A 
ATOM     72  C   UNL A   1      38.664  31.301  35.945  1.00  0.00     0.031 C 
ATOM     73  C   UNL A   1      37.242  31.967  33.900  1.00  0.00     0.031 A 
BRANCH  60  74
ATOM     74  C   UNL A   1      41.605  28.727  33.277  1.00  0.00    -0.014 A 
ATOM     75  C   UNL A   1      42.591  27.906  32.690  1.00  0.00     0.009 A 
ATOM     76  C   UNL A   1      41.292  28.478  34.622  1.00  0.00     0.009 A 
ATOM     77  C   UNL A   1      43.203  26.865  33.385  1.00  0.00     0.001 A 
ATOM     78  C   UNL A   1      41.941  27.466  35.339  1.00  0.00     0.001 A 
ATOM     79  C   UNL A   1      42.891  26.656  34.719  1.00  0.00     0.000 A 
ENDBRANCH  60  74
BRANCH  61  80
ATOM     80  C   UNL A   1      39.376  34.863  38.558  1.00  0.00    -0.014 A 
ATOM     81  C   UNL A   1      39.331  33.832  39.512  1.00  0.00     0.009 A 
ATOM     82  C   UNL A   1      39.210  36.183  39.016  1.00  0.00     0.009 A 
ATOM     83  C   UNL A   1      39.084  34.102  40.862  1.00  0.00     0.001 A 
ATOM     84  C   UNL A   1      38.954  36.453  40.367  1.00  0.00     0.001 A 
ATOM     85  C   UNL A   1      38.875  35.410  41.286  1.00  0.00     0.000 A 
ENDBRANCH  61  80
BRANCH  73  86
ATOM     86  C   UNL A   1      36.266  33.005  33.394  1.00  0.00    -0.014 A 
ATOM     87  C   UNL A   1      36.754  34.284  33.079  1.00  0.00     0.009 A 
ATOM     88  C   UNL A   1      34.877  32.797  33.340  1.00  0.00     0.009 A 
ATOM     89  C   UNL A   1      35.885  35.317  32.716  1.00  0.00     0.001 A 
ATOM     90  C   UNL A   1      34.009  33.820  32.942  1.00  0.00     0.001 A 
ATOM     91  C   UNL A   1      34.514  35.083  32.639  1.00  0.00     0.000 A 
ENDBRANCH  73  86
ENDBRANCH  47  48
ENDBRANCH  40  42
ENDBRANCH  39  40
ENDBRANCH  38  39
ENDBRANCH  37  38
ENDBRANCH  36  37
ENDBRANCH  35  36
ENDBRANCH  34  35
ENDBRANCH  33  34
ENDBRANCH   1  33
TORSDOF 25
ENDMDL
MODEL 3
REMARK VINA RESULT:      -8.0      6.535     10.850
REMARK SMILES COc1ccc2c(c1)c(CC(=O)OCCOCCOCCOCCOC(=O)c1ccc(-c3c4nc(c(-c5ccccc5)c5ccc([nH]5)c(-c5ccccc5)c5nc(c(-c6ccccc6)c6ccc3[nH]6)C=C5)C=C4)cc1)c(C)n2Cc1ccn(C(F)F)c(=O)c1
REMARK SMILES IDX 18 1 17 2 16 3 15 4 14 5 13 6 11 7 12 8 10 9 9 10 3 11 4 12
REMARK SMILES IDX 8 13 5 14 7 15 6 16 78 17 76 18 77 19 2 20 1 21 79 22 80 23
REMARK SMILES IDX 81 24 89 25 82 26 87 27 83 28 88 29 84 30 85 31 86 32 19 33
REMARK SMILES IDX 20 34 21 35 22 36 23 37 24 38 25 39 26 40 27 41 28 42 29 43
REMARK SMILES IDX 75 44 30 45 74 46 31 47 32 48 33 49 68 50 34 51 73 52 67 53
REMARK SMILES IDX 69 54 35 55 72 56 66 57 65 58 36 60 58 61 43 62 57 63 44 64
REMARK SMILES IDX 47 65 56 66 70 67 45 68 46 69 55 71 71 72 48 73 37 74 38 75
REMARK SMILES IDX 42 76 39 77 41 78 40 79 59 80 60 81 64 82 61 83 63 84 62 85
REMARK SMILES IDX 49 86 50 87 54 88 51 89 53 90 52 91
REMARK H PARENT 69 59 47 70
REMARK Flexibility Score: inf
ROOT
ATOM      1  C   UNL A   1      42.208  20.862  25.779  1.00  0.00     0.188 C 
ENDROOT
BRANCH   1   2
ATOM      2  C   UNL A   1      41.591  20.740  27.167  1.00  0.00     0.188 C 
BRANCH   2   3
ATOM      3  O   UNL A   1      41.424  21.978  27.838  1.00  0.00    -0.376 OA
BRANCH   3   4
ATOM      4  C   UNL A   1      40.454  22.874  27.312  1.00  0.00     0.202 C 
BRANCH   4   5
ATOM      5  C   UNL A   1      39.232  22.262  26.598  1.00  0.00     0.261 C 
BRANCH   5   6
ATOM      6  O   UNL A   1      38.292  23.186  26.007  1.00  0.00    -0.463 OA
BRANCH   6   7
ATOM      7  C   UNL A   1      37.382  22.720  25.120  1.00  0.00     0.310 C 
ATOM      8  O   UNL A   1      37.263  21.526  24.858  1.00  0.00    -0.252 OA
BRANCH   7   9
ATOM      9  C   UNL A   1      36.424  23.772  24.546  1.00  0.00     0.160 C 
BRANCH   9  10
ATOM     10  C   UNL A   1      34.985  23.824  25.029  1.00  0.00    -0.008 A 
ATOM     11  C   UNL A   1      32.934  20.616  24.480  1.00  0.00     0.119 A 
ATOM     12  C   UNL A   1      31.834  21.013  25.227  1.00  0.00     0.048 A 
ATOM     13  C   UNL A   1      33.988  21.517  24.277  1.00  0.00     0.057 A 
ATOM     14  C   UNL A   1      31.771  22.301  25.786  1.00  0.00     0.031 A 
ATOM     15  C   UNL A   1      33.997  22.787  24.899  1.00  0.00     0.007 A 
ATOM     16  C   UNL A   1      32.858  23.182  25.604  1.00  0.00     0.049 A 
ATOM     17  N   UNL A   1      33.055  24.507  25.979  1.00  0.00    -0.340 N 
ATOM     18  C   UNL A   1      34.300  24.929  25.520  1.00  0.00     0.020 A 
ATOM     19  C   UNL A   1      34.769  26.339  25.529  1.00  0.00     0.065 C 
BRANCH  11  20
ATOM     20  O   UNL A   1      33.141  19.383  23.926  1.00  0.00    -0.497 OA
ATOM     21  C   UNL A   1      32.265  18.323  24.291  1.00  0.00     0.278 C 
ENDBRANCH  11  20
BRANCH  17  22
ATOM     22  C   UNL A   1      31.988  25.358  26.540  1.00  0.00     0.158 C 
BRANCH  22  23
ATOM     23  C   UNL A   1      31.196  26.169  25.538  1.00  0.00    -0.021 A 
ATOM     24  C   UNL A   1      31.780  27.387  25.013  1.00  0.00     0.024 A 
ATOM     25  C   UNL A   1      30.024  25.758  25.019  1.00  0.00     0.077 A 
ATOM     26  C   UNL A   1      31.098  28.180  24.181  1.00  0.00     0.095 A 
ATOM     27  C   UNL A   1      29.286  26.587  24.013  1.00  0.00     0.255 A 
ATOM     28  N   UNL A   1      29.848  27.818  23.721  1.00  0.00    -0.258 N 
ATOM     29  O   UNL A   1      28.252  26.137  23.529  1.00  0.00    -0.269 OA
BRANCH  28  30
ATOM     30  C   UNL A   1      29.141  28.684  22.810  1.00  0.00     0.451 C 
ATOM     31  F   UNL A   1      28.031  29.193  23.396  1.00  0.00    -0.185 F 
ATOM     32  F   UNL A   1      29.914  29.718  22.400  1.00  0.00    -0.185 F 
ENDBRANCH  28  30
ENDBRANCH  22  23
ENDBRANCH  17  22
ENDBRANCH   9  10
ENDBRANCH   7   9
ENDBRANCH   6   7
ENDBRANCH   5   6
ENDBRANCH   4   5
ENDBRANCH   3   4
ENDBRANCH   2   3
ENDBRANCH   1   2
BRANCH   1  33
ATOM     33  O   UNL A   1      43.233  20.022  25.313  1.00  0.00    -0.377 OA
BRANCH  33  34
ATOM     34  C   UNL A   1      44.544  20.508  25.273  1.00  0.00     0.188 C 
BRANCH  34  35
ATOM     35  C   UNL A   1      44.684  22.011  25.530  1.00  0.00     0.188 C 
BRANCH  35  36
ATOM     36  O   UNL A   1      45.409  22.531  26.646  1.00  0.00    -0.376 OA
BRANCH  36  37
ATOM     37  C   UNL A   1      45.285  23.893  27.026  1.00  0.00     0.202 C 
BRANCH  37  38
ATOM     38  C   UNL A   1      45.955  24.336  28.339  1.00  0.00     0.261 C 
BRANCH  38  39
ATOM     39  O   UNL A   1      45.185  25.283  29.085  1.00  0.00    -0.460 OA
BRANCH  39  40
ATOM     40  C   UNL A   1      44.105  24.829  29.766  1.00  0.00     0.338 C 
ATOM     41  O   UNL A   1      43.107  24.294  29.316  1.00  0.00    -0.246 OA
BRANCH  40  42
ATOM     42  C   UNL A   1      44.514  24.797  31.188  1.00  0.00     0.060 A 
ATOM     43  C   UNL A   1      45.560  25.599  31.651  1.00  0.00     0.016 A 
ATOM     44  C   UNL A   1      44.056  23.707  31.943  1.00  0.00     0.016 A 
ATOM     45  C   UNL A   1      46.249  25.200  32.795  1.00  0.00     0.010 A 
ATOM     46  C   UNL A   1      44.752  23.311  33.086  1.00  0.00     0.010 A 
ATOM     47  C   UNL A   1      45.883  24.025  33.485  1.00  0.00    -0.014 A 
BRANCH  47  48
ATOM     48  C   UNL A   1      46.562  23.764  34.762  1.00  0.00     0.031 A 
ATOM     49  C   UNL A   1      46.395  24.890  35.721  1.00  0.00     0.074 A 
ATOM     50  C   UNL A   1      47.126  22.628  35.222  1.00  0.00     0.049 A 
ATOM     51  N   UNL A   1      47.306  25.594  36.309  1.00  0.00    -0.248 NA
ATOM     52  C   UNL A   1      45.013  25.343  35.957  1.00  0.00     0.031 C 
ATOM     53  C   UNL A   1      47.101  21.288  34.637  1.00  0.00     0.029 A 
ATOM     54  N   UNL A   1      47.762  22.432  36.424  1.00  0.00    -0.354 N 
ATOM     55  C   UNL A   1      46.611  26.516  37.084  1.00  0.00     0.074 A 
ATOM     56  C   UNL A   1      45.219  26.401  36.733  1.00  0.00     0.031 C 
ATOM     57  C   UNL A   1      47.478  20.389  35.580  1.00  0.00     0.029 A 
ATOM     58  C   UNL A   1      47.889  21.099  36.785  1.00  0.00     0.049 A 
ATOM     59  H   UNL A   1      48.097  23.172  36.980  1.00  0.00     0.167 HD
ATOM     60  C   UNL A   1      47.181  27.212  38.100  1.00  0.00     0.031 A 
ATOM     61  C   UNL A   1      48.227  20.620  38.007  1.00  0.00     0.031 A 
ATOM     62  C   UNL A   1      48.614  27.225  38.037  1.00  0.00     0.049 A 
ATOM     63  C   UNL A   1      48.876  21.702  38.782  1.00  0.00     0.074 A 
ATOM     64  C   UNL A   1      49.545  27.697  37.136  1.00  0.00     0.029 A 
ATOM     65  N   UNL A   1      49.294  26.391  38.888  1.00  0.00    -0.354 N 
ATOM     66  N   UNL A   1      50.064  22.171  38.542  1.00  0.00    -0.248 NA
ATOM     67  C   UNL A   1      48.075  22.480  39.714  1.00  0.00     0.031 C 
ATOM     68  C   UNL A   1      50.647  26.797  37.224  1.00  0.00     0.029 A 
ATOM     69  C   UNL A   1      50.325  25.829  38.178  1.00  0.00     0.049 A 
ATOM     70  H   UNL A   1      49.081  26.226  39.834  1.00  0.00     0.167 HD
ATOM     71  C   UNL A   1      50.007  23.495  38.944  1.00  0.00     0.074 A 
ATOM     72  C   UNL A   1      48.827  23.579  39.794  1.00  0.00     0.031 C 
ATOM     73  C   UNL A   1      50.753  24.452  38.318  1.00  0.00     0.031 A 
BRANCH  60  74
ATOM     74  C   UNL A   1      46.408  27.618  39.322  1.00  0.00    -0.014 A 
ATOM     75  C   UNL A   1      46.319  26.800  40.469  1.00  0.00     0.009 A 
ATOM     76  C   UNL A   1      45.941  28.935  39.446  1.00  0.00     0.009 A 
ATOM     77  C   UNL A   1      45.758  27.251  41.663  1.00  0.00     0.001 A 
ATOM     78  C   UNL A   1      45.423  29.407  40.658  1.00  0.00     0.001 A 
ATOM     79  C   UNL A   1      45.325  28.563  41.763  1.00  0.00     0.000 A 
ENDBRANCH  60  74
BRANCH  61  80
ATOM     80  C   UNL A   1      47.815  19.365  38.678  1.00  0.00    -0.014 A 
ATOM     81  C   UNL A   1      46.512  18.867  38.512  1.00  0.00     0.009 A 
ATOM     82  C   UNL A   1      48.597  18.816  39.711  1.00  0.00     0.009 A 
ATOM     83  C   UNL A   1      45.992  17.894  39.371  1.00  0.00     0.001 A 
ATOM     84  C   UNL A   1      48.073  17.848  40.577  1.00  0.00     0.001 A 
ATOM     85  C   UNL A   1      46.765  17.399  40.416  1.00  0.00     0.000 A 
ENDBRANCH  61  80
BRANCH  73  86
ATOM     86  C   UNL A   1      51.909  24.005  37.452  1.00  0.00    -0.014 A 
ATOM     87  C   UNL A   1      53.147  23.752  38.066  1.00  0.00     0.009 A 
ATOM     88  C   UNL A   1      51.844  23.946  36.049  1.00  0.00     0.009 A 
ATOM     89  C   UNL A   1      54.278  23.446  37.306  1.00  0.00     0.001 A 
ATOM     90  C   UNL A   1      52.968  23.604  35.289  1.00  0.00     0.001 A 
ATOM     91  C   UNL A   1      54.187  23.363  35.918  1.00  0.00     0.000 A 
ENDBRANCH  73  86
ENDBRANCH  47  48
ENDBRANCH  40  42
ENDBRANCH  39  40
ENDBRANCH  38  39
ENDBRANCH  37  38
ENDBRANCH  36  37
ENDBRANCH  35  36
ENDBRANCH  34  35
ENDBRANCH  33  34
ENDBRANCH   1  33
TORSDOF 25
ENDMDL
