MODEL 1
REMARK VINA RESULT:     -10.7      0.000      0.000
REMARK SMILES CC[C@](C)(NC(=O)[C@H]1C[NH2+]Cc2ccccc21)C(=O)OCCOCCOCCOCCOC(=O)c1ccc(-c2c3nc(c(-c4ccccc4)c4ccc([nH]4)c(-c4ccccc4)c4nc(c(-c5ccccc5)c5ccc2[nH]5)C=C4)C=C3)cc1
REMARK SMILES IDX 26 1 25 2 24 3 23 4 22 5 21 6 20 7 18 8 19 9 3 10 4 11 2 12
REMARK SMILES IDX 1 13 5 14 6 15 7 17 8 18 9 19 17 20 10 21 12 22 16 23 11 24
REMARK SMILES IDX 13 27 15 28 14 29 27 30 28 31 29 32 30 33 31 34 32 35 33 36
REMARK SMILES IDX 34 37 35 38 36 39 82 40 37 41 81 42 38 43 39 44 40 45 75 46
REMARK SMILES IDX 41 47 80 48 74 49 76 50 42 51 79 52 73 53 72 54 43 56 65 57
REMARK SMILES IDX 50 58 64 59 51 60 54 61 63 62 77 63 52 64 53 65 62 67 78 68
REMARK SMILES IDX 55 69 44 70 45 71 49 72 46 73 48 74 47 75 66 76 67 77 71 78
REMARK SMILES IDX 68 79 70 80 69 81 56 82 57 83 61 84 58 85 60 86 59 87
REMARK H PARENT 5 16 10 25 10 26 76 55 54 66
REMARK Flexibility Score: inf
ROOT
ATOM      1  O   UNL A   1      33.633  28.685  22.824  1.00  0.00    -0.377 OA
ENDROOT
BRANCH   1   2
ATOM      2  C   UNL A   1      33.367  27.454  22.127  1.00  0.00     0.188 C 
BRANCH   2   3
ATOM      3  C   UNL A   1      31.840  26.789  21.726  1.00  0.00     0.188 C 
BRANCH   3   4
ATOM      4  O   UNL A   1      30.183  27.515  22.129  1.00  0.00    -0.376 OA
BRANCH   4   5
ATOM      5  C   UNL A   1      29.059  27.900  23.051  1.00  0.00     0.202 C 
BRANCH   5   6
ATOM      6  C   UNL A   1      28.531  26.722  24.025  1.00  0.00     0.261 C 
BRANCH   6   7
ATOM      7  O   UNL A   1      29.770  25.233  24.559  1.00  0.00    -0.462 OA
BRANCH   7   8
ATOM      8  C   UNL A   1      30.837  24.328  24.570  1.00  0.00     0.331 C 
ATOM      9  O   UNL A   1      30.822  23.455  23.690  1.00  0.00    -0.249 OA
BRANCH   8  10
ATOM     10  C   UNL A   1      32.127  24.406  25.608  1.00  0.00     0.135 C 
ATOM     11  C   UNL A   1      31.946  25.673  26.504  1.00  0.00     0.047 C 
BRANCH  10  12
ATOM     12  C   UNL A   1      33.301  24.770  24.587  1.00  0.00     0.037 C 
ATOM     13  C   UNL A   1      34.491  25.594  25.112  1.00  0.00     0.007 C 
ENDBRANCH  10  12
BRANCH  10  14
ATOM     14  N   UNL A   1      32.798  23.276  26.552  1.00  0.00    -0.340 N 
ATOM     15  C   UNL A   1      33.631  22.137  26.496  1.00  0.00     0.234 C 
ATOM     16  H   UNL A   1      32.536  23.439  27.488  1.00  0.00     0.164 HD
ATOM     17  O   UNL A   1      33.649  21.454  27.527  1.00  0.00    -0.274 OA
BRANCH  15  18
ATOM     18  C   UNL A   1      34.754  21.912  25.303  1.00  0.00     0.164 C 
ATOM     19  C   UNL A   1      36.745  22.129  25.140  1.00  0.00     0.279 C 
ATOM     20  C   UNL A   1      34.111  20.278  24.918  1.00  0.00    -0.021 A 
ATOM     21  N   UNL A   1      37.946  20.658  25.075  1.00  0.00    -0.342 N 
ATOM     22  C   UNL A   1      35.282  18.747  24.824  1.00  0.00     0.010 A 
ATOM     23  C   UNL A   1      32.539  20.311  24.043  1.00  0.00     0.005 A 
ATOM     24  C   UNL A   1      37.164  18.974  24.891  1.00  0.00     0.297 C 
ATOM     25  H   UNL A   1      38.487  20.658  25.941  1.00  0.00     0.346 HD
ATOM     26  H   UNL A   1      38.507  20.796  24.234  1.00  0.00     0.346 HD
ATOM     27  C   UNL A   1      34.753  17.376  23.820  1.00  0.00     0.010 A 
ATOM     28  C   UNL A   1      32.092  18.885  23.078  1.00  0.00     0.000 A 
ATOM     29  C   UNL A   1      33.178  17.467  22.957  1.00  0.00     0.001 A 
ENDBRANCH  15  18
ENDBRANCH  10  14
ENDBRANCH   8  10
ENDBRANCH   7   8
ENDBRANCH   6   7
ENDBRANCH   5   6
ENDBRANCH   4   5
ENDBRANCH   3   4
ENDBRANCH   2   3
ENDBRANCH   1   2
BRANCH   1  30
ATOM     30  C   UNL A   1      33.374  29.087  24.190  1.00  0.00     0.188 C 
BRANCH  30  31
ATOM     31  C   UNL A   1      31.966  29.048  24.879  1.00  0.00     0.188 C 
BRANCH  31  32
ATOM     32  O   UNL A   1      31.830  29.446  26.227  1.00  0.00    -0.376 OA
BRANCH  32  33
ATOM     33  C   UNL A   1      32.791  30.357  26.720  1.00  0.00     0.202 C 
BRANCH  33  34
ATOM     34  C   UNL A   1      32.285  31.721  27.214  1.00  0.00     0.261 C 
BRANCH  34  35
ATOM     35  O   UNL A   1      33.189  32.819  27.001  1.00  0.00    -0.460 OA
BRANCH  35  36
ATOM     36  C   UNL A   1      33.272  33.730  28.005  1.00  0.00     0.338 C 
ATOM     37  O   UNL A   1      32.418  34.529  28.348  1.00  0.00    -0.246 OA
BRANCH  36  38
ATOM     38  C   UNL A   1      34.505  33.474  28.794  1.00  0.00     0.060 A 
ATOM     39  C   UNL A   1      35.750  33.815  28.237  1.00  0.00     0.016 A 
ATOM     40  C   UNL A   1      34.442  32.876  30.054  1.00  0.00     0.016 A 
ATOM     41  C   UNL A   1      36.934  33.508  28.910  1.00  0.00     0.010 A 
ATOM     42  C   UNL A   1      35.627  32.528  30.708  1.00  0.00     0.010 A 
ATOM     43  C   UNL A   1      36.873  32.793  30.111  1.00  0.00    -0.014 A 
BRANCH  43  44
ATOM     44  C   UNL A   1      38.053  32.007  30.548  1.00  0.00     0.031 A 
ATOM     45  C   UNL A   1      38.909  32.614  31.630  1.00  0.00     0.074 A 
ATOM     46  C   UNL A   1      38.379  30.820  30.009  1.00  0.00     0.049 A 
ATOM     47  N   UNL A   1      40.051  32.206  32.120  1.00  0.00    -0.248 NA
ATOM     48  C   UNL A   1      38.406  33.860  32.238  1.00  0.00     0.031 C 
ATOM     49  C   UNL A   1      37.605  30.095  29.006  1.00  0.00     0.029 A 
ATOM     50  N   UNL A   1      39.476  30.023  30.232  1.00  0.00    -0.354 N 
ATOM     51  C   UNL A   1      40.402  33.147  33.079  1.00  0.00     0.074 A 
ATOM     52  C   UNL A   1      39.367  34.154  33.097  1.00  0.00     0.031 C 
ATOM     53  C   UNL A   1      38.264  28.966  28.683  1.00  0.00     0.029 A 
ATOM     54  C   UNL A   1      39.522  28.913  29.426  1.00  0.00     0.049 A 
ATOM     55  H   UNL A   1      40.163  30.229  30.906  1.00  0.00     0.167 HD
ATOM     56  C   UNL A   1      41.495  33.182  33.875  1.00  0.00     0.031 A 
ATOM     57  C   UNL A   1      40.489  27.984  29.284  1.00  0.00     0.031 A 
ATOM     58  C   UNL A   1      42.546  32.207  33.833  1.00  0.00     0.049 A 
ATOM     59  C   UNL A   1      41.750  28.098  30.106  1.00  0.00     0.074 A 
ATOM     60  C   UNL A   1      43.704  32.154  34.587  1.00  0.00     0.029 A 
ATOM     61  N   UNL A   1      42.571  31.121  32.973  1.00  0.00    -0.354 N 
ATOM     62  N   UNL A   1      42.067  28.984  31.020  1.00  0.00    -0.248 NA
ATOM     63  C   UNL A   1      42.789  27.083  29.872  1.00  0.00     0.031 C 
ATOM     64  C   UNL A   1      44.458  31.063  34.144  1.00  0.00     0.029 A 
ATOM     65  C   UNL A   1      43.738  30.404  33.158  1.00  0.00     0.049 A 
ATOM     66  H   UNL A   1      41.863  30.894  32.329  1.00  0.00     0.167 HD
ATOM     67  C   UNL A   1      43.325  28.619  31.487  1.00  0.00     0.074 A 
ATOM     68  C   UNL A   1      43.708  27.423  30.765  1.00  0.00     0.031 C 
ATOM     69  C   UNL A   1      44.095  29.215  32.430  1.00  0.00     0.031 A 
BRANCH  56  70
ATOM     70  C   UNL A   1      41.620  34.347  34.814  1.00  0.00    -0.014 A 
ATOM     71  C   UNL A   1      42.437  35.447  34.506  1.00  0.00     0.009 A 
ATOM     72  C   UNL A   1      40.914  34.341  36.026  1.00  0.00     0.009 A 
ATOM     73  C   UNL A   1      42.572  36.501  35.413  1.00  0.00     0.001 A 
ATOM     74  C   UNL A   1      41.027  35.408  36.917  1.00  0.00     0.001 A 
ATOM     75  C   UNL A   1      41.863  36.483  36.614  1.00  0.00     0.000 A 
ENDBRANCH  56  70
BRANCH  57  76
ATOM     76  C   UNL A   1      40.335  26.881  28.298  1.00  0.00    -0.014 A 
ATOM     77  C   UNL A   1      40.858  27.001  27.001  1.00  0.00     0.009 A 
ATOM     78  C   UNL A   1      39.628  25.716  28.636  1.00  0.00     0.009 A 
ATOM     79  C   UNL A   1      40.655  25.989  26.058  1.00  0.00     0.001 A 
ATOM     80  C   UNL A   1      39.452  24.694  27.700  1.00  0.00     0.001 A 
ATOM     81  C   UNL A   1      39.957  24.834  26.409  1.00  0.00     0.000 A 
ENDBRANCH  57  76
BRANCH  69  82
ATOM     82  C   UNL A   1      45.408  28.566  32.769  1.00  0.00    -0.014 A 
ATOM     83  C   UNL A   1      46.578  28.874  32.062  1.00  0.00     0.009 A 
ATOM     84  C   UNL A   1      45.481  27.685  33.860  1.00  0.00     0.009 A 
ATOM     85  C   UNL A   1      47.795  28.291  32.426  1.00  0.00     0.001 A 
ATOM     86  C   UNL A   1      46.703  27.127  34.240  1.00  0.00     0.001 A 
ATOM     87  C   UNL A   1      47.857  27.425  33.517  1.00  0.00     0.000 A 
ENDBRANCH  69  82
ENDBRANCH  43  44
ENDBRANCH  36  38
ENDBRANCH  35  36
ENDBRANCH  34  35
ENDBRANCH  33  34
ENDBRANCH  32  33
ENDBRANCH  31  32
ENDBRANCH  30  31
ENDBRANCH   1  30
TORSDOF 23
ENDMDL
MODEL 2
REMARK VINA RESULT:     -10.3      3.020      6.804
REMARK SMILES CC[C@](C)(NC(=O)[C@H]1C[NH2+]Cc2ccccc21)C(=O)OCCOCCOCCOCCOC(=O)c1ccc(-c2c3nc(c(-c4ccccc4)c4ccc([nH]4)c(-c4ccccc4)c4nc(c(-c5ccccc5)c5ccc2[nH]5)C=C4)C=C3)cc1
REMARK SMILES IDX 26 1 25 2 24 3 23 4 22 5 21 6 20 7 18 8 19 9 3 10 4 11 2 12
REMARK SMILES IDX 1 13 5 14 6 15 7 17 8 18 9 19 17 20 10 21 12 22 16 23 11 24
REMARK SMILES IDX 13 27 15 28 14 29 27 30 28 31 29 32 30 33 31 34 32 35 33 36
REMARK SMILES IDX 34 37 35 38 36 39 82 40 37 41 81 42 38 43 39 44 40 45 75 46
REMARK SMILES IDX 41 47 80 48 74 49 76 50 42 51 79 52 73 53 72 54 43 56 65 57
REMARK SMILES IDX 50 58 64 59 51 60 54 61 63 62 77 63 52 64 53 65 62 67 78 68
REMARK SMILES IDX 55 69 44 70 45 71 49 72 46 73 48 74 47 75 66 76 67 77 71 78
REMARK SMILES IDX 68 79 70 80 69 81 56 82 57 83 61 84 58 85 60 86 59 87
REMARK H PARENT 5 16 10 25 10 26 76 55 54 66
REMARK Flexibility Score: inf
ROOT
ATOM      1  O   UNL A   1      32.874  26.566  26.289  1.00  0.00    -0.377 OA
ENDROOT
BRANCH   1   2
ATOM      2  C   UNL A   1      33.939  26.062  25.463  1.00  0.00     0.188 C 
BRANCH   2   3
ATOM      3  C   UNL A   1      34.670  24.513  25.527  1.00  0.00     0.188 C 
BRANCH   3   4
ATOM      4  O   UNL A   1      36.384  24.082  24.971  1.00  0.00    -0.376 OA
BRANCH   4   5
ATOM      5  C   UNL A   1      37.599  23.199  24.879  1.00  0.00     0.202 C 
BRANCH   5   6
ATOM      6  C   UNL A   1      38.167  22.658  26.293  1.00  0.00     0.261 C 
BRANCH   6   7
ATOM      7  O   UNL A   1      40.140  22.360  26.531  1.00  0.00    -0.462 OA
BRANCH   7   8
ATOM      8  C   UNL A   1      41.376  22.004  27.081  1.00  0.00     0.331 C 
ATOM      9  O   UNL A   1      41.348  21.532  28.227  1.00  0.00    -0.249 OA
BRANCH   8  10
ATOM     10  C   UNL A   1      42.825  22.097  26.281  1.00  0.00     0.135 C 
ATOM     11  C   UNL A   1      42.609  22.957  24.995  1.00  0.00     0.047 C 
BRANCH  10  12
ATOM     12  C   UNL A   1      42.970  20.590  25.767  1.00  0.00     0.037 C 
ATOM     13  C   UNL A   1      44.281  20.184  25.069  1.00  0.00     0.007 C 
ENDBRANCH  10  12
BRANCH  10  14
ATOM     14  N   UNL A   1      44.311  22.446  26.816  1.00  0.00    -0.340 N 
ATOM     15  C   UNL A   1      44.997  23.305  27.702  1.00  0.00     0.234 C 
ATOM     16  H   UNL A   1      44.962  21.856  26.370  1.00  0.00     0.164 HD
ATOM     17  O   UNL A   1      46.225  23.332  27.556  1.00  0.00    -0.274 OA
BRANCH  15  18
ATOM     18  C   UNL A   1      44.283  23.955  29.044  1.00  0.00     0.164 C 
ATOM     19  C   UNL A   1      43.933  23.346  30.927  1.00  0.00     0.279 C 
ATOM     20  C   UNL A   1      45.213  25.484  28.877  1.00  0.00    -0.021 A 
ATOM     21  N   UNL A   1      44.894  24.008  32.427  1.00  0.00    -0.342 N 
ATOM     22  C   UNL A   1      46.198  26.215  30.368  1.00  0.00     0.010 A 
ATOM     23  C   UNL A   1      44.644  26.528  27.527  1.00  0.00     0.005 A 
ATOM     24  C   UNL A   1      46.005  25.471  32.102  1.00  0.00     0.297 C 
ATOM     25  H   UNL A   1      45.475  23.249  32.786  1.00  0.00     0.346 HD
ATOM     26  H   UNL A   1      44.188  24.338  33.084  1.00  0.00     0.346 HD
ATOM     27  C   UNL A   1      46.504  27.968  30.361  1.00  0.00     0.010 A 
ATOM     28  C   UNL A   1      45.013  28.267  27.605  1.00  0.00     0.000 A 
ATOM     29  C   UNL A   1      45.902  28.967  28.992  1.00  0.00     0.001 A 
ENDBRANCH  15  18
ENDBRANCH  10  14
ENDBRANCH   8  10
ENDBRANCH   7   8
ENDBRANCH   6   7
ENDBRANCH   5   6
ENDBRANCH   4   5
ENDBRANCH   3   4
ENDBRANCH   2   3
ENDBRANCH   1   2
BRANCH   1  30
ATOM     30  C   UNL A   1      32.242  27.867  26.350  1.00  0.00     0.188 C 
BRANCH  30  31
ATOM     31  C   UNL A   1      32.992  29.231  26.168  1.00  0.00     0.188 C 
BRANCH  31  32
ATOM     32  O   UNL A   1      32.685  30.322  27.010  1.00  0.00    -0.376 OA
BRANCH  32  33
ATOM     33  C   UNL A   1      31.789  31.287  26.498  1.00  0.00     0.202 C 
BRANCH  33  34
ATOM     34  C   UNL A   1      31.822  32.689  27.127  1.00  0.00     0.261 C 
BRANCH  34  35
ATOM     35  O   UNL A   1      33.135  33.255  27.283  1.00  0.00    -0.460 OA
BRANCH  35  36
ATOM     36  C   UNL A   1      33.265  34.213  28.237  1.00  0.00     0.338 C 
ATOM     37  O   UNL A   1      32.527  35.164  28.432  1.00  0.00    -0.246 OA
BRANCH  36  38
ATOM     38  C   UNL A   1      34.343  33.817  29.180  1.00  0.00     0.060 A 
ATOM     39  C   UNL A   1      35.669  34.179  28.883  1.00  0.00     0.016 A 
ATOM     40  C   UNL A   1      34.060  33.072  30.326  1.00  0.00     0.016 A 
ATOM     41  C   UNL A   1      36.718  33.750  29.698  1.00  0.00     0.010 A 
ATOM     42  C   UNL A   1      35.113  32.604  31.118  1.00  0.00     0.010 A 
ATOM     43  C   UNL A   1      36.445  32.895  30.773  1.00  0.00    -0.014 A 
BRANCH  43  44
ATOM     44  C   UNL A   1      37.523  32.020  31.296  1.00  0.00     0.031 A 
ATOM     45  C   UNL A   1      38.016  32.310  32.690  1.00  0.00     0.074 A 
ATOM     46  C   UNL A   1      38.067  31.024  30.576  1.00  0.00     0.049 A 
ATOM     47  N   UNL A   1      39.015  31.784  33.350  1.00  0.00    -0.248 NA
ATOM     48  C   UNL A   1      37.279  33.344  33.440  1.00  0.00     0.031 C 
ATOM     49  C   UNL A   1      37.641  30.599  29.246  1.00  0.00     0.029 A 
ATOM     50  N   UNL A   1      39.122  30.196  30.875  1.00  0.00    -0.354 N 
ATOM     51  C   UNL A   1      39.030  32.429  34.580  1.00  0.00     0.074 A 
ATOM     52  C   UNL A   1      37.955  33.394  34.576  1.00  0.00     0.031 C 
ATOM     53  C   UNL A   1      38.443  29.601  28.832  1.00  0.00     0.029 A 
ATOM     54  C   UNL A   1      39.461  29.346  29.852  1.00  0.00     0.049 A 
ATOM     55  H   UNL A   1      39.590  30.211  31.741  1.00  0.00     0.167 HD
ATOM     56  C   UNL A   1      39.867  32.246  35.625  1.00  0.00     0.031 A 
ATOM     57  C   UNL A   1      40.497  28.491  29.742  1.00  0.00     0.031 A 
ATOM     58  C   UNL A   1      40.962  31.319  35.620  1.00  0.00     0.049 A 
ATOM     59  C   UNL A   1      41.485  28.378  30.878  1.00  0.00     0.074 A 
ATOM     60  C   UNL A   1      41.880  31.063  36.621  1.00  0.00     0.029 A 
ATOM     61  N   UNL A   1      41.294  30.507  34.547  1.00  0.00    -0.354 N 
ATOM     62  N   UNL A   1      41.483  28.982  32.043  1.00  0.00    -0.248 NA
ATOM     63  C   UNL A   1      42.621  27.464  30.681  1.00  0.00     0.031 C 
ATOM     64  C   UNL A   1      42.803  30.133  36.132  1.00  0.00     0.029 A 
ATOM     65  C   UNL A   1      42.421  29.767  34.851  1.00  0.00     0.049 A 
ATOM     66  H   UNL A   1      40.800  30.464  33.697  1.00  0.00     0.167 HD
ATOM     67  C   UNL A   1      42.597  28.503  32.725  1.00  0.00     0.074 A 
ATOM     68  C   UNL A   1      43.244  27.548  31.849  1.00  0.00     0.031 C 
ATOM     69  C   UNL A   1      43.044  28.820  33.964  1.00  0.00     0.031 A 
BRANCH  56  70
ATOM     70  C   UNL A   1      39.654  33.113  36.833  1.00  0.00    -0.014 A 
ATOM     71  C   UNL A   1      38.816  32.706  37.884  1.00  0.00     0.009 A 
ATOM     72  C   UNL A   1      40.296  34.357  36.916  1.00  0.00     0.009 A 
ATOM     73  C   UNL A   1      38.599  33.547  38.977  1.00  0.00     0.001 A 
ATOM     74  C   UNL A   1      40.100  35.182  38.022  1.00  0.00     0.001 A 
ATOM     75  C   UNL A   1      39.244  34.781  39.048  1.00  0.00     0.000 A 
ENDBRANCH  56  70
BRANCH  57  76
ATOM     76  C   UNL A   1      40.691  27.698  28.499  1.00  0.00    -0.014 A 
ATOM     77  C   UNL A   1      41.249  28.285  27.353  1.00  0.00     0.009 A 
ATOM     78  C   UNL A   1      40.283  26.356  28.439  1.00  0.00     0.009 A 
ATOM     79  C   UNL A   1      41.371  27.554  26.168  1.00  0.00     0.001 A 
ATOM     80  C   UNL A   1      40.432  25.619  27.261  1.00  0.00     0.001 A 
ATOM     81  C   UNL A   1      40.967  26.221  26.124  1.00  0.00     0.000 A 
ENDBRANCH  57  76
BRANCH  69  82
ATOM     82  C   UNL A   1      44.265  28.103  34.468  1.00  0.00    -0.014 A 
ATOM     83  C   UNL A   1      45.546  28.652  34.322  1.00  0.00     0.009 A 
ATOM     84  C   UNL A   1      44.117  26.891  35.162  1.00  0.00     0.009 A 
ATOM     85  C   UNL A   1      46.661  27.987  34.839  1.00  0.00     0.001 A 
ATOM     86  C   UNL A   1      45.229  26.244  35.703  1.00  0.00     0.001 A 
ATOM     87  C   UNL A   1      46.500  26.789  35.534  1.00  0.00     0.000 A 
ENDBRANCH  69  82
ENDBRANCH  43  44
ENDBRANCH  36  38
ENDBRANCH  35  36
ENDBRANCH  34  35
ENDBRANCH  33  34
ENDBRANCH  32  33
ENDBRANCH  31  32
ENDBRANCH  30  31
ENDBRANCH   1  30
TORSDOF 23
ENDMDL
MODEL 3
REMARK VINA RESULT:     -10.0      1.774      7.015
REMARK SMILES CC[C@](C)(NC(=O)[C@H]1C[NH2+]Cc2ccccc21)C(=O)OCCOCCOCCOCCOC(=O)c1ccc(-c2c3nc(c(-c4ccccc4)c4ccc([nH]4)c(-c4ccccc4)c4nc(c(-c5ccccc5)c5ccc2[nH]5)C=C4)C=C3)cc1
REMARK SMILES IDX 26 1 25 2 24 3 23 4 22 5 21 6 20 7 18 8 19 9 3 10 4 11 2 12
REMARK SMILES IDX 1 13 5 14 6 15 7 17 8 18 9 19 17 20 10 21 12 22 16 23 11 24
REMARK SMILES IDX 13 27 15 28 14 29 27 30 28 31 29 32 30 33 31 34 32 35 33 36
REMARK SMILES IDX 34 37 35 38 36 39 82 40 37 41 81 42 38 43 39 44 40 45 75 46
REMARK SMILES IDX 41 47 80 48 74 49 76 50 42 51 79 52 73 53 72 54 43 56 65 57
REMARK SMILES IDX 50 58 64 59 51 60 54 61 63 62 77 63 52 64 53 65 62 67 78 68
REMARK SMILES IDX 55 69 44 70 45 71 49 72 46 73 48 74 47 75 66 76 67 77 71 78
REMARK SMILES IDX 68 79 70 80 69 81 56 82 57 83 61 84 58 85 60 86 59 87
REMARK H PARENT 5 16 10 25 10 26 76 55 54 66
REMARK Flexibility Score: inf
ROOT
ATOM      1  O   UNL A   1      33.989  24.876  26.099  1.00  0.00    -0.377 OA
ENDROOT
BRANCH   1   2
ATOM      2  C   UNL A   1      35.275  24.823  25.455  1.00  0.00     0.188 C 
BRANCH   2   3
ATOM      3  C   UNL A   1      35.984  23.491  24.642  1.00  0.00     0.188 C 
BRANCH   3   4
ATOM      4  O   UNL A   1      37.517  22.582  25.150  1.00  0.00    -0.376 OA
BRANCH   4   5
ATOM      5  C   UNL A   1      38.286  21.379  25.621  1.00  0.00     0.202 C 
BRANCH   5   6
ATOM      6  C   UNL A   1      37.907  19.986  24.892  1.00  0.00     0.261 C 
BRANCH   6   7
ATOM      7  O   UNL A   1      35.984  19.417  24.757  1.00  0.00    -0.462 OA
BRANCH   7   8
ATOM      8  C   UNL A   1      34.819  18.746  24.374  1.00  0.00     0.331 C 
ATOM      9  O   UNL A   1      34.951  17.553  24.063  1.00  0.00    -0.249 OA
BRANCH   8  10
ATOM     10  C   UNL A   1      33.300  19.410  24.392  1.00  0.00     0.135 C 
ATOM     11  C   UNL A   1      33.222  20.395  25.603  1.00  0.00     0.047 C 
BRANCH  10  12
ATOM     12  C   UNL A   1      32.431  18.139  24.821  1.00  0.00     0.037 C 
ATOM     13  C   UNL A   1      32.678  17.526  26.211  1.00  0.00     0.007 C 
ENDBRANCH  10  12
BRANCH  10  14
ATOM     14  N   UNL A   1      32.418  20.075  23.210  1.00  0.00    -0.340 N 
ATOM     15  C   UNL A   1      31.936  21.321  22.754  1.00  0.00     0.234 C 
ATOM     16  H   UNL A   1      32.113  19.367  22.597  1.00  0.00     0.164 HD
ATOM     17  O   UNL A   1      31.060  21.254  21.883  1.00  0.00    -0.274 OA
BRANCH  15  18
ATOM     18  C   UNL A   1      32.704  22.748  23.082  1.00  0.00     0.164 C 
ATOM     19  C   UNL A   1      33.782  24.079  22.031  1.00  0.00     0.279 C 
ATOM     20  C   UNL A   1      31.260  23.405  23.927  1.00  0.00    -0.021 A 
ATOM     21  N   UNL A   1      33.116  25.786  21.526  1.00  0.00    -0.342 N 
ATOM     22  C   UNL A   1      30.544  25.138  23.469  1.00  0.00     0.010 A 
ATOM     23  C   UNL A   1      30.980  22.672  25.547  1.00  0.00     0.005 A 
ATOM     24  C   UNL A   1      31.492  26.287  22.296  1.00  0.00     0.297 C 
ATOM     25  H   UNL A   1      32.994  25.786  20.513  1.00  0.00     0.346 HD
ATOM     26  H   UNL A   1      33.802  26.461  21.864  1.00  0.00     0.346 HD
ATOM     27  C   UNL A   1      29.610  25.991  24.722  1.00  0.00     0.010 A 
ATOM     28  C   UNL A   1      30.020  23.597  26.725  1.00  0.00     0.000 A 
ATOM     29  C   UNL A   1      29.371  25.218  26.328  1.00  0.00     0.001 A 
ENDBRANCH  15  18
ENDBRANCH  10  14
ENDBRANCH   8  10
ENDBRANCH   7   8
ENDBRANCH   6   7
ENDBRANCH   5   6
ENDBRANCH   4   5
ENDBRANCH   3   4
ENDBRANCH   2   3
ENDBRANCH   1   2
BRANCH   1  30
ATOM     30  C   UNL A   1      32.992  25.924  26.161  1.00  0.00     0.188 C 
BRANCH  30  31
ATOM     31  C   UNL A   1      33.206  27.390  25.651  1.00  0.00     0.188 C 
BRANCH  31  32
ATOM     32  O   UNL A   1      32.910  28.481  26.497  1.00  0.00    -0.376 OA
BRANCH  32  33
ATOM     33  C   UNL A   1      32.022  29.456  25.988  1.00  0.00     0.202 C 
BRANCH  33  34
ATOM     34  C   UNL A   1      31.973  30.813  26.708  1.00  0.00     0.261 C 
BRANCH  34  35
ATOM     35  O   UNL A   1      33.251  31.439  26.917  1.00  0.00    -0.460 OA
BRANCH  35  36
ATOM     36  C   UNL A   1      33.231  32.655  27.521  1.00  0.00     0.338 C 
ATOM     37  O   UNL A   1      32.322  33.467  27.513  1.00  0.00    -0.246 OA
BRANCH  36  38
ATOM     38  C   UNL A   1      34.423  32.781  28.399  1.00  0.00     0.060 A 
ATOM     39  C   UNL A   1      35.607  33.318  27.862  1.00  0.00     0.016 A 
ATOM     40  C   UNL A   1      34.389  32.348  29.726  1.00  0.00     0.016 A 
ATOM     41  C   UNL A   1      36.771  33.371  28.630  1.00  0.00     0.010 A 
ATOM     42  C   UNL A   1      35.565  32.359  30.481  1.00  0.00     0.010 A 
ATOM     43  C   UNL A   1      36.769  32.817  29.916  1.00  0.00    -0.014 A 
BRANCH  43  44
ATOM     44  C   UNL A   1      38.052  32.376  30.518  1.00  0.00     0.031 A 
ATOM     45  C   UNL A   1      38.695  31.151  29.920  1.00  0.00     0.074 A 
ATOM     46  C   UNL A   1      38.623  33.005  31.559  1.00  0.00     0.049 A 
ATOM     47  N   UNL A   1      39.748  30.483  30.315  1.00  0.00    -0.248 NA
ATOM     48  C   UNL A   1      38.054  30.603  28.710  1.00  0.00     0.031 C 
ATOM     49  C   UNL A   1      38.140  34.231  32.187  1.00  0.00     0.029 A 
ATOM     50  N   UNL A   1      39.743  32.672  32.282  1.00  0.00    -0.354 N 
ATOM     51  C   UNL A   1      39.885  29.437  29.411  1.00  0.00     0.074 A 
ATOM     52  C   UNL A   1      38.806  29.544  28.458  1.00  0.00     0.031 C 
ATOM     53  C   UNL A   1      38.949  34.537  33.219  1.00  0.00     0.029 A 
ATOM     54  C   UNL A   1      39.979  33.506  33.346  1.00  0.00     0.049 A 
ATOM     55  H   UNL A   1      40.320  31.907  32.058  1.00  0.00     0.167 HD
ATOM     56  C   UNL A   1      40.821  28.462  29.376  1.00  0.00     0.031 A 
ATOM     57  C   UNL A   1      40.900  33.422  34.327  1.00  0.00     0.031 A 
ATOM     58  C   UNL A   1      41.870  28.326  30.344  1.00  0.00     0.049 A 
ATOM     59  C   UNL A   1      41.871  32.265  34.331  1.00  0.00     0.074 A 
ATOM     60  C   UNL A   1      42.864  27.368  30.410  1.00  0.00     0.029 A 
ATOM     61  N   UNL A   1      42.048  29.170  31.429  1.00  0.00    -0.354 N 
ATOM     62  N   UNL A   1      42.001  31.288  33.466  1.00  0.00    -0.248 NA
ATOM     63  C   UNL A   1      42.820  32.200  35.453  1.00  0.00     0.031 C 
ATOM     64  C   UNL A   1      43.613  27.601  31.569  1.00  0.00     0.029 A 
ATOM     65  C   UNL A   1      43.120  28.740  32.187  1.00  0.00     0.049 A 
ATOM     66  H   UNL A   1      41.494  29.959  31.628  1.00  0.00     0.167 HD
ATOM     67  C   UNL A   1      43.060  30.511  33.922  1.00  0.00     0.074 A 
ATOM     68  C   UNL A   1      43.545  31.137  35.134  1.00  0.00     0.031 C 
ATOM     69  C   UNL A   1      43.588  29.383  33.387  1.00  0.00     0.031 A 
BRANCH  56  70
ATOM     70  C   UNL A   1      40.704  27.441  28.282  1.00  0.00    -0.014 A 
ATOM     71  C   UNL A   1      41.342  27.621  27.044  1.00  0.00     0.009 A 
ATOM     72  C   UNL A   1      39.938  26.284  28.491  1.00  0.00     0.009 A 
ATOM     73  C   UNL A   1      41.185  26.678  26.026  1.00  0.00     0.001 A 
ATOM     74  C   UNL A   1      39.806  25.331  27.483  1.00  0.00     0.001 A 
ATOM     75  C   UNL A   1      40.422  25.532  26.248  1.00  0.00     0.000 A 
ENDBRANCH  56  70
BRANCH  57  76
ATOM     76  C   UNL A   1      40.933  34.432  35.418  1.00  0.00    -0.014 A 
ATOM     77  C   UNL A   1      41.757  35.564  35.322  1.00  0.00     0.009 A 
ATOM     78  C   UNL A   1      40.168  34.250  36.581  1.00  0.00     0.009 A 
ATOM     79  C   UNL A   1      41.833  36.478  36.377  1.00  0.00     0.001 A 
ATOM     80  C   UNL A   1      40.224  35.180  37.622  1.00  0.00     0.001 A 
ATOM     81  C   UNL A   1      41.063  36.288  37.524  1.00  0.00     0.000 A 
ENDBRANCH  57  76
BRANCH  69  82
ATOM     82  C   UNL A   1      44.774  28.773  34.080  1.00  0.00    -0.014 A 
ATOM     83  C   UNL A   1      44.622  27.731  35.006  1.00  0.00     0.009 A 
ATOM     84  C   UNL A   1      46.067  29.204  33.744  1.00  0.00     0.009 A 
ATOM     85  C   UNL A   1      45.744  27.150  35.602  1.00  0.00     0.001 A 
ATOM     86  C   UNL A   1      47.187  28.603  34.319  1.00  0.00     0.001 A 
ATOM     87  C   UNL A   1      47.024  27.581  35.254  1.00  0.00     0.000 A 
ENDBRANCH  69  82
ENDBRANCH  43  44
ENDBRANCH  36  38
ENDBRANCH  35  36
ENDBRANCH  34  35
ENDBRANCH  33  34
ENDBRANCH  32  33
ENDBRANCH  31  32
ENDBRANCH  30  31
ENDBRANCH   1  30
TORSDOF 23
ENDMDL
