MODEL 1
REMARK VINA RESULT:      -8.7      0.000      0.000
REMARK SMILES COCCN1C(=O)C[C@H](C(=O)OCCOCCOCCOCCOC(=O)c2ccc(-c3c4nc(c(-c5ccccc5)c5ccc([nH]5)c(-c5ccccc5)c5nc(c(-c6ccccc6)c6ccc3[nH]6)C=C5)C=C4)cc2)[C@@H]1c1ccccc1N1CCOCC1
REMARK SMILES IDX 17 1 16 2 15 3 14 4 13 5 12 6 10 7 11 8 9 9 5 10 6 11 75 12
REMARK SMILES IDX 7 13 8 14 4 15 3 16 2 17 1 18 76 19 77 20 81 21 78 22 80 23
REMARK SMILES IDX 79 24 82 25 83 26 87 27 84 28 86 29 85 30 18 31 19 32 20 33
REMARK SMILES IDX 21 34 22 35 23 36 24 37 25 38 26 39 27 40 28 41 74 42 29 43
REMARK SMILES IDX 73 44 30 45 31 46 32 47 67 48 33 49 72 50 66 51 68 52 34 53
REMARK SMILES IDX 71 54 65 55 64 56 35 58 57 59 42 60 56 61 43 62 46 63 55 64
REMARK SMILES IDX 69 65 44 66 45 67 54 69 70 70 47 71 36 72 37 73 41 74 38 75
REMARK SMILES IDX 40 76 39 77 58 78 59 79 63 80 60 81 62 82 61 83 48 84 49 85
REMARK SMILES IDX 53 86 50 87 52 88 51 89
REMARK H PARENT 68 57 46 68
REMARK Flexibility Score: inf
ROOT
ATOM      1  C   UNL A   1      38.028  21.970  25.571  1.00  0.00     0.188 C 
ENDROOT
BRANCH   1   2
ATOM      2  C   UNL A   1      36.609  21.479  25.241  1.00  0.00     0.188 C 
BRANCH   2   3
ATOM      3  O   UNL A   1      35.621  21.747  26.234  1.00  0.00    -0.376 OA
BRANCH   3   4
ATOM      4  C   UNL A   1      35.168  23.070  26.431  1.00  0.00     0.202 C 
BRANCH   4   5
ATOM      5  C   UNL A   1      35.749  24.111  25.468  1.00  0.00     0.261 C 
BRANCH   5   6
ATOM      6  O   UNL A   1      34.868  24.874  24.629  1.00  0.00    -0.463 OA
BRANCH   6   7
ATOM      7  C   UNL A   1      34.461  24.393  23.440  1.00  0.00     0.312 C 
ATOM      8  O   UNL A   1      34.541  23.229  23.075  1.00  0.00    -0.252 OA
BRANCH   7   9
ATOM      9  C   UNL A   1      33.794  25.416  22.581  1.00  0.00     0.136 C 
ATOM     10  N   UNL A   1      31.970  26.757  22.215  1.00  0.00    -0.332 N 
ATOM     11  C   UNL A   1      32.025  25.925  21.105  1.00  0.00     0.224 C 
ATOM     12  C   UNL A   1      32.793  26.284  23.338  1.00  0.00     0.132 C 
ATOM     13  O   UNL A   1      31.358  26.007  20.088  1.00  0.00    -0.275 OA
ATOM     14  C   UNL A   1      33.056  24.870  21.363  1.00  0.00     0.118 C 
BRANCH  10  15
ATOM     15  C   UNL A   1      31.192  27.991  22.230  1.00  0.00     0.148 C 
BRANCH  15  16
ATOM     16  C   UNL A   1      29.769  27.806  22.781  1.00  0.00     0.181 C 
BRANCH  16  17
ATOM     17  O   UNL A   1      28.839  28.690  22.153  1.00  0.00    -0.383 OA
ATOM     18  C   UNL A   1      27.747  29.048  22.988  1.00  0.00     0.194 C 
ENDBRANCH  16  17
ENDBRANCH  15  16
ENDBRANCH  10  15
BRANCH  12  19
ATOM     19  C   UNL A   1      32.003  25.561  24.447  1.00  0.00    -0.001 A 
ATOM     20  C   UNL A   1      31.530  24.252  24.156  1.00  0.00     0.008 A 
ATOM     21  C   UNL A   1      31.838  26.066  25.778  1.00  0.00     0.042 A 
ATOM     22  C   UNL A   1      30.955  23.432  25.120  1.00  0.00     0.001 A 
ATOM     23  C   UNL A   1      31.246  25.190  26.724  1.00  0.00     0.026 A 
ATOM     24  C   UNL A   1      30.824  23.898  26.410  1.00  0.00     0.002 A 
BRANCH  21  25
ATOM     25  N   UNL A   1      32.309  27.309  26.226  1.00  0.00    -0.367 N 
ATOM     26  C   UNL A   1      33.755  27.591  26.319  1.00  0.00     0.145 C 
ATOM     27  C   UNL A   1      31.528  28.545  25.920  1.00  0.00     0.145 C 
ATOM     28  C   UNL A   1      34.009  28.779  27.270  1.00  0.00     0.181 C 
ATOM     29  C   UNL A   1      31.930  29.737  26.813  1.00  0.00     0.181 C 
ATOM     30  O   UNL A   1      33.343  29.963  26.800  1.00  0.00    -0.378 OA
ENDBRANCH  21  25
ENDBRANCH  12  19
ENDBRANCH   7   9
ENDBRANCH   6   7
ENDBRANCH   5   6
ENDBRANCH   4   5
ENDBRANCH   3   4
ENDBRANCH   2   3
ENDBRANCH   1   2
BRANCH   1  31
ATOM     31  O   UNL A   1      39.010  21.092  26.099  1.00  0.00    -0.377 OA
BRANCH  31  32
ATOM     32  C   UNL A   1      39.280  19.866  25.447  1.00  0.00     0.188 C 
BRANCH  32  33
ATOM     33  C   UNL A   1      40.537  19.095  25.905  1.00  0.00     0.188 C 
BRANCH  33  34
ATOM     34  O   UNL A   1      41.728  19.764  26.303  1.00  0.00    -0.376 OA
BRANCH  34  35
ATOM     35  C   UNL A   1      42.944  19.050  26.403  1.00  0.00     0.202 C 
BRANCH  35  36
ATOM     36  C   UNL A   1      43.886  19.110  25.194  1.00  0.00     0.261 C 
BRANCH  36  37
ATOM     37  O   UNL A   1      43.897  20.354  24.479  1.00  0.00    -0.460 OA
BRANCH  37  38
ATOM     38  C   UNL A   1      44.926  21.186  24.769  1.00  0.00     0.338 C 
ATOM     39  O   UNL A   1      46.097  21.047  24.457  1.00  0.00    -0.246 OA
BRANCH  38  40
ATOM     40  C   UNL A   1      44.406  22.413  25.418  1.00  0.00     0.060 A 
ATOM     41  C   UNL A   1      44.184  23.545  24.619  1.00  0.00     0.016 A 
ATOM     42  C   UNL A   1      44.185  22.473  26.796  1.00  0.00     0.016 A 
ATOM     43  C   UNL A   1      43.793  24.750  25.196  1.00  0.00     0.010 A 
ATOM     44  C   UNL A   1      43.832  23.694  27.382  1.00  0.00     0.010 A 
ATOM     45  C   UNL A   1      43.686  24.845  26.588  1.00  0.00    -0.014 A 
BRANCH  45  46
ATOM     46  C   UNL A   1      43.729  26.189  27.211  1.00  0.00     0.031 A 
ATOM     47  C   UNL A   1      45.081  26.830  27.385  1.00  0.00     0.074 A 
ATOM     48  C   UNL A   1      42.615  26.849  27.570  1.00  0.00     0.049 A 
ATOM     49  N   UNL A   1      45.394  27.985  27.914  1.00  0.00    -0.248 NA
ATOM     50  C   UNL A   1      46.237  26.060  26.891  1.00  0.00     0.031 C 
ATOM     51  C   UNL A   1      41.248  26.365  27.398  1.00  0.00     0.029 A 
ATOM     52  N   UNL A   1      42.470  28.078  28.161  1.00  0.00    -0.354 N 
ATOM     53  C   UNL A   1      46.778  28.074  27.822  1.00  0.00     0.074 A 
ATOM     54  C   UNL A   1      47.248  26.851  27.211  1.00  0.00     0.031 C 
ATOM     55  C   UNL A   1      40.398  27.285  27.890  1.00  0.00     0.029 A 
ATOM     56  C   UNL A   1      41.165  28.405  28.436  1.00  0.00     0.049 A 
ATOM     57  H   UNL A   1      43.229  28.670  28.370  1.00  0.00     0.167 HD
ATOM     58  C   UNL A   1      47.592  29.083  28.212  1.00  0.00     0.031 A 
ATOM     59  C   UNL A   1      40.655  29.476  29.076  1.00  0.00     0.031 A 
ATOM     60  C   UNL A   1      47.131  30.288  28.843  1.00  0.00     0.049 A 
ATOM     61  C   UNL A   1      41.585  30.548  29.580  1.00  0.00     0.074 A 
ATOM     62  C   UNL A   1      47.873  31.373  29.274  1.00  0.00     0.029 A 
ATOM     63  N   UNL A   1      45.805  30.559  29.143  1.00  0.00    -0.354 N 
ATOM     64  N   UNL A   1      42.890  30.633  29.471  1.00  0.00    -0.248 NA
ATOM     65  C   UNL A   1      40.969  31.678  30.293  1.00  0.00     0.031 C 
ATOM     66  C   UNL A   1      46.999  32.279  29.887  1.00  0.00     0.029 A 
ATOM     67  C   UNL A   1      45.708  31.783  29.782  1.00  0.00     0.049 A 
ATOM     68  H   UNL A   1      45.046  29.969  28.932  1.00  0.00     0.167 HD
ATOM     69  C   UNL A   1      43.246  31.832  30.076  1.00  0.00     0.074 A 
ATOM     70  C   UNL A   1      42.020  32.449  30.538  1.00  0.00     0.031 C 
ATOM     71  C   UNL A   1      44.479  32.377  30.236  1.00  0.00     0.031 A 
BRANCH  58  72
ATOM     72  C   UNL A   1      49.067  28.888  28.010  1.00  0.00    -0.014 A 
ATOM     73  C   UNL A   1      49.684  29.184  26.785  1.00  0.00     0.009 A 
ATOM     74  C   UNL A   1      49.851  28.398  29.066  1.00  0.00     0.009 A 
ATOM     75  C   UNL A   1      51.051  28.958  26.609  1.00  0.00     0.001 A 
ATOM     76  C   UNL A   1      51.222  28.199  28.897  1.00  0.00     0.001 A 
ATOM     77  C   UNL A   1      51.819  28.469  27.666  1.00  0.00     0.000 A 
ENDBRANCH  58  72
BRANCH  59  78
ATOM     78  C   UNL A   1      39.190  29.574  29.312  1.00  0.00    -0.014 A 
ATOM     79  C   UNL A   1      38.352  30.221  28.390  1.00  0.00     0.009 A 
ATOM     80  C   UNL A   1      38.625  29.036  30.479  1.00  0.00     0.009 A 
ATOM     81  C   UNL A   1      36.984  30.347  28.644  1.00  0.00     0.001 A 
ATOM     82  C   UNL A   1      37.252  29.139  30.717  1.00  0.00     0.001 A 
ATOM     83  C   UNL A   1      36.435  29.801  29.804  1.00  0.00     0.000 A 
ENDBRANCH  59  78
BRANCH  71  84
ATOM     84  C   UNL A   1      44.559  33.718  30.908  1.00  0.00    -0.014 A 
ATOM     85  C   UNL A   1      44.110  34.884  30.268  1.00  0.00     0.009 A 
ATOM     86  C   UNL A   1      45.045  33.808  32.222  1.00  0.00     0.009 A 
ATOM     87  C   UNL A   1      44.178  36.117  30.921  1.00  0.00     0.001 A 
ATOM     88  C   UNL A   1      45.084  35.037  32.883  1.00  0.00     0.001 A 
ATOM     89  C   UNL A   1      44.658  36.192  32.228  1.00  0.00     0.000 A 
ENDBRANCH  71  84
ENDBRANCH  45  46
ENDBRANCH  38  40
ENDBRANCH  37  38
ENDBRANCH  36  37
ENDBRANCH  35  36
ENDBRANCH  34  35
ENDBRANCH  33  34
ENDBRANCH  32  33
ENDBRANCH  31  32
ENDBRANCH   1  31
TORSDOF 25
ENDMDL
MODEL 2
REMARK VINA RESULT:      -8.4      3.493      6.996
REMARK SMILES COCCN1C(=O)C[C@H](C(=O)OCCOCCOCCOCCOC(=O)c2ccc(-c3c4nc(c(-c5ccccc5)c5ccc([nH]5)c(-c5ccccc5)c5nc(c(-c6ccccc6)c6ccc3[nH]6)C=C5)C=C4)cc2)[C@@H]1c1ccccc1N1CCOCC1
REMARK SMILES IDX 17 1 16 2 15 3 14 4 13 5 12 6 10 7 11 8 9 9 5 10 6 11 75 12
REMARK SMILES IDX 7 13 8 14 4 15 3 16 2 17 1 18 76 19 77 20 81 21 78 22 80 23
REMARK SMILES IDX 79 24 82 25 83 26 87 27 84 28 86 29 85 30 18 31 19 32 20 33
REMARK SMILES IDX 21 34 22 35 23 36 24 37 25 38 26 39 27 40 28 41 74 42 29 43
REMARK SMILES IDX 73 44 30 45 31 46 32 47 67 48 33 49 72 50 66 51 68 52 34 53
REMARK SMILES IDX 71 54 65 55 64 56 35 58 57 59 42 60 56 61 43 62 46 63 55 64
REMARK SMILES IDX 69 65 44 66 45 67 54 69 70 70 47 71 36 72 37 73 41 74 38 75
REMARK SMILES IDX 40 76 39 77 58 78 59 79 63 80 60 81 62 82 61 83 48 84 49 85
REMARK SMILES IDX 53 86 50 87 52 88 51 89
REMARK H PARENT 68 57 46 68
REMARK Flexibility Score: inf
ROOT
ATOM      1  C   UNL A   1      37.227  22.487  25.039  1.00  0.00     0.188 C 
ENDROOT
BRANCH   1   2
ATOM      2  C   UNL A   1      35.923  21.673  24.983  1.00  0.00     0.188 C 
BRANCH   2   3
ATOM      3  O   UNL A   1      35.349  21.347  26.247  1.00  0.00    -0.376 OA
BRANCH   3   4
ATOM      4  C   UNL A   1      35.327  22.315  27.275  1.00  0.00     0.202 C 
BRANCH   4   5
ATOM      5  C   UNL A   1      34.205  23.354  27.172  1.00  0.00     0.261 C 
BRANCH   5   6
ATOM      6  O   UNL A   1      33.845  23.888  25.889  1.00  0.00    -0.463 OA
BRANCH   6   7
ATOM      7  C   UNL A   1      34.366  25.051  25.457  1.00  0.00     0.312 C 
ATOM      8  O   UNL A   1      35.392  25.177  24.804  1.00  0.00    -0.252 OA
BRANCH   7   9
ATOM      9  C   UNL A   1      33.519  26.238  25.777  1.00  0.00     0.136 C 
ATOM     10  N   UNL A   1      31.928  27.736  25.079  1.00  0.00    -0.332 N 
ATOM     11  C   UNL A   1      33.043  28.512  25.364  1.00  0.00     0.224 C 
ATOM     12  C   UNL A   1      32.232  26.302  24.958  1.00  0.00     0.132 C 
ATOM     13  O   UNL A   1      33.106  29.729  25.400  1.00  0.00    -0.275 OA
ATOM     14  C   UNL A   1      34.199  27.594  25.617  1.00  0.00     0.118 C 
BRANCH  10  15
ATOM     15  C   UNL A   1      30.591  28.305  24.950  1.00  0.00     0.148 C 
BRANCH  15  16
ATOM     16  C   UNL A   1      30.208  28.636  23.499  1.00  0.00     0.181 C 
BRANCH  16  17
ATOM     17  O   UNL A   1      29.567  29.909  23.397  1.00  0.00    -0.383 OA
ATOM     18  C   UNL A   1      29.441  30.374  22.061  1.00  0.00     0.194 C 
ENDBRANCH  16  17
ENDBRANCH  15  16
ENDBRANCH  10  15
BRANCH  12  19
ATOM     19  C   UNL A   1      32.351  25.797  23.507  1.00  0.00    -0.001 A 
ATOM     20  C   UNL A   1      32.771  26.737  22.526  1.00  0.00     0.008 A 
ATOM     21  C   UNL A   1      32.201  24.426  23.116  1.00  0.00     0.042 A 
ATOM     22  C   UNL A   1      33.079  26.371  21.221  1.00  0.00     0.001 A 
ATOM     23  C   UNL A   1      32.528  24.105  21.774  1.00  0.00     0.026 A 
ATOM     24  C   UNL A   1      32.969  25.049  20.847  1.00  0.00     0.002 A 
BRANCH  21  25
ATOM     25  N   UNL A   1      31.857  23.381  23.986  1.00  0.00    -0.367 N 
ATOM     26  C   UNL A   1      30.636  23.445  24.813  1.00  0.00     0.145 C 
ATOM     27  C   UNL A   1      32.195  21.974  23.616  1.00  0.00     0.145 C 
ATOM     28  C   UNL A   1      30.739  22.462  25.998  1.00  0.00     0.181 C 
ATOM     29  C   UNL A   1      32.142  21.013  24.822  1.00  0.00     0.181 C 
ATOM     30  O   UNL A   1      30.903  21.113  25.531  1.00  0.00    -0.378 OA
ENDBRANCH  21  25
ENDBRANCH  12  19
ENDBRANCH   7   9
ENDBRANCH   6   7
ENDBRANCH   5   6
ENDBRANCH   4   5
ENDBRANCH   3   4
ENDBRANCH   2   3
ENDBRANCH   1   2
BRANCH   1  31
ATOM     31  O   UNL A   1      38.327  22.065  25.828  1.00  0.00    -0.377 OA
BRANCH  31  32
ATOM     32  C   UNL A   1      38.794  20.734  25.730  1.00  0.00     0.188 C 
BRANCH  32  33
ATOM     33  C   UNL A   1      40.254  20.473  26.162  1.00  0.00     0.188 C 
BRANCH  33  34
ATOM     34  O   UNL A   1      40.893  21.253  27.166  1.00  0.00    -0.376 OA
BRANCH  34  35
ATOM     35  C   UNL A   1      42.302  21.374  27.183  1.00  0.00     0.202 C 
BRANCH  35  36
ATOM     36  C   UNL A   1      42.956  22.033  25.963  1.00  0.00     0.261 C 
BRANCH  36  37
ATOM     37  O   UNL A   1      42.292  23.202  25.461  1.00  0.00    -0.460 OA
BRANCH  37  38
ATOM     38  C   UNL A   1      43.031  24.338  25.458  1.00  0.00     0.338 C 
ATOM     39  O   UNL A   1      44.022  24.572  24.786  1.00  0.00    -0.246 OA
BRANCH  38  40
ATOM     40  C   UNL A   1      42.372  25.361  26.305  1.00  0.00     0.060 A 
ATOM     41  C   UNL A   1      42.868  26.673  26.270  1.00  0.00     0.016 A 
ATOM     42  C   UNL A   1      41.316  25.033  27.159  1.00  0.00     0.016 A 
ATOM     43  C   UNL A   1      42.349  27.646  27.121  1.00  0.00     0.010 A 
ATOM     44  C   UNL A   1      40.822  25.999  28.043  1.00  0.00     0.010 A 
ATOM     45  C   UNL A   1      41.374  27.293  28.060  1.00  0.00    -0.014 A 
BRANCH  45  46
ATOM     46  C   UNL A   1      41.168  28.174  29.233  1.00  0.00     0.031 A 
ATOM     47  C   UNL A   1      39.984  29.106  29.201  1.00  0.00     0.074 A 
ATOM     48  C   UNL A   1      41.964  28.126  30.314  1.00  0.00     0.049 A 
ATOM     49  N   UNL A   1      39.592  29.985  30.087  1.00  0.00    -0.248 NA
ATOM     50  C   UNL A   1      39.126  29.030  28.005  1.00  0.00     0.031 C 
ATOM     51  C   UNL A   1      43.101  27.228  30.493  1.00  0.00     0.029 A 
ATOM     52  N   UNL A   1      41.928  28.865  31.469  1.00  0.00    -0.354 N 
ATOM     53  C   UNL A   1      38.451  30.570  29.550  1.00  0.00     0.074 A 
ATOM     54  C   UNL A   1      38.226  29.966  28.257  1.00  0.00     0.031 C 
ATOM     55  C   UNL A   1      43.668  27.480  31.687  1.00  0.00     0.029 A 
ATOM     56  C   UNL A   1      42.950  28.575  32.339  1.00  0.00     0.049 A 
ATOM     57  H   UNL A   1      41.235  29.540  31.657  1.00  0.00     0.167 HD
ATOM     58  C   UNL A   1      37.657  31.527  30.084  1.00  0.00     0.031 A 
ATOM     59  C   UNL A   1      43.278  29.148  33.515  1.00  0.00     0.031 A 
ATOM     60  C   UNL A   1      37.892  32.147  31.358  1.00  0.00     0.049 A 
ATOM     61  C   UNL A   1      42.430  30.272  34.051  1.00  0.00     0.074 A 
ATOM     62  C   UNL A   1      37.146  33.125  31.992  1.00  0.00     0.029 A 
ATOM     63  N   UNL A   1      38.963  31.856  32.187  1.00  0.00    -0.354 N 
ATOM     64  N   UNL A   1      41.342  30.803  33.547  1.00  0.00    -0.248 NA
ATOM     65  C   UNL A   1      42.855  30.872  35.326  1.00  0.00     0.031 C 
ATOM     66  C   UNL A   1      37.799  33.466  33.181  1.00  0.00     0.029 A 
ATOM     67  C   UNL A   1      38.918  32.656  33.315  1.00  0.00     0.049 A 
ATOM     68  H   UNL A   1      39.655  31.180  32.001  1.00  0.00     0.167 HD
ATOM     69  C   UNL A   1      40.940  31.780  34.451  1.00  0.00     0.074 A 
ATOM     70  C   UNL A   1      41.891  31.757  35.543  1.00  0.00     0.031 C 
ATOM     71  C   UNL A   1      39.877  32.620  34.387  1.00  0.00     0.031 A 
BRANCH  58  72
ATOM     72  C   UNL A   1      36.492  31.991  29.256  1.00  0.00    -0.014 A 
ATOM     73  C   UNL A   1      36.455  33.279  28.701  1.00  0.00     0.009 A 
ATOM     74  C   UNL A   1      35.415  31.121  29.030  1.00  0.00     0.009 A 
ATOM     75  C   UNL A   1      35.344  33.701  27.968  1.00  0.00     0.001 A 
ATOM     76  C   UNL A   1      34.318  31.534  28.272  1.00  0.00     0.001 A 
ATOM     77  C   UNL A   1      34.278  32.827  27.752  1.00  0.00     0.000 A 
ENDBRANCH  58  72
BRANCH  59  78
ATOM     78  C   UNL A   1      44.487  28.694  34.251  1.00  0.00    -0.014 A 
ATOM     79  C   UNL A   1      45.678  29.435  34.209  1.00  0.00     0.009 A 
ATOM     80  C   UNL A   1      44.459  27.498  34.986  1.00  0.00     0.009 A 
ATOM     81  C   UNL A   1      46.821  28.976  34.867  1.00  0.00     0.001 A 
ATOM     82  C   UNL A   1      45.596  27.056  35.667  1.00  0.00     0.001 A 
ATOM     83  C   UNL A   1      46.777  27.790  35.600  1.00  0.00     0.000 A 
ENDBRANCH  59  78
BRANCH  71  84
ATOM     84  C   UNL A   1      39.669  33.560  35.541  1.00  0.00    -0.014 A 
ATOM     85  C   UNL A   1      38.896  33.192  36.653  1.00  0.00     0.009 A 
ATOM     86  C   UNL A   1      40.299  34.814  35.536  1.00  0.00     0.009 A 
ATOM     87  C   UNL A   1      38.732  34.075  37.722  1.00  0.00     0.001 A 
ATOM     88  C   UNL A   1      40.157  35.684  36.619  1.00  0.00     0.001 A 
ATOM     89  C   UNL A   1      39.367  35.317  37.706  1.00  0.00     0.000 A 
ENDBRANCH  71  84
ENDBRANCH  45  46
ENDBRANCH  38  40
ENDBRANCH  37  38
ENDBRANCH  36  37
ENDBRANCH  35  36
ENDBRANCH  34  35
ENDBRANCH  33  34
ENDBRANCH  32  33
ENDBRANCH  31  32
ENDBRANCH   1  31
TORSDOF 25
ENDMDL
MODEL 3
REMARK VINA RESULT:      -8.4      3.529      6.759
REMARK SMILES COCCN1C(=O)C[C@H](C(=O)OCCOCCOCCOCCOC(=O)c2ccc(-c3c4nc(c(-c5ccccc5)c5ccc([nH]5)c(-c5ccccc5)c5nc(c(-c6ccccc6)c6ccc3[nH]6)C=C5)C=C4)cc2)[C@@H]1c1ccccc1N1CCOCC1
REMARK SMILES IDX 17 1 16 2 15 3 14 4 13 5 12 6 10 7 11 8 9 9 5 10 6 11 75 12
REMARK SMILES IDX 7 13 8 14 4 15 3 16 2 17 1 18 76 19 77 20 81 21 78 22 80 23
REMARK SMILES IDX 79 24 82 25 83 26 87 27 84 28 86 29 85 30 18 31 19 32 20 33
REMARK SMILES IDX 21 34 22 35 23 36 24 37 25 38 26 39 27 40 28 41 74 42 29 43
REMARK SMILES IDX 73 44 30 45 31 46 32 47 67 48 33 49 72 50 66 51 68 52 34 53
REMARK SMILES IDX 71 54 65 55 64 56 35 58 57 59 42 60 56 61 43 62 46 63 55 64
REMARK SMILES IDX 69 65 44 66 45 67 54 69 70 70 47 71 36 72 37 73 41 74 38 75
REMARK SMILES IDX 40 76 39 77 58 78 59 79 63 80 60 81 62 82 61 83 48 84 49 85
REMARK SMILES IDX 53 86 50 87 52 88 51 89
REMARK H PARENT 68 57 46 68
REMARK Flexibility Score: inf
ROOT
ATOM      1  C   UNL A   1      38.290  22.326  25.845  1.00  0.00     0.188 C 
ENDROOT
BRANCH   1   2
ATOM      2  C   UNL A   1      37.181  21.396  25.325  1.00  0.00     0.188 C 
BRANCH   2   3
ATOM      3  O   UNL A   1      35.912  21.541  25.959  1.00  0.00    -0.376 OA
BRANCH   3   4
ATOM      4  C   UNL A   1      35.402  22.832  26.215  1.00  0.00     0.202 C 
BRANCH   4   5
ATOM      5  C   UNL A   1      35.888  23.929  25.262  1.00  0.00     0.261 C 
BRANCH   5   6
ATOM      6  O   UNL A   1      34.933  24.693  24.509  1.00  0.00    -0.463 OA
BRANCH   6   7
ATOM      7  C   UNL A   1      34.449  24.230  23.341  1.00  0.00     0.312 C 
ATOM      8  O   UNL A   1      34.471  23.066  22.969  1.00  0.00    -0.252 OA
BRANCH   7   9
ATOM      9  C   UNL A   1      33.774  25.278  22.521  1.00  0.00     0.136 C 
ATOM     10  N   UNL A   1      31.936  26.613  22.202  1.00  0.00    -0.332 N 
ATOM     11  C   UNL A   1      32.002  25.825  21.061  1.00  0.00     0.224 C 
ATOM     12  C   UNL A   1      32.761  26.106  23.308  1.00  0.00     0.132 C 
ATOM     13  O   UNL A   1      31.336  25.938  20.045  1.00  0.00    -0.275 OA
ATOM     14  C   UNL A   1      33.043  24.771  21.280  1.00  0.00     0.118 C 
BRANCH  10  15
ATOM     15  C   UNL A   1      31.145  27.837  22.262  1.00  0.00     0.148 C 
BRANCH  15  16
ATOM     16  C   UNL A   1      31.750  28.908  23.184  1.00  0.00     0.181 C 
BRANCH  16  17
ATOM     17  O   UNL A   1      30.752  29.537  23.991  1.00  0.00    -0.383 OA
ATOM     18  C   UNL A   1      29.487  29.633  23.354  1.00  0.00     0.194 C 
ENDBRANCH  16  17
ENDBRANCH  15  16
ENDBRANCH  10  15
BRANCH  12  19
ATOM     19  C   UNL A   1      31.977  25.333  24.386  1.00  0.00    -0.001 A 
ATOM     20  C   UNL A   1      31.535  24.024  24.050  1.00  0.00     0.008 A 
ATOM     21  C   UNL A   1      31.789  25.793  25.731  1.00  0.00     0.042 A 
ATOM     22  C   UNL A   1      30.968  23.163  24.984  1.00  0.00     0.001 A 
ATOM     23  C   UNL A   1      31.207  24.877  26.643  1.00  0.00     0.026 A 
ATOM     24  C   UNL A   1      30.816  23.586  26.286  1.00  0.00     0.002 A 
BRANCH  21  25
ATOM     25  N   UNL A   1      32.229  27.031  26.220  1.00  0.00    -0.367 N 
ATOM     26  C   UNL A   1      31.459  27.767  27.242  1.00  0.00     0.145 C 
ATOM     27  C   UNL A   1      33.694  27.296  26.342  1.00  0.00     0.145 C 
ATOM     28  C   UNL A   1      31.858  29.257  27.244  1.00  0.00     0.181 C 
ATOM     29  C   UNL A   1      34.017  28.798  26.482  1.00  0.00     0.181 C 
ATOM     30  O   UNL A   1      33.258  29.412  27.529  1.00  0.00    -0.378 OA
ENDBRANCH  21  25
ENDBRANCH  12  19
ENDBRANCH   7   9
ENDBRANCH   6   7
ENDBRANCH   5   6
ENDBRANCH   4   5
ENDBRANCH   3   4
ENDBRANCH   2   3
ENDBRANCH   1   2
BRANCH   1  31
ATOM     31  O   UNL A   1      39.550  21.818  26.251  1.00  0.00    -0.377 OA
BRANCH  31  32
ATOM     32  C   UNL A   1      39.888  20.472  25.974  1.00  0.00     0.188 C 
BRANCH  32  33
ATOM     33  C   UNL A   1      41.338  20.040  26.283  1.00  0.00     0.188 C 
BRANCH  33  34
ATOM     34  O   UNL A   1      42.342  20.979  26.651  1.00  0.00    -0.376 OA
BRANCH  34  35
ATOM     35  C   UNL A   1      43.041  21.699  25.655  1.00  0.00     0.202 C 
BRANCH  35  36
ATOM     36  C   UNL A   1      42.568  23.131  25.374  1.00  0.00     0.261 C 
BRANCH  36  37
ATOM     37  O   UNL A   1      42.810  24.079  26.423  1.00  0.00    -0.460 OA
BRANCH  37  38
ATOM     38  C   UNL A   1      42.827  25.380  26.043  1.00  0.00     0.338 C 
ATOM     39  O   UNL A   1      42.619  25.825  24.927  1.00  0.00    -0.246 OA
BRANCH  38  40
ATOM     40  C   UNL A   1      42.996  26.244  27.236  1.00  0.00     0.060 A 
ATOM     41  C   UNL A   1      42.716  25.698  28.498  1.00  0.00     0.016 A 
ATOM     42  C   UNL A   1      43.375  27.584  27.119  1.00  0.00     0.016 A 
ATOM     43  C   UNL A   1      42.762  26.497  29.638  1.00  0.00     0.010 A 
ATOM     44  C   UNL A   1      43.380  28.397  28.258  1.00  0.00     0.010 A 
ATOM     45  C   UNL A   1      43.024  27.865  29.511  1.00  0.00    -0.014 A 
BRANCH  45  46
ATOM     46  C   UNL A   1      42.625  28.768  30.616  1.00  0.00     0.031 A 
ATOM     47  C   UNL A   1      41.348  29.551  30.446  1.00  0.00     0.074 A 
ATOM     48  C   UNL A   1      43.332  28.865  31.753  1.00  0.00     0.049 A 
ATOM     49  N   UNL A   1      40.788  30.417  31.251  1.00  0.00    -0.248 NA
ATOM     50  C   UNL A   1      40.603  29.319  29.196  1.00  0.00     0.031 C 
ATOM     51  C   UNL A   1      44.548  28.117  32.065  1.00  0.00     0.029 A 
ATOM     52  N   UNL A   1      43.119  29.646  32.861  1.00  0.00    -0.354 N 
ATOM     53  C   UNL A   1      39.634  30.836  30.601  1.00  0.00     0.074 A 
ATOM     54  C   UNL A   1      39.583  30.151  29.329  1.00  0.00     0.031 C 
ATOM     55  C   UNL A   1      44.985  28.489  33.282  1.00  0.00     0.029 A 
ATOM     56  C   UNL A   1      44.095  29.520  33.819  1.00  0.00     0.049 A 
ATOM     57  H   UNL A   1      42.341  30.241  32.961  1.00  0.00     0.167 HD
ATOM     58  C   UNL A   1      38.694  31.715  31.022  1.00  0.00     0.031 A 
ATOM     59  C   UNL A   1      44.261  30.180  34.982  1.00  0.00     0.031 A 
ATOM     60  C   UNL A   1      38.754  32.416  32.273  1.00  0.00     0.049 A 
ATOM     61  C   UNL A   1      43.249  31.218  35.392  1.00  0.00     0.074 A 
ATOM     62  C   UNL A   1      37.853  33.326  32.796  1.00  0.00     0.029 A 
ATOM     63  N   UNL A   1      39.783  32.292  33.194  1.00  0.00    -0.354 N 
ATOM     64  N   UNL A   1      42.151  31.593  34.781  1.00  0.00    -0.248 NA
ATOM     65  C   UNL A   1      43.499  31.922  36.660  1.00  0.00     0.031 C 
ATOM     66  C   UNL A   1      38.366  33.796  34.010  1.00  0.00     0.029 A 
ATOM     67  C   UNL A   1      39.555  33.132  34.270  1.00  0.00     0.049 A 
ATOM     68  H   UNL A   1      40.560  31.695  33.096  1.00  0.00     0.167 HD
ATOM     69  C   UNL A   1      41.568  32.555  35.599  1.00  0.00     0.074 A 
ATOM     70  C   UNL A   1      42.426  32.695  36.757  1.00  0.00     0.031 C 
ATOM     71  C   UNL A   1      40.424  33.259  35.410  1.00  0.00     0.031 A 
BRANCH  58  72
ATOM     72  C   UNL A   1      37.554  31.999  30.085  1.00  0.00    -0.014 A 
ATOM     73  C   UNL A   1      36.337  31.308  30.184  1.00  0.00     0.009 A 
ATOM     74  C   UNL A   1      37.705  32.973  29.087  1.00  0.00     0.009 A 
ATOM     75  C   UNL A   1      35.305  31.562  29.277  1.00  0.00     0.001 A 
ATOM     76  C   UNL A   1      36.663  33.244  28.199  1.00  0.00     0.001 A 
ATOM     77  C   UNL A   1      35.469  32.531  28.288  1.00  0.00     0.000 A 
ENDBRANCH  58  72
BRANCH  59  78
ATOM     78  C   UNL A   1      45.452  29.908  35.829  1.00  0.00    -0.014 A 
ATOM     79  C   UNL A   1      46.661  30.585  35.614  1.00  0.00     0.009 A 
ATOM     80  C   UNL A   1      45.387  28.945  36.849  1.00  0.00     0.009 A 
ATOM     81  C   UNL A   1      47.786  30.288  36.387  1.00  0.00     0.001 A 
ATOM     82  C   UNL A   1      46.506  28.670  37.639  1.00  0.00     0.001 A 
ATOM     83  C   UNL A   1      47.706  29.335  37.402  1.00  0.00     0.000 A 
ENDBRANCH  59  78
BRANCH  71  84
ATOM     84  C   UNL A   1      40.018  34.219  36.493  1.00  0.00    -0.014 A 
ATOM     85  C   UNL A   1      39.257  33.798  37.595  1.00  0.00     0.009 A 
ATOM     86  C   UNL A   1      40.447  35.554  36.432  1.00  0.00     0.009 A 
ATOM     87  C   UNL A   1      38.908  34.704  38.598  1.00  0.00     0.001 A 
ATOM     88  C   UNL A   1      40.121  36.451  37.451  1.00  0.00     0.001 A 
ATOM     89  C   UNL A   1      39.344  36.027  38.528  1.00  0.00     0.000 A 
ENDBRANCH  71  84
ENDBRANCH  45  46
ENDBRANCH  38  40
ENDBRANCH  37  38
ENDBRANCH  36  37
ENDBRANCH  35  36
ENDBRANCH  34  35
ENDBRANCH  33  34
ENDBRANCH  32  33
ENDBRANCH  31  32
ENDBRANCH   1  31
TORSDOF 25
ENDMDL
