MODEL 1
REMARK VINA RESULT:      -8.7      0.000      0.000
REMARK SMILES CC(C)[C@H](NC(=O)OCc1ccccc1)C(=O)NCC(=O)OCCOCCOCCOCCOC(=O)c1ccc(-c2c3nc(c(-c4ccccc4)c4ccc([nH]4)c(-c4ccccc4)c4nc(c(-c5ccccc5)c5ccc2[nH]5)C=C4)C=C3)cc1
REMARK SMILES IDX 26 1 25 2 24 3 23 4 22 5 20 6 21 7 19 8 18 9 16 10 17 11
REMARK SMILES IDX 4 13 2 14 1 15 3 16 5 17 6 18 7 20 8 21 9 22 10 23 11 24
REMARK SMILES IDX 15 25 12 26 14 27 13 28 27 29 28 30 29 31 30 32 31 33 32 34
REMARK SMILES IDX 33 35 34 36 35 37 36 38 37 39 38 40 84 41 39 42 83 43 40 44
REMARK SMILES IDX 41 45 42 46 77 47 43 48 82 49 76 50 78 51 44 52 81 53 75 54
REMARK SMILES IDX 74 55 45 57 67 58 52 59 66 60 53 61 56 62 65 63 79 64 54 65
REMARK SMILES IDX 55 66 64 68 80 69 57 70 46 71 47 72 51 73 48 74 50 75 49 76
REMARK SMILES IDX 68 77 69 78 73 79 70 80 72 81 71 82 58 83 59 84 63 85 60 86
REMARK SMILES IDX 62 87 61 88
REMARK H PARENT 18 12 5 19 78 56 56 67
REMARK Flexibility Score: inf
ROOT
ATOM      1  C   UNL A   1      33.450  35.131  28.853  1.00  0.00     0.188 C 
ENDROOT
BRANCH   1   2
ATOM      2  O   UNL A   1      33.231  33.728  28.790  1.00  0.00    -0.376 OA
BRANCH   2   3
ATOM      3  C   UNL A   1      34.115  32.840  28.119  1.00  0.00     0.202 C 
BRANCH   3   4
ATOM      4  C   UNL A   1      33.908  31.324  28.224  1.00  0.00     0.261 C 
BRANCH   4   5
ATOM      5  O   UNL A   1      33.943  30.625  26.970  1.00  0.00    -0.462 OA
BRANCH   5   6
ATOM      6  C   UNL A   1      34.555  29.417  26.978  1.00  0.00     0.325 C 
ATOM      7  O   UNL A   1      35.735  29.229  27.255  1.00  0.00    -0.250 OA
BRANCH   6   8
ATOM      8  C   UNL A   1      33.619  28.260  26.637  1.00  0.00     0.238 C 
BRANCH   8   9
ATOM      9  N   UNL A   1      34.178  27.070  26.015  1.00  0.00    -0.343 N 
ATOM     10  C   UNL A   1      33.659  26.181  25.134  1.00  0.00     0.243 C 
ATOM     11  O   UNL A   1      34.418  25.296  24.722  1.00  0.00    -0.273 OA
ATOM     12  H   UNL A   1      35.105  26.874  26.282  1.00  0.00     0.164 HD
BRANCH  10  13
ATOM     13  C   UNL A   1      32.173  26.174  24.719  1.00  0.00     0.177 C 
BRANCH  13  14
ATOM     14  C   UNL A   1      31.254  25.127  25.382  1.00  0.00     0.015 C 
ATOM     15  C   UNL A   1      29.915  25.736  25.816  1.00  0.00     0.010 C 
ATOM     16  C   UNL A   1      30.995  23.956  24.429  1.00  0.00     0.010 C 
ENDBRANCH  13  14
BRANCH  13  17
ATOM     17  N   UNL A   1      32.148  26.328  23.261  1.00  0.00    -0.309 N 
ATOM     18  C   UNL A   1      31.219  26.881  22.437  1.00  0.00     0.408 C 
ATOM     19  H   UNL A   1      32.941  25.971  22.800  1.00  0.00     0.167 HD
ATOM     20  O   UNL A   1      31.178  26.575  21.253  1.00  0.00    -0.225 OA
BRANCH  18  21
ATOM     21  O   UNL A   1      30.373  27.731  23.056  1.00  0.00    -0.445 OA
BRANCH  21  22
ATOM     22  C   UNL A   1      30.779  29.106  23.103  1.00  0.00     0.270 C 
BRANCH  22  23
ATOM     23  C   UNL A   1      29.674  30.063  22.770  1.00  0.00    -0.011 A 
ATOM     24  C   UNL A   1      29.355  30.359  21.441  1.00  0.00     0.007 A 
ATOM     25  C   UNL A   1      28.974  30.696  23.805  1.00  0.00     0.007 A 
ATOM     26  C   UNL A   1      28.362  31.295  21.156  1.00  0.00     0.000 A 
ATOM     27  C   UNL A   1      27.980  31.625  23.519  1.00  0.00     0.000 A 
ATOM     28  C   UNL A   1      27.677  31.928  22.193  1.00  0.00     0.000 A 
ENDBRANCH  22  23
ENDBRANCH  21  22
ENDBRANCH  18  21
ENDBRANCH  13  17
ENDBRANCH  10  13
ENDBRANCH   8   9
ENDBRANCH   6   8
ENDBRANCH   5   6
ENDBRANCH   4   5
ENDBRANCH   3   4
ENDBRANCH   2   3
ENDBRANCH   1   2
BRANCH   1  29
ATOM     29  C   UNL A   1      33.357  35.928  30.167  1.00  0.00     0.188 C 
BRANCH  29  30
ATOM     30  O   UNL A   1      32.807  35.230  31.261  1.00  0.00    -0.377 OA
BRANCH  30  31
ATOM     31  C   UNL A   1      33.647  35.060  32.398  1.00  0.00     0.188 C 
BRANCH  31  32
ATOM     32  C   UNL A   1      33.730  33.654  33.022  1.00  0.00     0.188 C 
BRANCH  32  33
ATOM     33  O   UNL A   1      34.571  32.757  32.303  1.00  0.00    -0.376 OA
BRANCH  33  34
ATOM     34  C   UNL A   1      35.669  33.301  31.578  1.00  0.00     0.202 C 
BRANCH  34  35
ATOM     35  C   UNL A   1      36.973  32.487  31.600  1.00  0.00     0.261 C 
BRANCH  35  36
ATOM     36  O   UNL A   1      36.890  31.164  32.158  1.00  0.00    -0.460 OA
BRANCH  36  37
ATOM     37  C   UNL A   1      37.010  30.103  31.334  1.00  0.00     0.338 C 
ATOM     38  O   UNL A   1      36.141  29.326  30.990  1.00  0.00    -0.246 OA
BRANCH  37  39
ATOM     39  C   UNL A   1      38.359  30.154  30.738  1.00  0.00     0.060 A 
ATOM     40  C   UNL A   1      38.481  30.286  29.349  1.00  0.00     0.016 A 
ATOM     41  C   UNL A   1      39.493  30.061  31.548  1.00  0.00     0.016 A 
ATOM     42  C   UNL A   1      39.743  30.269  28.755  1.00  0.00     0.010 A 
ATOM     43  C   UNL A   1      40.753  30.018  30.953  1.00  0.00     0.010 A 
ATOM     44  C   UNL A   1      40.877  30.079  29.553  1.00  0.00    -0.014 A 
BRANCH  44  45
ATOM     45  C   UNL A   1      42.158  29.671  28.936  1.00  0.00     0.031 A 
ATOM     46  C   UNL A   1      42.308  28.229  28.534  1.00  0.00     0.074 A 
ATOM     47  C   UNL A   1      43.168  30.537  28.759  1.00  0.00     0.049 A 
ATOM     48  N   UNL A   1      43.361  27.595  28.087  1.00  0.00    -0.248 NA
ATOM     49  C   UNL A   1      41.104  27.389  28.661  1.00  0.00     0.031 C 
ATOM     50  C   UNL A   1      43.121  31.969  29.044  1.00  0.00     0.029 A 
ATOM     51  N   UNL A   1      44.443  30.322  28.303  1.00  0.00    -0.354 N 
ATOM     52  C   UNL A   1      42.950  26.281  27.897  1.00  0.00     0.074 A 
ATOM     53  C   UNL A   1      41.562  26.204  28.294  1.00  0.00     0.031 C 
ATOM     54  C   UNL A   1      44.323  32.505  28.765  1.00  0.00     0.029 A 
ATOM     55  C   UNL A   1      45.231  31.446  28.327  1.00  0.00     0.049 A 
ATOM     56  H   UNL A   1      44.764  29.446  27.988  1.00  0.00     0.167 HD
ATOM     57  C   UNL A   1      43.665  25.229  27.437  1.00  0.00     0.031 A 
ATOM     58  C   UNL A   1      46.543  31.589  28.056  1.00  0.00     0.031 A 
ATOM     59  C   UNL A   1      45.053  25.303  27.073  1.00  0.00     0.049 A 
ATOM     60  C   UNL A   1      47.350  30.380  27.658  1.00  0.00     0.074 A 
ATOM     61  C   UNL A   1      45.873  24.297  26.593  1.00  0.00     0.029 A 
ATOM     62  N   UNL A   1      45.827  26.448  27.162  1.00  0.00    -0.354 N 
ATOM     63  N   UNL A   1      46.954  29.144  27.468  1.00  0.00    -0.248 NA
ATOM     64  C   UNL A   1      48.791  30.587  27.443  1.00  0.00     0.031 C 
ATOM     65  C   UNL A   1      47.160  24.823  26.446  1.00  0.00     0.029 A 
ATOM     66  C   UNL A   1      47.126  26.169  26.776  1.00  0.00     0.049 A 
ATOM     67  H   UNL A   1      45.502  27.329  27.457  1.00  0.00     0.167 HD
ATOM     68  C   UNL A   1      48.084  28.438  27.075  1.00  0.00     0.074 A 
ATOM     69  C   UNL A   1      49.183  29.381  27.055  1.00  0.00     0.031 C 
ATOM     70  C   UNL A   1      48.200  27.126  26.751  1.00  0.00     0.031 A 
BRANCH  57  71
ATOM     71  C   UNL A   1      42.962  23.905  27.362  1.00  0.00    -0.014 A 
ATOM     72  C   UNL A   1      42.392  23.447  26.164  1.00  0.00     0.009 A 
ATOM     73  C   UNL A   1      42.859  23.109  28.513  1.00  0.00     0.009 A 
ATOM     74  C   UNL A   1      41.697  22.237  26.130  1.00  0.00     0.001 A 
ATOM     75  C   UNL A   1      42.189  21.886  28.468  1.00  0.00     0.001 A 
ATOM     76  C   UNL A   1      41.598  21.456  27.282  1.00  0.00     0.000 A 
ENDBRANCH  57  71
BRANCH  58  77
ATOM     77  C   UNL A   1      47.189  32.923  28.169  1.00  0.00    -0.014 A 
ATOM     78  C   UNL A   1      47.215  33.793  27.069  1.00  0.00     0.009 A 
ATOM     79  C   UNL A   1      47.797  33.327  29.368  1.00  0.00     0.009 A 
ATOM     80  C   UNL A   1      47.855  35.032  27.161  1.00  0.00     0.001 A 
ATOM     81  C   UNL A   1      48.412  34.577  29.465  1.00  0.00     0.001 A 
ATOM     82  C   UNL A   1      48.448  35.425  28.359  1.00  0.00     0.000 A 
ENDBRANCH  58  77
BRANCH  70  83
ATOM     83  C   UNL A   1      49.545  26.638  26.291  1.00  0.00    -0.014 A 
ATOM     84  C   UNL A   1      50.389  25.909  27.142  1.00  0.00     0.009 A 
ATOM     85  C   UNL A   1      49.933  26.844  24.958  1.00  0.00     0.009 A 
ATOM     86  C   UNL A   1      51.605  25.411  26.668  1.00  0.00     0.001 A 
ATOM     87  C   UNL A   1      51.135  26.324  24.480  1.00  0.00     0.001 A 
ATOM     88  C   UNL A   1      51.973  25.612  25.337  1.00  0.00     0.000 A 
ENDBRANCH  70  83
ENDBRANCH  44  45
ENDBRANCH  37  39
ENDBRANCH  36  37
ENDBRANCH  35  36
ENDBRANCH  34  35
ENDBRANCH  33  34
ENDBRANCH  32  33
ENDBRANCH  31  32
ENDBRANCH  30  31
ENDBRANCH  29  30
ENDBRANCH   1  29
TORSDOF 27
ENDMDL
MODEL 2
REMARK VINA RESULT:      -8.5      3.049      7.847
REMARK SMILES CC(C)[C@H](NC(=O)OCc1ccccc1)C(=O)NCC(=O)OCCOCCOCCOCCOC(=O)c1ccc(-c2c3nc(c(-c4ccccc4)c4ccc([nH]4)c(-c4ccccc4)c4nc(c(-c5ccccc5)c5ccc2[nH]5)C=C4)C=C3)cc1
REMARK SMILES IDX 26 1 25 2 24 3 23 4 22 5 20 6 21 7 19 8 18 9 16 10 17 11
REMARK SMILES IDX 4 13 2 14 1 15 3 16 5 17 6 18 7 20 8 21 9 22 10 23 11 24
REMARK SMILES IDX 15 25 12 26 14 27 13 28 27 29 28 30 29 31 30 32 31 33 32 34
REMARK SMILES IDX 33 35 34 36 35 37 36 38 37 39 38 40 84 41 39 42 83 43 40 44
REMARK SMILES IDX 41 45 42 46 77 47 43 48 82 49 76 50 78 51 44 52 81 53 75 54
REMARK SMILES IDX 74 55 45 57 67 58 52 59 66 60 53 61 56 62 65 63 79 64 54 65
REMARK SMILES IDX 55 66 64 68 80 69 57 70 46 71 47 72 51 73 48 74 50 75 49 76
REMARK SMILES IDX 68 77 69 78 73 79 70 80 72 81 71 82 58 83 59 84 63 85 60 86
REMARK SMILES IDX 62 87 61 88
REMARK H PARENT 18 12 5 19 78 56 56 67
REMARK Flexibility Score: inf
ROOT
ATOM      1  C   UNL A   1      33.947  33.368  28.288  1.00  0.00     0.188 C 
ENDROOT
BRANCH   1   2
ATOM      2  O   UNL A   1      33.104  32.490  27.552  1.00  0.00    -0.376 OA
BRANCH   2   3
ATOM      3  C   UNL A   1      33.316  31.087  27.494  1.00  0.00     0.202 C 
BRANCH   3   4
ATOM      4  C   UNL A   1      32.397  30.204  26.641  1.00  0.00     0.261 C 
BRANCH   4   5
ATOM      5  O   UNL A   1      32.926  29.856  25.352  1.00  0.00    -0.462 OA
BRANCH   5   6
ATOM      6  C   UNL A   1      32.299  28.847  24.704  1.00  0.00     0.325 C 
ATOM      7  O   UNL A   1      32.113  28.798  23.492  1.00  0.00    -0.250 OA
BRANCH   6   8
ATOM      8  C   UNL A   1      31.854  27.715  25.627  1.00  0.00     0.238 C 
BRANCH   8   9
ATOM      9  N   UNL A   1      32.801  26.655  25.939  1.00  0.00    -0.343 N 
ATOM     10  C   UNL A   1      33.172  25.545  25.258  1.00  0.00     0.243 C 
ATOM     11  O   UNL A   1      34.073  24.860  25.757  1.00  0.00    -0.273 OA
ATOM     12  H   UNL A   1      33.256  26.765  26.805  1.00  0.00     0.164 HD
BRANCH  10  13
ATOM     13  C   UNL A   1      32.462  25.065  23.975  1.00  0.00     0.177 C 
BRANCH  13  14
ATOM     14  C   UNL A   1      31.094  24.370  24.136  1.00  0.00     0.015 C 
ATOM     15  C   UNL A   1      30.845  23.929  25.584  1.00  0.00     0.010 C 
ATOM     16  C   UNL A   1      29.961  25.298  23.685  1.00  0.00     0.010 C 
ENDBRANCH  13  14
BRANCH  13  17
ATOM     17  N   UNL A   1      33.491  24.437  23.141  1.00  0.00    -0.309 N 
ATOM     18  C   UNL A   1      34.077  23.212  23.217  1.00  0.00     0.408 C 
ATOM     19  H   UNL A   1      33.814  24.997  22.399  1.00  0.00     0.167 HD
ATOM     20  O   UNL A   1      35.167  23.011  22.701  1.00  0.00    -0.225 OA
BRANCH  18  21
ATOM     21  O   UNL A   1      33.366  22.307  23.923  1.00  0.00    -0.445 OA
BRANCH  21  22
ATOM     22  C   UNL A   1      32.545  21.413  23.161  1.00  0.00     0.270 C 
BRANCH  22  23
ATOM     23  C   UNL A   1      32.547  20.009  23.688  1.00  0.00    -0.011 A 
ATOM     24  C   UNL A   1      32.636  19.756  25.061  1.00  0.00     0.007 A 
ATOM     25  C   UNL A   1      32.495  18.934  22.791  1.00  0.00     0.007 A 
ATOM     26  C   UNL A   1      32.694  18.443  25.524  1.00  0.00     0.000 A 
ATOM     27  C   UNL A   1      32.548  17.625  23.255  1.00  0.00     0.000 A 
ATOM     28  C   UNL A   1      32.652  17.379  24.623  1.00  0.00     0.000 A 
ENDBRANCH  22  23
ENDBRANCH  21  22
ENDBRANCH  18  21
ENDBRANCH  13  17
ENDBRANCH  10  13
ENDBRANCH   8   9
ENDBRANCH   6   8
ENDBRANCH   5   6
ENDBRANCH   4   5
ENDBRANCH   3   4
ENDBRANCH   2   3
ENDBRANCH   1   2
BRANCH   1  29
ATOM     29  C   UNL A   1      33.404  34.571  29.080  1.00  0.00     0.188 C 
BRANCH  29  30
ATOM     30  O   UNL A   1      33.697  35.838  28.533  1.00  0.00    -0.377 OA
BRANCH  30  31
ATOM     31  C   UNL A   1      33.474  36.964  29.375  1.00  0.00     0.188 C 
BRANCH  31  32
ATOM     32  C   UNL A   1      32.868  36.707  30.767  1.00  0.00     0.188 C 
BRANCH  32  33
ATOM     33  O   UNL A   1      33.009  37.804  31.665  1.00  0.00    -0.376 OA
BRANCH  33  34
ATOM     34  C   UNL A   1      34.049  37.748  32.636  1.00  0.00     0.202 C 
BRANCH  34  35
ATOM     35  C   UNL A   1      33.957  36.615  33.671  1.00  0.00     0.261 C 
BRANCH  35  36
ATOM     36  O   UNL A   1      34.896  35.536  33.520  1.00  0.00    -0.460 OA
BRANCH  36  37
ATOM     37  C   UNL A   1      34.453  34.349  33.057  1.00  0.00     0.338 C 
ATOM     38  O   UNL A   1      33.301  33.979  32.939  1.00  0.00    -0.246 OA
BRANCH  37  39
ATOM     39  C   UNL A   1      35.616  33.625  32.510  1.00  0.00     0.060 A 
ATOM     40  C   UNL A   1      36.195  32.602  33.272  1.00  0.00     0.016 A 
ATOM     41  C   UNL A   1      36.136  33.964  31.259  1.00  0.00     0.016 A 
ATOM     42  C   UNL A   1      37.336  31.947  32.808  1.00  0.00     0.010 A 
ATOM     43  C   UNL A   1      37.291  33.327  30.806  1.00  0.00     0.010 A 
ATOM     44  C   UNL A   1      37.917  32.349  31.599  1.00  0.00    -0.014 A 
BRANCH  44  45
ATOM     45  C   UNL A   1      39.309  31.960  31.279  1.00  0.00     0.031 A 
ATOM     46  C   UNL A   1      40.408  32.888  31.717  1.00  0.00     0.074 A 
ATOM     47  C   UNL A   1      39.593  30.837  30.601  1.00  0.00     0.049 A 
ATOM     48  N   UNL A   1      41.689  32.840  31.459  1.00  0.00    -0.248 NA
ATOM     49  C   UNL A   1      40.001  34.030  32.555  1.00  0.00     0.031 C 
ATOM     50  C   UNL A   1      38.624  29.827  30.183  1.00  0.00     0.029 A 
ATOM     51  N   UNL A   1      40.794  30.371  30.134  1.00  0.00    -0.354 N 
ATOM     52  C   UNL A   1      42.236  33.952  32.088  1.00  0.00     0.074 A 
ATOM     53  C   UNL A   1      41.149  34.665  32.722  1.00  0.00     0.031 C 
ATOM     54  C   UNL A   1      39.272  28.859  29.508  1.00  0.00     0.029 A 
ATOM     55  C   UNL A   1      40.688  29.209  29.411  1.00  0.00     0.049 A 
ATOM     56  H   UNL A   1      41.652  30.825  30.301  1.00  0.00     0.167 HD
ATOM     57  C   UNL A   1      43.528  34.349  32.132  1.00  0.00     0.031 A 
ATOM     58  C   UNL A   1      41.627  28.528  28.724  1.00  0.00     0.031 A 
ATOM     59  C   UNL A   1      44.601  33.655  31.476  1.00  0.00     0.049 A 
ATOM     60  C   UNL A   1      43.039  29.052  28.688  1.00  0.00     0.074 A 
ATOM     61  C   UNL A   1      45.948  33.970  31.458  1.00  0.00     0.029 A 
ATOM     62  N   UNL A   1      44.443  32.511  30.711  1.00  0.00    -0.354 N 
ATOM     63  N   UNL A   1      43.553  30.095  29.295  1.00  0.00    -0.248 NA
ATOM     64  C   UNL A   1      44.003  28.303  27.865  1.00  0.00     0.031 C 
ATOM     65  C   UNL A   1      46.597  33.046  30.633  1.00  0.00     0.029 A 
ATOM     66  C   UNL A   1      45.663  32.123  30.188  1.00  0.00     0.049 A 
ATOM     67  H   UNL A   1      43.589  32.045  30.560  1.00  0.00     0.167 HD
ATOM     68  C   UNL A   1      44.901  30.106  28.959  1.00  0.00     0.074 A 
ATOM     69  C   UNL A   1      45.128  28.967  28.094  1.00  0.00     0.031 C 
ATOM     70  C   UNL A   1      45.868  30.978  29.340  1.00  0.00     0.031 A 
BRANCH  57  71
ATOM     71  C   UNL A   1      43.828  35.620  32.871  1.00  0.00    -0.014 A 
ATOM     72  C   UNL A   1      44.118  35.618  34.244  1.00  0.00     0.009 A 
ATOM     73  C   UNL A   1      43.808  36.843  32.181  1.00  0.00     0.009 A 
ATOM     74  C   UNL A   1      44.342  36.818  34.921  1.00  0.00     0.001 A 
ATOM     75  C   UNL A   1      44.061  38.039  32.856  1.00  0.00     0.001 A 
ATOM     76  C   UNL A   1      44.316  38.027  34.225  1.00  0.00     0.000 A 
ENDBRANCH  57  71
BRANCH  58  77
ATOM     77  C   UNL A   1      41.265  27.285  27.994  1.00  0.00    -0.014 A 
ATOM     78  C   UNL A   1      41.132  27.297  26.597  1.00  0.00     0.009 A 
ATOM     79  C   UNL A   1      41.034  26.087  28.687  1.00  0.00     0.009 A 
ATOM     80  C   UNL A   1      40.755  26.139  25.912  1.00  0.00     0.001 A 
ATOM     81  C   UNL A   1      40.683  24.925  27.997  1.00  0.00     0.001 A 
ATOM     82  C   UNL A   1      40.536  24.953  26.611  1.00  0.00     0.000 A 
ENDBRANCH  58  77
BRANCH  70  83
ATOM     83  C   UNL A   1      47.272  30.708  28.876  1.00  0.00    -0.014 A 
ATOM     84  C   UNL A   1      47.787  31.308  27.718  1.00  0.00     0.009 A 
ATOM     85  C   UNL A   1      48.113  29.903  29.661  1.00  0.00     0.009 A 
ATOM     86  C   UNL A   1      49.116  31.091  27.346  1.00  0.00     0.001 A 
ATOM     87  C   UNL A   1      49.447  29.710  29.301  1.00  0.00     0.001 A 
ATOM     88  C   UNL A   1      49.946  30.299  28.141  1.00  0.00     0.000 A 
ENDBRANCH  70  83
ENDBRANCH  44  45
ENDBRANCH  37  39
ENDBRANCH  36  37
ENDBRANCH  35  36
ENDBRANCH  34  35
ENDBRANCH  33  34
ENDBRANCH  32  33
ENDBRANCH  31  32
ENDBRANCH  30  31
ENDBRANCH  29  30
ENDBRANCH   1  29
TORSDOF 27
ENDMDL
MODEL 3
REMARK VINA RESULT:      -8.5      2.561      4.155
REMARK SMILES CC(C)[C@H](NC(=O)OCc1ccccc1)C(=O)NCC(=O)OCCOCCOCCOCCOC(=O)c1ccc(-c2c3nc(c(-c4ccccc4)c4ccc([nH]4)c(-c4ccccc4)c4nc(c(-c5ccccc5)c5ccc2[nH]5)C=C4)C=C3)cc1
REMARK SMILES IDX 26 1 25 2 24 3 23 4 22 5 20 6 21 7 19 8 18 9 16 10 17 11
REMARK SMILES IDX 4 13 2 14 1 15 3 16 5 17 6 18 7 20 8 21 9 22 10 23 11 24
REMARK SMILES IDX 15 25 12 26 14 27 13 28 27 29 28 30 29 31 30 32 31 33 32 34
REMARK SMILES IDX 33 35 34 36 35 37 36 38 37 39 38 40 84 41 39 42 83 43 40 44
REMARK SMILES IDX 41 45 42 46 77 47 43 48 82 49 76 50 78 51 44 52 81 53 75 54
REMARK SMILES IDX 74 55 45 57 67 58 52 59 66 60 53 61 56 62 65 63 79 64 54 65
REMARK SMILES IDX 55 66 64 68 80 69 57 70 46 71 47 72 51 73 48 74 50 75 49 76
REMARK SMILES IDX 68 77 69 78 73 79 70 80 72 81 71 82 58 83 59 84 63 85 60 86
REMARK SMILES IDX 62 87 61 88
REMARK H PARENT 18 12 5 19 78 56 56 67
REMARK Flexibility Score: inf
ROOT
ATOM      1  C   UNL A   1      34.159  32.992  28.032  1.00  0.00     0.188 C 
ENDROOT
BRANCH   1   2
ATOM      2  O   UNL A   1      33.654  31.901  27.271  1.00  0.00    -0.376 OA
BRANCH   2   3
ATOM      3  C   UNL A   1      33.953  30.546  27.574  1.00  0.00     0.202 C 
BRANCH   3   4
ATOM      4  C   UNL A   1      33.335  29.417  26.742  1.00  0.00     0.261 C 
BRANCH   4   5
ATOM      5  O   UNL A   1      34.122  29.000  25.615  1.00  0.00    -0.462 OA
BRANCH   5   6
ATOM      6  C   UNL A   1      33.451  28.381  24.616  1.00  0.00     0.325 C 
ATOM      7  O   UNL A   1      32.662  28.930  23.854  1.00  0.00    -0.250 OA
BRANCH   6   8
ATOM      8  C   UNL A   1      33.791  26.898  24.483  1.00  0.00     0.238 C 
BRANCH   8   9
ATOM      9  N   UNL A   1      33.664  26.267  23.179  1.00  0.00    -0.343 N 
ATOM     10  C   UNL A   1      33.784  24.977  22.783  1.00  0.00     0.243 C 
ATOM     11  O   UNL A   1      33.542  24.734  21.595  1.00  0.00    -0.273 OA
ATOM     12  H   UNL A   1      33.452  26.892  22.449  1.00  0.00     0.164 HD
BRANCH  10  13
ATOM     13  C   UNL A   1      34.296  23.854  23.709  1.00  0.00     0.177 C 
BRANCH  13  14
ATOM     14  C   UNL A   1      35.747  23.960  24.221  1.00  0.00     0.015 C 
ATOM     15  C   UNL A   1      35.820  23.883  25.751  1.00  0.00     0.010 C 
ATOM     16  C   UNL A   1      36.615  22.852  23.614  1.00  0.00     0.010 C 
ENDBRANCH  13  14
BRANCH  13  17
ATOM     17  N   UNL A   1      33.832  22.592  23.126  1.00  0.00    -0.309 N 
ATOM     18  C   UNL A   1      32.593  22.031  23.079  1.00  0.00     0.408 C 
ATOM     19  H   UNL A   1      34.537  22.058  22.693  1.00  0.00     0.167 HD
ATOM     20  O   UNL A   1      32.463  20.826  22.911  1.00  0.00    -0.225 OA
BRANCH  18  21
ATOM     21  O   UNL A   1      31.586  22.910  23.267  1.00  0.00    -0.445 OA
BRANCH  21  22
ATOM     22  C   UNL A   1      31.029  22.962  24.587  1.00  0.00     0.270 C 
BRANCH  22  23
ATOM     23  C   UNL A   1      30.939  24.353  25.138  1.00  0.00    -0.011 A 
ATOM     24  C   UNL A   1      31.550  24.688  26.351  1.00  0.00     0.007 A 
ATOM     25  C   UNL A   1      30.203  25.324  24.446  1.00  0.00     0.007 A 
ATOM     26  C   UNL A   1      31.405  25.972  26.872  1.00  0.00     0.000 A 
ATOM     27  C   UNL A   1      30.064  26.606  24.965  1.00  0.00     0.000 A 
ATOM     28  C   UNL A   1      30.661  26.929  26.181  1.00  0.00     0.000 A 
ENDBRANCH  22  23
ENDBRANCH  21  22
ENDBRANCH  18  21
ENDBRANCH  13  17
ENDBRANCH  10  13
ENDBRANCH   8   9
ENDBRANCH   6   8
ENDBRANCH   5   6
ENDBRANCH   4   5
ENDBRANCH   3   4
ENDBRANCH   2   3
ENDBRANCH   1   2
BRANCH   1  29
ATOM     29  C   UNL A   1      33.269  34.153  28.511  1.00  0.00     0.188 C 
BRANCH  29  30
ATOM     30  O   UNL A   1      33.819  35.442  28.355  1.00  0.00    -0.377 OA
BRANCH  30  31
ATOM     31  C   UNL A   1      33.331  36.456  29.227  1.00  0.00     0.188 C 
BRANCH  31  32
ATOM     32  C   UNL A   1      32.755  36.013  30.585  1.00  0.00     0.188 C 
BRANCH  32  33
ATOM     33  O   UNL A   1      32.845  37.011  31.598  1.00  0.00    -0.376 OA
BRANCH  33  34
ATOM     34  C   UNL A   1      34.015  37.041  32.409  1.00  0.00     0.202 C 
BRANCH  34  35
ATOM     35  C   UNL A   1      34.344  35.754  33.183  1.00  0.00     0.261 C 
BRANCH  35  36
ATOM     36  O   UNL A   1      35.287  34.861  32.564  1.00  0.00    -0.460 OA
BRANCH  36  37
ATOM     37  C   UNL A   1      34.967  33.556  32.450  1.00  0.00     0.338 C 
ATOM     38  O   UNL A   1      33.894  33.030  32.674  1.00  0.00    -0.246 OA
BRANCH  37  39
ATOM     39  C   UNL A   1      36.102  32.876  31.797  1.00  0.00     0.060 A 
ATOM     40  C   UNL A   1      36.896  32.006  32.555  1.00  0.00     0.016 A 
ATOM     41  C   UNL A   1      36.385  33.109  30.449  1.00  0.00     0.016 A 
ATOM     42  C   UNL A   1      38.015  31.403  31.979  1.00  0.00     0.010 A 
ATOM     43  C   UNL A   1      37.517  32.526  29.881  1.00  0.00     0.010 A 
ATOM     44  C   UNL A   1      38.358  31.708  30.657  1.00  0.00    -0.014 A 
BRANCH  44  45
ATOM     45  C   UNL A   1      39.717  31.407  30.154  1.00  0.00     0.031 A 
ATOM     46  C   UNL A   1      39.943  30.058  29.529  1.00  0.00     0.074 A 
ATOM     47  C   UNL A   1      40.726  32.285  30.268  1.00  0.00     0.049 A 
ATOM     48  N   UNL A   1      41.057  29.507  29.122  1.00  0.00    -0.248 NA
ATOM     49  C   UNL A   1      38.747  29.217  29.344  1.00  0.00     0.031 C 
ATOM     50  C   UNL A   1      40.616  33.644  30.792  1.00  0.00     0.029 A 
ATOM     51  N   UNL A   1      42.053  32.146  29.956  1.00  0.00    -0.354 N 
ATOM     52  C   UNL A   1      40.698  28.250  28.650  1.00  0.00     0.074 A 
ATOM     53  C   UNL A   1      39.270  28.112  28.839  1.00  0.00     0.031 C 
ATOM     54  C   UNL A   1      41.835  34.214  30.774  1.00  0.00     0.029 A 
ATOM     55  C   UNL A   1      42.811  33.243  30.282  1.00  0.00     0.049 A 
ATOM     56  H   UNL A   1      42.428  31.337  29.537  1.00  0.00     0.167 HD
ATOM     57  C   UNL A   1      41.485  27.291  28.112  1.00  0.00     0.031 A 
ATOM     58  C   UNL A   1      44.145  33.423  30.218  1.00  0.00     0.031 A 
ATOM     59  C   UNL A   1      42.907  27.419  27.955  1.00  0.00     0.049 A 
ATOM     60  C   UNL A   1      45.019  32.298  29.725  1.00  0.00     0.074 A 
ATOM     61  C   UNL A   1      43.800  26.508  27.420  1.00  0.00     0.029 A 
ATOM     62  N   UNL A   1      43.643  28.526  28.346  1.00  0.00    -0.354 N 
ATOM     63  N   UNL A   1      44.673  31.118  29.269  1.00  0.00    -0.248 NA
ATOM     64  C   UNL A   1      46.471  32.531  29.743  1.00  0.00     0.031 C 
ATOM     65  C   UNL A   1      45.087  27.043  27.540  1.00  0.00     0.029 A 
ATOM     66  C   UNL A   1      44.986  28.310  28.093  1.00  0.00     0.049 A 
ATOM     67  H   UNL A   1      43.266  29.343  28.745  1.00  0.00     0.167 HD
ATOM     68  C   UNL A   1      45.857  30.485  28.912  1.00  0.00     0.074 A 
ATOM     69  C   UNL A   1      46.932  31.410  29.205  1.00  0.00     0.031 C 
ATOM     70  C   UNL A   1      46.037  29.250  28.381  1.00  0.00     0.031 A 
BRANCH  57  71
ATOM     71  C   UNL A   1      40.821  26.006  27.712  1.00  0.00    -0.014 A 
ATOM     72  C   UNL A   1      40.939  24.847  28.495  1.00  0.00     0.009 A 
ATOM     73  C   UNL A   1      40.075  25.952  26.524  1.00  0.00     0.009 A 
ATOM     74  C   UNL A   1      40.356  23.649  28.076  1.00  0.00     0.001 A 
ATOM     75  C   UNL A   1      39.469  24.760  26.123  1.00  0.00     0.001 A 
ATOM     76  C   UNL A   1      39.621  23.608  26.891  1.00  0.00     0.000 A 
ENDBRANCH  57  71
BRANCH  58  77
ATOM     77  C   UNL A   1      44.747  34.712  30.648  1.00  0.00    -0.014 A 
ATOM     78  C   UNL A   1      45.059  34.932  31.998  1.00  0.00     0.009 A 
ATOM     79  C   UNL A   1      44.998  35.733  29.719  1.00  0.00     0.009 A 
ATOM     80  C   UNL A   1      45.590  36.157  32.412  1.00  0.00     0.001 A 
ATOM     81  C   UNL A   1      45.554  36.946  30.131  1.00  0.00     0.001 A 
ATOM     82  C   UNL A   1      45.841  37.160  31.478  1.00  0.00     0.000 A 
ENDBRANCH  58  77
BRANCH  70  83
ATOM     83  C   UNL A   1      47.440  28.843  28.026  1.00  0.00    -0.014 A 
ATOM     84  C   UNL A   1      48.055  29.289  26.847  1.00  0.00     0.009 A 
ATOM     85  C   UNL A   1      48.181  28.066  28.931  1.00  0.00     0.009 A 
ATOM     86  C   UNL A   1      49.382  28.948  26.574  1.00  0.00     0.001 A 
ATOM     87  C   UNL A   1      49.513  27.749  28.669  1.00  0.00     0.001 A 
ATOM     88  C   UNL A   1      50.111  28.186  27.488  1.00  0.00     0.000 A 
ENDBRANCH  70  83
ENDBRANCH  44  45
ENDBRANCH  37  39
ENDBRANCH  36  37
ENDBRANCH  35  36
ENDBRANCH  34  35
ENDBRANCH  33  34
ENDBRANCH  32  33
ENDBRANCH  31  32
ENDBRANCH  30  31
ENDBRANCH  29  30
ENDBRANCH   1  29
TORSDOF 27
ENDMDL
