MODEL 1
REMARK VINA RESULT:     -10.1      0.000      0.000
REMARK SMILES O=C(OCCOCCOCCOCCOC(=O)[C@@H]1[C@H](C(=O)NCc2ccncc2)[C@H]2C=C[C@@H]1O2)c1ccc(-c2c3nc(c(-c4ccccc4)c4ccc([nH]4)c(-c4ccccc4)c4nc(c(-c5ccccc5)c5ccc2[nH]5)C=C4)C=C3)cc1
REMARK SMILES IDX 10 1 9 2 8 3 7 4 6 5 5 6 4 7 3 8 2 9 1 10 35 11 36 12 82 13
REMARK SMILES IDX 37 14 81 15 38 16 39 17 40 18 75 19 41 20 80 21 74 22 76 23
REMARK SMILES IDX 42 24 79 25 73 26 72 27 43 29 65 30 50 31 64 32 51 33 54 34
REMARK SMILES IDX 63 35 77 36 52 37 53 38 62 40 78 41 55 42 44 43 45 44 49 45
REMARK SMILES IDX 46 46 48 47 47 48 66 49 67 50 71 51 68 52 70 53 69 54 56 55
REMARK SMILES IDX 57 56 61 57 58 58 60 59 59 60 11 61 12 62 13 63 14 64 15 65
REMARK SMILES IDX 16 66 17 67 18 68 19 69 33 70 30 71 32 72 34 73 31 74 20 75
REMARK SMILES IDX 21 76 22 77 23 79 24 80 25 81 29 82 26 83 28 84 27 85
REMARK H PARENT 76 28 54 39 22 78
REMARK Flexibility Score: inf
ROOT
ATOM      1  C   UNL A   1      40.682  19.514  25.973  1.00  0.00     0.188 C 
ENDROOT
BRANCH   1   2
ATOM      2  O   UNL A   1      41.961  19.030  25.555  1.00  0.00    -0.377 OA
BRANCH   2   3
ATOM      3  C   UNL A   1      43.144  19.782  25.760  1.00  0.00     0.188 C 
BRANCH   3   4
ATOM      4  C   UNL A   1      44.403  19.202  25.173  1.00  0.00     0.188 C 
BRANCH   4   5
ATOM      5  O   UNL A   1      44.927  20.039  24.144  1.00  0.00    -0.376 OA
BRANCH   5   6
ATOM      6  C   UNL A   1      44.701  21.430  24.301  1.00  0.00     0.202 C 
BRANCH   6   7
ATOM      7  C   UNL A   1      45.834  22.151  25.030  1.00  0.00     0.261 C 
BRANCH   7   8
ATOM      8  O   UNL A   1      45.380  23.242  25.853  1.00  0.00    -0.460 OA
BRANCH   8   9
ATOM      9  C   UNL A   1      45.182  24.506  25.385  1.00  0.00     0.338 C 
ATOM     10  O   UNL A   1      46.004  25.028  24.639  1.00  0.00    -0.246 OA
BRANCH   9  11
ATOM     11  C   UNL A   1      44.143  25.371  26.030  1.00  0.00     0.060 A 
ATOM     12  C   UNL A   1      44.364  26.698  26.402  1.00  0.00     0.016 A 
ATOM     13  C   UNL A   1      42.881  24.806  26.299  1.00  0.00     0.016 A 
ATOM     14  C   UNL A   1      43.347  27.472  26.951  1.00  0.00     0.010 A 
ATOM     15  C   UNL A   1      41.887  25.541  26.965  1.00  0.00     0.010 A 
ATOM     16  C   UNL A   1      42.146  26.867  27.335  1.00  0.00    -0.014 A 
BRANCH  16  17
ATOM     17  C   UNL A   1      41.502  27.491  28.516  1.00  0.00     0.031 A 
ATOM     18  C   UNL A   1      42.256  27.315  29.813  1.00  0.00     0.074 A 
ATOM     19  C   UNL A   1      40.444  28.313  28.438  1.00  0.00     0.049 A 
ATOM     20  N   UNL A   1      42.183  27.998  30.922  1.00  0.00    -0.248 NA
ATOM     21  C   UNL A   1      43.307  26.277  29.816  1.00  0.00     0.031 C 
ATOM     22  C   UNL A   1      39.690  28.631  27.229  1.00  0.00     0.029 A 
ATOM     23  N   UNL A   1      39.849  29.068  29.417  1.00  0.00    -0.354 N 
ATOM     24  C   UNL A   1      43.218  27.517  31.714  1.00  0.00     0.074 A 
ATOM     25  C   UNL A   1      43.910  26.496  30.968  1.00  0.00     0.031 C 
ATOM     26  C   UNL A   1      38.734  29.528  27.536  1.00  0.00     0.029 A 
ATOM     27  C   UNL A   1      38.806  29.838  28.963  1.00  0.00     0.049 A 
ATOM     28  H   UNL A   1      40.142  29.058  30.357  1.00  0.00     0.167 HD
ATOM     29  C   UNL A   1      43.551  27.864  32.978  1.00  0.00     0.031 A 
ATOM     30  C   UNL A   1      38.012  30.692  29.641  1.00  0.00     0.031 A 
ATOM     31  C   UNL A   1      42.748  28.730  33.784  1.00  0.00     0.049 A 
ATOM     32  C   UNL A   1      38.278  30.911  31.112  1.00  0.00     0.074 A 
ATOM     33  C   UNL A   1      42.886  29.044  35.121  1.00  0.00     0.029 A 
ATOM     34  N   UNL A   1      41.605  29.371  33.327  1.00  0.00    -0.354 N 
ATOM     35  N   UNL A   1      39.268  30.468  31.853  1.00  0.00    -0.248 NA
ATOM     36  C   UNL A   1      37.315  31.749  31.841  1.00  0.00     0.031 C 
ATOM     37  C   UNL A   1      41.778  29.814  35.493  1.00  0.00     0.029 A 
ATOM     38  C   UNL A   1      41.002  30.049  34.366  1.00  0.00     0.049 A 
ATOM     39  H   UNL A   1      41.274  29.346  32.400  1.00  0.00     0.167 HD
ATOM     40  C   UNL A   1      39.064  30.996  33.123  1.00  0.00     0.074 A 
ATOM     41  C   UNL A   1      37.863  31.803  33.047  1.00  0.00     0.031 C 
ATOM     42  C   UNL A   1      39.802  30.838  34.251  1.00  0.00     0.031 A 
BRANCH  29  43
ATOM     43  C   UNL A   1      44.741  27.161  33.565  1.00  0.00    -0.014 A 
ATOM     44  C   UNL A   1      44.599  25.964  34.286  1.00  0.00     0.009 A 
ATOM     45  C   UNL A   1      46.004  27.765  33.487  1.00  0.00     0.009 A 
ATOM     46  C   UNL A   1      45.694  25.411  34.955  1.00  0.00     0.001 A 
ATOM     47  C   UNL A   1      47.100  27.197  34.135  1.00  0.00     0.001 A 
ATOM     48  C   UNL A   1      46.942  26.030  34.880  1.00  0.00     0.000 A 
ENDBRANCH  29  43
BRANCH  30  49
ATOM     49  C   UNL A   1      36.880  31.386  28.963  1.00  0.00    -0.014 A 
ATOM     50  C   UNL A   1      36.964  32.742  28.608  1.00  0.00     0.009 A 
ATOM     51  C   UNL A   1      35.680  30.702  28.711  1.00  0.00     0.009 A 
ATOM     52  C   UNL A   1      35.867  33.401  28.042  1.00  0.00     0.001 A 
ATOM     53  C   UNL A   1      34.594  31.354  28.119  1.00  0.00     0.001 A 
ATOM     54  C   UNL A   1      34.685  32.705  27.795  1.00  0.00     0.000 A 
ENDBRANCH  30  49
BRANCH  42  55
ATOM     55  C   UNL A   1      39.359  31.583  35.479  1.00  0.00    -0.014 A 
ATOM     56  C   UNL A   1      39.843  32.863  35.778  1.00  0.00     0.009 A 
ATOM     57  C   UNL A   1      38.380  31.012  36.308  1.00  0.00     0.009 A 
ATOM     58  C   UNL A   1      39.380  33.545  36.906  1.00  0.00     0.001 A 
ATOM     59  C   UNL A   1      37.893  31.709  37.413  1.00  0.00     0.001 A 
ATOM     60  C   UNL A   1      38.401  32.970  37.717  1.00  0.00     0.000 A 
ENDBRANCH  42  55
ENDBRANCH  16  17
ENDBRANCH   9  11
ENDBRANCH   8   9
ENDBRANCH   7   8
ENDBRANCH   6   7
ENDBRANCH   5   6
ENDBRANCH   4   5
ENDBRANCH   3   4
ENDBRANCH   2   3
ENDBRANCH   1   2
BRANCH   1  61
ATOM     61  C   UNL A   1      40.887  20.804  26.786  1.00  0.00     0.188 C 
BRANCH  61  62
ATOM     62  O   UNL A   1      40.422  21.948  26.058  1.00  0.00    -0.376 OA
BRANCH  62  63
ATOM     63  C   UNL A   1      39.130  22.420  26.452  1.00  0.00     0.202 C 
BRANCH  63  64
ATOM     64  C   UNL A   1      37.957  22.036  25.526  1.00  0.00     0.261 C 
BRANCH  64  65
ATOM     65  O   UNL A   1      36.721  22.732  25.765  1.00  0.00    -0.463 OA
BRANCH  65  66
ATOM     66  C   UNL A   1      35.605  22.229  25.227  1.00  0.00     0.312 C 
ATOM     67  O   UNL A   1      35.538  21.099  24.734  1.00  0.00    -0.252 OA
BRANCH  66  68
ATOM     68  C   UNL A   1      34.389  23.106  25.368  1.00  0.00     0.147 C 
ATOM     69  C   UNL A   1      33.177  23.129  24.394  1.00  0.00     0.128 C 
ATOM     70  C   UNL A   1      34.858  24.573  25.306  1.00  0.00     0.157 C 
ATOM     71  C   UNL A   1      33.179  24.592  23.914  1.00  0.00     0.155 C 
ATOM     72  C   UNL A   1      33.848  25.496  25.911  1.00  0.00     0.004 C 
ATOM     73  O   UNL A   1      34.597  24.870  23.909  1.00  0.00    -0.365 OA
ATOM     74  C   UNL A   1      32.814  25.517  25.058  1.00  0.00     0.004 C 
BRANCH  69  75
ATOM     75  C   UNL A   1      32.813  22.040  23.368  1.00  0.00     0.227 C 
ATOM     76  O   UNL A   1      33.013  22.311  22.171  1.00  0.00    -0.275 OA
ATOM     77  N   UNL A   1      32.320  20.793  23.560  1.00  0.00    -0.352 N 
ATOM     78  H   UNL A   1      31.866  20.403  22.778  1.00  0.00     0.163 HD
BRANCH  77  79
ATOM     79  C   UNL A   1      32.351  19.946  24.726  1.00  0.00     0.151 C 
BRANCH  79  80
ATOM     80  C   UNL A   1      32.869  18.520  24.578  1.00  0.00    -0.026 A 
ATOM     81  C   UNL A   1      32.798  17.658  25.686  1.00  0.00     0.025 A 
ATOM     82  C   UNL A   1      33.440  17.972  23.436  1.00  0.00     0.025 A 
ATOM     83  C   UNL A   1      33.193  16.333  25.618  1.00  0.00     0.111 A 
ATOM     84  C   UNL A   1      33.839  16.631  23.455  1.00  0.00     0.111 A 
ATOM     85  N   UNL A   1      33.720  15.796  24.512  1.00  0.00    -0.265 NA
ENDBRANCH  79  80
ENDBRANCH  77  79
ENDBRANCH  69  75
ENDBRANCH  66  68
ENDBRANCH  65  66
ENDBRANCH  64  65
ENDBRANCH  63  64
ENDBRANCH  62  63
ENDBRANCH  61  62
ENDBRANCH   1  61
TORSDOF 23
ENDMDL
MODEL 2
REMARK VINA RESULT:      -9.7      1.259      5.758
REMARK SMILES O=C(OCCOCCOCCOCCOC(=O)[C@@H]1[C@H](C(=O)NCc2ccncc2)[C@H]2C=C[C@@H]1O2)c1ccc(-c2c3nc(c(-c4ccccc4)c4ccc([nH]4)c(-c4ccccc4)c4nc(c(-c5ccccc5)c5ccc2[nH]5)C=C4)C=C3)cc1
REMARK SMILES IDX 10 1 9 2 8 3 7 4 6 5 5 6 4 7 3 8 2 9 1 10 35 11 36 12 82 13
REMARK SMILES IDX 37 14 81 15 38 16 39 17 40 18 75 19 41 20 80 21 74 22 76 23
REMARK SMILES IDX 42 24 79 25 73 26 72 27 43 29 65 30 50 31 64 32 51 33 54 34
REMARK SMILES IDX 63 35 77 36 52 37 53 38 62 40 78 41 55 42 44 43 45 44 49 45
REMARK SMILES IDX 46 46 48 47 47 48 66 49 67 50 71 51 68 52 70 53 69 54 56 55
REMARK SMILES IDX 57 56 61 57 58 58 60 59 59 60 11 61 12 62 13 63 14 64 15 65
REMARK SMILES IDX 16 66 17 67 18 68 19 69 33 70 30 71 32 72 34 73 31 74 20 75
REMARK SMILES IDX 21 76 22 77 23 79 24 80 25 81 29 82 26 83 28 84 27 85
REMARK H PARENT 76 28 54 39 22 78
REMARK Flexibility Score: inf
ROOT
ATOM      1  C   UNL A   1      40.394  20.868  26.349  1.00  0.00     0.188 C 
ENDROOT
BRANCH   1   2
ATOM      2  O   UNL A   1      41.744  20.427  26.186  1.00  0.00    -0.377 OA
BRANCH   2   3
ATOM      3  C   UNL A   1      42.779  21.321  25.816  1.00  0.00     0.188 C 
BRANCH   3   4
ATOM      4  C   UNL A   1      44.084  20.686  25.416  1.00  0.00     0.188 C 
BRANCH   4   5
ATOM      5  O   UNL A   1      44.446  21.043  24.084  1.00  0.00    -0.376 OA
BRANCH   5   6
ATOM      6  C   UNL A   1      44.566  22.432  23.825  1.00  0.00     0.202 C 
BRANCH   6   7
ATOM      7  C   UNL A   1      45.691  23.102  24.614  1.00  0.00     0.261 C 
BRANCH   7   8
ATOM      8  O   UNL A   1      45.219  24.046  25.593  1.00  0.00    -0.460 OA
BRANCH   8   9
ATOM      9  C   UNL A   1      45.041  25.372  25.336  1.00  0.00     0.338 C 
ATOM     10  O   UNL A   1      45.834  25.978  24.623  1.00  0.00    -0.246 OA
BRANCH   9  11
ATOM     11  C   UNL A   1      44.080  26.158  26.175  1.00  0.00     0.060 A 
ATOM     12  C   UNL A   1      44.035  27.552  26.199  1.00  0.00     0.016 A 
ATOM     13  C   UNL A   1      43.188  25.448  27.004  1.00  0.00     0.016 A 
ATOM     14  C   UNL A   1      43.087  28.230  26.958  1.00  0.00     0.010 A 
ATOM     15  C   UNL A   1      42.310  26.125  27.867  1.00  0.00     0.010 A 
ATOM     16  C   UNL A   1      42.299  27.525  27.874  1.00  0.00    -0.014 A 
BRANCH  16  17
ATOM     17  C   UNL A   1      41.940  28.299  29.087  1.00  0.00     0.031 A 
ATOM     18  C   UNL A   1      40.563  28.920  29.055  1.00  0.00     0.074 A 
ATOM     19  C   UNL A   1      42.673  28.303  30.210  1.00  0.00     0.049 A 
ATOM     20  N   UNL A   1      39.811  29.338  30.036  1.00  0.00    -0.248 NA
ATOM     21  C   UNL A   1      39.913  28.987  27.731  1.00  0.00     0.031 C 
ATOM     22  C   UNL A   1      43.974  27.665  30.389  1.00  0.00     0.029 A 
ATOM     23  N   UNL A   1      42.389  28.844  31.439  1.00  0.00    -0.354 N 
ATOM     24  C   UNL A   1      38.589  29.645  29.452  1.00  0.00     0.074 A 
ATOM     25  C   UNL A   1      38.688  29.364  28.042  1.00  0.00     0.031 C 
ATOM     26  C   UNL A   1      44.373  27.841  31.663  1.00  0.00     0.029 A 
ATOM     27  C   UNL A   1      43.360  28.612  32.383  1.00  0.00     0.049 A 
ATOM     28  H   UNL A   1      41.566  29.351  31.627  1.00  0.00     0.167 HD
ATOM     29  C   UNL A   1      37.478  30.158  30.028  1.00  0.00     0.031 A 
ATOM     30  C   UNL A   1      43.405  28.987  33.677  1.00  0.00     0.031 A 
ATOM     31  C   UNL A   1      37.446  30.619  31.381  1.00  0.00     0.049 A 
ATOM     32  C   UNL A   1      42.229  29.745  34.249  1.00  0.00     0.074 A 
ATOM     33  C   UNL A   1      36.440  31.295  32.042  1.00  0.00     0.029 A 
ATOM     34  N   UNL A   1      38.513  30.505  32.261  1.00  0.00    -0.354 N 
ATOM     35  N   UNL A   1      41.069  30.018  33.699  1.00  0.00    -0.248 NA
ATOM     36  C   UNL A   1      42.372  30.245  35.624  1.00  0.00     0.031 C 
ATOM     37  C   UNL A   1      36.930  31.658  33.302  1.00  0.00     0.029 A 
ATOM     38  C   UNL A   1      38.206  31.132  33.451  1.00  0.00     0.049 A 
ATOM     39  H   UNL A   1      39.361  30.044  32.067  1.00  0.00     0.167 HD
ATOM     40  C   UNL A   1      40.334  30.694  34.667  1.00  0.00     0.074 A 
ATOM     41  C   UNL A   1      41.177  30.777  35.843  1.00  0.00     0.031 C 
ATOM     42  C   UNL A   1      39.076  31.198  34.598  1.00  0.00     0.031 A 
BRANCH  29  43
ATOM     43  C   UNL A   1      36.302  30.373  29.120  1.00  0.00    -0.014 A 
ATOM     44  C   UNL A   1      35.803  29.337  28.313  1.00  0.00     0.009 A 
ATOM     45  C   UNL A   1      35.757  31.659  28.994  1.00  0.00     0.009 A 
ATOM     46  C   UNL A   1      34.812  29.600  27.363  1.00  0.00     0.001 A 
ATOM     47  C   UNL A   1      34.750  31.912  28.063  1.00  0.00     0.001 A 
ATOM     48  C   UNL A   1      34.288  30.887  27.239  1.00  0.00     0.000 A 
ENDBRANCH  29  43
BRANCH  30  49
ATOM     49  C   UNL A   1      44.598  28.687  34.520  1.00  0.00    -0.014 A 
ATOM     50  C   UNL A   1      45.680  29.578  34.595  1.00  0.00     0.009 A 
ATOM     51  C   UNL A   1      44.682  27.472  35.219  1.00  0.00     0.009 A 
ATOM     52  C   UNL A   1      46.825  29.250  35.327  1.00  0.00     0.001 A 
ATOM     53  C   UNL A   1      45.815  27.158  35.975  1.00  0.00     0.001 A 
ATOM     54  C   UNL A   1      46.890  28.042  36.020  1.00  0.00     0.000 A 
ENDBRANCH  30  49
BRANCH  42  55
ATOM     55  C   UNL A   1      38.518  31.841  35.837  1.00  0.00    -0.014 A 
ATOM     56  C   UNL A   1      37.786  31.108  36.781  1.00  0.00     0.009 A 
ATOM     57  C   UNL A   1      38.800  33.192  36.091  1.00  0.00     0.009 A 
ATOM     58  C   UNL A   1      37.317  31.727  37.942  1.00  0.00     0.001 A 
ATOM     59  C   UNL A   1      38.361  33.799  37.267  1.00  0.00     0.001 A 
ATOM     60  C   UNL A   1      37.611  33.068  38.186  1.00  0.00     0.000 A 
ENDBRANCH  42  55
ENDBRANCH  16  17
ENDBRANCH   9  11
ENDBRANCH   8   9
ENDBRANCH   7   8
ENDBRANCH   6   7
ENDBRANCH   5   6
ENDBRANCH   4   5
ENDBRANCH   3   4
ENDBRANCH   2   3
ENDBRANCH   1   2
BRANCH   1  61
ATOM     61  C   UNL A   1      40.400  22.187  27.143  1.00  0.00     0.188 C 
BRANCH  61  62
ATOM     62  O   UNL A   1      39.582  23.174  26.504  1.00  0.00    -0.376 OA
BRANCH  62  63
ATOM     63  C   UNL A   1      38.356  22.672  25.964  1.00  0.00     0.202 C 
BRANCH  63  64
ATOM     64  C   UNL A   1      37.218  23.702  25.796  1.00  0.00     0.261 C 
BRANCH  64  65
ATOM     65  O   UNL A   1      35.935  23.301  26.309  1.00  0.00    -0.463 OA
BRANCH  65  66
ATOM     66  C   UNL A   1      35.114  22.635  25.491  1.00  0.00     0.312 C 
ATOM     67  O   UNL A   1      35.187  21.417  25.298  1.00  0.00    -0.252 OA
BRANCH  66  68
ATOM     68  C   UNL A   1      34.007  23.466  24.897  1.00  0.00     0.147 C 
ATOM     69  C   UNL A   1      32.542  22.993  24.679  1.00  0.00     0.128 C 
ATOM     70  C   UNL A   1      34.423  23.845  23.461  1.00  0.00     0.157 C 
ATOM     71  C   UNL A   1      32.379  23.148  23.155  1.00  0.00     0.155 C 
ATOM     72  C   UNL A   1      33.664  25.036  22.970  1.00  0.00     0.004 C 
ATOM     73  O   UNL A   1      33.715  22.825  22.710  1.00  0.00    -0.365 OA
ATOM     74  C   UNL A   1      32.406  24.615  22.774  1.00  0.00     0.004 C 
BRANCH  69  75
ATOM     75  C   UNL A   1      31.866  21.785  25.352  1.00  0.00     0.227 C 
ATOM     76  O   UNL A   1      30.878  22.026  26.069  1.00  0.00    -0.275 OA
ATOM     77  N   UNL A   1      32.162  20.466  25.274  1.00  0.00    -0.352 N 
ATOM     78  H   UNL A   1      31.820  19.920  26.019  1.00  0.00     0.163 HD
BRANCH  77  79
ATOM     79  C   UNL A   1      32.898  19.732  24.275  1.00  0.00     0.151 C 
BRANCH  79  80
ATOM     80  C   UNL A   1      33.321  18.301  24.584  1.00  0.00    -0.026 A 
ATOM     81  C   UNL A   1      32.427  17.467  25.278  1.00  0.00     0.025 A 
ATOM     82  C   UNL A   1      34.543  17.722  24.261  1.00  0.00     0.025 A 
ATOM     83  C   UNL A   1      32.712  16.140  25.547  1.00  0.00     0.111 A 
ATOM     84  C   UNL A   1      34.764  16.381  24.590  1.00  0.00     0.111 A 
ATOM     85  N   UNL A   1      33.877  15.574  25.215  1.00  0.00    -0.265 NA
ENDBRANCH  79  80
ENDBRANCH  77  79
ENDBRANCH  69  75
ENDBRANCH  66  68
ENDBRANCH  65  66
ENDBRANCH  64  65
ENDBRANCH  63  64
ENDBRANCH  62  63
ENDBRANCH  61  62
ENDBRANCH   1  61
TORSDOF 23
ENDMDL
MODEL 3
REMARK VINA RESULT:      -9.7      4.816     10.342
REMARK SMILES O=C(OCCOCCOCCOCCOC(=O)[C@@H]1[C@H](C(=O)NCc2ccncc2)[C@H]2C=C[C@@H]1O2)c1ccc(-c2c3nc(c(-c4ccccc4)c4ccc([nH]4)c(-c4ccccc4)c4nc(c(-c5ccccc5)c5ccc2[nH]5)C=C4)C=C3)cc1
REMARK SMILES IDX 10 1 9 2 8 3 7 4 6 5 5 6 4 7 3 8 2 9 1 10 35 11 36 12 82 13
REMARK SMILES IDX 37 14 81 15 38 16 39 17 40 18 75 19 41 20 80 21 74 22 76 23
REMARK SMILES IDX 42 24 79 25 73 26 72 27 43 29 65 30 50 31 64 32 51 33 54 34
REMARK SMILES IDX 63 35 77 36 52 37 53 38 62 40 78 41 55 42 44 43 45 44 49 45
REMARK SMILES IDX 46 46 48 47 47 48 66 49 67 50 71 51 68 52 70 53 69 54 56 55
REMARK SMILES IDX 57 56 61 57 58 58 60 59 59 60 11 61 12 62 13 63 14 64 15 65
REMARK SMILES IDX 16 66 17 67 18 68 19 69 33 70 30 71 32 72 34 73 31 74 20 75
REMARK SMILES IDX 21 76 22 77 23 79 24 80 25 81 29 82 26 83 28 84 27 85
REMARK H PARENT 76 28 54 39 22 78
REMARK Flexibility Score: inf
ROOT
ATOM      1  C   UNL A   1      33.724  30.891  27.300  1.00  0.00     0.188 C 
ENDROOT
BRANCH   1   2
ATOM      2  O   UNL A   1      34.722  31.861  27.627  1.00  0.00    -0.377 OA
BRANCH   2   3
ATOM      3  C   UNL A   1      34.501  32.848  28.621  1.00  0.00     0.188 C 
BRANCH   3   4
ATOM      4  C   UNL A   1      34.058  34.197  28.121  1.00  0.00     0.188 C 
BRANCH   4   5
ATOM      5  O   UNL A   1      32.850  34.612  28.755  1.00  0.00    -0.376 OA
BRANCH   5   6
ATOM      6  C   UNL A   1      32.615  36.009  28.785  1.00  0.00     0.202 C 
BRANCH   6   7
ATOM      7  C   UNL A   1      33.404  36.736  29.874  1.00  0.00     0.261 C 
BRANCH   7   8
ATOM      8  O   UNL A   1      32.648  36.950  31.080  1.00  0.00    -0.460 OA
BRANCH   8   9
ATOM      9  C   UNL A   1      32.652  36.088  32.135  1.00  0.00     0.338 C 
ATOM     10  O   UNL A   1      31.974  36.321  33.130  1.00  0.00    -0.246 OA
BRANCH   9  11
ATOM     11  C   UNL A   1      33.720  35.040  32.221  1.00  0.00     0.060 A 
ATOM     12  C   UNL A   1      33.580  33.849  32.935  1.00  0.00     0.016 A 
ATOM     13  C   UNL A   1      34.942  35.282  31.563  1.00  0.00     0.016 A 
ATOM     14  C   UNL A   1      34.584  32.888  32.937  1.00  0.00     0.010 A 
ATOM     15  C   UNL A   1      36.009  34.374  31.662  1.00  0.00     0.010 A 
ATOM     16  C   UNL A   1      35.838  33.193  32.397  1.00  0.00    -0.014 A 
BRANCH  16  17
ATOM     17  C   UNL A   1      36.972  32.523  33.078  1.00  0.00     0.031 A 
ATOM     18  C   UNL A   1      37.647  31.443  32.265  1.00  0.00     0.074 A 
ATOM     19  C   UNL A   1      37.500  32.949  34.235  1.00  0.00     0.049 A 
ATOM     20  N   UNL A   1      38.838  30.923  32.391  1.00  0.00    -0.248 NA
ATOM     21  C   UNL A   1      36.900  30.954  31.090  1.00  0.00     0.031 C 
ATOM     22  C   UNL A   1      36.991  34.039  35.062  1.00  0.00     0.029 A 
ATOM     23  N   UNL A   1      38.628  32.524  34.892  1.00  0.00    -0.354 N 
ATOM     24  C   UNL A   1      38.998  30.108  31.277  1.00  0.00     0.074 A 
ATOM     25  C   UNL A   1      37.798  30.202  30.483  1.00  0.00     0.031 C 
ATOM     26  C   UNL A   1      37.813  34.206  36.116  1.00  0.00     0.029 A 
ATOM     27  C   UNL A   1      38.897  33.228  36.040  1.00  0.00     0.049 A 
ATOM     28  H   UNL A   1      39.190  31.783  34.570  1.00  0.00     0.167 HD
ATOM     29  C   UNL A   1      40.041  29.312  30.951  1.00  0.00     0.031 A 
ATOM     30  C   UNL A   1      39.913  33.085  36.915  1.00  0.00     0.031 A 
ATOM     31  C   UNL A   1      41.139  29.070  31.834  1.00  0.00     0.049 A 
ATOM     32  C   UNL A   1      40.966  32.039  36.632  1.00  0.00     0.074 A 
ATOM     33  C   UNL A   1      42.181  28.175  31.694  1.00  0.00     0.029 A 
ATOM     34  N   UNL A   1      41.293  29.693  33.064  1.00  0.00    -0.354 N 
ATOM     35  N   UNL A   1      41.123  31.283  35.570  1.00  0.00    -0.248 NA
ATOM     36  C   UNL A   1      41.984  31.828  37.672  1.00  0.00     0.031 C 
ATOM     37  C   UNL A   1      42.923  28.200  32.881  1.00  0.00     0.029 A 
ATOM     38  C   UNL A   1      42.393  29.173  33.716  1.00  0.00     0.049 A 
ATOM     39  H   UNL A   1      40.707  30.399  33.419  1.00  0.00     0.167 HD
ATOM     40  C   UNL A   1      42.270  30.531  35.800  1.00  0.00     0.074 A 
ATOM     41  C   UNL A   1      42.775  30.932  37.098  1.00  0.00     0.031 C 
ATOM     42  C   UNL A   1      42.860  29.596  35.012  1.00  0.00     0.031 A 
BRANCH  29  43
ATOM     43  C   UNL A   1      39.915  28.553  29.662  1.00  0.00    -0.014 A 
ATOM     44  C   UNL A   1      39.385  27.252  29.629  1.00  0.00     0.009 A 
ATOM     45  C   UNL A   1      40.436  29.107  28.484  1.00  0.00     0.009 A 
ATOM     46  C   UNL A   1      39.423  26.506  28.449  1.00  0.00     0.001 A 
ATOM     47  C   UNL A   1      40.449  28.369  27.301  1.00  0.00     0.001 A 
ATOM     48  C   UNL A   1      39.956  27.065  27.287  1.00  0.00     0.000 A 
ENDBRANCH  29  43
BRANCH  30  49
ATOM     49  C   UNL A   1      39.983  33.919  38.149  1.00  0.00    -0.014 A 
ATOM     50  C   UNL A   1      40.736  35.103  38.186  1.00  0.00     0.009 A 
ATOM     51  C   UNL A   1      39.332  33.503  39.322  1.00  0.00     0.009 A 
ATOM     52  C   UNL A   1      40.856  35.836  39.372  1.00  0.00     0.001 A 
ATOM     53  C   UNL A   1      39.429  34.252  40.499  1.00  0.00     0.001 A 
ATOM     54  C   UNL A   1      40.199  35.412  40.525  1.00  0.00     0.000 A 
ENDBRANCH  30  49
BRANCH  42  55
ATOM     55  C   UNL A   1      44.137  28.978  35.508  1.00  0.00    -0.014 A 
ATOM     56  C   UNL A   1      44.156  27.716  36.118  1.00  0.00     0.009 A 
ATOM     57  C   UNL A   1      45.351  29.649  35.288  1.00  0.00     0.009 A 
ATOM     58  C   UNL A   1      45.366  27.153  36.530  1.00  0.00     0.001 A 
ATOM     59  C   UNL A   1      46.561  29.068  35.669  1.00  0.00     0.001 A 
ATOM     60  C   UNL A   1      46.565  27.826  36.299  1.00  0.00     0.000 A 
ENDBRANCH  42  55
ENDBRANCH  16  17
ENDBRANCH   9  11
ENDBRANCH   8   9
ENDBRANCH   7   8
ENDBRANCH   6   7
ENDBRANCH   5   6
ENDBRANCH   4   5
ENDBRANCH   3   4
ENDBRANCH   2   3
ENDBRANCH   1   2
BRANCH   1  61
ATOM     61  C   UNL A   1      34.370  29.494  27.325  1.00  0.00     0.188 C 
BRANCH  61  62
ATOM     62  O   UNL A   1      33.592  28.555  26.573  1.00  0.00    -0.376 OA
BRANCH  62  63
ATOM     63  C   UNL A   1      32.578  27.883  27.327  1.00  0.00     0.202 C 
BRANCH  63  64
ATOM     64  C   UNL A   1      31.198  27.759  26.647  1.00  0.00     0.261 C 
BRANCH  64  65
ATOM     65  O   UNL A   1      30.715  26.416  26.460  1.00  0.00    -0.463 OA
BRANCH  65  66
ATOM     66  C   UNL A   1      30.873  25.856  25.257  1.00  0.00     0.312 C 
ATOM     67  O   UNL A   1      29.930  25.529  24.529  1.00  0.00    -0.252 OA
BRANCH  66  68
ATOM     68  C   UNL A   1      32.303  25.750  24.796  1.00  0.00     0.147 C 
ATOM     69  C   UNL A   1      32.793  25.922  23.330  1.00  0.00     0.128 C 
ATOM     70  C   UNL A   1      32.796  24.325  25.117  1.00  0.00     0.157 C 
ATOM     71  C   UNL A   1      33.451  24.558  23.049  1.00  0.00     0.155 C 
ATOM     72  C   UNL A   1      34.290  24.260  25.161  1.00  0.00     0.004 C 
ATOM     73  O   UNL A   1      32.601  23.687  23.828  1.00  0.00    -0.365 OA
ATOM     74  C   UNL A   1      34.700  24.398  23.892  1.00  0.00     0.004 C 
BRANCH  69  75
ATOM     75  C   UNL A   1      32.014  26.591  22.183  1.00  0.00     0.227 C 
ATOM     76  O   UNL A   1      31.774  25.886  21.186  1.00  0.00    -0.275 OA
ATOM     77  N   UNL A   1      31.512  27.845  22.086  1.00  0.00    -0.352 N 
ATOM     78  H   UNL A   1      31.345  28.154  21.166  1.00  0.00     0.163 HD
BRANCH  77  79
ATOM     79  C   UNL A   1      31.185  28.802  23.114  1.00  0.00     0.151 C 
BRANCH  79  80
ATOM     80  C   UNL A   1      29.758  29.331  23.190  1.00  0.00    -0.026 A 
ATOM     81  C   UNL A   1      28.694  28.435  22.991  1.00  0.00     0.025 A 
ATOM     82  C   UNL A   1      29.388  30.651  23.422  1.00  0.00     0.025 A 
ATOM     83  C   UNL A   1      27.370  28.824  23.100  1.00  0.00     0.111 A 
ATOM     84  C   UNL A   1      28.027  30.969  23.493  1.00  0.00     0.111 A 
ATOM     85  N   UNL A   1      27.011  30.088  23.349  1.00  0.00    -0.265 NA
ENDBRANCH  79  80
ENDBRANCH  77  79
ENDBRANCH  69  75
ENDBRANCH  66  68
ENDBRANCH  65  66
ENDBRANCH  64  65
ENDBRANCH  63  64
ENDBRANCH  62  63
ENDBRANCH  61  62
ENDBRANCH   1  61
TORSDOF 23
ENDMDL
