MODEL 1
REMARK VINA RESULT:     -10.6      0.000      0.000
REMARK SMILES Cc1ccc(-c2nn(-c3ccccc3)cc2[C@@H]2[NH2+][C@H](C(=O)OCCOCCOCCOCCOC(=O)c3ccc(-c4c5nc(c(-c6ccccc6)c6ccc([nH]6)c(-c6ccccc6)c6nc(c(-c7ccccc7)c7ccc4[nH]7)C=C6)C=C5)cc3)CS2)cc1
REMARK SMILES IDX 28 1 27 2 26 3 25 4 24 5 23 6 22 7 20 8 21 9 19 10 17 11
REMARK SMILES IDX 18 12 86 13 85 16 16 17 6 18 7 19 8 20 15 21 5 22 1 23 2 24
REMARK SMILES IDX 3 25 88 26 4 27 87 28 9 29 10 30 14 31 11 32 13 33 12 34
REMARK SMILES IDX 29 35 30 36 31 37 32 38 33 39 34 40 35 41 36 42 37 43 38 44
REMARK SMILES IDX 84 45 39 46 83 47 40 48 41 49 42 50 77 51 43 52 82 53 76 54
REMARK SMILES IDX 78 55 44 56 81 57 75 58 74 59 45 61 67 62 52 63 66 64 53 65
REMARK SMILES IDX 56 66 65 67 79 68 54 69 55 70 64 72 80 73 57 74 46 75 47 76
REMARK SMILES IDX 51 77 48 78 50 79 49 80 68 81 69 82 73 83 70 84 72 85 71 86
REMARK SMILES IDX 58 87 59 88 63 89 60 90 62 91 61 92
REMARK H PARENT 18 14 18 15 78 60 56 71
REMARK Flexibility Score: inf
ROOT
ATOM      1  O   UNL A   1      32.763  30.531  27.120  1.00  0.00    -0.377 OA
ENDROOT
BRANCH   1   2
ATOM      2  C   UNL A   1      32.448  29.131  27.219  1.00  0.00     0.188 C 
BRANCH   2   3
ATOM      3  C   UNL A   1      33.246  28.161  26.334  1.00  0.00     0.188 C 
BRANCH   3   4
ATOM      4  O   UNL A   1      32.538  27.381  25.384  1.00  0.00    -0.376 OA
BRANCH   4   5
ATOM      5  C   UNL A   1      31.106  27.462  25.485  1.00  0.00     0.202 C 
BRANCH   5   6
ATOM      6  C   UNL A   1      30.259  26.168  25.430  1.00  0.00     0.261 C 
BRANCH   6   7
ATOM      7  O   UNL A   1      30.567  25.368  26.594  1.00  0.00    -0.459 OA
BRANCH   7   8
ATOM      8  C   UNL A   1      31.096  24.123  26.516  1.00  0.00     0.365 C 
ATOM      9  O   UNL A   1      31.061  23.292  27.413  1.00  0.00    -0.245 OA
BRANCH   8  10
ATOM     10  C   UNL A   1      31.555  23.833  25.056  1.00  0.00     0.304 C 
ATOM     11  C   UNL A   1      33.587  23.217  23.809  1.00  0.00     0.278 C 
ATOM     12  N   UNL A   1      33.053  23.906  24.969  1.00  0.00    -0.319 N 
ATOM     13  S   UNL A   1      32.250  22.029  23.279  1.00  0.00    -0.087 SA
ATOM     14  H   UNL A   1      33.330  24.886  24.921  1.00  0.00     0.348 HD
ATOM     15  H   UNL A   1      33.429  23.444  25.797  1.00  0.00     0.348 HD
ATOM     16  C   UNL A   1      31.041  22.514  24.540  1.00  0.00     0.153 C 
BRANCH  11  17
ATOM     17  C   UNL A   1      35.212  22.536  23.850  1.00  0.00     0.067 A 
ATOM     18  C   UNL A   1      35.097  21.236  25.311  1.00  0.00     0.103 A 
ATOM     19  N   UNL A   1      36.548  21.243  26.215  1.00  0.00    -0.167 NA
ATOM     20  N   UNL A   1      37.795  22.413  25.453  1.00  0.00    -0.240 N 
ATOM     21  C   UNL A   1      37.018  23.093  23.839  1.00  0.00     0.126 A 
BRANCH  18  22
ATOM     22  C   UNL A   1      34.123  19.956  25.004  1.00  0.00     0.003 A 
ATOM     23  C   UNL A   1      32.769  15.728  25.230  1.00  0.00     0.044 C 
ATOM     24  C   UNL A   1      33.112  17.187  25.075  1.00  0.00    -0.051 A 
ATOM     25  C   UNL A   1      34.204  17.516  24.310  1.00  0.00     0.004 A 
ATOM     26  C   UNL A   1      32.475  18.252  25.741  1.00  0.00     0.004 A 
ATOM     27  C   UNL A   1      34.634  18.855  24.248  1.00  0.00     0.011 A 
ATOM     28  C   UNL A   1      32.979  19.611  25.725  1.00  0.00     0.011 A 
ENDBRANCH  18  22
BRANCH  20  29
ATOM     29  C   UNL A   1      39.059  22.724  26.136  1.00  0.00     0.065 A 
ATOM     30  C   UNL A   1      39.323  23.999  26.648  1.00  0.00     0.028 A 
ATOM     31  C   UNL A   1      39.963  21.689  26.399  1.00  0.00     0.028 A 
ATOM     32  C   UNL A   1      40.387  24.206  27.524  1.00  0.00     0.002 A 
ATOM     33  C   UNL A   1      40.918  21.864  27.407  1.00  0.00     0.002 A 
ATOM     34  C   UNL A   1      41.118  23.118  27.982  1.00  0.00     0.000 A 
ENDBRANCH  20  29
ENDBRANCH  11  17
ENDBRANCH   8  10
ENDBRANCH   7   8
ENDBRANCH   6   7
ENDBRANCH   5   6
ENDBRANCH   4   5
ENDBRANCH   3   4
ENDBRANCH   2   3
ENDBRANCH   1   2
BRANCH   1  35
ATOM     35  C   UNL A   1      34.016  30.978  27.631  1.00  0.00     0.188 C 
BRANCH  35  36
ATOM     36  C   UNL A   1      34.110  32.389  28.097  1.00  0.00     0.188 C 
BRANCH  36  37
ATOM     37  O   UNL A   1      35.237  32.490  28.944  1.00  0.00    -0.376 OA
BRANCH  37  38
ATOM     38  C   UNL A   1      36.316  33.233  28.404  1.00  0.00     0.202 C 
BRANCH  38  39
ATOM     39  C   UNL A   1      37.523  33.311  29.342  1.00  0.00     0.261 C 
BRANCH  39  40
ATOM     40  O   UNL A   1      38.372  32.170  29.098  1.00  0.00    -0.460 OA
BRANCH  40  41
ATOM     41  C   UNL A   1      38.353  31.211  30.065  1.00  0.00     0.338 C 
ATOM     42  O   UNL A   1      37.474  31.083  30.901  1.00  0.00    -0.246 OA
BRANCH  41  43
ATOM     43  C   UNL A   1      39.680  30.513  30.134  1.00  0.00     0.060 A 
ATOM     44  C   UNL A   1      40.839  31.248  30.406  1.00  0.00     0.016 A 
ATOM     45  C   UNL A   1      39.816  29.240  29.586  1.00  0.00     0.016 A 
ATOM     46  C   UNL A   1      42.093  30.776  29.964  1.00  0.00     0.010 A 
ATOM     47  C   UNL A   1      41.039  28.849  29.044  1.00  0.00     0.010 A 
ATOM     48  C   UNL A   1      42.196  29.629  29.165  1.00  0.00    -0.014 A 
BRANCH  48  49
ATOM     49  C   UNL A   1      43.447  29.142  28.493  1.00  0.00     0.031 A 
ATOM     50  C   UNL A   1      43.880  27.756  28.782  1.00  0.00     0.074 A 
ATOM     51  C   UNL A   1      44.065  29.743  27.429  1.00  0.00     0.049 A 
ATOM     52  N   UNL A   1      45.011  27.264  28.417  1.00  0.00    -0.248 NA
ATOM     53  C   UNL A   1      42.999  26.733  29.341  1.00  0.00     0.031 C 
ATOM     54  C   UNL A   1      45.194  29.416  26.584  1.00  0.00     0.029 A 
ATOM     55  N   UNL A   1      43.790  30.935  26.820  1.00  0.00    -0.354 N 
ATOM     56  C   UNL A   1      44.756  25.949  28.108  1.00  0.00     0.074 A 
ATOM     57  C   UNL A   1      43.585  25.621  28.885  1.00  0.00     0.031 C 
ATOM     58  C   UNL A   1      45.761  30.516  26.022  1.00  0.00     0.029 A 
ATOM     59  C   UNL A   1      45.048  31.659  26.574  1.00  0.00     0.049 A 
ATOM     60  H   UNL A   1      42.890  31.259  26.582  1.00  0.00     0.167 HD
ATOM     61  C   UNL A   1      45.418  25.391  27.049  1.00  0.00     0.031 A 
ATOM     62  C   UNL A   1      45.351  33.099  27.117  1.00  0.00     0.031 A 
ATOM     63  C   UNL A   1      46.499  26.273  26.508  1.00  0.00     0.049 A 
ATOM     64  C   UNL A   1      46.942  32.292  27.477  1.00  0.00     0.074 A 
ATOM     65  C   UNL A   1      46.911  26.653  25.238  1.00  0.00     0.029 A 
ATOM     66  N   UNL A   1      47.216  27.126  27.380  1.00  0.00    -0.354 N 
ATOM     67  N   UNL A   1      47.074  31.061  28.018  1.00  0.00    -0.248 NA
ATOM     68  C   UNL A   1      48.248  32.727  26.947  1.00  0.00     0.031 C 
ATOM     69  C   UNL A   1      47.750  27.814  25.363  1.00  0.00     0.029 A 
ATOM     70  C   UNL A   1      47.837  28.181  26.709  1.00  0.00     0.049 A 
ATOM     71  H   UNL A   1      47.271  26.992  28.354  1.00  0.00     0.167 HD
ATOM     72  C   UNL A   1      48.321  30.491  27.689  1.00  0.00     0.074 A 
ATOM     73  C   UNL A   1      49.048  31.651  27.157  1.00  0.00     0.031 C 
ATOM     74  C   UNL A   1      48.682  29.159  27.435  1.00  0.00     0.031 A 
BRANCH  61  75
ATOM     75  C   UNL A   1      44.920  24.127  26.341  1.00  0.00    -0.014 A 
ATOM     76  C   UNL A   1      43.794  24.194  25.501  1.00  0.00     0.009 A 
ATOM     77  C   UNL A   1      45.459  22.830  26.508  1.00  0.00     0.009 A 
ATOM     78  C   UNL A   1      43.249  23.060  24.871  1.00  0.00     0.001 A 
ATOM     79  C   UNL A   1      44.950  21.698  25.844  1.00  0.00     0.001 A 
ATOM     80  C   UNL A   1      43.837  21.812  25.029  1.00  0.00     0.000 A 
ENDBRANCH  61  75
BRANCH  62  81
ATOM     81  C   UNL A   1      44.008  34.511  28.094  1.00  0.00    -0.014 A 
ATOM     82  C   UNL A   1      43.284  35.814  27.587  1.00  0.00     0.009 A 
ATOM     83  C   UNL A   1      42.820  34.223  29.169  1.00  0.00     0.009 A 
ATOM     84  C   UNL A   1      42.017  36.458  27.887  1.00  0.00     0.001 A 
ATOM     85  C   UNL A   1      41.519  34.795  29.415  1.00  0.00     0.001 A 
ATOM     86  C   UNL A   1      41.109  35.911  28.753  1.00  0.00     0.000 A 
ENDBRANCH  62  81
BRANCH  74  87
ATOM     87  C   UNL A   1      50.040  28.551  27.820  1.00  0.00    -0.014 A 
ATOM     88  C   UNL A   1      51.216  28.747  27.101  1.00  0.00     0.009 A 
ATOM     89  C   UNL A   1      50.186  27.913  29.091  1.00  0.00     0.009 A 
ATOM     90  C   UNL A   1      52.455  28.333  27.626  1.00  0.00     0.001 A 
ATOM     91  C   UNL A   1      51.414  27.546  29.636  1.00  0.00     0.001 A 
ATOM     92  C   UNL A   1      52.556  27.754  28.893  1.00  0.00     0.000 A 
ENDBRANCH  74  87
ENDBRANCH  48  49
ENDBRANCH  41  43
ENDBRANCH  40  41
ENDBRANCH  39  40
ENDBRANCH  38  39
ENDBRANCH  37  38
ENDBRANCH  36  37
ENDBRANCH  35  36
ENDBRANCH   1  35
TORSDOF 23
ENDMDL
MODEL 2
REMARK VINA RESULT:     -10.5      3.527      8.963
REMARK SMILES Cc1ccc(-c2nn(-c3ccccc3)cc2[C@@H]2[NH2+][C@H](C(=O)OCCOCCOCCOCCOC(=O)c3ccc(-c4c5nc(c(-c6ccccc6)c6ccc([nH]6)c(-c6ccccc6)c6nc(c(-c7ccccc7)c7ccc4[nH]7)C=C6)C=C5)cc3)CS2)cc1
REMARK SMILES IDX 28 1 27 2 26 3 25 4 24 5 23 6 22 7 20 8 21 9 19 10 17 11
REMARK SMILES IDX 18 12 86 13 85 16 16 17 6 18 7 19 8 20 15 21 5 22 1 23 2 24
REMARK SMILES IDX 3 25 88 26 4 27 87 28 9 29 10 30 14 31 11 32 13 33 12 34
REMARK SMILES IDX 29 35 30 36 31 37 32 38 33 39 34 40 35 41 36 42 37 43 38 44
REMARK SMILES IDX 84 45 39 46 83 47 40 48 41 49 42 50 77 51 43 52 82 53 76 54
REMARK SMILES IDX 78 55 44 56 81 57 75 58 74 59 45 61 67 62 52 63 66 64 53 65
REMARK SMILES IDX 56 66 65 67 79 68 54 69 55 70 64 72 80 73 57 74 46 75 47 76
REMARK SMILES IDX 51 77 48 78 50 79 49 80 68 81 69 82 73 83 70 84 72 85 71 86
REMARK SMILES IDX 58 87 59 88 63 89 60 90 62 91 61 92
REMARK H PARENT 18 14 18 15 78 60 56 71
REMARK Flexibility Score: inf
ROOT
ATOM      1  O   UNL A   1      38.903  21.230  25.792  1.00  0.00    -0.377 OA
ENDROOT
BRANCH   1   2
ATOM      2  C   UNL A   1      37.525  21.636  25.744  1.00  0.00     0.188 C 
BRANCH   2   3
ATOM      3  C   UNL A   1      36.870  21.756  24.359  1.00  0.00     0.188 C 
BRANCH   3   4
ATOM      4  O   UNL A   1      35.473  21.992  24.294  1.00  0.00    -0.376 OA
BRANCH   4   5
ATOM      5  C   UNL A   1      35.084  23.082  23.441  1.00  0.00     0.202 C 
BRANCH   5   6
ATOM      6  C   UNL A   1      33.703  23.056  22.743  1.00  0.00     0.261 C 
BRANCH   6   7
ATOM      7  O   UNL A   1      33.662  24.121  21.767  1.00  0.00    -0.459 OA
BRANCH   7   8
ATOM      8  C   UNL A   1      32.780  25.148  21.830  1.00  0.00     0.365 C 
ATOM      9  O   UNL A   1      32.586  25.957  20.935  1.00  0.00    -0.245 OA
BRANCH   8  10
ATOM     10  C   UNL A   1      31.904  25.015  23.112  1.00  0.00     0.304 C 
ATOM     11  C   UNL A   1      31.503  26.175  25.247  1.00  0.00     0.278 C 
ATOM     12  N   UNL A   1      32.470  25.874  24.207  1.00  0.00    -0.319 N 
ATOM     13  S   UNL A   1      29.832  25.889  24.468  1.00  0.00    -0.087 SA
ATOM     14  H   UNL A   1      33.260  25.386  24.629  1.00  0.00     0.348 HD
ATOM     15  H   UNL A   1      32.750  26.760  23.786  1.00  0.00     0.348 HD
ATOM     16  C   UNL A   1      30.455  25.339  22.857  1.00  0.00     0.153 C 
BRANCH  11  17
ATOM     17  C   UNL A   1      31.641  27.661  26.185  1.00  0.00     0.067 A 
ATOM     18  C   UNL A   1      31.990  29.009  24.807  1.00  0.00     0.103 A 
ATOM     19  N   UNL A   1      33.127  30.151  25.380  1.00  0.00    -0.167 NA
ATOM     20  N   UNL A   1      33.583  29.790  27.160  1.00  0.00    -0.240 N 
ATOM     21  C   UNL A   1      32.496  28.322  27.735  1.00  0.00     0.126 A 
BRANCH  18  22
ATOM     22  C   UNL A   1      30.735  29.279  23.790  1.00  0.00     0.003 A 
ATOM     23  C   UNL A   1      28.184  31.634  21.013  1.00  0.00     0.044 C 
ATOM     24  C   UNL A   1      28.963  30.725  21.930  1.00  0.00    -0.051 A 
ATOM     25  C   UNL A   1      28.921  30.979  23.279  1.00  0.00     0.004 A 
ATOM     26  C   UNL A   1      29.829  29.695  21.516  1.00  0.00     0.004 A 
ATOM     27  C   UNL A   1      29.737  30.236  24.153  1.00  0.00     0.011 A 
ATOM     28  C   UNL A   1      30.717  28.995  22.424  1.00  0.00     0.011 A 
ENDBRANCH  18  22
BRANCH  20  29
ATOM     29  C   UNL A   1      34.665  30.526  27.828  1.00  0.00     0.065 A 
ATOM     30  C   UNL A   1      35.936  29.967  28.002  1.00  0.00     0.028 A 
ATOM     31  C   UNL A   1      34.461  31.865  28.181  1.00  0.00     0.028 A 
ATOM     32  C   UNL A   1      37.016  30.763  28.379  1.00  0.00     0.002 A 
ATOM     33  C   UNL A   1      35.575  32.688  28.390  1.00  0.00     0.002 A 
ATOM     34  C   UNL A   1      36.853  32.139  28.472  1.00  0.00     0.000 A 
ENDBRANCH  20  29
ENDBRANCH  11  17
ENDBRANCH   8  10
ENDBRANCH   7   8
ENDBRANCH   6   7
ENDBRANCH   5   6
ENDBRANCH   4   5
ENDBRANCH   3   4
ENDBRANCH   2   3
ENDBRANCH   1   2
BRANCH   1  35
ATOM     35  C   UNL A   1      39.864  22.160  26.287  1.00  0.00     0.188 C 
BRANCH  35  36
ATOM     36  C   UNL A   1      40.622  21.786  27.512  1.00  0.00     0.188 C 
BRANCH  36  37
ATOM     37  O   UNL A   1      41.974  21.602  27.144  1.00  0.00    -0.376 OA
BRANCH  37  38
ATOM     38  C   UNL A   1      42.188  21.419  25.755  1.00  0.00     0.202 C 
BRANCH  38  39
ATOM     39  C   UNL A   1      43.420  22.162  25.232  1.00  0.00     0.261 C 
BRANCH  39  40
ATOM     40  O   UNL A   1      44.591  21.628  25.883  1.00  0.00    -0.460 OA
BRANCH  40  41
ATOM     41  C   UNL A   1      45.778  22.161  25.478  1.00  0.00     0.338 C 
ATOM     42  O   UNL A   1      46.605  21.578  24.796  1.00  0.00    -0.246 OA
BRANCH  41  43
ATOM     43  C   UNL A   1      46.048  23.446  26.204  1.00  0.00     0.060 A 
ATOM     44  C   UNL A   1      45.860  23.515  27.589  1.00  0.00     0.016 A 
ATOM     45  C   UNL A   1      46.131  24.636  25.486  1.00  0.00     0.016 A 
ATOM     46  C   UNL A   1      45.580  24.755  28.201  1.00  0.00     0.010 A 
ATOM     47  C   UNL A   1      45.729  25.831  26.081  1.00  0.00     0.010 A 
ATOM     48  C   UNL A   1      45.385  25.914  27.436  1.00  0.00    -0.014 A 
BRANCH  48  49
ATOM     49  C   UNL A   1      44.909  27.237  27.962  1.00  0.00     0.031 A 
ATOM     50  C   UNL A   1      43.462  27.532  27.856  1.00  0.00     0.074 A 
ATOM     51  C   UNL A   1      45.622  28.072  28.780  1.00  0.00     0.049 A 
ATOM     52  N   UNL A   1      42.941  28.681  28.105  1.00  0.00    -0.248 NA
ATOM     53  C   UNL A   1      42.441  26.507  27.647  1.00  0.00     0.031 C 
ATOM     54  C   UNL A   1      45.344  29.316  29.465  1.00  0.00     0.029 A 
ATOM     55  N   UNL A   1      46.919  27.980  29.203  1.00  0.00    -0.354 N 
ATOM     56  C   UNL A   1      41.723  28.414  28.683  1.00  0.00     0.074 A 
ATOM     57  C   UNL A   1      41.373  27.104  28.189  1.00  0.00     0.031 C 
ATOM     58  C   UNL A   1      46.468  30.038  29.716  1.00  0.00     0.029 A 
ATOM     59  C   UNL A   1      47.561  29.302  29.098  1.00  0.00     0.049 A 
ATOM     60  H   UNL A   1      47.355  27.160  29.528  1.00  0.00     0.167 HD
ATOM     61  C   UNL A   1      41.293  29.225  29.697  1.00  0.00     0.031 A 
ATOM     62  C   UNL A   1      48.858  29.581  28.262  1.00  0.00     0.031 A 
ATOM     63  C   UNL A   1      42.156  30.435  29.879  1.00  0.00     0.049 A 
ATOM     64  C   UNL A   1      47.868  31.031  27.787  1.00  0.00     0.074 A 
ATOM     65  C   UNL A   1      42.703  31.093  30.972  1.00  0.00     0.029 A 
ATOM     66  N   UNL A   1      42.786  31.027  28.760  1.00  0.00    -0.354 N 
ATOM     67  N   UNL A   1      46.557  30.993  27.461  1.00  0.00    -0.248 NA
ATOM     68  C   UNL A   1      48.269  32.434  28.000  1.00  0.00     0.031 C 
ATOM     69  C   UNL A   1      43.750  31.959  30.500  1.00  0.00     0.029 A 
ATOM     70  C   UNL A   1      43.879  31.819  29.115  1.00  0.00     0.049 A 
ATOM     71  H   UNL A   1      42.487  30.896  27.831  1.00  0.00     0.167 HD
ATOM     72  C   UNL A   1      45.943  32.244  27.669  1.00  0.00     0.074 A 
ATOM     73  C   UNL A   1      47.108  33.121  27.853  1.00  0.00     0.031 C 
ATOM     74  C   UNL A   1      44.645  32.570  28.092  1.00  0.00     0.031 A 
BRANCH  61  75
ATOM     75  C   UNL A   1      40.213  28.795  30.694  1.00  0.00    -0.014 A 
ATOM     76  C   UNL A   1      40.548  28.596  32.045  1.00  0.00     0.009 A 
ATOM     77  C   UNL A   1      38.869  28.497  30.367  1.00  0.00     0.009 A 
ATOM     78  C   UNL A   1      39.618  28.142  32.999  1.00  0.00     0.001 A 
ATOM     79  C   UNL A   1      37.921  28.089  31.322  1.00  0.00     0.001 A 
ATOM     80  C   UNL A   1      38.298  27.903  32.641  1.00  0.00     0.000 A 
ENDBRANCH  61  75
BRANCH  62  81
ATOM     81  C   UNL A   1      50.200  28.163  27.291  1.00  0.00    -0.014 A 
ATOM     82  C   UNL A   1      49.986  26.703  26.742  1.00  0.00     0.009 A 
ATOM     83  C   UNL A   1      51.375  28.442  26.199  1.00  0.00     0.009 A 
ATOM     84  C   UNL A   1      50.545  25.936  25.642  1.00  0.00     0.001 A 
ATOM     85  C   UNL A   1      51.875  27.733  25.048  1.00  0.00     0.001 A 
ATOM     86  C   UNL A   1      51.440  26.475  24.758  1.00  0.00     0.000 A 
ENDBRANCH  62  81
BRANCH  74  87
ATOM     87  C   UNL A   1      43.866  33.799  27.597  1.00  0.00    -0.014 A 
ATOM     88  C   UNL A   1      43.341  34.780  28.433  1.00  0.00     0.009 A 
ATOM     89  C   UNL A   1      43.836  34.091  26.199  1.00  0.00     0.009 A 
ATOM     90  C   UNL A   1      42.823  35.976  27.899  1.00  0.00     0.001 A 
ATOM     91  C   UNL A   1      43.370  35.292  25.669  1.00  0.00     0.001 A 
ATOM     92  C   UNL A   1      42.855  36.239  26.528  1.00  0.00     0.000 A 
ENDBRANCH  74  87
ENDBRANCH  48  49
ENDBRANCH  41  43
ENDBRANCH  40  41
ENDBRANCH  39  40
ENDBRANCH  38  39
ENDBRANCH  37  38
ENDBRANCH  36  37
ENDBRANCH  35  36
ENDBRANCH   1  35
TORSDOF 23
ENDMDL
MODEL 3
REMARK VINA RESULT:     -10.4      5.500     12.468
REMARK SMILES Cc1ccc(-c2nn(-c3ccccc3)cc2[C@@H]2[NH2+][C@H](C(=O)OCCOCCOCCOCCOC(=O)c3ccc(-c4c5nc(c(-c6ccccc6)c6ccc([nH]6)c(-c6ccccc6)c6nc(c(-c7ccccc7)c7ccc4[nH]7)C=C6)C=C5)cc3)CS2)cc1
REMARK SMILES IDX 28 1 27 2 26 3 25 4 24 5 23 6 22 7 20 8 21 9 19 10 17 11
REMARK SMILES IDX 18 12 86 13 85 16 16 17 6 18 7 19 8 20 15 21 5 22 1 23 2 24
REMARK SMILES IDX 3 25 88 26 4 27 87 28 9 29 10 30 14 31 11 32 13 33 12 34
REMARK SMILES IDX 29 35 30 36 31 37 32 38 33 39 34 40 35 41 36 42 37 43 38 44
REMARK SMILES IDX 84 45 39 46 83 47 40 48 41 49 42 50 77 51 43 52 82 53 76 54
REMARK SMILES IDX 78 55 44 56 81 57 75 58 74 59 45 61 67 62 52 63 66 64 53 65
REMARK SMILES IDX 56 66 65 67 79 68 54 69 55 70 64 72 80 73 57 74 46 75 47 76
REMARK SMILES IDX 51 77 48 78 50 79 49 80 68 81 69 82 73 83 70 84 72 85 71 86
REMARK SMILES IDX 58 87 59 88 63 89 60 90 62 91 61 92
REMARK H PARENT 18 14 18 15 78 60 56 71
REMARK Flexibility Score: inf
ROOT
ATOM      1  O   UNL A   1      42.755  19.159  25.116  1.00  0.00    -0.377 OA
ENDROOT
BRANCH   1   2
ATOM      2  C   UNL A   1      44.137  18.811  25.305  1.00  0.00     0.188 C 
BRANCH   2   3
ATOM      3  C   UNL A   1      45.183  19.605  24.507  1.00  0.00     0.188 C 
BRANCH   3   4
ATOM      4  O   UNL A   1      45.777  20.738  25.119  1.00  0.00    -0.376 OA
BRANCH   4   5
ATOM      5  C   UNL A   1      45.025  21.956  24.992  1.00  0.00     0.202 C 
BRANCH   5   6
ATOM      6  C   UNL A   1      43.950  22.309  26.049  1.00  0.00     0.261 C 
BRANCH   6   7
ATOM      7  O   UNL A   1      44.207  23.645  26.536  1.00  0.00    -0.459 OA
BRANCH   7   8
ATOM      8  C   UNL A   1      44.776  24.613  25.778  1.00  0.00     0.365 C 
ATOM      9  O   UNL A   1      44.450  24.884  24.631  1.00  0.00    -0.245 OA
BRANCH   8  10
ATOM     10  C   UNL A   1      45.747  25.465  26.649  1.00  0.00     0.304 C 
ATOM     11  C   UNL A   1      45.794  26.646  28.809  1.00  0.00     0.278 C 
ATOM     12  N   UNL A   1      44.971  26.212  27.695  1.00  0.00    -0.319 N 
ATOM     13  S   UNL A   1      47.312  25.563  28.756  1.00  0.00    -0.087 SA
ATOM     14  H   UNL A   1      44.548  27.033  27.263  1.00  0.00     0.348 HD
ATOM     15  H   UNL A   1      44.268  25.573  28.067  1.00  0.00     0.348 HD
ATOM     16  C   UNL A   1      46.845  24.638  27.268  1.00  0.00     0.153 C 
BRANCH  11  17
ATOM     17  C   UNL A   1      45.086  26.855  30.409  1.00  0.00     0.067 A 
ATOM     18  C   UNL A   1      45.874  28.545  31.010  1.00  0.00     0.103 A 
ATOM     19  N   UNL A   1      46.242  28.458  32.678  1.00  0.00    -0.167 NA
ATOM     20  N   UNL A   1      45.681  26.821  33.392  1.00  0.00    -0.240 N 
ATOM     21  C   UNL A   1      44.773  25.876  31.995  1.00  0.00     0.126 A 
BRANCH  18  22
ATOM     22  C   UNL A   1      45.382  29.860  30.167  1.00  0.00     0.003 A 
ATOM     23  C   UNL A   1      43.447  33.817  29.567  1.00  0.00     0.044 C 
ATOM     24  C   UNL A   1      44.139  32.480  29.633  1.00  0.00    -0.051 A 
ATOM     25  C   UNL A   1      43.365  31.362  29.824  1.00  0.00     0.004 A 
ATOM     26  C   UNL A   1      45.532  32.279  29.628  1.00  0.00     0.004 A 
ATOM     27  C   UNL A   1      43.982  30.112  30.022  1.00  0.00     0.011 A 
ATOM     28  C   UNL A   1      46.149  30.997  29.910  1.00  0.00     0.011 A 
ENDBRANCH  18  22
BRANCH  20  29
ATOM     29  C   UNL A   1      46.031  26.434  34.766  1.00  0.00     0.065 A 
ATOM     30  C   UNL A   1      45.758  27.269  35.856  1.00  0.00     0.028 A 
ATOM     31  C   UNL A   1      46.526  25.148  35.007  1.00  0.00     0.028 A 
ATOM     32  C   UNL A   1      45.837  26.782  37.160  1.00  0.00     0.002 A 
ATOM     33  C   UNL A   1      46.437  24.618  36.300  1.00  0.00     0.002 A 
ATOM     34  C   UNL A   1      46.076  25.431  37.373  1.00  0.00     0.000 A 
ENDBRANCH  20  29
ENDBRANCH  11  17
ENDBRANCH   8  10
ENDBRANCH   7   8
ENDBRANCH   6   7
ENDBRANCH   5   6
ENDBRANCH   4   5
ENDBRANCH   3   4
ENDBRANCH   2   3
ENDBRANCH   1   2
BRANCH   1  35
ATOM     35  C   UNL A   1      41.965  19.440  26.269  1.00  0.00     0.188 C 
BRANCH  35  36
ATOM     36  C   UNL A   1      40.559  19.879  26.055  1.00  0.00     0.188 C 
BRANCH  36  37
ATOM     37  O   UNL A   1      40.233  20.799  27.077  1.00  0.00    -0.376 OA
BRANCH  37  38
ATOM     38  C   UNL A   1      40.009  22.125  26.629  1.00  0.00     0.202 C 
BRANCH  38  39
ATOM     39  C   UNL A   1      40.688  23.180  27.506  1.00  0.00     0.261 C 
BRANCH  39  40
ATOM     40  O   UNL A   1      39.836  24.343  27.570  1.00  0.00    -0.460 OA
BRANCH  40  41
ATOM     41  C   UNL A   1      40.352  25.475  27.013  1.00  0.00     0.338 C 
ATOM     42  O   UNL A   1      41.263  25.499  26.204  1.00  0.00    -0.246 OA
BRANCH  41  43
ATOM     43  C   UNL A   1      39.836  26.690  27.729  1.00  0.00     0.060 A 
ATOM     44  C   UNL A   1      40.333  27.955  27.398  1.00  0.00     0.016 A 
ATOM     45  C   UNL A   1      39.156  26.540  28.935  1.00  0.00     0.016 A 
ATOM     46  C   UNL A   1      40.300  28.996  28.348  1.00  0.00     0.010 A 
ATOM     47  C   UNL A   1      39.244  27.536  29.905  1.00  0.00     0.010 A 
ATOM     48  C   UNL A   1      39.868  28.766  29.662  1.00  0.00    -0.014 A 
BRANCH  48  49
ATOM     49  C   UNL A   1      39.959  29.746  30.796  1.00  0.00     0.031 A 
ATOM     50  C   UNL A   1      40.798  29.369  31.956  1.00  0.00     0.074 A 
ATOM     51  C   UNL A   1      39.581  31.061  30.744  1.00  0.00     0.049 A 
ATOM     52  N   UNL A   1      40.834  30.025  33.062  1.00  0.00    -0.248 NA
ATOM     53  C   UNL A   1      41.822  28.327  31.910  1.00  0.00     0.031 C 
ATOM     54  C   UNL A   1      39.658  32.184  31.654  1.00  0.00     0.029 A 
ATOM     55  N   UNL A   1      38.949  31.748  29.746  1.00  0.00    -0.354 N 
ATOM     56  C   UNL A   1      42.137  29.945  33.493  1.00  0.00     0.074 A 
ATOM     57  C   UNL A   1      42.641  28.737  32.885  1.00  0.00     0.031 C 
ATOM     58  C   UNL A   1      38.711  33.125  31.403  1.00  0.00     0.029 A 
ATOM     59  C   UNL A   1      37.888  32.588  30.329  1.00  0.00     0.049 A 
ATOM     60  H   UNL A   1      39.167  31.690  28.788  1.00  0.00     0.167 HD
ATOM     61  C   UNL A   1      42.688  31.040  34.100  1.00  0.00     0.031 A 
ATOM     62  C   UNL A   1      36.376  32.498  29.922  1.00  0.00     0.031 A 
ATOM     63  C   UNL A   1      41.684  32.112  34.389  1.00  0.00     0.049 A 
ATOM     64  C   UNL A   1      36.203  32.607  31.730  1.00  0.00     0.074 A 
ATOM     65  C   UNL A   1      41.654  33.492  34.243  1.00  0.00     0.029 A 
ATOM     66  N   UNL A   1      40.350  31.763  34.706  1.00  0.00    -0.354 N 
ATOM     67  N   UNL A   1      36.956  31.921  32.617  1.00  0.00    -0.248 NA
ATOM     68  C   UNL A   1      35.462  33.664  32.445  1.00  0.00     0.031 C 
ATOM     69  C   UNL A   1      40.286  33.927  34.330  1.00  0.00     0.029 A 
ATOM     70  C   UNL A   1      39.456  32.814  34.499  1.00  0.00     0.049 A 
ATOM     71  H   UNL A   1      40.081  30.875  35.036  1.00  0.00     0.167 HD
ATOM     72  C   UNL A   1      36.991  32.571  33.867  1.00  0.00     0.074 A 
ATOM     73  C   UNL A   1      35.913  33.558  33.720  1.00  0.00     0.031 C 
ATOM     74  C   UNL A   1      38.017  32.670  34.821  1.00  0.00     0.031 A 
BRANCH  61  75
ATOM     75  C   UNL A   1      44.202  31.241  34.218  1.00  0.00    -0.014 A 
ATOM     76  C   UNL A   1      44.883  30.767  35.354  1.00  0.00     0.009 A 
ATOM     77  C   UNL A   1      45.009  31.944  33.293  1.00  0.00     0.009 A 
ATOM     78  C   UNL A   1      46.261  30.973  35.552  1.00  0.00     0.001 A 
ATOM     79  C   UNL A   1      46.396  32.113  33.460  1.00  0.00     0.001 A 
ATOM     80  C   UNL A   1      47.023  31.633  34.597  1.00  0.00     0.000 A 
ENDBRANCH  61  75
BRANCH  62  81
ATOM     81  C   UNL A   1      35.457  31.393  28.283  1.00  0.00    -0.014 A 
ATOM     82  C   UNL A   1      35.632  29.916  27.768  1.00  0.00     0.009 A 
ATOM     83  C   UNL A   1      33.920  31.438  27.748  1.00  0.00     0.009 A 
ATOM     84  C   UNL A   1      34.751  28.942  27.146  1.00  0.00     0.001 A 
ATOM     85  C   UNL A   1      33.005  30.458  27.217  1.00  0.00     0.001 A 
ATOM     86  C   UNL A   1      33.422  29.194  26.932  1.00  0.00     0.000 A 
ENDBRANCH  62  81
BRANCH  74  87
ATOM     87  C   UNL A   1      37.774  32.709  36.338  1.00  0.00    -0.014 A 
ATOM     88  C   UNL A   1      37.438  31.597  37.104  1.00  0.00     0.009 A 
ATOM     89  C   UNL A   1      38.103  33.892  37.068  1.00  0.00     0.009 A 
ATOM     90  C   UNL A   1      37.437  31.668  38.510  1.00  0.00     0.001 A 
ATOM     91  C   UNL A   1      38.150  33.955  38.459  1.00  0.00     0.001 A 
ATOM     92  C   UNL A   1      37.809  32.834  39.184  1.00  0.00     0.000 A 
ENDBRANCH  74  87
ENDBRANCH  48  49
ENDBRANCH  41  43
ENDBRANCH  40  41
ENDBRANCH  39  40
ENDBRANCH  38  39
ENDBRANCH  37  38
ENDBRANCH  36  37
ENDBRANCH  35  36
ENDBRANCH   1  35
TORSDOF 23
ENDMDL
