MODEL 1
REMARK VINA RESULT:      -9.6      0.000      0.000
REMARK SMILES Cc1ccc2c(c1)C=C(C(=O)OCCOCCOCCOCCOC(=O)c1ccc(-c3c4nc(c(-c5ccccc5)c5ccc([nH]5)c(-c5ccccc5)c5nc(c(-c6ccccc6)c6ccc3[nH]6)C=C5)C=C4)cc1)[C@@H](C(F)(F)F)O2
REMARK SMILES IDX 19 1 18 2 17 3 16 4 15 5 14 6 13 7 12 8 10 9 11 10 9 11 1 12
REMARK SMILES IDX 2 13 3 14 7 15 4 16 6 17 5 18 8 19 80 20 75 21 76 22 77 23
REMARK SMILES IDX 78 24 79 25 20 26 21 27 22 28 23 29 24 30 25 31 26 32 27 33
REMARK SMILES IDX 28 34 74 35 29 36 73 37 30 38 31 39 32 40 67 41 33 42 72 43
REMARK SMILES IDX 66 44 68 45 34 46 71 47 65 48 64 49 35 51 57 52 42 53 56 54
REMARK SMILES IDX 43 55 46 56 55 57 69 58 44 59 45 60 54 62 70 63 47 64 36 65
REMARK SMILES IDX 37 66 41 67 38 68 40 69 39 70 58 71 59 72 63 73 60 74 62 75
REMARK SMILES IDX 61 76 48 77 49 78 53 79 50 80 52 81 51 82
REMARK H PARENT 68 50 46 61
REMARK Flexibility Score: inf
ROOT
ATOM      1  C   UNL A   1      32.546  29.238  25.062  1.00  0.00     0.188 C 
ENDROOT
BRANCH   1   2
ATOM      2  O   UNL A   1      31.651  28.125  25.091  1.00  0.00    -0.377 OA
BRANCH   2   3
ATOM      3  C   UNL A   1      30.551  28.151  24.193  1.00  0.00     0.188 C 
BRANCH   3   4
ATOM      4  C   UNL A   1      30.996  28.199  22.719  1.00  0.00     0.188 C 
BRANCH   4   5
ATOM      5  O   UNL A   1      31.313  26.912  22.198  1.00  0.00    -0.376 OA
BRANCH   5   6
ATOM      6  C   UNL A   1      32.631  26.695  21.712  1.00  0.00     0.202 C 
BRANCH   6   7
ATOM      7  C   UNL A   1      33.524  25.668  22.429  1.00  0.00     0.261 C 
BRANCH   7   8
ATOM      8  O   UNL A   1      33.529  25.738  23.862  1.00  0.00    -0.460 OA
BRANCH   8   9
ATOM      9  C   UNL A   1      32.884  24.773  24.545  1.00  0.00     0.338 C 
ATOM     10  O   UNL A   1      31.723  24.791  24.911  1.00  0.00    -0.246 OA
BRANCH   9  11
ATOM     11  C   UNL A   1      33.788  23.602  24.630  1.00  0.00     0.087 C 
ATOM     12  C   UNL A   1      39.551  21.974  26.111  1.00  0.00     0.044 C 
ATOM     13  C   UNL A   1      38.135  21.776  25.657  1.00  0.00    -0.050 A 
ATOM     14  C   UNL A   1      37.676  20.507  25.284  1.00  0.00     0.007 A 
ATOM     15  C   UNL A   1      37.244  22.857  25.628  1.00  0.00     0.015 A 
ATOM     16  C   UNL A   1      36.351  20.328  24.882  1.00  0.00     0.047 A 
ATOM     17  C   UNL A   1      35.924  22.686  25.190  1.00  0.00     0.017 A 
ATOM     18  C   UNL A   1      35.476  21.414  24.836  1.00  0.00     0.128 A 
ATOM     19  C   UNL A   1      35.035  23.829  25.061  1.00  0.00     0.027 C 
ATOM     20  O   UNL A   1      34.206  21.142  24.421  1.00  0.00    -0.475 OA
ATOM     21  C   UNL A   1      33.243  22.228  24.325  1.00  0.00     0.316 C 
BRANCH  21  22
ATOM     22  C   UNL A   1      32.587  22.157  22.938  1.00  0.00     0.430 C 
ATOM     23  F   UNL A   1      33.364  22.742  21.994  1.00  0.00    -0.167 F 
ATOM     24  F   UNL A   1      32.387  20.881  22.533  1.00  0.00    -0.167 F 
ATOM     25  F   UNL A   1      31.385  22.777  22.916  1.00  0.00    -0.167 F 
ENDBRANCH  21  22
ENDBRANCH   9  11
ENDBRANCH   8   9
ENDBRANCH   7   8
ENDBRANCH   6   7
ENDBRANCH   5   6
ENDBRANCH   4   5
ENDBRANCH   3   4
ENDBRANCH   2   3
ENDBRANCH   1   2
BRANCH   1  26
ATOM     26  C   UNL A   1      33.205  29.781  26.352  1.00  0.00     0.188 C 
BRANCH  26  27
ATOM     27  O   UNL A   1      32.317  30.520  27.187  1.00  0.00    -0.376 OA
BRANCH  27  28
ATOM     28  C   UNL A   1      31.459  31.457  26.550  1.00  0.00     0.202 C 
BRANCH  28  29
ATOM     29  C   UNL A   1      31.722  32.914  26.948  1.00  0.00     0.261 C 
BRANCH  29  30
ATOM     30  O   UNL A   1      33.069  33.198  27.355  1.00  0.00    -0.460 OA
BRANCH  30  31
ATOM     31  C   UNL A   1      33.249  34.098  28.346  1.00  0.00     0.338 C 
ATOM     32  O   UNL A   1      32.453  34.935  28.736  1.00  0.00    -0.246 OA
BRANCH  31  33
ATOM     33  C   UNL A   1      34.516  33.764  29.028  1.00  0.00     0.060 A 
ATOM     34  C   UNL A   1      34.511  33.006  30.203  1.00  0.00     0.016 A 
ATOM     35  C   UNL A   1      35.722  34.238  28.496  1.00  0.00     0.016 A 
ATOM     36  C   UNL A   1      35.720  32.681  30.818  1.00  0.00     0.010 A 
ATOM     37  C   UNL A   1      36.933  33.914  29.114  1.00  0.00     0.010 A 
ATOM     38  C   UNL A   1      36.940  33.104  30.259  1.00  0.00    -0.014 A 
BRANCH  38  39
ATOM     39  C   UNL A   1      38.203  32.492  30.738  1.00  0.00     0.031 A 
ATOM     40  C   UNL A   1      38.959  33.014  31.919  1.00  0.00     0.074 A 
ATOM     41  C   UNL A   1      38.658  31.419  30.063  1.00  0.00     0.049 A 
ATOM     42  N   UNL A   1      39.994  32.482  32.520  1.00  0.00    -0.248 NA
ATOM     43  C   UNL A   1      38.513  34.290  32.495  1.00  0.00     0.031 C 
ATOM     44  C   UNL A   1      38.021  30.851  28.873  1.00  0.00     0.029 A 
ATOM     45  N   UNL A   1      39.739  30.607  30.285  1.00  0.00    -0.354 N 
ATOM     46  C   UNL A   1      40.311  33.341  33.562  1.00  0.00     0.074 A 
ATOM     47  C   UNL A   1      39.389  34.456  33.480  1.00  0.00     0.031 C 
ATOM     48  C   UNL A   1      38.697  29.758  28.496  1.00  0.00     0.029 A 
ATOM     49  C   UNL A   1      39.826  29.561  29.399  1.00  0.00     0.049 A 
ATOM     50  H   UNL A   1      40.388  30.757  31.010  1.00  0.00     0.167 HD
ATOM     51  C   UNL A   1      41.276  33.197  34.503  1.00  0.00     0.031 A 
ATOM     52  C   UNL A   1      40.703  28.543  29.325  1.00  0.00     0.031 A 
ATOM     53  C   UNL A   1      42.206  32.096  34.555  1.00  0.00     0.049 A 
ATOM     54  C   UNL A   1      41.776  28.422  30.366  1.00  0.00     0.074 A 
ATOM     55  C   UNL A   1      43.182  31.841  35.505  1.00  0.00     0.029 A 
ATOM     56  N   UNL A   1      42.292  31.079  33.616  1.00  0.00    -0.354 N 
ATOM     57  N   UNL A   1      42.001  29.188  31.406  1.00  0.00    -0.248 NA
ATOM     58  C   UNL A   1      42.701  27.288  30.239  1.00  0.00     0.031 C 
ATOM     59  C   UNL A   1      43.904  30.716  35.102  1.00  0.00     0.029 A 
ATOM     60  C   UNL A   1      43.329  30.218  33.943  1.00  0.00     0.049 A 
ATOM     61  H   UNL A   1      41.704  30.981  32.832  1.00  0.00     0.167 HD
ATOM     62  C   UNL A   1      43.081  28.618  32.069  1.00  0.00     0.074 A 
ATOM     63  C   UNL A   1      43.449  27.431  31.325  1.00  0.00     0.031 C 
ATOM     64  C   UNL A   1      43.705  29.046  33.192  1.00  0.00     0.031 A 
BRANCH  51  65
ATOM     65  C   UNL A   1      41.384  34.244  35.580  1.00  0.00    -0.014 A 
ATOM     66  C   UNL A   1      40.652  34.106  36.771  1.00  0.00     0.009 A 
ATOM     67  C   UNL A   1      42.102  35.430  35.361  1.00  0.00     0.009 A 
ATOM     68  C   UNL A   1      40.622  35.140  37.710  1.00  0.00     0.001 A 
ATOM     69  C   UNL A   1      42.092  36.451  36.315  1.00  0.00     0.001 A 
ATOM     70  C   UNL A   1      41.343  36.310  37.482  1.00  0.00     0.000 A 
ENDBRANCH  51  65
BRANCH  52  71
ATOM     71  C   UNL A   1      40.545  27.531  28.249  1.00  0.00    -0.014 A 
ATOM     72  C   UNL A   1      39.719  26.410  28.438  1.00  0.00     0.009 A 
ATOM     73  C   UNL A   1      41.277  27.641  27.057  1.00  0.00     0.009 A 
ATOM     74  C   UNL A   1      39.651  25.409  27.468  1.00  0.00     0.001 A 
ATOM     75  C   UNL A   1      41.180  26.653  26.074  1.00  0.00     0.001 A 
ATOM     76  C   UNL A   1      40.377  25.533  26.285  1.00  0.00     0.000 A 
ENDBRANCH  52  71
BRANCH  64  77
ATOM     77  C   UNL A   1      44.865  28.233  33.702  1.00  0.00    -0.014 A 
ATOM     78  C   UNL A   1      46.166  28.512  33.254  1.00  0.00     0.009 A 
ATOM     79  C   UNL A   1      44.663  27.137  34.555  1.00  0.00     0.009 A 
ATOM     80  C   UNL A   1      47.238  27.703  33.636  1.00  0.00     0.001 A 
ATOM     81  C   UNL A   1      45.742  26.350  34.963  1.00  0.00     0.001 A 
ATOM     82  C   UNL A   1      47.025  26.626  34.495  1.00  0.00     0.000 A 
ENDBRANCH  64  77
ENDBRANCH  38  39
ENDBRANCH  31  33
ENDBRANCH  30  31
ENDBRANCH  29  30
ENDBRANCH  28  29
ENDBRANCH  27  28
ENDBRANCH  26  27
ENDBRANCH   1  26
TORSDOF 21
ENDMDL
MODEL 2
REMARK VINA RESULT:      -9.4      3.507      8.278
REMARK SMILES Cc1ccc2c(c1)C=C(C(=O)OCCOCCOCCOCCOC(=O)c1ccc(-c3c4nc(c(-c5ccccc5)c5ccc([nH]5)c(-c5ccccc5)c5nc(c(-c6ccccc6)c6ccc3[nH]6)C=C5)C=C4)cc1)[C@@H](C(F)(F)F)O2
REMARK SMILES IDX 19 1 18 2 17 3 16 4 15 5 14 6 13 7 12 8 10 9 11 10 9 11 1 12
REMARK SMILES IDX 2 13 3 14 7 15 4 16 6 17 5 18 8 19 80 20 75 21 76 22 77 23
REMARK SMILES IDX 78 24 79 25 20 26 21 27 22 28 23 29 24 30 25 31 26 32 27 33
REMARK SMILES IDX 28 34 74 35 29 36 73 37 30 38 31 39 32 40 67 41 33 42 72 43
REMARK SMILES IDX 66 44 68 45 34 46 71 47 65 48 64 49 35 51 57 52 42 53 56 54
REMARK SMILES IDX 43 55 46 56 55 57 69 58 44 59 45 60 54 62 70 63 47 64 36 65
REMARK SMILES IDX 37 66 41 67 38 68 40 69 39 70 58 71 59 72 63 73 60 74 62 75
REMARK SMILES IDX 61 76 48 77 49 78 53 79 50 80 52 81 51 82
REMARK H PARENT 68 50 46 61
REMARK Flexibility Score: inf
ROOT
ATOM      1  C   UNL A   1      35.905  23.626  25.556  1.00  0.00     0.188 C 
ENDROOT
BRANCH   1   2
ATOM      2  O   UNL A   1      35.208  24.697  24.919  1.00  0.00    -0.377 OA
BRANCH   2   3
ATOM      3  C   UNL A   1      34.334  25.475  25.725  1.00  0.00     0.188 C 
BRANCH   3   4
ATOM      4  C   UNL A   1      33.599  26.561  24.917  1.00  0.00     0.188 C 
BRANCH   4   5
ATOM      5  O   UNL A   1      33.972  26.570  23.541  1.00  0.00    -0.376 OA
BRANCH   5   6
ATOM      6  C   UNL A   1      32.971  26.885  22.582  1.00  0.00     0.202 C 
BRANCH   6   7
ATOM      7  C   UNL A   1      32.109  25.747  22.010  1.00  0.00     0.261 C 
BRANCH   7   8
ATOM      8  O   UNL A   1      32.323  24.451  22.590  1.00  0.00    -0.460 OA
BRANCH   8   9
ATOM      9  C   UNL A   1      31.294  23.869  23.233  1.00  0.00     0.338 C 
ATOM     10  O   UNL A   1      30.118  24.175  23.154  1.00  0.00    -0.246 OA
BRANCH   9  11
ATOM     11  C   UNL A   1      31.819  22.673  23.933  1.00  0.00     0.087 C 
ATOM     12  C   UNL A   1      33.372  16.771  23.030  1.00  0.00     0.044 C 
ATOM     13  C   UNL A   1      33.179  18.045  23.799  1.00  0.00    -0.050 A 
ATOM     14  C   UNL A   1      33.457  18.100  25.169  1.00  0.00     0.007 A 
ATOM     15  C   UNL A   1      32.744  19.206  23.146  1.00  0.00     0.015 A 
ATOM     16  C   UNL A   1      33.294  19.295  25.874  1.00  0.00     0.047 A 
ATOM     17  C   UNL A   1      32.545  20.396  23.858  1.00  0.00     0.017 A 
ATOM     18  C   UNL A   1      32.840  20.441  25.220  1.00  0.00     0.128 A 
ATOM     19  C   UNL A   1      31.993  21.568  23.198  1.00  0.00     0.027 C 
ATOM     20  O   UNL A   1      32.703  21.556  25.992  1.00  0.00    -0.475 OA
ATOM     21  C   UNL A   1      32.212  22.783  25.385  1.00  0.00     0.316 C 
BRANCH  21  22
ATOM     22  C   UNL A   1      31.067  23.318  26.260  1.00  0.00     0.430 C 
ATOM     23  F   UNL A   1      30.886  24.648  26.077  1.00  0.00    -0.167 F 
ATOM     24  F   UNL A   1      29.885  22.725  25.970  1.00  0.00    -0.167 F 
ATOM     25  F   UNL A   1      31.303  23.117  27.577  1.00  0.00    -0.167 F 
ENDBRANCH  21  22
ENDBRANCH   9  11
ENDBRANCH   8   9
ENDBRANCH   7   8
ENDBRANCH   6   7
ENDBRANCH   5   6
ENDBRANCH   4   5
ENDBRANCH   3   4
ENDBRANCH   2   3
ENDBRANCH   1   2
BRANCH   1  26
ATOM     26  C   UNL A   1      37.442  23.652  25.735  1.00  0.00     0.188 C 
BRANCH  26  27
ATOM     27  O   UNL A   1      38.025  22.363  25.907  1.00  0.00    -0.376 OA
BRANCH  27  28
ATOM     28  C   UNL A   1      37.704  21.372  24.940  1.00  0.00     0.202 C 
BRANCH  28  29
ATOM     29  C   UNL A   1      38.616  20.141  24.982  1.00  0.00     0.261 C 
BRANCH  29  30
ATOM     30  O   UNL A   1      39.316  19.947  26.220  1.00  0.00    -0.460 OA
BRANCH  30  31
ATOM     31  C   UNL A   1      40.658  19.800  26.167  1.00  0.00     0.338 C 
ATOM     32  O   UNL A   1      41.280  18.884  25.656  1.00  0.00    -0.246 OA
BRANCH  31  33
ATOM     33  C   UNL A   1      41.264  21.054  26.660  1.00  0.00     0.060 A 
ATOM     34  C   UNL A   1      41.905  21.927  25.776  1.00  0.00     0.016 A 
ATOM     35  C   UNL A   1      41.211  21.344  28.029  1.00  0.00     0.016 A 
ATOM     36  C   UNL A   1      42.450  23.117  26.258  1.00  0.00     0.010 A 
ATOM     37  C   UNL A   1      41.759  22.536  28.512  1.00  0.00     0.010 A 
ATOM     38  C   UNL A   1      42.351  23.446  27.623  1.00  0.00    -0.014 A 
BRANCH  38  39
ATOM     39  C   UNL A   1      42.646  24.832  28.054  1.00  0.00     0.031 A 
ATOM     40  C   UNL A   1      41.587  25.879  28.202  1.00  0.00     0.074 A 
ATOM     41  C   UNL A   1      43.933  25.128  28.323  1.00  0.00     0.049 A 
ATOM     42  N   UNL A   1      41.699  27.081  28.708  1.00  0.00    -0.248 NA
ATOM     43  C   UNL A   1      40.240  25.547  27.720  1.00  0.00     0.031 C 
ATOM     44  C   UNL A   1      45.052  24.196  28.173  1.00  0.00     0.029 A 
ATOM     45  N   UNL A   1      44.514  26.278  28.792  1.00  0.00    -0.354 N 
ATOM     46  C   UNL A   1      40.435  27.646  28.629  1.00  0.00     0.074 A 
ATOM     47  C   UNL A   1      39.581  26.671  27.981  1.00  0.00     0.031 C 
ATOM     48  C   UNL A   1      46.177  24.795  28.584  1.00  0.00     0.029 A 
ATOM     49  C   UNL A   1      45.866  26.158  29.002  1.00  0.00     0.049 A 
ATOM     50  H   UNL A   1      44.011  27.107  28.963  1.00  0.00     0.167 HD
ATOM     51  C   UNL A   1      40.029  28.861  29.074  1.00  0.00     0.031 A 
ATOM     52  C   UNL A   1      46.760  27.036  29.494  1.00  0.00     0.031 A 
ATOM     53  C   UNL A   1      40.898  29.834  29.691  1.00  0.00     0.049 A 
ATOM     54  C   UNL A   1      46.287  28.382  29.954  1.00  0.00     0.074 A 
ATOM     55  C   UNL A   1      40.562  31.070  30.220  1.00  0.00     0.029 A 
ATOM     56  N   UNL A   1      42.269  29.695  29.848  1.00  0.00    -0.354 N 
ATOM     57  N   UNL A   1      45.068  28.866  29.968  1.00  0.00    -0.248 NA
ATOM     58  C   UNL A   1      47.306  29.297  30.487  1.00  0.00     0.031 C 
ATOM     59  C   UNL A   1      41.736  31.707  30.627  1.00  0.00     0.029 A 
ATOM     60  C   UNL A   1      42.797  30.837  30.429  1.00  0.00     0.049 A 
ATOM     61  H   UNL A   1      42.790  28.902  29.586  1.00  0.00     0.167 HD
ATOM     62  C   UNL A   1      45.169  30.132  30.528  1.00  0.00     0.074 A 
ATOM     63  C   UNL A   1      46.565  30.333  30.861  1.00  0.00     0.031 C 
ATOM     64  C   UNL A   1      44.189  31.042  30.744  1.00  0.00     0.031 A 
BRANCH  51  65
ATOM     65  C   UNL A   1      38.576  29.225  28.930  1.00  0.00    -0.014 A 
ATOM     66  C   UNL A   1      38.126  29.885  27.774  1.00  0.00     0.009 A 
ATOM     67  C   UNL A   1      37.678  29.036  29.993  1.00  0.00     0.009 A 
ATOM     68  C   UNL A   1      36.817  30.365  27.694  1.00  0.00     0.001 A 
ATOM     69  C   UNL A   1      36.361  29.492  29.898  1.00  0.00     0.001 A 
ATOM     70  C   UNL A   1      35.935  30.167  28.755  1.00  0.00     0.000 A 
ENDBRANCH  51  65
BRANCH  52  71
ATOM     71  C   UNL A   1      48.181  26.622  29.624  1.00  0.00    -0.014 A 
ATOM     72  C   UNL A   1      49.086  26.833  28.570  1.00  0.00     0.009 A 
ATOM     73  C   UNL A   1      48.621  25.946  30.772  1.00  0.00     0.009 A 
ATOM     74  C   UNL A   1      50.394  26.352  28.653  1.00  0.00     0.001 A 
ATOM     75  C   UNL A   1      49.940  25.496  30.864  1.00  0.00     0.001 A 
ATOM     76  C   UNL A   1      50.821  25.689  29.801  1.00  0.00     0.000 A 
ENDBRANCH  52  71
BRANCH  64  77
ATOM     77  C   UNL A   1      44.578  32.354  31.371  1.00  0.00    -0.014 A 
ATOM     78  C   UNL A   1      44.405  32.548  32.752  1.00  0.00     0.009 A 
ATOM     79  C   UNL A   1      45.030  33.428  30.589  1.00  0.00     0.009 A 
ATOM     80  C   UNL A   1      44.663  33.791  33.333  1.00  0.00     0.001 A 
ATOM     81  C   UNL A   1      45.320  34.660  31.178  1.00  0.00     0.001 A 
ATOM     82  C   UNL A   1      45.125  34.844  32.546  1.00  0.00     0.000 A 
ENDBRANCH  64  77
ENDBRANCH  38  39
ENDBRANCH  31  33
ENDBRANCH  30  31
ENDBRANCH  29  30
ENDBRANCH  28  29
ENDBRANCH  27  28
ENDBRANCH  26  27
ENDBRANCH   1  26
TORSDOF 21
ENDMDL
MODEL 3
REMARK VINA RESULT:      -9.4      3.872      8.524
REMARK SMILES Cc1ccc2c(c1)C=C(C(=O)OCCOCCOCCOCCOC(=O)c1ccc(-c3c4nc(c(-c5ccccc5)c5ccc([nH]5)c(-c5ccccc5)c5nc(c(-c6ccccc6)c6ccc3[nH]6)C=C5)C=C4)cc1)[C@@H](C(F)(F)F)O2
REMARK SMILES IDX 19 1 18 2 17 3 16 4 15 5 14 6 13 7 12 8 10 9 11 10 9 11 1 12
REMARK SMILES IDX 2 13 3 14 7 15 4 16 6 17 5 18 8 19 80 20 75 21 76 22 77 23
REMARK SMILES IDX 78 24 79 25 20 26 21 27 22 28 23 29 24 30 25 31 26 32 27 33
REMARK SMILES IDX 28 34 74 35 29 36 73 37 30 38 31 39 32 40 67 41 33 42 72 43
REMARK SMILES IDX 66 44 68 45 34 46 71 47 65 48 64 49 35 51 57 52 42 53 56 54
REMARK SMILES IDX 43 55 46 56 55 57 69 58 44 59 45 60 54 62 70 63 47 64 36 65
REMARK SMILES IDX 37 66 41 67 38 68 40 69 39 70 58 71 59 72 63 73 60 74 62 75
REMARK SMILES IDX 61 76 48 77 49 78 53 79 50 80 52 81 51 82
REMARK H PARENT 68 50 46 61
REMARK Flexibility Score: inf
ROOT
ATOM      1  C   UNL A   1      35.653  23.695  25.845  1.00  0.00     0.188 C 
ENDROOT
BRANCH   1   2
ATOM      2  O   UNL A   1      34.884  24.598  25.049  1.00  0.00    -0.377 OA
BRANCH   2   3
ATOM      3  C   UNL A   1      34.254  25.680  25.718  1.00  0.00     0.188 C 
BRANCH   3   4
ATOM      4  C   UNL A   1      33.418  26.555  24.765  1.00  0.00     0.188 C 
BRANCH   4   5
ATOM      5  O   UNL A   1      33.913  26.540  23.429  1.00  0.00    -0.376 OA
BRANCH   5   6
ATOM      6  C   UNL A   1      32.986  26.750  22.372  1.00  0.00     0.202 C 
BRANCH   6   7
ATOM      7  C   UNL A   1      32.101  25.576  21.921  1.00  0.00     0.261 C 
BRANCH   7   8
ATOM      8  O   UNL A   1      32.326  24.329  22.595  1.00  0.00    -0.460 OA
BRANCH   8   9
ATOM      9  C   UNL A   1      31.287  23.758  23.233  1.00  0.00     0.338 C 
ATOM     10  O   UNL A   1      30.115  24.073  23.143  1.00  0.00    -0.246 OA
BRANCH   9  11
ATOM     11  C   UNL A   1      31.797  22.563  23.944  1.00  0.00     0.087 C 
ATOM     12  C   UNL A   1      33.406  16.672  23.069  1.00  0.00     0.044 C 
ATOM     13  C   UNL A   1      33.184  17.942  23.836  1.00  0.00    -0.050 A 
ATOM     14  C   UNL A   1      33.421  17.994  25.214  1.00  0.00     0.007 A 
ATOM     15  C   UNL A   1      32.763  19.104  23.174  1.00  0.00     0.015 A 
ATOM     16  C   UNL A   1      33.232  19.186  25.917  1.00  0.00     0.047 A 
ATOM     17  C   UNL A   1      32.536  20.290  23.883  1.00  0.00     0.017 A 
ATOM     18  C   UNL A   1      32.791  20.331  25.254  1.00  0.00     0.128 A 
ATOM     19  C   UNL A   1      31.998  21.461  23.211  1.00  0.00     0.027 C 
ATOM     20  O   UNL A   1      32.626  21.444  26.026  1.00  0.00    -0.475 OA
ATOM     21  C   UNL A   1      32.147  22.670  25.408  1.00  0.00     0.316 C 
BRANCH  21  22
ATOM     22  C   UNL A   1      30.974  23.196  26.250  1.00  0.00     0.430 C 
ATOM     23  F   UNL A   1      31.194  23.010  27.573  1.00  0.00    -0.167 F 
ATOM     24  F   UNL A   1      30.775  24.523  26.076  1.00  0.00    -0.167 F 
ATOM     25  F   UNL A   1      29.813  22.573  25.940  1.00  0.00    -0.167 F 
ENDBRANCH  21  22
ENDBRANCH   9  11
ENDBRANCH   8   9
ENDBRANCH   7   8
ENDBRANCH   6   7
ENDBRANCH   5   6
ENDBRANCH   4   5
ENDBRANCH   3   4
ENDBRANCH   2   3
ENDBRANCH   1   2
BRANCH   1  26
ATOM     26  C   UNL A   1      37.199  23.751  25.869  1.00  0.00     0.188 C 
BRANCH  26  27
ATOM     27  O   UNL A   1      37.821  22.476  26.005  1.00  0.00    -0.376 OA
BRANCH  27  28
ATOM     28  C   UNL A   1      37.614  21.539  24.957  1.00  0.00     0.202 C 
BRANCH  28  29
ATOM     29  C   UNL A   1      38.550  20.327  25.010  1.00  0.00     0.261 C 
BRANCH  29  30
ATOM     30  O   UNL A   1      39.254  20.158  26.250  1.00  0.00    -0.460 OA
BRANCH  30  31
ATOM     31  C   UNL A   1      40.585  19.936  26.191  1.00  0.00     0.338 C 
ATOM     32  O   UNL A   1      41.154  18.997  25.662  1.00  0.00    -0.246 OA
BRANCH  31  33
ATOM     33  C   UNL A   1      41.262  21.145  26.705  1.00  0.00     0.060 A 
ATOM     34  C   UNL A   1      41.774  22.100  25.823  1.00  0.00     0.016 A 
ATOM     35  C   UNL A   1      41.406  21.308  28.089  1.00  0.00     0.016 A 
ATOM     36  C   UNL A   1      42.389  23.246  26.330  1.00  0.00     0.010 A 
ATOM     37  C   UNL A   1      42.023  22.455  28.596  1.00  0.00     0.010 A 
ATOM     38  C   UNL A   1      42.487  23.447  27.719  1.00  0.00    -0.014 A 
BRANCH  38  39
ATOM     39  C   UNL A   1      42.848  24.791  28.229  1.00  0.00     0.031 A 
ATOM     40  C   UNL A   1      44.262  25.211  28.476  1.00  0.00     0.074 A 
ATOM     41  C   UNL A   1      41.836  25.648  28.464  1.00  0.00     0.049 A 
ATOM     42  N   UNL A   1      44.714  26.401  28.783  1.00  0.00    -0.248 NA
ATOM     43  C   UNL A   1      45.300  24.176  28.378  1.00  0.00     0.031 C 
ATOM     44  C   UNL A   1      40.416  25.330  28.296  1.00  0.00     0.029 A 
ATOM     45  N   UNL A   1      41.840  26.957  28.872  1.00  0.00    -0.354 N 
ATOM     46  C   UNL A   1      46.091  26.269  28.891  1.00  0.00     0.074 A 
ATOM     47  C   UNL A   1      46.395  24.870  28.666  1.00  0.00     0.031 C 
ATOM     48  C   UNL A   1      39.690  26.425  28.555  1.00  0.00     0.029 A 
ATOM     49  C   UNL A   1      40.586  27.514  28.931  1.00  0.00     0.049 A 
ATOM     50  H   UNL A   1      42.662  27.451  29.098  1.00  0.00     0.167 HD
ATOM     51  C   UNL A   1      47.009  27.234  29.141  1.00  0.00     0.031 A 
ATOM     52  C   UNL A   1      40.193  28.765  29.234  1.00  0.00     0.031 A 
ATOM     53  C   UNL A   1      46.688  28.618  29.393  1.00  0.00     0.049 A 
ATOM     54  C   UNL A   1      41.230  29.806  29.532  1.00  0.00     0.074 A 
ATOM     55  C   UNL A   1      47.558  29.676  29.603  1.00  0.00     0.029 A 
ATOM     56  N   UNL A   1      45.405  29.136  29.488  1.00  0.00    -0.354 N 
ATOM     57  N   UNL A   1      42.536  29.691  29.530  1.00  0.00    -0.248 NA
ATOM     58  C   UNL A   1      40.743  31.156  29.850  1.00  0.00     0.031 C 
ATOM     59  C   UNL A   1      46.804  30.814  29.897  1.00  0.00     0.029 A 
ATOM     60  C   UNL A   1      45.461  30.488  29.791  1.00  0.00     0.049 A 
ATOM     61  H   UNL A   1      44.576  28.620  29.358  1.00  0.00     0.167 HD
ATOM     62  C   UNL A   1      43.029  30.954  29.828  1.00  0.00     0.074 A 
ATOM     63  C   UNL A   1      41.881  31.825  29.981  1.00  0.00     0.031 C 
ATOM     64  C   UNL A   1      44.317  31.350  29.961  1.00  0.00     0.031 A 
BRANCH  51  65
ATOM     65  C   UNL A   1      48.465  26.851  29.146  1.00  0.00    -0.014 A 
ATOM     66  C   UNL A   1      49.156  26.699  27.932  1.00  0.00     0.009 A 
ATOM     67  C   UNL A   1      49.115  26.508  30.341  1.00  0.00     0.009 A 
ATOM     68  C   UNL A   1      50.458  26.195  27.915  1.00  0.00     0.001 A 
ATOM     69  C   UNL A   1      50.428  26.030  30.323  1.00  0.00     0.001 A 
ATOM     70  C   UNL A   1      51.094  25.863  29.109  1.00  0.00     0.000 A 
ENDBRANCH  51  65
BRANCH  52  71
ATOM     71  C   UNL A   1      38.744  29.093  29.205  1.00  0.00    -0.014 A 
ATOM     72  C   UNL A   1      38.136  29.533  28.017  1.00  0.00     0.009 A 
ATOM     73  C   UNL A   1      37.980  29.042  30.380  1.00  0.00     0.009 A 
ATOM     74  C   UNL A   1      36.800  29.939  28.014  1.00  0.00     0.001 A 
ATOM     75  C   UNL A   1      36.635  29.418  30.366  1.00  0.00     0.001 A 
ATOM     76  C   UNL A   1      36.050  29.876  29.186  1.00  0.00     0.000 A 
ENDBRANCH  52  71
BRANCH  64  77
ATOM     77  C   UNL A   1      44.575  32.795  30.293  1.00  0.00    -0.014 A 
ATOM     78  C   UNL A   1      44.769  33.727  29.260  1.00  0.00     0.009 A 
ATOM     79  C   UNL A   1      44.716  33.220  31.623  1.00  0.00     0.009 A 
ATOM     80  C   UNL A   1      45.111  35.049  29.550  1.00  0.00     0.001 A 
ATOM     81  C   UNL A   1      45.024  34.552  31.911  1.00  0.00     0.001 A 
ATOM     82  C   UNL A   1      45.232  35.461  30.876  1.00  0.00     0.000 A 
ENDBRANCH  64  77
ENDBRANCH  38  39
ENDBRANCH  31  33
ENDBRANCH  30  31
ENDBRANCH  29  30
ENDBRANCH  28  29
ENDBRANCH  27  28
ENDBRANCH  26  27
ENDBRANCH   1  26
TORSDOF 21
ENDMDL
