MODEL 1
REMARK VINA RESULT:     -10.3      0.000      0.000
REMARK SMILES O=C(OCCOCCOCCOCCOC(=O)c1cc2c(Cl)c(C(F)(F)F)cnc2n1S(=O)(=O)c1ccccc1)c1ccc(-c2c3nc(c(-c4ccccc4)c4ccc([nH]4)c(-c4ccccc4)c4nc(c(-c5ccccc5)c5ccc2[nH]5)C=C4)C=C3)cc1
REMARK SMILES IDX 9 1 8 2 7 3 6 4 5 5 4 6 3 7 2 8 1 9 41 10 42 11 88 12 43 13
REMARK SMILES IDX 87 14 44 15 45 16 46 17 81 18 47 19 86 20 80 21 82 22 48 23
REMARK SMILES IDX 85 24 79 25 78 26 49 28 71 29 56 30 70 31 57 32 60 33 69 34
REMARK SMILES IDX 83 35 58 36 59 37 68 39 84 40 61 41 50 42 51 43 55 44 52 45
REMARK SMILES IDX 54 46 53 47 72 48 73 49 77 50 74 51 76 52 75 53 62 54 63 55
REMARK SMILES IDX 67 56 64 57 66 58 65 59 10 60 11 61 12 62 13 63 14 64 15 65
REMARK SMILES IDX 16 66 17 67 18 68 19 69 31 70 20 71 30 72 21 73 29 74 22 75
REMARK SMILES IDX 23 76 28 77 32 78 33 79 34 80 35 81 36 82 40 83 37 84 39 85
REMARK SMILES IDX 38 86 24 87 25 88 26 89 27 90
REMARK H PARENT 82 27 60 38
REMARK Flexibility Score: inf
ROOT
ATOM      1  O   UNL A   1      35.515  33.138  28.996  1.00  0.00    -0.377 OA
ENDROOT
BRANCH   1   2
ATOM      2  C   UNL A   1      34.819  34.246  28.453  1.00  0.00     0.188 C 
BRANCH   2   3
ATOM      3  C   UNL A   1      33.335  34.325  28.836  1.00  0.00     0.188 C 
BRANCH   3   4
ATOM      4  O   UNL A   1      32.901  34.796  30.113  1.00  0.00    -0.376 OA
BRANCH   4   5
ATOM      5  C   UNL A   1      33.473  35.880  30.814  1.00  0.00     0.202 C 
BRANCH   5   6
ATOM      6  C   UNL A   1      33.225  35.915  32.327  1.00  0.00     0.261 C 
BRANCH   6   7
ATOM      7  O   UNL A   1      34.389  35.943  33.162  1.00  0.00    -0.460 OA
BRANCH   7   8
ATOM      8  C   UNL A   1      35.064  34.928  33.749  1.00  0.00     0.338 C 
ATOM      9  O   UNL A   1      34.998  34.817  34.973  1.00  0.00    -0.246 OA
BRANCH   8  10
ATOM     10  C   UNL A   1      35.909  33.947  33.020  1.00  0.00     0.060 A 
ATOM     11  C   UNL A   1      35.697  32.568  33.001  1.00  0.00     0.016 A 
ATOM     12  C   UNL A   1      37.043  34.471  32.364  1.00  0.00     0.016 A 
ATOM     13  C   UNL A   1      36.634  31.725  32.457  1.00  0.00     0.010 A 
ATOM     14  C   UNL A   1      38.008  33.629  31.839  1.00  0.00     0.010 A 
ATOM     15  C   UNL A   1      37.818  32.262  31.966  1.00  0.00    -0.014 A 
BRANCH  15  16
ATOM     16  C   UNL A   1      38.866  31.293  31.756  1.00  0.00     0.031 A 
ATOM     17  C   UNL A   1      39.724  30.998  32.922  1.00  0.00     0.074 A 
ATOM     18  C   UNL A   1      39.112  30.849  30.512  1.00  0.00     0.049 A 
ATOM     19  N   UNL A   1      40.976  31.283  33.081  1.00  0.00    -0.248 NA
ATOM     20  C   UNL A   1      39.076  30.398  34.093  1.00  0.00     0.031 C 
ATOM     21  C   UNL A   1      38.244  30.916  29.332  1.00  0.00     0.029 A 
ATOM     22  N   UNL A   1      40.193  30.162  30.070  1.00  0.00    -0.354 N 
ATOM     23  C   UNL A   1      41.323  30.756  34.319  1.00  0.00     0.074 A 
ATOM     24  C   UNL A   1      40.098  30.319  34.943  1.00  0.00     0.031 C 
ATOM     25  C   UNL A   1      38.735  30.088  28.384  1.00  0.00     0.029 A 
ATOM     26  C   UNL A   1      40.007  29.558  28.842  1.00  0.00     0.049 A 
ATOM     27  H   UNL A   1      41.034  30.099  30.578  1.00  0.00     0.167 HD
ATOM     28  C   UNL A   1      42.613  30.519  34.674  1.00  0.00     0.031 A 
ATOM     29  C   UNL A   1      40.802  28.602  28.309  1.00  0.00     0.031 A 
ATOM     30  C   UNL A   1      43.554  31.291  33.916  1.00  0.00     0.049 A 
ATOM     31  C   UNL A   1      42.129  28.718  28.964  1.00  0.00     0.074 A 
ATOM     32  C   UNL A   1      43.809  32.640  33.774  1.00  0.00     0.029 A 
ATOM     33  N   UNL A   1      44.204  30.676  32.874  1.00  0.00    -0.354 N 
ATOM     34  N   UNL A   1      42.929  29.733  28.802  1.00  0.00    -0.248 NA
ATOM     35  C   UNL A   1      42.397  27.896  30.136  1.00  0.00     0.031 C 
ATOM     36  C   UNL A   1      44.191  32.805  32.411  1.00  0.00     0.029 A 
ATOM     37  C   UNL A   1      44.170  31.542  31.813  1.00  0.00     0.049 A 
ATOM     38  H   UNL A   1      44.615  29.781  32.887  1.00  0.00     0.167 HD
ATOM     39  C   UNL A   1      43.536  29.914  30.037  1.00  0.00     0.074 A 
ATOM     40  C   UNL A   1      43.247  28.694  30.785  1.00  0.00     0.031 C 
ATOM     41  C   UNL A   1      43.983  31.142  30.436  1.00  0.00     0.031 A 
BRANCH  28  42
ATOM     42  C   UNL A   1      43.002  29.308  35.473  1.00  0.00    -0.014 A 
ATOM     43  C   UNL A   1      43.785  29.453  36.628  1.00  0.00     0.009 A 
ATOM     44  C   UNL A   1      42.839  28.000  34.971  1.00  0.00     0.009 A 
ATOM     45  C   UNL A   1      44.392  28.345  37.232  1.00  0.00     0.001 A 
ATOM     46  C   UNL A   1      43.408  26.889  35.594  1.00  0.00     0.001 A 
ATOM     47  C   UNL A   1      44.203  27.065  36.716  1.00  0.00     0.000 A 
ENDBRANCH  28  42
BRANCH  29  48
ATOM     48  C   UNL A   1      40.348  27.380  27.610  1.00  0.00    -0.014 A 
ATOM     49  C   UNL A   1      40.981  26.965  26.429  1.00  0.00     0.009 A 
ATOM     50  C   UNL A   1      39.474  26.470  28.236  1.00  0.00     0.009 A 
ATOM     51  C   UNL A   1      40.786  25.671  25.927  1.00  0.00     0.001 A 
ATOM     52  C   UNL A   1      39.269  25.186  27.729  1.00  0.00     0.001 A 
ATOM     53  C   UNL A   1      39.941  24.779  26.583  1.00  0.00     0.000 A 
ENDBRANCH  29  48
BRANCH  41  54
ATOM     54  C   UNL A   1      43.983  32.256  29.419  1.00  0.00    -0.014 A 
ATOM     55  C   UNL A   1      42.937  33.193  29.339  1.00  0.00     0.009 A 
ATOM     56  C   UNL A   1      45.143  32.482  28.666  1.00  0.00     0.009 A 
ATOM     57  C   UNL A   1      43.049  34.320  28.520  1.00  0.00     0.001 A 
ATOM     58  C   UNL A   1      45.260  33.616  27.859  1.00  0.00     0.001 A 
ATOM     59  C   UNL A   1      44.215  34.536  27.787  1.00  0.00     0.000 A 
ENDBRANCH  41  54
ENDBRANCH  15  16
ENDBRANCH   8  10
ENDBRANCH   7   8
ENDBRANCH   6   7
ENDBRANCH   5   6
ENDBRANCH   4   5
ENDBRANCH   3   4
ENDBRANCH   2   3
ENDBRANCH   1   2
BRANCH   1  60
ATOM     60  C   UNL A   1      34.742  31.976  29.192  1.00  0.00     0.188 C 
BRANCH  60  61
ATOM     61  C   UNL A   1      34.485  31.159  27.903  1.00  0.00     0.188 C 
BRANCH  61  62
ATOM     62  O   UNL A   1      33.186  30.726  27.511  1.00  0.00    -0.376 OA
BRANCH  62  63
ATOM     63  C   UNL A   1      32.860  30.547  26.145  1.00  0.00     0.202 C 
BRANCH  63  64
ATOM     64  C   UNL A   1      32.059  29.286  25.808  1.00  0.00     0.261 C 
BRANCH  64  65
ATOM     65  O   UNL A   1      32.800  28.065  25.909  1.00  0.00    -0.459 OA
BRANCH  65  66
ATOM     66  C   UNL A   1      33.601  27.749  24.853  1.00  0.00     0.356 C 
ATOM     67  O   UNL A   1      34.376  28.492  24.293  1.00  0.00    -0.244 OA
BRANCH  66  68
ATOM     68  C   UNL A   1      33.526  26.322  24.624  1.00  0.00     0.145 A 
ATOM     69  C   UNL A   1      33.684  25.307  25.561  1.00  0.00     0.048 A 
ATOM     70  N   UNL A   1      33.250  25.702  23.426  1.00  0.00    -0.209 N 
ATOM     71  C   UNL A   1      33.451  24.058  24.923  1.00  0.00     0.040 A 
ATOM     72  C   UNL A   1      33.226  24.335  23.577  1.00  0.00     0.156 A 
ATOM     73  C   UNL A   1      33.409  22.702  25.301  1.00  0.00     0.065 A 
ATOM     74  N   UNL A   1      33.045  23.410  22.617  1.00  0.00    -0.237 NA
ATOM     75  Cl  UNL A   1      33.520  22.410  26.982  1.00  0.00    -0.083 Cl
ATOM     76  C   UNL A   1      33.272  21.706  24.341  1.00  0.00     0.093 A 
ATOM     77  C   UNL A   1      33.105  22.127  23.033  1.00  0.00     0.128 A 
BRANCH  70  78
ATOM     78  S   UNL A   1      32.732  26.532  22.041  1.00  0.00     0.270 S 
ATOM     79  O   UNL A   1      33.829  27.422  21.713  1.00  0.00    -0.201 OA
ATOM     80  O   UNL A   1      32.284  25.496  21.127  1.00  0.00    -0.201 OA
BRANCH  78  81
ATOM     81  C   UNL A   1      31.319  27.488  22.485  1.00  0.00     0.088 A 
ATOM     82  C   UNL A   1      30.235  26.863  23.109  1.00  0.00     0.022 A 
ATOM     83  C   UNL A   1      31.296  28.859  22.205  1.00  0.00     0.022 A 
ATOM     84  C   UNL A   1      29.142  27.632  23.502  1.00  0.00     0.001 A 
ATOM     85  C   UNL A   1      30.208  29.621  22.619  1.00  0.00     0.001 A 
ATOM     86  C   UNL A   1      29.136  29.009  23.271  1.00  0.00     0.000 A 
ENDBRANCH  78  81
ENDBRANCH  70  78
BRANCH  76  87
ATOM     87  C   UNL A   1      33.296  20.250  24.665  1.00  0.00     0.419 C 
ATOM     88  F   UNL A   1      33.107  19.453  23.578  1.00  0.00    -0.166 F 
ATOM     89  F   UNL A   1      34.467  19.855  25.233  1.00  0.00    -0.166 F 
ATOM     90  F   UNL A   1      32.321  19.888  25.546  1.00  0.00    -0.166 F 
ENDBRANCH  76  87
ENDBRANCH  66  68
ENDBRANCH  65  66
ENDBRANCH  64  65
ENDBRANCH  63  64
ENDBRANCH  62  63
ENDBRANCH  61  62
ENDBRANCH  60  61
ENDBRANCH   1  60
TORSDOF 23
ENDMDL
MODEL 2
REMARK VINA RESULT:     -10.1      2.088      3.534
REMARK SMILES O=C(OCCOCCOCCOCCOC(=O)c1cc2c(Cl)c(C(F)(F)F)cnc2n1S(=O)(=O)c1ccccc1)c1ccc(-c2c3nc(c(-c4ccccc4)c4ccc([nH]4)c(-c4ccccc4)c4nc(c(-c5ccccc5)c5ccc2[nH]5)C=C4)C=C3)cc1
REMARK SMILES IDX 9 1 8 2 7 3 6 4 5 5 4 6 3 7 2 8 1 9 41 10 42 11 88 12 43 13
REMARK SMILES IDX 87 14 44 15 45 16 46 17 81 18 47 19 86 20 80 21 82 22 48 23
REMARK SMILES IDX 85 24 79 25 78 26 49 28 71 29 56 30 70 31 57 32 60 33 69 34
REMARK SMILES IDX 83 35 58 36 59 37 68 39 84 40 61 41 50 42 51 43 55 44 52 45
REMARK SMILES IDX 54 46 53 47 72 48 73 49 77 50 74 51 76 52 75 53 62 54 63 55
REMARK SMILES IDX 67 56 64 57 66 58 65 59 10 60 11 61 12 62 13 63 14 64 15 65
REMARK SMILES IDX 16 66 17 67 18 68 19 69 31 70 20 71 30 72 21 73 29 74 22 75
REMARK SMILES IDX 23 76 28 77 32 78 33 79 34 80 35 81 36 82 40 83 37 84 39 85
REMARK SMILES IDX 38 86 24 87 25 88 26 89 27 90
REMARK H PARENT 82 27 60 38
REMARK Flexibility Score: inf
ROOT
ATOM      1  O   UNL A   1      31.109  30.241  25.468  1.00  0.00    -0.377 OA
ENDROOT
BRANCH   1   2
ATOM      2  C   UNL A   1      30.956  31.632  25.683  1.00  0.00     0.188 C 
BRANCH   2   3
ATOM      3  C   UNL A   1      31.442  32.130  27.052  1.00  0.00     0.188 C 
BRANCH   3   4
ATOM      4  O   UNL A   1      32.001  33.432  27.234  1.00  0.00    -0.376 OA
BRANCH   4   5
ATOM      5  C   UNL A   1      33.276  33.697  27.780  1.00  0.00     0.202 C 
BRANCH   5   6
ATOM      6  C   UNL A   1      33.368  34.890  28.738  1.00  0.00     0.261 C 
BRANCH   6   7
ATOM      7  O   UNL A   1      32.733  34.734  30.014  1.00  0.00    -0.460 OA
BRANCH   7   8
ATOM      8  C   UNL A   1      33.242  34.856  31.261  1.00  0.00     0.338 C 
ATOM      9  O   UNL A   1      32.638  35.562  32.069  1.00  0.00    -0.246 OA
BRANCH   8  10
ATOM     10  C   UNL A   1      34.503  34.219  31.722  1.00  0.00     0.060 A 
ATOM     11  C   UNL A   1      35.729  34.873  31.847  1.00  0.00     0.016 A 
ATOM     12  C   UNL A   1      34.440  32.834  31.980  1.00  0.00     0.016 A 
ATOM     13  C   UNL A   1      36.876  34.163  32.100  1.00  0.00     0.010 A 
ATOM     14  C   UNL A   1      35.594  32.104  32.206  1.00  0.00     0.010 A 
ATOM     15  C   UNL A   1      36.805  32.778  32.185  1.00  0.00    -0.014 A 
BRANCH  15  16
ATOM     16  C   UNL A   1      38.082  32.112  32.090  1.00  0.00     0.031 A 
ATOM     17  C   UNL A   1      38.976  32.245  33.258  1.00  0.00     0.074 A 
ATOM     18  C   UNL A   1      38.453  31.566  30.919  1.00  0.00     0.049 A 
ATOM     19  N   UNL A   1      40.099  32.883  33.332  1.00  0.00    -0.248 NA
ATOM     20  C   UNL A   1      38.505  31.679  34.526  1.00  0.00     0.031 C 
ATOM     21  C   UNL A   1      37.613  31.211  29.772  1.00  0.00     0.029 A 
ATOM     22  N   UNL A   1      39.686  31.141  30.551  1.00  0.00    -0.354 N 
ATOM     23  C   UNL A   1      40.564  32.668  34.623  1.00  0.00     0.074 A 
ATOM     24  C   UNL A   1      39.500  32.014  35.345  1.00  0.00     0.031 C 
ATOM     25  C   UNL A   1      38.322  30.413  28.943  1.00  0.00     0.029 A 
ATOM     26  C   UNL A   1      39.686  30.327  29.435  1.00  0.00     0.049 A 
ATOM     27  H   UNL A   1      40.506  31.389  31.036  1.00  0.00     0.167 HD
ATOM     28  C   UNL A   1      41.867  32.849  34.968  1.00  0.00     0.031 A 
ATOM     29  C   UNL A   1      40.719  29.555  29.026  1.00  0.00     0.031 A 
ATOM     30  C   UNL A   1      42.567  33.723  34.072  1.00  0.00     0.049 A 
ATOM     31  C   UNL A   1      41.955  30.128  29.614  1.00  0.00     0.074 A 
ATOM     32  C   UNL A   1      42.443  35.051  33.720  1.00  0.00     0.029 A 
ATOM     33  N   UNL A   1      43.371  33.155  33.115  1.00  0.00    -0.354 N 
ATOM     34  N   UNL A   1      42.448  31.285  29.275  1.00  0.00    -0.248 NA
ATOM     35  C   UNL A   1      42.426  29.601  30.887  1.00  0.00     0.031 C 
ATOM     36  C   UNL A   1      42.779  35.102  32.336  1.00  0.00     0.029 A 
ATOM     37  C   UNL A   1      43.112  33.806  31.936  1.00  0.00     0.049 A 
ATOM     38  H   UNL A   1      44.013  32.420  33.249  1.00  0.00     0.167 HD
ATOM     39  C   UNL A   1      42.968  31.813  30.448  1.00  0.00     0.074 A 
ATOM     40  C   UNL A   1      43.018  30.691  31.381  1.00  0.00     0.031 C 
ATOM     41  C   UNL A   1      43.056  33.162  30.642  1.00  0.00     0.031 A 
BRANCH  28  42
ATOM     42  C   UNL A   1      42.565  31.928  35.927  1.00  0.00    -0.014 A 
ATOM     43  C   UNL A   1      43.658  32.393  36.674  1.00  0.00     0.009 A 
ATOM     44  C   UNL A   1      42.340  30.536  35.922  1.00  0.00     0.009 A 
ATOM     45  C   UNL A   1      44.496  31.503  37.358  1.00  0.00     0.001 A 
ATOM     46  C   UNL A   1      43.147  29.650  36.636  1.00  0.00     0.001 A 
ATOM     47  C   UNL A   1      44.240  30.134  37.338  1.00  0.00     0.000 A 
ENDBRANCH  28  42
BRANCH  29  48
ATOM     48  C   UNL A   1      40.625  28.163  28.535  1.00  0.00    -0.014 A 
ATOM     49  C   UNL A   1      39.954  27.190  29.291  1.00  0.00     0.009 A 
ATOM     50  C   UNL A   1      40.956  27.841  27.204  1.00  0.00     0.009 A 
ATOM     51  C   UNL A   1      39.584  25.966  28.719  1.00  0.00     0.001 A 
ATOM     52  C   UNL A   1      40.599  26.616  26.637  1.00  0.00     0.001 A 
ATOM     53  C   UNL A   1      39.895  25.685  27.390  1.00  0.00     0.000 A 
ENDBRANCH  29  48
BRANCH  41  54
ATOM     54  C   UNL A   1      42.761  34.063  29.470  1.00  0.00    -0.014 A 
ATOM     55  C   UNL A   1      41.552  34.774  29.361  1.00  0.00     0.009 A 
ATOM     56  C   UNL A   1      43.792  34.354  28.565  1.00  0.00     0.009 A 
ATOM     57  C   UNL A   1      41.380  35.742  28.368  1.00  0.00     0.001 A 
ATOM     58  C   UNL A   1      43.624  35.332  27.582  1.00  0.00     0.001 A 
ATOM     59  C   UNL A   1      42.420  36.027  27.484  1.00  0.00     0.000 A 
ENDBRANCH  41  54
ENDBRANCH  15  16
ENDBRANCH   8  10
ENDBRANCH   7   8
ENDBRANCH   6   7
ENDBRANCH   5   6
ENDBRANCH   4   5
ENDBRANCH   3   4
ENDBRANCH   2   3
ENDBRANCH   1   2
BRANCH   1  60
ATOM     60  C   UNL A   1      31.298  29.854  24.127  1.00  0.00     0.188 C 
BRANCH  60  61
ATOM     61  C   UNL A   1      30.024  29.315  23.434  1.00  0.00     0.188 C 
BRANCH  61  62
ATOM     62  O   UNL A   1      30.036  28.182  22.571  1.00  0.00    -0.376 OA
BRANCH  62  63
ATOM     63  C   UNL A   1      30.310  26.887  23.071  1.00  0.00     0.202 C 
BRANCH  63  64
ATOM     64  C   UNL A   1      31.511  26.170  22.451  1.00  0.00     0.261 C 
BRANCH  64  65
ATOM     65  O   UNL A   1      31.753  24.857  22.967  1.00  0.00    -0.459 OA
BRANCH  65  66
ATOM     66  C   UNL A   1      32.780  24.159  22.405  1.00  0.00     0.356 C 
ATOM     67  O   UNL A   1      33.592  24.590  21.617  1.00  0.00    -0.244 OA
BRANCH  66  68
ATOM     68  C   UNL A   1      32.869  22.866  23.048  1.00  0.00     0.145 A 
ATOM     69  C   UNL A   1      32.379  21.653  22.578  1.00  0.00     0.048 A 
ATOM     70  N   UNL A   1      33.490  22.593  24.247  1.00  0.00    -0.209 N 
ATOM     71  C   UNL A   1      32.755  20.627  23.486  1.00  0.00     0.040 A 
ATOM     72  C   UNL A   1      33.410  21.252  24.543  1.00  0.00     0.156 A 
ATOM     73  C   UNL A   1      32.621  19.227  23.570  1.00  0.00     0.065 A 
ATOM     74  N   UNL A   1      33.853  20.634  25.654  1.00  0.00    -0.237 NA
ATOM     75  Cl  UNL A   1      31.966  18.473  22.182  1.00  0.00    -0.083 Cl
ATOM     76  C   UNL A   1      33.019  18.547  24.716  1.00  0.00     0.093 A 
ATOM     77  C   UNL A   1      33.613  19.306  25.709  1.00  0.00     0.128 A 
BRANCH  70  78
ATOM     78  S   UNL A   1      34.456  23.712  25.075  1.00  0.00     0.270 S 
ATOM     79  O   UNL A   1      35.006  22.970  26.193  1.00  0.00    -0.201 OA
ATOM     80  O   UNL A   1      35.305  24.304  24.055  1.00  0.00    -0.201 OA
BRANCH  78  81
ATOM     81  C   UNL A   1      33.401  24.986  25.684  1.00  0.00     0.088 A 
ATOM     82  C   UNL A   1      33.831  26.315  25.637  1.00  0.00     0.022 A 
ATOM     83  C   UNL A   1      32.148  24.652  26.211  1.00  0.00     0.022 A 
ATOM     84  C   UNL A   1      32.973  27.322  26.074  1.00  0.00     0.001 A 
ATOM     85  C   UNL A   1      31.292  25.668  26.627  1.00  0.00     0.001 A 
ATOM     86  C   UNL A   1      31.702  26.999  26.553  1.00  0.00     0.000 A 
ENDBRANCH  78  81
ENDBRANCH  70  78
BRANCH  76  87
ATOM     87  C   UNL A   1      32.835  17.078  24.900  1.00  0.00     0.419 C 
ATOM     88  F   UNL A   1      33.468  16.590  26.000  1.00  0.00    -0.166 F 
ATOM     89  F   UNL A   1      31.529  16.720  25.015  1.00  0.00    -0.166 F 
ATOM     90  F   UNL A   1      33.324  16.349  23.855  1.00  0.00    -0.166 F 
ENDBRANCH  76  87
ENDBRANCH  66  68
ENDBRANCH  65  66
ENDBRANCH  64  65
ENDBRANCH  63  64
ENDBRANCH  62  63
ENDBRANCH  61  62
ENDBRANCH  60  61
ENDBRANCH   1  60
TORSDOF 23
ENDMDL
MODEL 3
REMARK VINA RESULT:      -9.8      3.361      5.244
REMARK SMILES O=C(OCCOCCOCCOCCOC(=O)c1cc2c(Cl)c(C(F)(F)F)cnc2n1S(=O)(=O)c1ccccc1)c1ccc(-c2c3nc(c(-c4ccccc4)c4ccc([nH]4)c(-c4ccccc4)c4nc(c(-c5ccccc5)c5ccc2[nH]5)C=C4)C=C3)cc1
REMARK SMILES IDX 9 1 8 2 7 3 6 4 5 5 4 6 3 7 2 8 1 9 41 10 42 11 88 12 43 13
REMARK SMILES IDX 87 14 44 15 45 16 46 17 81 18 47 19 86 20 80 21 82 22 48 23
REMARK SMILES IDX 85 24 79 25 78 26 49 28 71 29 56 30 70 31 57 32 60 33 69 34
REMARK SMILES IDX 83 35 58 36 59 37 68 39 84 40 61 41 50 42 51 43 55 44 52 45
REMARK SMILES IDX 54 46 53 47 72 48 73 49 77 50 74 51 76 52 75 53 62 54 63 55
REMARK SMILES IDX 67 56 64 57 66 58 65 59 10 60 11 61 12 62 13 63 14 64 15 65
REMARK SMILES IDX 16 66 17 67 18 68 19 69 31 70 20 71 30 72 21 73 29 74 22 75
REMARK SMILES IDX 23 76 28 77 32 78 33 79 34 80 35 81 36 82 40 83 37 84 39 85
REMARK SMILES IDX 38 86 24 87 25 88 26 89 27 90
REMARK H PARENT 82 27 60 38
REMARK Flexibility Score: inf
ROOT
ATOM      1  O   UNL A   1      32.679  28.097  26.174  1.00  0.00    -0.377 OA
ENDROOT
BRANCH   1   2
ATOM      2  C   UNL A   1      32.680  29.391  25.599  1.00  0.00     0.188 C 
BRANCH   2   3
ATOM      3  C   UNL A   1      32.469  30.539  26.597  1.00  0.00     0.188 C 
BRANCH   3   4
ATOM      4  O   UNL A   1      33.522  31.031  27.427  1.00  0.00    -0.376 OA
BRANCH   4   5
ATOM      5  C   UNL A   1      33.651  32.366  27.866  1.00  0.00     0.202 C 
BRANCH   5   6
ATOM      6  C   UNL A   1      35.074  32.935  27.901  1.00  0.00     0.261 C 
BRANCH   6   7
ATOM      7  O   UNL A   1      35.706  32.991  29.186  1.00  0.00    -0.460 OA
BRANCH   7   8
ATOM      8  C   UNL A   1      36.040  31.993  30.036  1.00  0.00     0.338 C 
ATOM      9  O   UNL A   1      35.448  31.925  31.113  1.00  0.00    -0.246 OA
BRANCH   8  10
ATOM     10  C   UNL A   1      37.098  30.982  29.775  1.00  0.00     0.060 A 
ATOM     11  C   UNL A   1      36.887  29.605  29.705  1.00  0.00     0.016 A 
ATOM     12  C   UNL A   1      38.414  31.478  29.660  1.00  0.00     0.016 A 
ATOM     13  C   UNL A   1      37.951  28.739  29.645  1.00  0.00     0.010 A 
ATOM     14  C   UNL A   1      39.495  30.612  29.631  1.00  0.00     0.010 A 
ATOM     15  C   UNL A   1      39.240  29.252  29.702  1.00  0.00    -0.014 A 
BRANCH  15  16
ATOM     16  C   UNL A   1      40.257  28.270  29.995  1.00  0.00     0.031 A 
ATOM     17  C   UNL A   1      40.826  28.309  31.358  1.00  0.00     0.074 A 
ATOM     18  C   UNL A   1      40.742  27.508  29.000  1.00  0.00     0.049 A 
ATOM     19  N   UNL A   1      42.027  28.636  31.710  1.00  0.00    -0.248 NA
ATOM     20  C   UNL A   1      39.909  28.043  32.471  1.00  0.00     0.031 C 
ATOM     21  C   UNL A   1      40.154  27.246  27.683  1.00  0.00     0.029 A 
ATOM     22  N   UNL A   1      41.855  26.736  29.009  1.00  0.00    -0.354 N 
ATOM     23  C   UNL A   1      42.070  28.467  33.087  1.00  0.00     0.074 A 
ATOM     24  C   UNL A   1      40.718  28.206  33.517  1.00  0.00     0.031 C 
ATOM     25  C   UNL A   1      40.794  26.196  27.122  1.00  0.00     0.029 A 
ATOM     26  C   UNL A   1      41.907  25.820  27.975  1.00  0.00     0.049 A 
ATOM     27  H   UNL A   1      42.562  26.819  29.689  1.00  0.00     0.167 HD
ATOM     28  C   UNL A   1      43.239  28.344  33.771  1.00  0.00     0.031 A 
ATOM     29  C   UNL A   1      42.747  24.762  27.906  1.00  0.00     0.031 A 
ATOM     30  C   UNL A   1      44.361  28.890  33.063  1.00  0.00     0.049 A 
ATOM     31  C   UNL A   1      43.905  25.061  28.785  1.00  0.00     0.074 A 
ATOM     32  C   UNL A   1      44.711  30.152  32.628  1.00  0.00     0.029 A 
ATOM     33  N   UNL A   1      45.187  28.021  32.394  1.00  0.00    -0.354 N 
ATOM     34  N   UNL A   1      44.774  26.001  28.542  1.00  0.00    -0.248 NA
ATOM     35  C   UNL A   1      43.870  24.589  30.162  1.00  0.00     0.031 C 
ATOM     36  C   UNL A   1      45.387  29.945  31.391  1.00  0.00     0.029 A 
ATOM     37  C   UNL A   1      45.429  28.567  31.160  1.00  0.00     0.049 A 
ATOM     38  H   UNL A   1      45.538  27.167  32.735  1.00  0.00     0.167 HD
ATOM     39  C   UNL A   1      45.109  26.514  29.786  1.00  0.00     0.074 A 
ATOM     40  C   UNL A   1      44.601  25.540  30.748  1.00  0.00     0.031 C 
ATOM     41  C   UNL A   1      45.523  27.807  29.934  1.00  0.00     0.031 A 
BRANCH  28  42
ATOM     42  C   UNL A   1      43.381  27.398  34.928  1.00  0.00    -0.014 A 
ATOM     43  C   UNL A   1      44.302  27.676  35.951  1.00  0.00     0.009 A 
ATOM     44  C   UNL A   1      42.822  26.104  34.907  1.00  0.00     0.009 A 
ATOM     45  C   UNL A   1      44.658  26.697  36.886  1.00  0.00     0.001 A 
ATOM     46  C   UNL A   1      43.143  25.139  35.861  1.00  0.00     0.001 A 
ATOM     47  C   UNL A   1      44.080  25.431  36.841  1.00  0.00     0.000 A 
ENDBRANCH  28  42
BRANCH  29  48
ATOM     48  C   UNL A   1      42.391  23.393  27.474  1.00  0.00    -0.014 A 
ATOM     49  C   UNL A   1      41.551  22.598  28.267  1.00  0.00     0.009 A 
ATOM     50  C   UNL A   1      42.651  22.957  26.159  1.00  0.00     0.009 A 
ATOM     51  C   UNL A   1      40.955  21.442  27.747  1.00  0.00     0.001 A 
ATOM     52  C   UNL A   1      42.067  21.799  25.644  1.00  0.00     0.001 A 
ATOM     53  C   UNL A   1      41.202  21.050  26.432  1.00  0.00     0.000 A 
ENDBRANCH  29  48
BRANCH  41  54
ATOM     54  C   UNL A   1      45.801  28.604  28.684  1.00  0.00    -0.014 A 
ATOM     55  C   UNL A   1      44.791  29.315  28.012  1.00  0.00     0.009 A 
ATOM     56  C   UNL A   1      47.133  28.803  28.293  1.00  0.00     0.009 A 
ATOM     57  C   UNL A   1      45.107  30.194  26.971  1.00  0.00     0.001 A 
ATOM     58  C   UNL A   1      47.448  29.692  27.263  1.00  0.00     0.001 A 
ATOM     59  C   UNL A   1      46.437  30.388  26.603  1.00  0.00     0.000 A 
ENDBRANCH  41  54
ENDBRANCH  15  16
ENDBRANCH   8  10
ENDBRANCH   7   8
ENDBRANCH   6   7
ENDBRANCH   5   6
ENDBRANCH   4   5
ENDBRANCH   3   4
ENDBRANCH   2   3
ENDBRANCH   1   2
BRANCH   1  60
ATOM     60  C   UNL A   1      31.486  27.726  26.826  1.00  0.00     0.188 C 
BRANCH  60  61
ATOM     61  C   UNL A   1      30.997  26.296  26.493  1.00  0.00     0.188 C 
BRANCH  61  62
ATOM     62  O   UNL A   1      31.723  25.128  26.859  1.00  0.00    -0.376 OA
BRANCH  62  63
ATOM     63  C   UNL A   1      31.140  23.843  26.747  1.00  0.00     0.202 C 
BRANCH  63  64
ATOM     64  C   UNL A   1      31.735  22.929  25.672  1.00  0.00     0.261 C 
BRANCH  64  65
ATOM     65  O   UNL A   1      30.880  22.700  24.546  1.00  0.00    -0.459 OA
BRANCH  65  66
ATOM     66  C   UNL A   1      31.363  23.071  23.328  1.00  0.00     0.356 C 
ATOM     67  O   UNL A   1      31.847  22.337  22.494  1.00  0.00    -0.244 OA
BRANCH  66  68
ATOM     68  C   UNL A   1      31.030  24.461  23.100  1.00  0.00     0.145 A 
ATOM     69  C   UNL A   1      29.852  25.114  23.444  1.00  0.00     0.048 A 
ATOM     70  N   UNL A   1      31.842  25.409  22.520  1.00  0.00    -0.209 N 
ATOM     71  C   UNL A   1      29.979  26.489  23.109  1.00  0.00     0.040 A 
ATOM     72  C   UNL A   1      31.218  26.634  22.490  1.00  0.00     0.156 A 
ATOM     73  C   UNL A   1      29.200  27.655  23.234  1.00  0.00     0.065 A 
ATOM     74  N   UNL A   1      31.684  27.775  21.949  1.00  0.00    -0.237 NA
ATOM     75  Cl  UNL A   1      27.763  27.478  24.145  1.00  0.00    -0.083 Cl
ATOM     76  C   UNL A   1      29.613  28.848  22.651  1.00  0.00     0.093 A 
ATOM     77  C   UNL A   1      30.848  28.833  22.025  1.00  0.00     0.128 A 
BRANCH  70  78
ATOM     78  S   UNL A   1      33.479  25.147  22.164  1.00  0.00     0.270 S 
ATOM     79  O   UNL A   1      33.476  24.094  21.168  1.00  0.00    -0.201 OA
ATOM     80  O   UNL A   1      34.019  26.466  21.885  1.00  0.00    -0.201 OA
BRANCH  78  81
ATOM     81  C   UNL A   1      34.260  24.559  23.631  1.00  0.00     0.088 A 
ATOM     82  C   UNL A   1      34.876  23.305  23.626  1.00  0.00     0.022 A 
ATOM     83  C   UNL A   1      34.251  25.353  24.784  1.00  0.00     0.022 A 
ATOM     84  C   UNL A   1      35.534  22.867  24.773  1.00  0.00     0.001 A 
ATOM     85  C   UNL A   1      34.928  24.914  25.918  1.00  0.00     0.001 A 
ATOM     86  C   UNL A   1      35.572  23.677  25.910  1.00  0.00     0.000 A 
ENDBRANCH  78  81
ENDBRANCH  70  78
BRANCH  76  87
ATOM     87  C   UNL A   1      28.800  30.098  22.680  1.00  0.00     0.419 C 
ATOM     88  F   UNL A   1      29.320  31.097  21.917  1.00  0.00    -0.166 F 
ATOM     89  F   UNL A   1      27.524  29.908  22.250  1.00  0.00    -0.166 F 
ATOM     90  F   UNL A   1      28.689  30.627  23.933  1.00  0.00    -0.166 F 
ENDBRANCH  76  87
ENDBRANCH  66  68
ENDBRANCH  65  66
ENDBRANCH  64  65
ENDBRANCH  63  64
ENDBRANCH  62  63
ENDBRANCH  61  62
ENDBRANCH  60  61
ENDBRANCH   1  60
TORSDOF 23
ENDMDL
