MODEL 1
REMARK VINA RESULT:      -8.4      0.000      0.000
REMARK SMILES Cc1cc(C)c(C(=O)N[C@H](C(=O)OCCOCCOCCOCCOC(=O)c2ccc(-c3c4nc(c(-c5ccccc5)c5ccc([nH]5)c(-c5ccccc5)c5nc(c(-c6ccccc6)c6ccc3[nH]6)C=C5)C=C4)cc2)C(C)C)c(=O)[nH]1
REMARK SMILES IDX 19 1 18 2 17 3 16 4 15 5 14 6 13 7 11 8 12 9 10 10 9 11 7 12
REMARK SMILES IDX 8 13 6 15 1 16 2 17 3 18 81 19 4 20 79 21 5 23 80 24 76 25
REMARK SMILES IDX 77 26 78 27 20 28 21 29 22 30 23 31 24 32 25 33 26 34 27 35
REMARK SMILES IDX 28 36 29 37 75 38 30 39 74 40 31 41 32 42 33 43 68 44 34 45
REMARK SMILES IDX 73 46 67 47 69 48 35 49 72 50 66 51 65 52 36 54 58 55 43 56
REMARK SMILES IDX 57 57 44 58 47 59 56 60 70 61 45 62 46 63 55 65 71 66 48 67
REMARK SMILES IDX 37 68 38 69 42 70 39 71 41 72 40 73 59 74 60 75 64 76 61 77
REMARK SMILES IDX 63 78 62 79 49 80 50 81 54 82 51 83 53 84 52 85
REMARK H PARENT 9 14 81 22 69 53 47 64
REMARK Flexibility Score: inf
ROOT
ATOM      1  O   UNL A   1      38.862  20.717  25.411  1.00  0.00    -0.377 OA
ENDROOT
BRANCH   1   2
ATOM      2  C   UNL A   1      37.734  21.549  25.553  1.00  0.00     0.188 C 
BRANCH   2   3
ATOM      3  C   UNL A   1      37.115  22.099  24.264  1.00  0.00     0.188 C 
BRANCH   3   4
ATOM      4  O   UNL A   1      35.876  22.788  24.306  1.00  0.00    -0.376 OA
BRANCH   4   5
ATOM      5  C   UNL A   1      34.954  22.669  23.231  1.00  0.00     0.202 C 
BRANCH   5   6
ATOM      6  C   UNL A   1      34.092  23.870  22.785  1.00  0.00     0.261 C 
BRANCH   6   7
ATOM      7  O   UNL A   1      32.993  24.255  23.650  1.00  0.00    -0.462 OA
BRANCH   7   8
ATOM      8  C   UNL A   1      33.324  25.059  24.690  1.00  0.00     0.328 C 
ATOM      9  O   UNL A   1      34.085  26.017  24.564  1.00  0.00    -0.250 OA
BRANCH   8  10
ATOM     10  C   UNL A   1      32.679  24.709  26.075  1.00  0.00     0.195 C 
BRANCH  10  11
ATOM     11  N   UNL A   1      31.779  25.630  26.829  1.00  0.00    -0.338 N 
ATOM     12  C   UNL A   1      31.279  26.897  26.613  1.00  0.00     0.257 C 
ATOM     13  O   UNL A   1      30.930  27.480  27.646  1.00  0.00    -0.269 OA
ATOM     14  H   UNL A   1      31.468  25.242  27.680  1.00  0.00     0.164 HD
BRANCH  12  15
ATOM     15  C   UNL A   1      30.989  27.529  25.259  1.00  0.00     0.107 A 
ATOM     16  C   UNL A   1      29.380  29.768  21.877  1.00  0.00     0.064 C 
ATOM     17  C   UNL A   1      29.992  29.014  23.017  1.00  0.00     0.015 A 
ATOM     18  C   UNL A   1      31.063  29.440  23.697  1.00  0.00     0.025 A 
ATOM     19  N   UNL A   1      29.494  27.778  23.319  1.00  0.00    -0.326 N 
ATOM     20  C   UNL A   1      31.569  28.705  24.867  1.00  0.00    -0.031 A 
ATOM     21  C   UNL A   1      30.072  26.931  24.231  1.00  0.00     0.261 A 
ATOM     22  H   UNL A   1      28.677  27.480  22.857  1.00  0.00     0.169 HD
ATOM     23  C   UNL A   1      32.689  29.484  25.520  1.00  0.00     0.045 C 
ATOM     24  O   UNL A   1      29.873  25.727  24.115  1.00  0.00    -0.269 OA
ENDBRANCH  12  15
ENDBRANCH  10  11
BRANCH  10  25
ATOM     25  C   UNL A   1      31.993  23.310  25.988  1.00  0.00     0.017 C 
ATOM     26  C   UNL A   1      32.877  22.206  26.584  1.00  0.00     0.010 C 
ATOM     27  C   UNL A   1      30.641  23.284  26.717  1.00  0.00     0.010 C 
ENDBRANCH  10  25
ENDBRANCH   8  10
ENDBRANCH   7   8
ENDBRANCH   6   7
ENDBRANCH   5   6
ENDBRANCH   4   5
ENDBRANCH   3   4
ENDBRANCH   2   3
ENDBRANCH   1   2
BRANCH   1  28
ATOM     28  C   UNL A   1      40.013  21.032  26.169  1.00  0.00     0.188 C 
BRANCH  28  29
ATOM     29  C   UNL A   1      40.968  19.884  26.525  1.00  0.00     0.188 C 
BRANCH  29  30
ATOM     30  O   UNL A   1      41.564  19.236  25.409  1.00  0.00    -0.376 OA
BRANCH  30  31
ATOM     31  C   UNL A   1      42.937  18.866  25.476  1.00  0.00     0.202 C 
BRANCH  31  32
ATOM     32  C   UNL A   1      43.947  19.915  25.970  1.00  0.00     0.261 C 
BRANCH  32  33
ATOM     33  O   UNL A   1      43.560  21.290  25.886  1.00  0.00    -0.460 OA
BRANCH  33  34
ATOM     34  C   UNL A   1      44.119  22.072  24.941  1.00  0.00     0.338 C 
ATOM     35  O   UNL A   1      44.265  21.838  23.765  1.00  0.00    -0.246 OA
BRANCH  34  36
ATOM     36  C   UNL A   1      44.296  23.392  25.578  1.00  0.00     0.060 A 
ATOM     37  C   UNL A   1      44.404  23.443  26.973  1.00  0.00     0.016 A 
ATOM     38  C   UNL A   1      44.427  24.548  24.803  1.00  0.00     0.016 A 
ATOM     39  C   UNL A   1      44.623  24.661  27.603  1.00  0.00     0.010 A 
ATOM     40  C   UNL A   1      44.605  25.776  25.437  1.00  0.00     0.010 A 
ATOM     41  C   UNL A   1      44.664  25.833  26.839  1.00  0.00    -0.014 A 
BRANCH  41  42
ATOM     42  C   UNL A   1      44.477  27.121  27.535  1.00  0.00     0.031 A 
ATOM     43  C   UNL A   1      45.704  27.950  27.781  1.00  0.00     0.074 A 
ATOM     44  C   UNL A   1      43.255  27.569  27.861  1.00  0.00     0.049 A 
ATOM     45  N   UNL A   1      45.811  29.131  28.328  1.00  0.00    -0.248 NA
ATOM     46  C   UNL A   1      46.986  27.370  27.339  1.00  0.00     0.031 C 
ATOM     47  C   UNL A   1      41.999  26.871  27.598  1.00  0.00     0.029 A 
ATOM     48  N   UNL A   1      42.877  28.735  28.474  1.00  0.00    -0.354 N 
ATOM     49  C   UNL A   1      47.165  29.434  28.291  1.00  0.00     0.074 A 
ATOM     50  C   UNL A   1      47.847  28.305  27.705  1.00  0.00     0.031 C 
ATOM     51  C   UNL A   1      40.982  27.630  28.042  1.00  0.00     0.029 A 
ATOM     52  C   UNL A   1      41.521  28.847  28.646  1.00  0.00     0.049 A 
ATOM     53  H   UNL A   1      43.517  29.424  28.762  1.00  0.00     0.167 HD
ATOM     54  C   UNL A   1      47.785  30.563  28.700  1.00  0.00     0.031 A 
ATOM     55  C   UNL A   1      40.804  29.823  29.237  1.00  0.00     0.031 A 
ATOM     56  C   UNL A   1      47.100  31.667  29.311  1.00  0.00     0.049 A 
ATOM     57  C   UNL A   1      41.526  31.023  29.789  1.00  0.00     0.074 A 
ATOM     58  C   UNL A   1      47.626  32.856  29.778  1.00  0.00     0.029 A 
ATOM     59  N   UNL A   1      45.733  31.707  29.547  1.00  0.00    -0.354 N 
ATOM     60  N   UNL A   1      42.807  31.310  29.742  1.00  0.00    -0.248 NA
ATOM     61  C   UNL A   1      40.709  32.035  30.469  1.00  0.00     0.031 C 
ATOM     62  C   UNL A   1      46.587  33.587  30.361  1.00  0.00     0.029 A 
ATOM     63  C   UNL A   1      45.402  32.887  30.189  1.00  0.00     0.049 A 
ATOM     64  H   UNL A   1      45.094  31.001  29.296  1.00  0.00     0.167 HD
ATOM     65  C   UNL A   1      42.946  32.542  30.369  1.00  0.00     0.074 A 
ATOM     66  C   UNL A   1      41.616  32.956  30.772  1.00  0.00     0.031 C 
ATOM     67  C   UNL A   1      44.071  33.268  30.590  1.00  0.00     0.031 A 
BRANCH  54  68
ATOM     68  C   UNL A   1      49.278  30.628  28.541  1.00  0.00    -0.014 A 
ATOM     69  C   UNL A   1      50.141  30.160  29.546  1.00  0.00     0.009 A 
ATOM     70  C   UNL A   1      49.829  31.156  27.364  1.00  0.00     0.009 A 
ATOM     71  C   UNL A   1      51.526  30.249  29.386  1.00  0.00     0.001 A 
ATOM     72  C   UNL A   1      51.213  31.214  27.194  1.00  0.00     0.001 A 
ATOM     73  C   UNL A   1      52.060  30.769  28.208  1.00  0.00     0.000 A 
ENDBRANCH  54  68
BRANCH  55  74
ATOM     74  C   UNL A   1      39.327  29.695  29.328  1.00  0.00    -0.014 A 
ATOM     75  C   UNL A   1      38.724  29.148  30.471  1.00  0.00     0.009 A 
ATOM     76  C   UNL A   1      38.505  30.159  28.287  1.00  0.00     0.009 A 
ATOM     77  C   UNL A   1      37.332  29.068  30.568  1.00  0.00     0.001 A 
ATOM     78  C   UNL A   1      37.114  30.103  28.399  1.00  0.00     0.001 A 
ATOM     79  C   UNL A   1      36.528  29.556  29.537  1.00  0.00     0.000 A 
ENDBRANCH  55  74
BRANCH  67  80
ATOM     80  C   UNL A   1      43.921  34.589  31.293  1.00  0.00    -0.014 A 
ATOM     81  C   UNL A   1      43.904  34.667  32.693  1.00  0.00     0.009 A 
ATOM     82  C   UNL A   1      43.893  35.775  30.542  1.00  0.00     0.009 A 
ATOM     83  C   UNL A   1      43.842  35.910  33.328  1.00  0.00     0.001 A 
ATOM     84  C   UNL A   1      43.865  37.016  31.180  1.00  0.00     0.001 A 
ATOM     85  C   UNL A   1      43.833  37.081  32.571  1.00  0.00     0.000 A 
ENDBRANCH  67  80
ENDBRANCH  41  42
ENDBRANCH  34  36
ENDBRANCH  33  34
ENDBRANCH  32  33
ENDBRANCH  31  32
ENDBRANCH  30  31
ENDBRANCH  29  30
ENDBRANCH  28  29
ENDBRANCH   1  28
TORSDOF 23
ENDMDL
MODEL 2
REMARK VINA RESULT:      -8.4      3.066      5.428
REMARK SMILES Cc1cc(C)c(C(=O)N[C@H](C(=O)OCCOCCOCCOCCOC(=O)c2ccc(-c3c4nc(c(-c5ccccc5)c5ccc([nH]5)c(-c5ccccc5)c5nc(c(-c6ccccc6)c6ccc3[nH]6)C=C5)C=C4)cc2)C(C)C)c(=O)[nH]1
REMARK SMILES IDX 19 1 18 2 17 3 16 4 15 5 14 6 13 7 11 8 12 9 10 10 9 11 7 12
REMARK SMILES IDX 8 13 6 15 1 16 2 17 3 18 81 19 4 20 79 21 5 23 80 24 76 25
REMARK SMILES IDX 77 26 78 27 20 28 21 29 22 30 23 31 24 32 25 33 26 34 27 35
REMARK SMILES IDX 28 36 29 37 75 38 30 39 74 40 31 41 32 42 33 43 68 44 34 45
REMARK SMILES IDX 73 46 67 47 69 48 35 49 72 50 66 51 65 52 36 54 58 55 43 56
REMARK SMILES IDX 57 57 44 58 47 59 56 60 70 61 45 62 46 63 55 65 71 66 48 67
REMARK SMILES IDX 37 68 38 69 42 70 39 71 41 72 40 73 59 74 60 75 64 76 61 77
REMARK SMILES IDX 63 78 62 79 49 80 50 81 54 82 51 83 53 84 52 85
REMARK H PARENT 9 14 81 22 69 53 47 64
REMARK Flexibility Score: inf
ROOT
ATOM      1  O   UNL A   1      37.971  21.012  25.333  1.00  0.00    -0.377 OA
ENDROOT
BRANCH   1   2
ATOM      2  C   UNL A   1      36.748  21.599  25.710  1.00  0.00     0.188 C 
BRANCH   2   3
ATOM      3  C   UNL A   1      35.880  22.173  24.586  1.00  0.00     0.188 C 
BRANCH   3   4
ATOM      4  O   UNL A   1      34.504  21.838  24.504  1.00  0.00    -0.376 OA
BRANCH   4   5
ATOM      5  C   UNL A   1      33.799  22.002  23.282  1.00  0.00     0.202 C 
BRANCH   5   6
ATOM      6  C   UNL A   1      33.308  23.394  22.827  1.00  0.00     0.261 C 
BRANCH   6   7
ATOM      7  O   UNL A   1      32.441  24.121  23.734  1.00  0.00    -0.462 OA
BRANCH   7   8
ATOM      8  C   UNL A   1      33.073  24.924  24.625  1.00  0.00     0.328 C 
ATOM      9  O   UNL A   1      33.929  25.738  24.285  1.00  0.00    -0.250 OA
BRANCH   8  10
ATOM     10  C   UNL A   1      32.651  24.766  26.127  1.00  0.00     0.195 C 
BRANCH  10  11
ATOM     11  N   UNL A   1      31.807  25.753  26.861  1.00  0.00    -0.338 N 
ATOM     12  C   UNL A   1      31.345  27.027  26.598  1.00  0.00     0.257 C 
ATOM     13  O   UNL A   1      31.048  27.670  27.611  1.00  0.00    -0.269 OA
ATOM     14  H   UNL A   1      31.509  25.418  27.738  1.00  0.00     0.164 HD
BRANCH  12  15
ATOM     15  C   UNL A   1      31.037  27.603  25.224  1.00  0.00     0.107 A 
ATOM     16  C   UNL A   1      29.464  29.804  21.800  1.00  0.00     0.064 C 
ATOM     17  C   UNL A   1      30.063  29.055  22.950  1.00  0.00     0.015 A 
ATOM     18  C   UNL A   1      31.220  29.393  23.532  1.00  0.00     0.025 A 
ATOM     19  N   UNL A   1      29.450  27.907  23.366  1.00  0.00    -0.326 N 
ATOM     20  C   UNL A   1      31.718  28.677  24.717  1.00  0.00    -0.031 A 
ATOM     21  C   UNL A   1      29.989  27.056  24.298  1.00  0.00     0.261 A 
ATOM     22  H   UNL A   1      28.575  27.680  22.977  1.00  0.00     0.169 HD
ATOM     23  C   UNL A   1      32.961  29.357  25.245  1.00  0.00     0.045 C 
ATOM     24  O   UNL A   1      29.647  25.879  24.277  1.00  0.00    -0.269 OA
ENDBRANCH  12  15
ENDBRANCH  10  11
BRANCH  10  25
ATOM     25  C   UNL A   1      32.053  23.342  26.350  1.00  0.00     0.017 C 
ATOM     26  C   UNL A   1      32.734  22.617  27.518  1.00  0.00     0.010 C 
ATOM     27  C   UNL A   1      30.543  23.389  26.632  1.00  0.00     0.010 C 
ENDBRANCH  10  25
ENDBRANCH   8  10
ENDBRANCH   7   8
ENDBRANCH   6   7
ENDBRANCH   5   6
ENDBRANCH   4   5
ENDBRANCH   3   4
ENDBRANCH   2   3
ENDBRANCH   1   2
BRANCH   1  28
ATOM     28  C   UNL A   1      39.159  21.724  25.616  1.00  0.00     0.188 C 
BRANCH  28  29
ATOM     29  C   UNL A   1      39.108  22.784  26.724  1.00  0.00     0.188 C 
BRANCH  29  30
ATOM     30  O   UNL A   1      40.306  22.916  27.480  1.00  0.00    -0.376 OA
BRANCH  30  31
ATOM     31  C   UNL A   1      41.191  21.806  27.570  1.00  0.00     0.202 C 
BRANCH  31  32
ATOM     32  C   UNL A   1      42.672  22.029  27.217  1.00  0.00     0.261 C 
BRANCH  32  33
ATOM     33  O   UNL A   1      43.133  23.382  27.143  1.00  0.00    -0.460 OA
BRANCH  33  34
ATOM     34  C   UNL A   1      43.426  24.038  28.284  1.00  0.00     0.338 C 
ATOM     35  O   UNL A   1      43.129  23.741  29.416  1.00  0.00    -0.246 OA
BRANCH  34  36
ATOM     36  C   UNL A   1      44.409  25.070  27.900  1.00  0.00     0.060 A 
ATOM     37  C   UNL A   1      45.239  25.595  28.898  1.00  0.00     0.016 A 
ATOM     38  C   UNL A   1      44.556  25.455  26.564  1.00  0.00     0.016 A 
ATOM     39  C   UNL A   1      46.210  26.530  28.564  1.00  0.00     0.010 A 
ATOM     40  C   UNL A   1      45.502  26.424  26.236  1.00  0.00     0.010 A 
ATOM     41  C   UNL A   1      46.301  26.987  27.244  1.00  0.00    -0.014 A 
BRANCH  41  42
ATOM     42  C   UNL A   1      47.026  28.248  26.996  1.00  0.00     0.031 A 
ATOM     43  C   UNL A   1      48.497  28.147  26.711  1.00  0.00     0.074 A 
ATOM     44  C   UNL A   1      46.386  29.426  26.947  1.00  0.00     0.049 A 
ATOM     45  N   UNL A   1      49.352  29.089  26.419  1.00  0.00    -0.248 NA
ATOM     46  C   UNL A   1      49.081  26.793  26.752  1.00  0.00     0.031 C 
ATOM     47  C   UNL A   1      44.950  29.618  27.137  1.00  0.00     0.029 A 
ATOM     48  N   UNL A   1      46.870  30.684  26.703  1.00  0.00    -0.354 N 
ATOM     49  C   UNL A   1      50.567  28.442  26.237  1.00  0.00     0.074 A 
ATOM     50  C   UNL A   1      50.353  27.037  26.487  1.00  0.00     0.031 C 
ATOM     51  C   UNL A   1      44.667  30.924  26.994  1.00  0.00     0.029 A 
ATOM     52  C   UNL A   1      45.905  31.658  26.735  1.00  0.00     0.049 A 
ATOM     53  H   UNL A   1      47.819  30.871  26.522  1.00  0.00     0.167 HD
ATOM     54  C   UNL A   1      51.758  28.974  25.881  1.00  0.00     0.031 A 
ATOM     55  C   UNL A   1      46.017  32.991  26.582  1.00  0.00     0.031 A 
ATOM     56  C   UNL A   1      51.965  30.379  25.666  1.00  0.00     0.049 A 
ATOM     57  C   UNL A   1      47.375  33.577  26.297  1.00  0.00     0.074 A 
ATOM     58  C   UNL A   1      53.131  31.033  25.317  1.00  0.00     0.029 A 
ATOM     59  N   UNL A   1      50.978  31.346  25.793  1.00  0.00    -0.354 N 
ATOM     60  N   UNL A   1      48.519  32.960  26.116  1.00  0.00    -0.248 NA
ATOM     61  C   UNL A   1      47.457  35.040  26.191  1.00  0.00     0.031 C 
ATOM     62  C   UNL A   1      52.864  32.405  25.299  1.00  0.00     0.029 A 
ATOM     63  C   UNL A   1      51.517  32.599  25.565  1.00  0.00     0.049 A 
ATOM     64  H   UNL A   1      50.035  31.167  26.013  1.00  0.00     0.167 HD
ATOM     65  C   UNL A   1      49.453  33.956  25.856  1.00  0.00     0.074 A 
ATOM     66  C   UNL A   1      48.737  35.216  25.885  1.00  0.00     0.031 C 
ATOM     67  C   UNL A   1      50.783  33.839  25.612  1.00  0.00     0.031 A 
BRANCH  54  68
ATOM     68  C   UNL A   1      52.923  28.035  25.754  1.00  0.00    -0.014 A 
ATOM     69  C   UNL A   1      53.238  27.423  24.530  1.00  0.00     0.009 A 
ATOM     70  C   UNL A   1      53.725  27.767  26.874  1.00  0.00     0.009 A 
ATOM     71  C   UNL A   1      54.315  26.536  24.439  1.00  0.00     0.001 A 
ATOM     72  C   UNL A   1      54.819  26.906  26.772  1.00  0.00     0.001 A 
ATOM     73  C   UNL A   1      55.107  26.285  25.558  1.00  0.00     0.000 A 
ENDBRANCH  54  68
BRANCH  55  74
ATOM     74  C   UNL A   1      44.809  33.848  26.695  1.00  0.00    -0.014 A 
ATOM     75  C   UNL A   1      44.419  34.377  27.935  1.00  0.00     0.009 A 
ATOM     76  C   UNL A   1      44.059  34.176  25.555  1.00  0.00     0.009 A 
ATOM     77  C   UNL A   1      43.305  35.216  28.028  1.00  0.00     0.001 A 
ATOM     78  C   UNL A   1      42.962  35.037  25.646  1.00  0.00     0.001 A 
ATOM     79  C   UNL A   1      42.584  35.554  26.882  1.00  0.00     0.000 A 
ENDBRANCH  55  74
BRANCH  67  80
ATOM     80  C   UNL A   1      51.557  35.101  25.350  1.00  0.00    -0.014 A 
ATOM     81  C   UNL A   1      52.272  35.739  26.373  1.00  0.00     0.009 A 
ATOM     82  C   UNL A   1      51.646  35.601  24.041  1.00  0.00     0.009 A 
ATOM     83  C   UNL A   1      53.047  36.867  26.094  1.00  0.00     0.001 A 
ATOM     84  C   UNL A   1      52.448  36.707  23.758  1.00  0.00     0.001 A 
ATOM     85  C   UNL A   1      53.142  37.343  24.786  1.00  0.00     0.000 A 
ENDBRANCH  67  80
ENDBRANCH  41  42
ENDBRANCH  34  36
ENDBRANCH  33  34
ENDBRANCH  32  33
ENDBRANCH  31  32
ENDBRANCH  30  31
ENDBRANCH  29  30
ENDBRANCH  28  29
ENDBRANCH   1  28
TORSDOF 23
ENDMDL
MODEL 3
REMARK VINA RESULT:      -7.6      9.836     14.458
REMARK SMILES Cc1cc(C)c(C(=O)N[C@H](C(=O)OCCOCCOCCOCCOC(=O)c2ccc(-c3c4nc(c(-c5ccccc5)c5ccc([nH]5)c(-c5ccccc5)c5nc(c(-c6ccccc6)c6ccc3[nH]6)C=C5)C=C4)cc2)C(C)C)c(=O)[nH]1
REMARK SMILES IDX 19 1 18 2 17 3 16 4 15 5 14 6 13 7 11 8 12 9 10 10 9 11 7 12
REMARK SMILES IDX 8 13 6 15 1 16 2 17 3 18 81 19 4 20 79 21 5 23 80 24 76 25
REMARK SMILES IDX 77 26 78 27 20 28 21 29 22 30 23 31 24 32 25 33 26 34 27 35
REMARK SMILES IDX 28 36 29 37 75 38 30 39 74 40 31 41 32 42 33 43 68 44 34 45
REMARK SMILES IDX 73 46 67 47 69 48 35 49 72 50 66 51 65 52 36 54 58 55 43 56
REMARK SMILES IDX 57 57 44 58 47 59 56 60 70 61 45 62 46 63 55 65 71 66 48 67
REMARK SMILES IDX 37 68 38 69 42 70 39 71 41 72 40 73 59 74 60 75 64 76 61 77
REMARK SMILES IDX 63 78 62 79 49 80 50 81 54 82 51 83 53 84 52 85
REMARK H PARENT 9 14 81 22 69 53 47 64
REMARK Flexibility Score: inf
ROOT
ATOM      1  O   UNL A   1      35.124  32.086  39.865  1.00  0.00    -0.377 OA
ENDROOT
BRANCH   1   2
ATOM      2  C   UNL A   1      35.293  33.113  40.815  1.00  0.00     0.188 C 
BRANCH   2   3
ATOM      3  C   UNL A   1      34.182  33.281  41.856  1.00  0.00     0.188 C 
BRANCH   3   4
ATOM      4  O   UNL A   1      33.209  34.301  41.702  1.00  0.00    -0.376 OA
BRANCH   4   5
ATOM      5  C   UNL A   1      32.629  34.551  40.429  1.00  0.00     0.202 C 
BRANCH   5   6
ATOM      6  C   UNL A   1      31.848  35.855  40.152  1.00  0.00     0.261 C 
BRANCH   6   7
ATOM      7  O   UNL A   1      32.508  37.105  40.477  1.00  0.00    -0.462 OA
BRANCH   7   8
ATOM      8  C   UNL A   1      31.720  38.049  41.047  1.00  0.00     0.328 C 
ATOM      9  O   UNL A   1      31.344  39.048  40.436  1.00  0.00    -0.250 OA
BRANCH   8  10
ATOM     10  C   UNL A   1      31.300  37.799  42.537  1.00  0.00     0.195 C 
BRANCH  10  11
ATOM     11  N   UNL A   1      31.934  36.776  43.418  1.00  0.00    -0.338 N 
ATOM     12  C   UNL A   1      31.500  35.987  44.463  1.00  0.00     0.257 C 
ATOM     13  O   UNL A   1      32.408  35.595  45.204  1.00  0.00    -0.269 OA
ATOM     14  H   UNL A   1      32.883  36.627  43.202  1.00  0.00     0.164 HD
BRANCH  12  15
ATOM     15  C   UNL A   1      30.087  35.458  44.662  1.00  0.00     0.107 A 
ATOM     16  C   UNL A   1      26.520  33.137  45.628  1.00  0.00     0.064 C 
ATOM     17  C   UNL A   1      27.713  33.987  45.316  1.00  0.00     0.015 A 
ATOM     18  C   UNL A   1      28.123  35.000  46.087  1.00  0.00     0.025 A 
ATOM     19  N   UNL A   1      28.362  33.783  44.130  1.00  0.00    -0.326 N 
ATOM     20  C   UNL A   1      29.354  35.745  45.782  1.00  0.00    -0.031 A 
ATOM     21  C   UNL A   1      29.362  34.600  43.665  1.00  0.00     0.261 A 
ATOM     22  H   UNL A   1      28.097  33.010  43.582  1.00  0.00     0.169 HD
ATOM     23  C   UNL A   1      29.649  36.731  46.890  1.00  0.00     0.045 C 
ATOM     24  O   UNL A   1      29.560  34.645  42.456  1.00  0.00    -0.269 OA
ENDBRANCH  12  15
ENDBRANCH  10  11
BRANCH  10  25
ATOM     25  C   UNL A   1      31.271  39.160  43.301  1.00  0.00     0.017 C 
ATOM     26  C   UNL A   1      30.048  39.268  44.222  1.00  0.00     0.010 C 
ATOM     27  C   UNL A   1      32.532  39.368  44.154  1.00  0.00     0.010 C 
ENDBRANCH  10  25
ENDBRANCH   8  10
ENDBRANCH   7   8
ENDBRANCH   6   7
ENDBRANCH   5   6
ENDBRANCH   4   5
ENDBRANCH   3   4
ENDBRANCH   2   3
ENDBRANCH   1   2
BRANCH   1  28
ATOM     28  C   UNL A   1      36.285  31.465  39.351  1.00  0.00     0.188 C 
BRANCH  28  29
ATOM     29  C   UNL A   1      37.591  32.273  39.363  1.00  0.00     0.188 C 
BRANCH  29  30
ATOM     30  O   UNL A   1      38.141  32.537  38.079  1.00  0.00    -0.376 OA
BRANCH  30  31
ATOM     31  C   UNL A   1      37.567  33.565  37.279  1.00  0.00     0.202 C 
BRANCH  31  32
ATOM     32  C   UNL A   1      36.856  33.159  35.978  1.00  0.00     0.261 C 
BRANCH  32  33
ATOM     33  O   UNL A   1      37.678  32.783  34.869  1.00  0.00    -0.460 OA
BRANCH  33  34
ATOM     34  C   UNL A   1      37.475  33.370  33.672  1.00  0.00     0.338 C 
ATOM     35  O   UNL A   1      36.989  34.451  33.442  1.00  0.00    -0.246 OA
BRANCH  34  36
ATOM     36  C   UNL A   1      38.199  32.532  32.697  1.00  0.00     0.060 A 
ATOM     37  C   UNL A   1      39.134  31.611  33.183  1.00  0.00     0.016 A 
ATOM     38  C   UNL A   1      37.902  32.606  31.333  1.00  0.00     0.016 A 
ATOM     39  C   UNL A   1      39.796  30.770  32.298  1.00  0.00     0.010 A 
ATOM     40  C   UNL A   1      38.597  31.791  30.440  1.00  0.00     0.010 A 
ATOM     41  C   UNL A   1      39.571  30.902  30.923  1.00  0.00    -0.014 A 
BRANCH  41  42
ATOM     42  C   UNL A   1      40.561  30.317  29.999  1.00  0.00     0.031 A 
ATOM     43  C   UNL A   1      41.809  31.111  29.740  1.00  0.00     0.074 A 
ATOM     44  C   UNL A   1      40.392  29.093  29.475  1.00  0.00     0.049 A 
ATOM     45  N   UNL A   1      42.848  30.808  29.011  1.00  0.00    -0.248 NA
ATOM     46  C   UNL A   1      41.899  32.424  30.405  1.00  0.00     0.031 C 
ATOM     47  C   UNL A   1      39.251  28.216  29.725  1.00  0.00     0.029 A 
ATOM     48  N   UNL A   1      41.200  28.374  28.634  1.00  0.00    -0.354 N 
ATOM     49  C   UNL A   1      43.713  31.887  29.135  1.00  0.00     0.074 A 
ATOM     50  C   UNL A   1      43.068  32.868  29.975  1.00  0.00     0.031 C 
ATOM     51  C   UNL A   1      39.436  27.065  29.053  1.00  0.00     0.029 A 
ATOM     52  C   UNL A   1      40.690  27.144  28.306  1.00  0.00     0.049 A 
ATOM     53  H   UNL A   1      42.062  28.708  28.299  1.00  0.00     0.167 HD
ATOM     54  C   UNL A   1      44.946  32.042  28.602  1.00  0.00     0.031 A 
ATOM     55  C   UNL A   1      41.183  26.196  27.485  1.00  0.00     0.031 A 
ATOM     56  C   UNL A   1      45.565  31.072  27.742  1.00  0.00     0.049 A 
ATOM     57  C   UNL A   1      42.508  26.436  26.811  1.00  0.00     0.074 A 
ATOM     58  C   UNL A   1      46.803  31.128  27.132  1.00  0.00     0.029 A 
ATOM     59  N   UNL A   1      44.978  29.873  27.362  1.00  0.00    -0.354 N 
ATOM     60  N   UNL A   1      43.327  27.454  26.939  1.00  0.00    -0.248 NA
ATOM     61  C   UNL A   1      42.979  25.399  25.884  1.00  0.00     0.031 C 
ATOM     62  C   UNL A   1      46.938  29.993  26.328  1.00  0.00     0.029 A 
ATOM     63  C   UNL A   1      45.816  29.195  26.495  1.00  0.00     0.049 A 
ATOM     64  H   UNL A   1      44.098  29.553  27.665  1.00  0.00     0.167 HD
ATOM     65  C   UNL A   1      44.418  27.172  26.125  1.00  0.00     0.074 A 
ATOM     66  C   UNL A   1      44.162  25.879  25.522  1.00  0.00     0.031 C 
ATOM     67  C   UNL A   1      45.531  27.914  25.899  1.00  0.00     0.031 A 
BRANCH  54  68
ATOM     68  C   UNL A   1      45.672  33.323  28.900  1.00  0.00    -0.014 A 
ATOM     69  C   UNL A   1      45.526  34.453  28.080  1.00  0.00     0.009 A 
ATOM     70  C   UNL A   1      46.506  33.402  30.025  1.00  0.00     0.009 A 
ATOM     71  C   UNL A   1      46.227  35.628  28.364  1.00  0.00     0.001 A 
ATOM     72  C   UNL A   1      47.180  34.588  30.324  1.00  0.00     0.001 A 
ATOM     73  C   UNL A   1      47.047  35.696  29.489  1.00  0.00     0.000 A 
ENDBRANCH  54  68
BRANCH  55  74
ATOM     74  C   UNL A   1      40.415  24.944  27.265  1.00  0.00    -0.014 A 
ATOM     75  C   UNL A   1      39.181  24.967  26.598  1.00  0.00     0.009 A 
ATOM     76  C   UNL A   1      40.932  23.707  27.686  1.00  0.00     0.009 A 
ATOM     77  C   UNL A   1      38.483  23.781  26.358  1.00  0.00     0.001 A 
ATOM     78  C   UNL A   1      40.245  22.520  27.420  1.00  0.00     0.001 A 
ATOM     79  C   UNL A   1      39.021  22.558  26.759  1.00  0.00     0.000 A 
ENDBRANCH  55  74
BRANCH  67  80
ATOM     80  C   UNL A   1      46.567  27.349  24.967  1.00  0.00    -0.014 A 
ATOM     81  C   UNL A   1      47.026  28.083  23.864  1.00  0.00     0.009 A 
ATOM     82  C   UNL A   1      47.156  26.107  25.254  1.00  0.00     0.009 A 
ATOM     83  C   UNL A   1      48.043  27.574  23.053  1.00  0.00     0.001 A 
ATOM     84  C   UNL A   1      48.196  25.617  24.463  1.00  0.00     0.001 A 
ATOM     85  C   UNL A   1      48.633  26.348  23.360  1.00  0.00     0.000 A 
ENDBRANCH  67  80
ENDBRANCH  41  42
ENDBRANCH  34  36
ENDBRANCH  33  34
ENDBRANCH  32  33
ENDBRANCH  31  32
ENDBRANCH  30  31
ENDBRANCH  29  30
ENDBRANCH  28  29
ENDBRANCH   1  28
TORSDOF 23
ENDMDL
