MODEL 1
REMARK VINA RESULT:     -10.1      0.000      0.000
REMARK SMILES Cc1cc(F)cc(N[C@](C)(C(=O)OCCOCCOCCOCCOC(=O)c2ccc(-c3c4nc(c(-c5ccccc5)c5ccc([nH]5)c(-c5ccccc5)c5nc(c(-c6ccccc6)c6ccc3[nH]6)C=C5)C=C4)cc2)c2cccc(F)c2)c1
REMARK SMILES IDX 19 1 18 2 17 3 16 4 15 5 14 6 13 7 11 8 12 9 9 10 10 11 8 12
REMARK SMILES IDX 7 14 1 15 2 16 3 17 83 18 4 19 5 20 6 21 76 22 77 23 82 24
REMARK SMILES IDX 78 25 80 26 79 27 81 28 20 29 21 30 22 31 23 32 24 33 25 34
REMARK SMILES IDX 26 35 27 36 28 37 29 38 75 39 30 40 74 41 31 42 32 43 33 44
REMARK SMILES IDX 68 45 34 46 73 47 67 48 69 49 35 50 72 51 66 52 65 53 36 55
REMARK SMILES IDX 58 56 43 57 57 58 44 59 47 60 56 61 70 62 45 63 46 64 55 66
REMARK SMILES IDX 71 67 48 68 37 69 38 70 42 71 39 72 41 73 40 74 59 75 60 76
REMARK SMILES IDX 64 77 61 78 63 79 62 80 49 81 50 82 54 83 51 84 53 85 52 86
REMARK H PARENT 8 13 69 54 47 65
REMARK Flexibility Score: inf
ROOT
ATOM      1  O   UNL A   1      37.232  21.964  24.866  1.00  0.00    -0.377 OA
ENDROOT
BRANCH   1   2
ATOM      2  C   UNL A   1      35.919  21.673  25.301  1.00  0.00     0.188 C 
BRANCH   2   3
ATOM      3  C   UNL A   1      35.068  22.890  25.675  1.00  0.00     0.188 C 
BRANCH   3   4
ATOM      4  O   UNL A   1      33.863  22.970  24.944  1.00  0.00    -0.376 OA
BRANCH   4   5
ATOM      5  C   UNL A   1      33.543  24.140  24.209  1.00  0.00     0.202 C 
BRANCH   5   6
ATOM      6  C   UNL A   1      32.635  24.195  22.959  1.00  0.00     0.261 C 
BRANCH   6   7
ATOM      7  O   UNL A   1      31.384  24.890  23.053  1.00  0.00    -0.461 OA
BRANCH   7   8
ATOM      8  C   UNL A   1      31.325  26.119  22.500  1.00  0.00     0.336 C 
ATOM      9  O   UNL A   1      31.573  26.268  21.307  1.00  0.00    -0.249 OA
BRANCH   8  10
ATOM     10  C   UNL A   1      30.901  27.286  23.506  1.00  0.00     0.159 C 
ATOM     11  C   UNL A   1      30.376  26.640  24.796  1.00  0.00     0.053 C 
BRANCH  10  12
ATOM     12  N   UNL A   1      32.104  28.149  23.786  1.00  0.00    -0.366 N 
ATOM     13  H   UNL A   1      32.816  28.108  23.108  1.00  0.00     0.162 HD
BRANCH  12  14
ATOM     14  C   UNL A   1      32.359  28.993  24.861  1.00  0.00     0.038 A 
ATOM     15  C   UNL A   1      35.086  29.331  27.556  1.00  0.00     0.044 C 
ATOM     16  C   UNL A   1      33.827  29.543  26.770  1.00  0.00    -0.046 A 
ATOM     17  C   UNL A   1      32.922  30.515  27.190  1.00  0.00     0.042 A 
ATOM     18  C   UNL A   1      33.532  28.787  25.617  1.00  0.00     0.029 A 
ATOM     19  C   UNL A   1      31.810  30.780  26.414  1.00  0.00     0.125 A 
ATOM     20  F   UNL A   1      30.946  31.728  26.801  1.00  0.00    -0.207 F 
ATOM     21  C   UNL A   1      31.566  30.074  25.241  1.00  0.00     0.065 A 
ENDBRANCH  12  14
ENDBRANCH  10  12
BRANCH  10  22
ATOM     22  C   UNL A   1      29.712  28.214  23.031  1.00  0.00    -0.009 A 
ATOM     23  C   UNL A   1      28.360  27.990  23.407  1.00  0.00     0.007 A 
ATOM     24  C   UNL A   1      29.940  29.316  22.178  1.00  0.00     0.046 A 
ATOM     25  C   UNL A   1      27.332  28.885  23.063  1.00  0.00     0.003 A 
ATOM     26  C   UNL A   1      28.907  30.191  21.827  1.00  0.00     0.123 A 
ATOM     27  C   UNL A   1      27.611  29.998  22.280  1.00  0.00     0.039 A 
ATOM     28  F   UNL A   1      29.174  31.243  21.040  1.00  0.00    -0.207 F 
ENDBRANCH  10  22
ENDBRANCH   8  10
ENDBRANCH   7   8
ENDBRANCH   6   7
ENDBRANCH   5   6
ENDBRANCH   4   5
ENDBRANCH   3   4
ENDBRANCH   2   3
ENDBRANCH   1   2
BRANCH   1  29
ATOM     29  C   UNL A   1      38.335  21.350  25.517  1.00  0.00     0.188 C 
BRANCH  29  30
ATOM     30  C   UNL A   1      39.316  22.168  26.383  1.00  0.00     0.188 C 
BRANCH  30  31
ATOM     31  O   UNL A   1      40.222  21.399  27.154  1.00  0.00    -0.376 OA
BRANCH  31  32
ATOM     32  C   UNL A   1      41.249  20.682  26.489  1.00  0.00     0.202 C 
BRANCH  32  33
ATOM     33  C   UNL A   1      42.543  21.430  26.124  1.00  0.00     0.261 C 
BRANCH  33  34
ATOM     34  O   UNL A   1      42.788  22.672  26.801  1.00  0.00    -0.460 OA
BRANCH  34  35
ATOM     35  C   UNL A   1      42.846  23.800  26.065  1.00  0.00     0.338 C 
ATOM     36  O   UNL A   1      43.123  23.895  24.880  1.00  0.00    -0.246 OA
BRANCH  35  37
ATOM     37  C   UNL A   1      42.317  24.907  26.892  1.00  0.00     0.060 A 
ATOM     38  C   UNL A   1      42.969  26.147  26.865  1.00  0.00     0.016 A 
ATOM     39  C   UNL A   1      41.173  24.726  27.673  1.00  0.00     0.016 A 
ATOM     40  C   UNL A   1      42.503  27.200  27.653  1.00  0.00     0.010 A 
ATOM     41  C   UNL A   1      40.723  25.773  28.482  1.00  0.00     0.010 A 
ATOM     42  C   UNL A   1      41.410  27.000  28.506  1.00  0.00    -0.014 A 
BRANCH  42  43
ATOM     43  C   UNL A   1      41.127  27.983  29.577  1.00  0.00     0.031 A 
ATOM     44  C   UNL A   1      41.998  27.964  30.804  1.00  0.00     0.074 A 
ATOM     45  C   UNL A   1      40.144  28.892  29.466  1.00  0.00     0.049 A 
ATOM     46  N   UNL A   1      41.935  28.698  31.885  1.00  0.00    -0.248 NA
ATOM     47  C   UNL A   1      43.090  26.977  30.807  1.00  0.00     0.031 C 
ATOM     48  C   UNL A   1      39.272  29.061  28.306  1.00  0.00     0.029 A 
ATOM     49  N   UNL A   1      39.719  29.849  30.353  1.00  0.00    -0.354 N 
ATOM     50  C   UNL A   1      42.970  28.256  32.698  1.00  0.00     0.074 A 
ATOM     51  C   UNL A   1      43.619  27.166  32.005  1.00  0.00     0.031 C 
ATOM     52  C   UNL A   1      38.416  30.070  28.551  1.00  0.00     0.029 A 
ATOM     53  C   UNL A   1      38.655  30.586  29.898  1.00  0.00     0.049 A 
ATOM     54  H   UNL A   1      40.139  29.994  31.232  1.00  0.00     0.167 HD
ATOM     55  C   UNL A   1      43.355  28.718  33.913  1.00  0.00     0.031 A 
ATOM     56  C   UNL A   1      37.945  31.555  30.509  1.00  0.00     0.031 A 
ATOM     57  C   UNL A   1      42.688  29.778  34.619  1.00  0.00     0.049 A 
ATOM     58  C   UNL A   1      38.311  31.970  31.910  1.00  0.00     0.074 A 
ATOM     59  C   UNL A   1      42.994  30.320  35.855  1.00  0.00     0.029 A 
ATOM     60  N   UNL A   1      41.564  30.447  34.156  1.00  0.00    -0.354 N 
ATOM     61  N   UNL A   1      39.301  31.560  32.667  1.00  0.00    -0.248 NA
ATOM     62  C   UNL A   1      37.458  32.990  32.539  1.00  0.00     0.031 C 
ATOM     63  C   UNL A   1      42.014  31.267  36.171  1.00  0.00     0.029 A 
ATOM     64  C   UNL A   1      41.142  31.371  35.098  1.00  0.00     0.049 A 
ATOM     65  H   UNL A   1      41.130  30.288  33.287  1.00  0.00     0.167 HD
ATOM     66  C   UNL A   1      39.213  32.295  33.844  1.00  0.00     0.074 A 
ATOM     67  C   UNL A   1      38.078  33.183  33.696  1.00  0.00     0.031 C 
ATOM     68  C   UNL A   1      40.005  32.245  34.944  1.00  0.00     0.031 A 
BRANCH  55  69
ATOM     69  C   UNL A   1      44.521  28.026  34.566  1.00  0.00    -0.014 A 
ATOM     70  C   UNL A   1      44.334  26.998  35.506  1.00  0.00     0.009 A 
ATOM     71  C   UNL A   1      45.830  28.424  34.253  1.00  0.00     0.009 A 
ATOM     72  C   UNL A   1      45.428  26.427  36.160  1.00  0.00     0.001 A 
ATOM     73  C   UNL A   1      46.924  27.826  34.880  1.00  0.00     0.001 A 
ATOM     74  C   UNL A   1      46.722  26.841  35.846  1.00  0.00     0.000 A 
ENDBRANCH  55  69
BRANCH  56  75
ATOM     75  C   UNL A   1      36.814  32.208  29.799  1.00  0.00    -0.014 A 
ATOM     76  C   UNL A   1      35.494  32.010  30.233  1.00  0.00     0.009 A 
ATOM     77  C   UNL A   1      37.043  33.025  28.681  1.00  0.00     0.009 A 
ATOM     78  C   UNL A   1      34.428  32.604  29.555  1.00  0.00     0.001 A 
ATOM     79  C   UNL A   1      35.977  33.641  28.022  1.00  0.00     0.001 A 
ATOM     80  C   UNL A   1      34.670  33.425  28.455  1.00  0.00     0.000 A 
ENDBRANCH  56  75
BRANCH  68  81
ATOM     81  C   UNL A   1      39.702  33.206  36.061  1.00  0.00    -0.014 A 
ATOM     82  C   UNL A   1      40.268  34.491  36.103  1.00  0.00     0.009 A 
ATOM     83  C   UNL A   1      38.797  32.833  37.069  1.00  0.00     0.009 A 
ATOM     84  C   UNL A   1      39.963  35.365  37.149  1.00  0.00     0.001 A 
ATOM     85  C   UNL A   1      38.468  33.721  38.094  1.00  0.00     0.001 A 
ATOM     86  C   UNL A   1      39.058  34.983  38.140  1.00  0.00     0.000 A 
ENDBRANCH  68  81
ENDBRANCH  42  43
ENDBRANCH  35  37
ENDBRANCH  34  35
ENDBRANCH  33  34
ENDBRANCH  32  33
ENDBRANCH  31  32
ENDBRANCH  30  31
ENDBRANCH  29  30
ENDBRANCH   1  29
TORSDOF 23
ENDMDL
MODEL 2
REMARK VINA RESULT:     -10.1      1.113      5.843
REMARK SMILES Cc1cc(F)cc(N[C@](C)(C(=O)OCCOCCOCCOCCOC(=O)c2ccc(-c3c4nc(c(-c5ccccc5)c5ccc([nH]5)c(-c5ccccc5)c5nc(c(-c6ccccc6)c6ccc3[nH]6)C=C5)C=C4)cc2)c2cccc(F)c2)c1
REMARK SMILES IDX 19 1 18 2 17 3 16 4 15 5 14 6 13 7 11 8 12 9 9 10 10 11 8 12
REMARK SMILES IDX 7 14 1 15 2 16 3 17 83 18 4 19 5 20 6 21 76 22 77 23 82 24
REMARK SMILES IDX 78 25 80 26 79 27 81 28 20 29 21 30 22 31 23 32 24 33 25 34
REMARK SMILES IDX 26 35 27 36 28 37 29 38 75 39 30 40 74 41 31 42 32 43 33 44
REMARK SMILES IDX 68 45 34 46 73 47 67 48 69 49 35 50 72 51 66 52 65 53 36 55
REMARK SMILES IDX 58 56 43 57 57 58 44 59 47 60 56 61 70 62 45 63 46 64 55 66
REMARK SMILES IDX 71 67 48 68 37 69 38 70 42 71 39 72 41 73 40 74 59 75 60 76
REMARK SMILES IDX 64 77 61 78 63 79 62 80 49 81 50 82 54 83 51 84 53 85 52 86
REMARK H PARENT 8 13 69 54 47 65
REMARK Flexibility Score: inf
ROOT
ATOM      1  O   UNL A   1      37.385  21.822  24.423  1.00  0.00    -0.377 OA
ENDROOT
BRANCH   1   2
ATOM      2  C   UNL A   1      36.013  21.716  24.744  1.00  0.00     0.188 C 
BRANCH   2   3
ATOM      3  C   UNL A   1      35.332  23.026  25.150  1.00  0.00     0.188 C 
BRANCH   3   4
ATOM      4  O   UNL A   1      33.995  23.117  24.705  1.00  0.00    -0.376 OA
BRANCH   4   5
ATOM      5  C   UNL A   1      33.638  24.029  23.678  1.00  0.00     0.202 C 
BRANCH   5   6
ATOM      6  C   UNL A   1      32.380  23.930  22.786  1.00  0.00     0.261 C 
BRANCH   6   7
ATOM      7  O   UNL A   1      31.302  24.847  23.019  1.00  0.00    -0.461 OA
BRANCH   7   8
ATOM      8  C   UNL A   1      31.452  26.100  22.541  1.00  0.00     0.336 C 
ATOM      9  O   UNL A   1      31.868  26.275  21.400  1.00  0.00    -0.249 OA
BRANCH   8  10
ATOM     10  C   UNL A   1      31.035  27.259  23.559  1.00  0.00     0.159 C 
ATOM     11  C   UNL A   1      30.511  26.602  24.845  1.00  0.00     0.053 C 
BRANCH  10  12
ATOM     12  N   UNL A   1      32.242  28.115  23.845  1.00  0.00    -0.366 N 
ATOM     13  H   UNL A   1      32.875  28.208  23.097  1.00  0.00     0.162 HD
BRANCH  12  14
ATOM     14  C   UNL A   1      32.595  28.792  25.006  1.00  0.00     0.038 A 
ATOM     15  C   UNL A   1      31.400  31.940  26.871  1.00  0.00     0.044 C 
ATOM     16  C   UNL A   1      32.200  30.733  26.482  1.00  0.00    -0.046 A 
ATOM     17  C   UNL A   1      33.312  30.383  27.246  1.00  0.00     0.042 A 
ATOM     18  C   UNL A   1      31.859  29.941  25.368  1.00  0.00     0.029 A 
ATOM     19  C   UNL A   1      33.992  29.217  26.949  1.00  0.00     0.125 A 
ATOM     20  F   UNL A   1      35.050  28.864  27.691  1.00  0.00    -0.207 F 
ATOM     21  C   UNL A   1      33.604  28.407  25.887  1.00  0.00     0.065 A 
ENDBRANCH  12  14
ENDBRANCH  10  12
BRANCH  10  22
ATOM     22  C   UNL A   1      29.848  28.196  23.096  1.00  0.00    -0.009 A 
ATOM     23  C   UNL A   1      30.040  29.328  22.260  1.00  0.00     0.007 A 
ATOM     24  C   UNL A   1      28.522  27.958  23.517  1.00  0.00     0.046 A 
ATOM     25  C   UNL A   1      28.962  30.087  21.773  1.00  0.00     0.003 A 
ATOM     26  C   UNL A   1      27.457  28.729  23.041  1.00  0.00     0.123 A 
ATOM     27  C   UNL A   1      27.663  29.777  22.156  1.00  0.00     0.039 A 
ATOM     28  F   UNL A   1      26.209  28.450  23.442  1.00  0.00    -0.207 F 
ENDBRANCH  10  22
ENDBRANCH   8  10
ENDBRANCH   7   8
ENDBRANCH   6   7
ENDBRANCH   5   6
ENDBRANCH   4   5
ENDBRANCH   3   4
ENDBRANCH   2   3
ENDBRANCH   1   2
BRANCH   1  29
ATOM     29  C   UNL A   1      38.358  21.431  25.382  1.00  0.00     0.188 C 
BRANCH  29  30
ATOM     30  C   UNL A   1      39.045  22.465  26.299  1.00  0.00     0.188 C 
BRANCH  30  31
ATOM     31  O   UNL A   1      40.167  21.980  27.015  1.00  0.00    -0.376 OA
BRANCH  31  32
ATOM     32  C   UNL A   1      41.303  21.536  26.289  1.00  0.00     0.202 C 
BRANCH  32  33
ATOM     33  C   UNL A   1      42.379  22.570  25.915  1.00  0.00     0.261 C 
BRANCH  33  34
ATOM     34  O   UNL A   1      42.415  23.779  26.688  1.00  0.00    -0.460 OA
BRANCH  34  35
ATOM     35  C   UNL A   1      42.266  24.954  26.044  1.00  0.00     0.338 C 
ATOM     36  O   UNL A   1      42.342  25.151  24.841  1.00  0.00    -0.246 OA
BRANCH  35  37
ATOM     37  C   UNL A   1      41.789  25.951  27.026  1.00  0.00     0.060 A 
ATOM     38  C   UNL A   1      42.352  27.234  27.021  1.00  0.00     0.016 A 
ATOM     39  C   UNL A   1      40.777  25.627  27.933  1.00  0.00     0.016 A 
ATOM     40  C   UNL A   1      41.936  28.185  27.953  1.00  0.00     0.010 A 
ATOM     41  C   UNL A   1      40.379  26.572  28.883  1.00  0.00     0.010 A 
ATOM     42  C   UNL A   1      40.985  27.840  28.922  1.00  0.00    -0.014 A 
BRANCH  42  43
ATOM     43  C   UNL A   1      40.793  28.714  30.103  1.00  0.00     0.031 A 
ATOM     44  C   UNL A   1      39.682  29.728  30.061  1.00  0.00     0.074 A 
ATOM     45  C   UNL A   1      41.559  28.602  31.201  1.00  0.00     0.049 A 
ATOM     46  N   UNL A   1      39.333  30.622  30.951  1.00  0.00    -0.248 NA
ATOM     47  C   UNL A   1      38.855  29.732  28.843  1.00  0.00     0.031 C 
ATOM     48  C   UNL A   1      42.623  27.621  31.397  1.00  0.00     0.029 A 
ATOM     49  N   UNL A   1      41.550  29.331  32.363  1.00  0.00    -0.354 N 
ATOM     50  C   UNL A   1      38.253  31.297  30.397  1.00  0.00     0.074 A 
ATOM     51  C   UNL A   1      38.032  30.740  29.081  1.00  0.00     0.031 C 
ATOM     52  C   UNL A   1      43.164  27.806  32.615  1.00  0.00     0.029 A 
ATOM     53  C   UNL A   1      42.511  28.942  33.264  1.00  0.00     0.049 A 
ATOM     54  H   UNL A   1      40.915  30.063  32.536  1.00  0.00     0.167 HD
ATOM     55  C   UNL A   1      37.505  32.291  30.935  1.00  0.00     0.031 A 
ATOM     56  C   UNL A   1      42.835  29.458  34.465  1.00  0.00     0.031 A 
ATOM     57  C   UNL A   1      37.747  32.871  32.228  1.00  0.00     0.049 A 
ATOM     58  C   UNL A   1      42.070  30.644  34.993  1.00  0.00     0.074 A 
ATOM     59  C   UNL A   1      37.051  33.883  32.866  1.00  0.00     0.029 A 
ATOM     60  N   UNL A   1      38.780  32.500  33.076  1.00  0.00    -0.354 N 
ATOM     61  N   UNL A   1      41.040  31.267  34.472  1.00  0.00    -0.248 NA
ATOM     62  C   UNL A   1      42.515  31.194  36.283  1.00  0.00     0.031 C 
ATOM     63  C   UNL A   1      37.706  34.172  34.068  1.00  0.00     0.029 A 
ATOM     64  C   UNL A   1      38.762  33.287  34.216  1.00  0.00     0.049 A 
ATOM     65  H   UNL A   1      39.429  31.782  32.896  1.00  0.00     0.167 HD
ATOM     66  C   UNL A   1      40.692  32.257  35.385  1.00  0.00     0.074 A 
ATOM     67  C   UNL A   1      41.614  32.144  36.495  1.00  0.00     0.031 C 
ATOM     68  C   UNL A   1      39.692  33.172  35.312  1.00  0.00     0.031 A 
BRANCH  55  69
ATOM     69  C   UNL A   1      36.392  32.841  30.084  1.00  0.00    -0.014 A 
ATOM     70  C   UNL A   1      36.628  33.831  29.114  1.00  0.00     0.009 A 
ATOM     71  C   UNL A   1      35.080  32.378  30.271  1.00  0.00     0.009 A 
ATOM     72  C   UNL A   1      35.567  34.386  28.395  1.00  0.00     0.001 A 
ATOM     73  C   UNL A   1      34.026  32.907  29.523  1.00  0.00     0.001 A 
ATOM     74  C   UNL A   1      34.268  33.923  28.599  1.00  0.00     0.000 A 
ENDBRANCH  55  69
BRANCH  56  75
ATOM     75  C   UNL A   1      43.937  28.855  35.260  1.00  0.00    -0.014 A 
ATOM     76  C   UNL A   1      45.251  29.327  35.125  1.00  0.00     0.009 A 
ATOM     77  C   UNL A   1      43.685  27.801  36.153  1.00  0.00     0.009 A 
ATOM     78  C   UNL A   1      46.292  28.748  35.855  1.00  0.00     0.001 A 
ATOM     79  C   UNL A   1      44.722  27.242  36.903  1.00  0.00     0.001 A 
ATOM     80  C   UNL A   1      46.026  27.711  36.748  1.00  0.00     0.000 A 
ENDBRANCH  56  75
BRANCH  68  81
ATOM     81  C   UNL A   1      39.513  34.097  36.485  1.00  0.00    -0.014 A 
ATOM     82  C   UNL A   1      38.790  33.711  37.626  1.00  0.00     0.009 A 
ATOM     83  C   UNL A   1      40.117  35.366  36.465  1.00  0.00     0.009 A 
ATOM     84  C   UNL A   1      38.647  34.589  38.703  1.00  0.00     0.001 A 
ATOM     85  C   UNL A   1      40.001  36.227  37.557  1.00  0.00     0.001 A 
ATOM     86  C   UNL A   1      39.257  35.843  38.671  1.00  0.00     0.000 A 
ENDBRANCH  68  81
ENDBRANCH  42  43
ENDBRANCH  35  37
ENDBRANCH  34  35
ENDBRANCH  33  34
ENDBRANCH  32  33
ENDBRANCH  31  32
ENDBRANCH  30  31
ENDBRANCH  29  30
ENDBRANCH   1  29
TORSDOF 23
ENDMDL
MODEL 3
REMARK VINA RESULT:      -9.9      1.625      6.438
REMARK SMILES Cc1cc(F)cc(N[C@](C)(C(=O)OCCOCCOCCOCCOC(=O)c2ccc(-c3c4nc(c(-c5ccccc5)c5ccc([nH]5)c(-c5ccccc5)c5nc(c(-c6ccccc6)c6ccc3[nH]6)C=C5)C=C4)cc2)c2cccc(F)c2)c1
REMARK SMILES IDX 19 1 18 2 17 3 16 4 15 5 14 6 13 7 11 8 12 9 9 10 10 11 8 12
REMARK SMILES IDX 7 14 1 15 2 16 3 17 83 18 4 19 5 20 6 21 76 22 77 23 82 24
REMARK SMILES IDX 78 25 80 26 79 27 81 28 20 29 21 30 22 31 23 32 24 33 25 34
REMARK SMILES IDX 26 35 27 36 28 37 29 38 75 39 30 40 74 41 31 42 32 43 33 44
REMARK SMILES IDX 68 45 34 46 73 47 67 48 69 49 35 50 72 51 66 52 65 53 36 55
REMARK SMILES IDX 58 56 43 57 57 58 44 59 47 60 56 61 70 62 45 63 46 64 55 66
REMARK SMILES IDX 71 67 48 68 37 69 38 70 42 71 39 72 41 73 40 74 59 75 60 76
REMARK SMILES IDX 64 77 61 78 63 79 62 80 49 81 50 82 54 83 51 84 53 85 52 86
REMARK H PARENT 8 13 69 54 47 65
REMARK Flexibility Score: inf
ROOT
ATOM      1  O   UNL A   1      35.337  23.033  22.747  1.00  0.00    -0.377 OA
ENDROOT
BRANCH   1   2
ATOM      2  C   UNL A   1      33.945  23.187  22.938  1.00  0.00     0.188 C 
BRANCH   2   3
ATOM      3  C   UNL A   1      33.215  21.950  23.469  1.00  0.00     0.188 C 
BRANCH   3   4
ATOM      4  O   UNL A   1      32.031  22.263  24.169  1.00  0.00    -0.376 OA
BRANCH   4   5
ATOM      5  C   UNL A   1      31.882  21.896  25.532  1.00  0.00     0.202 C 
BRANCH   5   6
ATOM      6  C   UNL A   1      31.883  22.873  26.730  1.00  0.00     0.261 C 
BRANCH   6   7
ATOM      7  O   UNL A   1      32.652  24.079  26.629  1.00  0.00    -0.461 OA
BRANCH   7   8
ATOM      8  C   UNL A   1      31.970  25.220  26.398  1.00  0.00     0.336 C 
ATOM      9  O   UNL A   1      30.852  25.375  26.880  1.00  0.00    -0.249 OA
BRANCH   8  10
ATOM     10  C   UNL A   1      32.743  26.292  25.499  1.00  0.00     0.159 C 
ATOM     11  C   UNL A   1      34.208  25.848  25.376  1.00  0.00     0.053 C 
BRANCH  10  12
ATOM     12  N   UNL A   1      32.084  26.357  24.145  1.00  0.00    -0.366 N 
ATOM     13  H   UNL A   1      32.592  25.940  23.412  1.00  0.00     0.162 HD
BRANCH  12  14
ATOM     14  C   UNL A   1      30.867  26.918  23.776  1.00  0.00     0.038 A 
ATOM     15  C   UNL A   1      29.706  30.045  21.856  1.00  0.00     0.044 C 
ATOM     16  C   UNL A   1      29.690  28.790  22.676  1.00  0.00    -0.046 A 
ATOM     17  C   UNL A   1      28.467  28.280  23.109  1.00  0.00     0.042 A 
ATOM     18  C   UNL A   1      30.875  28.110  23.021  1.00  0.00     0.029 A 
ATOM     19  C   UNL A   1      28.442  27.072  23.779  1.00  0.00     0.125 A 
ATOM     20  F   UNL A   1      27.269  26.566  24.181  1.00  0.00    -0.207 F 
ATOM     21  C   UNL A   1      29.614  26.376  24.055  1.00  0.00     0.065 A 
ENDBRANCH  12  14
ENDBRANCH  10  12
BRANCH  10  22
ATOM     22  C   UNL A   1      32.835  27.756  26.088  1.00  0.00    -0.009 A 
ATOM     23  C   UNL A   1      31.689  28.549  26.367  1.00  0.00     0.007 A 
ATOM     24  C   UNL A   1      34.082  28.363  26.349  1.00  0.00     0.046 A 
ATOM     25  C   UNL A   1      31.786  29.806  26.989  1.00  0.00     0.003 A 
ATOM     26  C   UNL A   1      34.169  29.622  26.951  1.00  0.00     0.123 A 
ATOM     27  C   UNL A   1      33.032  30.339  27.294  1.00  0.00     0.039 A 
ATOM     28  F   UNL A   1      35.374  30.148  27.210  1.00  0.00    -0.207 F 
ENDBRANCH  10  22
ENDBRANCH   8  10
ENDBRANCH   7   8
ENDBRANCH   6   7
ENDBRANCH   5   6
ENDBRANCH   4   5
ENDBRANCH   3   4
ENDBRANCH   2   3
ENDBRANCH   1   2
BRANCH   1  29
ATOM     29  C   UNL A   1      36.208  23.109  23.867  1.00  0.00     0.188 C 
BRANCH  29  30
ATOM     30  C   UNL A   1      37.093  21.914  24.281  1.00  0.00     0.188 C 
BRANCH  30  31
ATOM     31  O   UNL A   1      37.731  22.047  25.539  1.00  0.00    -0.376 OA
BRANCH  31  32
ATOM     32  C   UNL A   1      38.965  21.382  25.755  1.00  0.00     0.202 C 
BRANCH  32  33
ATOM     33  C   UNL A   1      40.072  22.130  26.518  1.00  0.00     0.261 C 
BRANCH  33  34
ATOM     34  O   UNL A   1      40.118  23.556  26.365  1.00  0.00    -0.460 OA
BRANCH  34  35
ATOM     35  C   UNL A   1      41.284  24.188  26.608  1.00  0.00     0.338 C 
ATOM     36  O   UNL A   1      42.365  23.970  26.084  1.00  0.00    -0.246 OA
BRANCH  35  37
ATOM     37  C   UNL A   1      40.997  25.344  27.484  1.00  0.00     0.060 A 
ATOM     38  C   UNL A   1      41.921  26.396  27.546  1.00  0.00     0.016 A 
ATOM     39  C   UNL A   1      39.813  25.399  28.223  1.00  0.00     0.016 A 
ATOM     40  C   UNL A   1      41.684  27.488  28.382  1.00  0.00     0.010 A 
ATOM     41  C   UNL A   1      39.589  26.481  29.080  1.00  0.00     0.010 A 
ATOM     42  C   UNL A   1      40.542  27.508  29.193  1.00  0.00    -0.014 A 
BRANCH  42  43
ATOM     43  C   UNL A   1      40.456  28.475  30.312  1.00  0.00     0.031 A 
ATOM     44  C   UNL A   1      39.421  29.564  30.230  1.00  0.00     0.074 A 
ATOM     45  C   UNL A   1      41.251  28.385  31.392  1.00  0.00     0.049 A 
ATOM     46  N   UNL A   1      39.169  30.542  31.062  1.00  0.00    -0.248 NA
ATOM     47  C   UNL A   1      38.553  29.543  29.042  1.00  0.00     0.031 C 
ATOM     48  C   UNL A   1      42.249  27.343  31.625  1.00  0.00     0.029 A 
ATOM     49  N   UNL A   1      41.337  29.192  32.497  1.00  0.00    -0.354 N 
ATOM     50  C   UNL A   1      38.121  31.255  30.494  1.00  0.00     0.074 A 
ATOM     51  C   UNL A   1      37.813  30.624  29.231  1.00  0.00     0.031 C 
ATOM     52  C   UNL A   1      42.845  27.573  32.810  1.00  0.00     0.029 A 
ATOM     53  C   UNL A   1      42.299  28.798  33.393  1.00  0.00     0.049 A 
ATOM     54  H   UNL A   1      40.763  29.980  32.635  1.00  0.00     0.167 HD
ATOM     55  C   UNL A   1      37.466  32.337  30.981  1.00  0.00     0.031 A 
ATOM     56  C   UNL A   1      42.703  29.372  34.543  1.00  0.00     0.031 A 
ATOM     57  C   UNL A   1      37.796  32.987  32.220  1.00  0.00     0.049 A 
ATOM     58  C   UNL A   1      42.045  30.646  35.006  1.00  0.00     0.074 A 
ATOM     59  C   UNL A   1      37.199  34.091  32.803  1.00  0.00     0.029 A 
ATOM     60  N   UNL A   1      38.830  32.601  33.061  1.00  0.00    -0.354 N 
ATOM     61  N   UNL A   1      41.045  31.306  34.473  1.00  0.00    -0.248 NA
ATOM     62  C   UNL A   1      42.575  31.251  36.238  1.00  0.00     0.031 C 
ATOM     63  C   UNL A   1      37.915  34.415  33.960  1.00  0.00     0.029 A 
ATOM     64  C   UNL A   1      38.910  33.467  34.140  1.00  0.00     0.049 A 
ATOM     65  H   UNL A   1      39.419  31.827  32.913  1.00  0.00     0.167 HD
ATOM     66  C   UNL A   1      40.801  32.381  35.321  1.00  0.00     0.074 A 
ATOM     67  C   UNL A   1      41.753  32.278  36.408  1.00  0.00     0.031 C 
ATOM     68  C   UNL A   1      39.868  33.360  35.213  1.00  0.00     0.031 A 
BRANCH  55  69
ATOM     69  C   UNL A   1      36.366  32.907  30.126  1.00  0.00    -0.014 A 
ATOM     70  C   UNL A   1      36.632  33.844  29.113  1.00  0.00     0.009 A 
ATOM     71  C   UNL A   1      35.037  32.517  30.354  1.00  0.00     0.009 A 
ATOM     72  C   UNL A   1      35.586  34.421  28.389  1.00  0.00     0.001 A 
ATOM     73  C   UNL A   1      33.996  33.068  29.603  1.00  0.00     0.001 A 
ATOM     74  C   UNL A   1      34.270  34.032  28.634  1.00  0.00     0.000 A 
ENDBRANCH  55  69
BRANCH  56  75
ATOM     75  C   UNL A   1      43.786  28.746  35.346  1.00  0.00    -0.014 A 
ATOM     76  C   UNL A   1      43.479  27.824  36.358  1.00  0.00     0.009 A 
ATOM     77  C   UNL A   1      45.132  29.071  35.113  1.00  0.00     0.009 A 
ATOM     78  C   UNL A   1      44.493  27.251  37.128  1.00  0.00     0.001 A 
ATOM     79  C   UNL A   1      46.147  28.475  35.865  1.00  0.00     0.001 A 
ATOM     80  C   UNL A   1      45.827  27.571  36.877  1.00  0.00     0.000 A 
ENDBRANCH  56  75
BRANCH  68  81
ATOM     81  C   UNL A   1      39.799  34.377  36.320  1.00  0.00    -0.014 A 
ATOM     82  C   UNL A   1      40.356  35.658  36.179  1.00  0.00     0.009 A 
ATOM     83  C   UNL A   1      39.125  34.059  37.511  1.00  0.00     0.009 A 
ATOM     84  C   UNL A   1      40.271  36.584  37.222  1.00  0.00     0.001 A 
ATOM     85  C   UNL A   1      39.011  34.999  38.537  1.00  0.00     0.001 A 
ATOM     86  C   UNL A   1      39.593  36.257  38.396  1.00  0.00     0.000 A 
ENDBRANCH  68  81
ENDBRANCH  42  43
ENDBRANCH  35  37
ENDBRANCH  34  35
ENDBRANCH  33  34
ENDBRANCH  32  33
ENDBRANCH  31  32
ENDBRANCH  30  31
ENDBRANCH  29  30
ENDBRANCH   1  29
TORSDOF 23
ENDMDL
