MODEL 1
REMARK VINA RESULT:      -8.4      0.000      0.000
REMARK SMILES C[C@]([NH2+]Cc1noc(C2CC2)n1)(C(=O)OCCOCCOCCOCCOC(=O)c1ccc(-c2c3nc(c(-c4ccccc4)c4ccc([nH]4)c(-c4ccccc4)c4nc(c(-c5ccccc5)c5ccc2[nH]5)C=C4)C=C3)cc1)C(F)(F)F
REMARK SMILES IDX 20 1 19 2 18 3 17 4 16 5 15 6 13 7 14 8 2 9 1 10 78 11 79 12
REMARK SMILES IDX 80 13 81 14 3 15 4 18 5 19 6 20 12 21 7 22 8 23 9 24 10 25
REMARK SMILES IDX 11 26 21 27 22 28 23 29 24 30 25 31 26 32 27 33 28 34 29 35
REMARK SMILES IDX 30 36 31 37 77 38 32 39 76 40 33 41 34 42 35 43 70 44 36 45
REMARK SMILES IDX 75 46 69 47 71 48 37 49 74 50 68 51 67 52 38 54 60 55 45 56
REMARK SMILES IDX 59 57 46 58 49 59 58 60 72 61 47 62 48 63 57 65 73 66 50 67
REMARK SMILES IDX 39 68 40 69 44 70 41 71 43 72 42 73 61 74 62 75 66 76 63 77
REMARK SMILES IDX 65 78 64 79 51 80 52 81 56 82 53 83 55 84 54 85
REMARK H PARENT 3 16 3 17 71 53 49 64
REMARK Flexibility Score: inf
ROOT
ATOM      1  C   UNL A   1      34.661  32.958  28.752  1.00  0.00     0.188 C 
ENDROOT
BRANCH   1   2
ATOM      2  C   UNL A   1      34.291  31.494  28.438  1.00  0.00     0.188 C 
BRANCH   2   3
ATOM      3  O   UNL A   1      33.706  31.297  27.166  1.00  0.00    -0.376 OA
BRANCH   3   4
ATOM      4  C   UNL A   1      33.857  30.049  26.525  1.00  0.00     0.202 C 
BRANCH   4   5
ATOM      5  C   UNL A   1      33.566  28.769  27.325  1.00  0.00     0.261 C 
BRANCH   5   6
ATOM      6  O   UNL A   1      33.207  27.593  26.575  1.00  0.00    -0.458 OA
BRANCH   6   7
ATOM      7  C   UNL A   1      31.882  27.346  26.434  1.00  0.00     0.377 C 
ATOM      8  O   UNL A   1      31.133  27.296  27.406  1.00  0.00    -0.244 OA
BRANCH   7   9
ATOM      9  C   UNL A   1      31.411  27.071  24.995  1.00  0.00     0.287 C 
ATOM     10  C   UNL A   1      30.121  26.252  25.084  1.00  0.00     0.103 C 
BRANCH   9  11
ATOM     11  C   UNL A   1      31.091  28.493  24.453  1.00  0.00     0.455 C 
ATOM     12  F   UNL A   1      32.055  28.904  23.587  1.00  0.00    -0.164 F 
ATOM     13  F   UNL A   1      29.930  28.492  23.747  1.00  0.00    -0.164 F 
ATOM     14  F   UNL A   1      30.963  29.440  25.402  1.00  0.00    -0.164 F 
ENDBRANCH   9  11
BRANCH   9  15
ATOM     15  N   UNL A   1      32.325  26.385  24.029  1.00  0.00    -0.318 N 
ATOM     16  H   UNL A   1      33.189  26.211  24.544  1.00  0.00     0.347 HD
ATOM     17  H   UNL A   1      32.302  27.039  23.246  1.00  0.00     0.347 HD
BRANCH  15  18
ATOM     18  C   UNL A   1      32.012  25.135  23.351  1.00  0.00     0.344 C 
BRANCH  18  19
ATOM     19  C   UNL A   1      33.245  24.254  23.347  1.00  0.00     0.226 A 
ATOM     20  N   UNL A   1      33.903  23.948  22.219  1.00  0.00    -0.056 NA
ATOM     21  N   UNL A   1      33.820  23.744  24.496  1.00  0.00    -0.190 NA
ATOM     22  O   UNL A   1      35.021  23.249  22.680  1.00  0.00    -0.339 OA
ATOM     23  C   UNL A   1      34.924  23.193  24.045  1.00  0.00     0.229 A 
BRANCH  23  24
ATOM     24  C   UNL A   1      36.039  22.638  24.927  1.00  0.00     0.079 C 
ATOM     25  C   UNL A   1      36.180  21.126  24.993  1.00  0.00     0.014 C 
ATOM     26  C   UNL A   1      37.235  21.935  24.324  1.00  0.00     0.014 C 
ENDBRANCH  23  24
ENDBRANCH  18  19
ENDBRANCH  15  18
ENDBRANCH   9  15
ENDBRANCH   7   9
ENDBRANCH   6   7
ENDBRANCH   5   6
ENDBRANCH   4   5
ENDBRANCH   3   4
ENDBRANCH   2   3
ENDBRANCH   1   2
BRANCH   1  27
ATOM     27  O   UNL A   1      33.767  33.905  29.327  1.00  0.00    -0.377 OA
BRANCH  27  28
ATOM     28  C   UNL A   1      34.245  34.813  30.307  1.00  0.00     0.188 C 
BRANCH  28  29
ATOM     29  C   UNL A   1      33.168  35.423  31.221  1.00  0.00     0.188 C 
BRANCH  29  30
ATOM     30  O   UNL A   1      33.130  34.820  32.505  1.00  0.00    -0.376 OA
BRANCH  30  31
ATOM     31  C   UNL A   1      34.188  35.122  33.406  1.00  0.00     0.202 C 
BRANCH  31  32
ATOM     32  C   UNL A   1      35.133  34.007  33.898  1.00  0.00     0.261 C 
BRANCH  32  33
ATOM     33  O   UNL A   1      36.175  33.571  33.009  1.00  0.00    -0.460 OA
BRANCH  33  34
ATOM     34  C   UNL A   1      36.018  32.415  32.338  1.00  0.00     0.338 C 
ATOM     35  O   UNL A   1      34.972  31.828  32.108  1.00  0.00    -0.246 OA
BRANCH  34  36
ATOM     36  C   UNL A   1      37.326  32.069  31.737  1.00  0.00     0.060 A 
ATOM     37  C   UNL A   1      37.490  32.179  30.349  1.00  0.00     0.016 A 
ATOM     38  C   UNL A   1      38.392  31.660  32.541  1.00  0.00     0.016 A 
ATOM     39  C   UNL A   1      38.709  31.842  29.759  1.00  0.00     0.010 A 
ATOM     40  C   UNL A   1      39.605  31.295  31.946  1.00  0.00     0.010 A 
ATOM     41  C   UNL A   1      39.756  31.349  30.549  1.00  0.00    -0.014 A 
BRANCH  41  42
ATOM     42  C   UNL A   1      40.908  30.685  29.894  1.00  0.00     0.031 A 
ATOM     43  C   UNL A   1      42.180  31.473  29.728  1.00  0.00     0.074 A 
ATOM     44  C   UNL A   1      40.857  29.400  29.499  1.00  0.00     0.049 A 
ATOM     45  N   UNL A   1      43.317  31.118  29.185  1.00  0.00    -0.248 NA
ATOM     46  C   UNL A   1      42.166  32.852  30.248  1.00  0.00     0.031 C 
ATOM     47  C   UNL A   1      39.708  28.510  29.652  1.00  0.00     0.029 A 
ATOM     48  N   UNL A   1      41.808  28.622  28.887  1.00  0.00    -0.354 N 
ATOM     49  C   UNL A   1      44.149  32.225  29.300  1.00  0.00     0.074 A 
ATOM     50  C   UNL A   1      43.378  33.276  29.925  1.00  0.00     0.031 C 
ATOM     51  C   UNL A   1      40.020  27.306  29.140  1.00  0.00     0.029 A 
ATOM     52  C   UNL A   1      41.377  27.351  28.595  1.00  0.00     0.049 A 
ATOM     53  H   UNL A   1      42.714  28.945  28.675  1.00  0.00     0.167 HD
ATOM     54  C   UNL A   1      45.444  32.355  28.929  1.00  0.00     0.031 A 
ATOM     55  C   UNL A   1      41.999  26.348  27.944  1.00  0.00     0.031 A 
ATOM     56  C   UNL A   1      46.207  31.322  28.281  1.00  0.00     0.049 A 
ATOM     57  C   UNL A   1      43.408  26.554  27.444  1.00  0.00     0.074 A 
ATOM     58  C   UNL A   1      47.523  31.358  27.857  1.00  0.00     0.029 A 
ATOM     59  N   UNL A   1      45.715  30.068  27.954  1.00  0.00    -0.354 N 
ATOM     60  N   UNL A   1      44.192  27.597  27.578  1.00  0.00    -0.248 NA
ATOM     61  C   UNL A   1      44.019  25.436  26.712  1.00  0.00     0.031 C 
ATOM     62  C   UNL A   1      47.809  30.148  27.219  1.00  0.00     0.029 A 
ATOM     63  C   UNL A   1      46.693  29.332  27.311  1.00  0.00     0.049 A 
ATOM     64  H   UNL A   1      44.804  29.749  28.151  1.00  0.00     0.167 HD
ATOM     65  C   UNL A   1      45.398  27.246  26.981  1.00  0.00     0.074 A 
ATOM     66  C   UNL A   1      45.247  25.888  26.500  1.00  0.00     0.031 C 
ATOM     67  C   UNL A   1      46.530  27.979  26.842  1.00  0.00     0.031 A 
BRANCH  54  68
ATOM     68  C   UNL A   1      46.105  33.682  29.185  1.00  0.00    -0.014 A 
ATOM     69  C   UNL A   1      46.055  34.717  28.236  1.00  0.00     0.009 A 
ATOM     70  C   UNL A   1      46.765  33.909  30.401  1.00  0.00     0.009 A 
ATOM     71  C   UNL A   1      46.684  35.938  28.488  1.00  0.00     0.001 A 
ATOM     72  C   UNL A   1      47.365  35.142  30.664  1.00  0.00     0.001 A 
ATOM     73  C   UNL A   1      47.332  36.151  29.703  1.00  0.00     0.000 A 
ENDBRANCH  54  68
BRANCH  55  74
ATOM     74  C   UNL A   1      41.296  25.060  27.693  1.00  0.00    -0.014 A 
ATOM     75  C   UNL A   1      41.569  23.926  28.473  1.00  0.00     0.009 A 
ATOM     76  C   UNL A   1      40.382  24.946  26.635  1.00  0.00     0.009 A 
ATOM     77  C   UNL A   1      40.970  22.698  28.177  1.00  0.00     0.001 A 
ATOM     78  C   UNL A   1      39.758  23.727  26.361  1.00  0.00     0.001 A 
ATOM     79  C   UNL A   1      40.063  22.601  27.123  1.00  0.00     0.000 A 
ENDBRANCH  55  74
BRANCH  67  80
ATOM     80  C   UNL A   1      47.712  27.313  26.190  1.00  0.00    -0.014 A 
ATOM     81  C   UNL A   1      47.823  27.211  24.794  1.00  0.00     0.009 A 
ATOM     82  C   UNL A   1      48.751  26.811  26.991  1.00  0.00     0.009 A 
ATOM     83  C   UNL A   1      48.930  26.581  24.218  1.00  0.00     0.001 A 
ATOM     84  C   UNL A   1      49.872  26.216  26.411  1.00  0.00     0.001 A 
ATOM     85  C   UNL A   1      49.954  26.089  25.026  1.00  0.00     0.000 A 
ENDBRANCH  67  80
ENDBRANCH  41  42
ENDBRANCH  34  36
ENDBRANCH  33  34
ENDBRANCH  32  33
ENDBRANCH  31  32
ENDBRANCH  30  31
ENDBRANCH  29  30
ENDBRANCH  28  29
ENDBRANCH  27  28
ENDBRANCH   1  27
TORSDOF 25
ENDMDL
MODEL 2
REMARK VINA RESULT:      -8.1      4.740     11.488
REMARK SMILES C[C@]([NH2+]Cc1noc(C2CC2)n1)(C(=O)OCCOCCOCCOCCOC(=O)c1ccc(-c2c3nc(c(-c4ccccc4)c4ccc([nH]4)c(-c4ccccc4)c4nc(c(-c5ccccc5)c5ccc2[nH]5)C=C4)C=C3)cc1)C(F)(F)F
REMARK SMILES IDX 20 1 19 2 18 3 17 4 16 5 15 6 13 7 14 8 2 9 1 10 78 11 79 12
REMARK SMILES IDX 80 13 81 14 3 15 4 18 5 19 6 20 12 21 7 22 8 23 9 24 10 25
REMARK SMILES IDX 11 26 21 27 22 28 23 29 24 30 25 31 26 32 27 33 28 34 29 35
REMARK SMILES IDX 30 36 31 37 77 38 32 39 76 40 33 41 34 42 35 43 70 44 36 45
REMARK SMILES IDX 75 46 69 47 71 48 37 49 74 50 68 51 67 52 38 54 60 55 45 56
REMARK SMILES IDX 59 57 46 58 49 59 58 60 72 61 47 62 48 63 57 65 73 66 50 67
REMARK SMILES IDX 39 68 40 69 44 70 41 71 43 72 42 73 61 74 62 75 66 76 63 77
REMARK SMILES IDX 65 78 64 79 51 80 52 81 56 82 53 83 55 84 54 85
REMARK H PARENT 3 16 3 17 71 53 49 64
REMARK Flexibility Score: inf
ROOT
ATOM      1  C   UNL A   1      40.692  22.234  27.447  1.00  0.00     0.188 C 
ENDROOT
BRANCH   1   2
ATOM      2  C   UNL A   1      41.787  23.026  28.192  1.00  0.00     0.188 C 
BRANCH   2   3
ATOM      3  O   UNL A   1      41.506  24.401  28.359  1.00  0.00    -0.376 OA
BRANCH   3   4
ATOM      4  C   UNL A   1      40.568  25.021  27.506  1.00  0.00     0.202 C 
BRANCH   4   5
ATOM      5  C   UNL A   1      39.593  26.048  28.107  1.00  0.00     0.261 C 
BRANCH   5   6
ATOM      6  O   UNL A   1      40.157  27.082  28.936  1.00  0.00    -0.458 OA
BRANCH   6   7
ATOM      7  C   UNL A   1      39.301  27.729  29.762  1.00  0.00     0.377 C 
ATOM      8  O   UNL A   1      38.529  27.113  30.493  1.00  0.00    -0.244 OA
BRANCH   7   9
ATOM      9  C   UNL A   1      39.322  29.264  29.666  1.00  0.00     0.287 C 
ATOM     10  C   UNL A   1      40.417  29.646  28.667  1.00  0.00     0.103 C 
BRANCH   9  11
ATOM     11  C   UNL A   1      37.927  29.596  29.064  1.00  0.00     0.455 C 
ATOM     12  F   UNL A   1      37.065  29.988  30.040  1.00  0.00    -0.164 F 
ATOM     13  F   UNL A   1      38.010  30.639  28.197  1.00  0.00    -0.164 F 
ATOM     14  F   UNL A   1      37.350  28.583  28.391  1.00  0.00    -0.164 F 
ENDBRANCH   9  11
BRANCH   9  15
ATOM     15  N   UNL A   1      39.520  30.087  30.900  1.00  0.00    -0.318 N 
ATOM     16  H   UNL A   1      38.764  30.771  30.899  1.00  0.00     0.347 HD
ATOM     17  H   UNL A   1      40.492  30.377  30.782  1.00  0.00     0.347 HD
BRANCH  15  18
ATOM     18  C   UNL A   1      39.558  29.543  32.250  1.00  0.00     0.344 C 
BRANCH  18  19
ATOM     19  C   UNL A   1      38.702  30.408  33.154  1.00  0.00     0.226 A 
ATOM     20  N   UNL A   1      38.532  30.135  34.456  1.00  0.00    -0.056 NA
ATOM     21  N   UNL A   1      38.078  31.567  32.730  1.00  0.00    -0.190 NA
ATOM     22  O   UNL A   1      37.804  31.234  34.921  1.00  0.00    -0.339 OA
ATOM     23  C   UNL A   1      37.597  32.060  33.849  1.00  0.00     0.229 A 
BRANCH  23  24
ATOM     24  C   UNL A   1      36.966  33.443  33.985  1.00  0.00     0.079 C 
ATOM     25  C   UNL A   1      35.448  33.511  34.005  1.00  0.00     0.014 C 
ATOM     26  C   UNL A   1      36.216  33.839  35.238  1.00  0.00     0.014 C 
ENDBRANCH  23  24
ENDBRANCH  18  19
ENDBRANCH  15  18
ENDBRANCH   9  15
ENDBRANCH   7   9
ENDBRANCH   6   7
ENDBRANCH   5   6
ENDBRANCH   4   5
ENDBRANCH   3   4
ENDBRANCH   2   3
ENDBRANCH   1   2
BRANCH   1  27
ATOM     27  O   UNL A   1      40.446  20.844  27.626  1.00  0.00    -0.377 OA
BRANCH  27  28
ATOM     28  C   UNL A   1      41.519  19.923  27.510  1.00  0.00     0.188 C 
BRANCH  28  29
ATOM     29  C   UNL A   1      42.161  19.833  26.115  1.00  0.00     0.188 C 
BRANCH  29  30
ATOM     30  O   UNL A   1      43.504  20.290  26.097  1.00  0.00    -0.376 OA
BRANCH  30  31
ATOM     31  C   UNL A   1      43.803  21.426  25.296  1.00  0.00     0.202 C 
BRANCH  31  32
ATOM     32  C   UNL A   1      44.668  22.570  25.861  1.00  0.00     0.261 C 
BRANCH  32  33
ATOM     33  O   UNL A   1      44.403  23.904  25.394  1.00  0.00    -0.460 OA
BRANCH  33  34
ATOM     34  C   UNL A   1      45.414  24.791  25.349  1.00  0.00     0.338 C 
ATOM     35  O   UNL A   1      46.405  24.749  24.638  1.00  0.00    -0.246 OA
BRANCH  34  36
ATOM     36  C   UNL A   1      45.018  25.957  26.171  1.00  0.00     0.060 A 
ATOM     37  C   UNL A   1      46.000  26.650  26.892  1.00  0.00     0.016 A 
ATOM     38  C   UNL A   1      43.686  26.378  26.213  1.00  0.00     0.016 A 
ATOM     39  C   UNL A   1      45.647  27.741  27.687  1.00  0.00     0.010 A 
ATOM     40  C   UNL A   1      43.329  27.455  27.032  1.00  0.00     0.010 A 
ATOM     41  C   UNL A   1      44.302  28.116  27.802  1.00  0.00    -0.014 A 
BRANCH  41  42
ATOM     42  C   UNL A   1      43.897  29.040  28.889  1.00  0.00     0.031 A 
ATOM     43  C   UNL A   1      43.615  28.454  30.248  1.00  0.00     0.074 A 
ATOM     44  C   UNL A   1      43.827  30.370  28.703  1.00  0.00     0.049 A 
ATOM     45  N   UNL A   1      43.241  29.050  31.351  1.00  0.00    -0.248 NA
ATOM     46  C   UNL A   1      43.780  26.996  30.376  1.00  0.00     0.031 C 
ATOM     47  C   UNL A   1      44.128  31.069  27.455  1.00  0.00     0.029 A 
ATOM     48  N   UNL A   1      43.479  31.371  29.575  1.00  0.00    -0.354 N 
ATOM     49  C   UNL A   1      43.128  28.042  32.301  1.00  0.00     0.074 A 
ATOM     50  C   UNL A   1      43.432  26.794  31.637  1.00  0.00     0.031 C 
ATOM     51  C   UNL A   1      43.945  32.388  27.642  1.00  0.00     0.029 A 
ATOM     52  C   UNL A   1      43.484  32.622  29.010  1.00  0.00     0.049 A 
ATOM     53  H   UNL A   1      43.246  31.207  30.518  1.00  0.00     0.167 HD
ATOM     54  C   UNL A   1      42.810  28.144  33.613  1.00  0.00     0.031 A 
ATOM     55  C   UNL A   1      43.135  33.815  29.532  1.00  0.00     0.031 A 
ATOM     56  C   UNL A   1      42.480  29.380  34.270  1.00  0.00     0.049 A 
ATOM     57  C   UNL A   1      42.680  33.888  30.969  1.00  0.00     0.074 A 
ATOM     58  C   UNL A   1      42.135  29.587  35.594  1.00  0.00     0.029 A 
ATOM     59  N   UNL A   1      42.443  30.617  33.648  1.00  0.00    -0.354 N 
ATOM     60  N   UNL A   1      42.599  32.932  31.863  1.00  0.00    -0.248 NA
ATOM     61  C   UNL A   1      42.281  35.211  31.469  1.00  0.00     0.031 C 
ATOM     62  C   UNL A   1      41.830  30.941  35.758  1.00  0.00     0.029 A 
ATOM     63  C   UNL A   1      42.056  31.589  34.554  1.00  0.00     0.049 A 
ATOM     64  H   UNL A   1      42.660  30.781  32.701  1.00  0.00     0.167 HD
ATOM     65  C   UNL A   1      42.175  33.545  33.038  1.00  0.00     0.074 A 
ATOM     66  C   UNL A   1      42.034  34.956  32.746  1.00  0.00     0.031 C 
ATOM     67  C   UNL A   1      41.925  32.991  34.250  1.00  0.00     0.031 A 
BRANCH  54  68
ATOM     68  C   UNL A   1      42.769  26.871  34.414  1.00  0.00    -0.014 A 
ATOM     69  C   UNL A   1      41.550  26.262  34.756  1.00  0.00     0.009 A 
ATOM     70  C   UNL A   1      43.967  26.258  34.810  1.00  0.00     0.009 A 
ATOM     71  C   UNL A   1      41.534  25.087  35.509  1.00  0.00     0.001 A 
ATOM     72  C   UNL A   1      43.949  25.066  35.535  1.00  0.00     0.001 A 
ATOM     73  C   UNL A   1      42.732  24.487  35.892  1.00  0.00     0.000 A 
ENDBRANCH  54  68
BRANCH  55  74
ATOM     74  C   UNL A   1      43.168  35.045  28.694  1.00  0.00    -0.014 A 
ATOM     75  C   UNL A   1      44.387  35.653  28.353  1.00  0.00     0.009 A 
ATOM     76  C   UNL A   1      41.973  35.647  28.269  1.00  0.00     0.009 A 
ATOM     77  C   UNL A   1      44.406  36.854  27.640  1.00  0.00     0.001 A 
ATOM     78  C   UNL A   1      41.996  36.829  27.527  1.00  0.00     0.001 A 
ATOM     79  C   UNL A   1      43.211  37.439  27.225  1.00  0.00     0.000 A 
ENDBRANCH  55  74
BRANCH  67  80
ATOM     80  C   UNL A   1      41.524  33.918  35.366  1.00  0.00    -0.014 A 
ATOM     81  C   UNL A   1      42.472  34.469  36.243  1.00  0.00     0.009 A 
ATOM     82  C   UNL A   1      40.174  34.274  35.518  1.00  0.00     0.009 A 
ATOM     83  C   UNL A   1      42.070  35.322  37.273  1.00  0.00     0.001 A 
ATOM     84  C   UNL A   1      39.780  35.156  36.525  1.00  0.00     0.001 A 
ATOM     85  C   UNL A   1      40.726  35.668  37.410  1.00  0.00     0.000 A 
ENDBRANCH  67  80
ENDBRANCH  41  42
ENDBRANCH  34  36
ENDBRANCH  33  34
ENDBRANCH  32  33
ENDBRANCH  31  32
ENDBRANCH  30  31
ENDBRANCH  29  30
ENDBRANCH  28  29
ENDBRANCH  27  28
ENDBRANCH   1  27
TORSDOF 25
ENDMDL
MODEL 3
REMARK VINA RESULT:      -7.8      4.967      6.749
REMARK SMILES C[C@]([NH2+]Cc1noc(C2CC2)n1)(C(=O)OCCOCCOCCOCCOC(=O)c1ccc(-c2c3nc(c(-c4ccccc4)c4ccc([nH]4)c(-c4ccccc4)c4nc(c(-c5ccccc5)c5ccc2[nH]5)C=C4)C=C3)cc1)C(F)(F)F
REMARK SMILES IDX 20 1 19 2 18 3 17 4 16 5 15 6 13 7 14 8 2 9 1 10 78 11 79 12
REMARK SMILES IDX 80 13 81 14 3 15 4 18 5 19 6 20 12 21 7 22 8 23 9 24 10 25
REMARK SMILES IDX 11 26 21 27 22 28 23 29 24 30 25 31 26 32 27 33 28 34 29 35
REMARK SMILES IDX 30 36 31 37 77 38 32 39 76 40 33 41 34 42 35 43 70 44 36 45
REMARK SMILES IDX 75 46 69 47 71 48 37 49 74 50 68 51 67 52 38 54 60 55 45 56
REMARK SMILES IDX 59 57 46 58 49 59 58 60 72 61 47 62 48 63 57 65 73 66 50 67
REMARK SMILES IDX 39 68 40 69 44 70 41 71 43 72 42 73 61 74 62 75 66 76 63 77
REMARK SMILES IDX 65 78 64 79 51 80 52 81 56 82 53 83 55 84 54 85
REMARK H PARENT 3 16 3 17 71 53 49 64
REMARK Flexibility Score: inf
ROOT
ATOM      1  C   UNL A   1      38.193  31.027  29.688  1.00  0.00     0.188 C 
ENDROOT
BRANCH   1   2
ATOM      2  C   UNL A   1      37.603  30.281  28.474  1.00  0.00     0.188 C 
BRANCH   2   3
ATOM      3  O   UNL A   1      38.497  29.385  27.844  1.00  0.00    -0.376 OA
BRANCH   3   4
ATOM      4  C   UNL A   1      39.653  28.966  28.536  1.00  0.00     0.202 C 
BRANCH   4   5
ATOM      5  C   UNL A   1      40.854  28.455  27.722  1.00  0.00     0.261 C 
BRANCH   5   6
ATOM      6  O   UNL A   1      41.398  27.173  28.089  1.00  0.00    -0.458 OA
BRANCH   6   7
ATOM      7  C   UNL A   1      42.746  27.098  28.202  1.00  0.00     0.377 C 
ATOM      8  O   UNL A   1      43.393  27.990  28.743  1.00  0.00    -0.244 OA
BRANCH   7   9
ATOM      9  C   UNL A   1      43.396  25.864  27.550  1.00  0.00     0.287 C 
ATOM     10  C   UNL A   1      44.747  26.304  26.982  1.00  0.00     0.103 C 
BRANCH   9  11
ATOM     11  C   UNL A   1      43.622  24.909  28.756  1.00  0.00     0.455 C 
ATOM     12  F   UNL A   1      42.975  23.730  28.561  1.00  0.00    -0.164 F 
ATOM     13  F   UNL A   1      44.938  24.598  28.886  1.00  0.00    -0.164 F 
ATOM     14  F   UNL A   1      43.225  25.402  29.945  1.00  0.00    -0.164 F 
ENDBRANCH   9  11
BRANCH   9  15
ATOM     15  N   UNL A   1      42.668  25.117  26.477  1.00  0.00    -0.318 N 
ATOM     16  H   UNL A   1      41.891  25.717  26.202  1.00  0.00     0.347 HD
ATOM     17  H   UNL A   1      42.504  24.224  26.943  1.00  0.00     0.347 HD
BRANCH  15  18
ATOM     18  C   UNL A   1      43.278  24.669  25.233  1.00  0.00     0.344 C 
BRANCH  18  19
ATOM     19  C   UNL A   1      43.452  23.164  25.284  1.00  0.00     0.226 A 
ATOM     20  N   UNL A   1      42.411  22.320  25.243  1.00  0.00    -0.056 NA
ATOM     21  N   UNL A   1      44.686  22.542  25.322  1.00  0.00    -0.190 NA
ATOM     22  O   UNL A   1      43.019  21.064  25.178  1.00  0.00    -0.339 OA
ATOM     23  C   UNL A   1      44.372  21.272  25.197  1.00  0.00     0.229 A 
BRANCH  23  24
ATOM     24  C   UNL A   1      45.381  20.146  24.990  1.00  0.00     0.079 C 
ATOM     25  C   UNL A   1      44.922  18.737  25.324  1.00  0.00     0.014 C 
ATOM     26  C   UNL A   1      45.182  19.109  23.907  1.00  0.00     0.014 C 
ENDBRANCH  23  24
ENDBRANCH  18  19
ENDBRANCH  15  18
ENDBRANCH   9  15
ENDBRANCH   7   9
ENDBRANCH   6   7
ENDBRANCH   5   6
ENDBRANCH   4   5
ENDBRANCH   3   4
ENDBRANCH   2   3
ENDBRANCH   1   2
BRANCH   1  27
ATOM     27  O   UNL A   1      37.414  31.591  30.738  1.00  0.00    -0.377 OA
BRANCH  27  28
ATOM     28  C   UNL A   1      36.015  31.359  30.773  1.00  0.00     0.188 C 
BRANCH  28  29
ATOM     29  C   UNL A   1      35.158  32.564  31.199  1.00  0.00     0.188 C 
BRANCH  29  30
ATOM     30  O   UNL A   1      34.634  32.430  32.511  1.00  0.00    -0.376 OA
BRANCH  30  31
ATOM     31  C   UNL A   1      34.412  33.619  33.257  1.00  0.00     0.202 C 
BRANCH  31  32
ATOM     32  C   UNL A   1      35.307  33.959  34.465  1.00  0.00     0.261 C 
BRANCH  32  33
ATOM     33  O   UNL A   1      36.727  33.791  34.316  1.00  0.00    -0.460 OA
BRANCH  33  34
ATOM     34  C   UNL A   1      37.356  32.868  35.066  1.00  0.00     0.338 C 
ATOM     35  O   UNL A   1      37.035  32.468  36.173  1.00  0.00    -0.246 OA
BRANCH  34  36
ATOM     36  C   UNL A   1      38.408  32.254  34.224  1.00  0.00     0.060 A 
ATOM     37  C   UNL A   1      38.400  30.867  34.023  1.00  0.00     0.016 A 
ATOM     38  C   UNL A   1      39.386  33.047  33.618  1.00  0.00     0.016 A 
ATOM     39  C   UNL A   1      39.392  30.265  33.247  1.00  0.00     0.010 A 
ATOM     40  C   UNL A   1      40.396  32.440  32.863  1.00  0.00     0.010 A 
ATOM     41  C   UNL A   1      40.424  31.043  32.706  1.00  0.00    -0.014 A 
BRANCH  41  42
ATOM     42  C   UNL A   1      41.638  30.373  32.180  1.00  0.00     0.031 A 
ATOM     43  C   UNL A   1      42.323  30.984  30.986  1.00  0.00     0.074 A 
ATOM     44  C   UNL A   1      42.159  29.281  32.768  1.00  0.00     0.049 A 
ATOM     45  N   UNL A   1      43.390  30.585  30.342  1.00  0.00    -0.248 NA
ATOM     46  C   UNL A   1      41.720  32.216  30.448  1.00  0.00     0.031 C 
ATOM     47  C   UNL A   1      41.626  28.624  33.960  1.00  0.00     0.029 A 
ATOM     48  N   UNL A   1      43.261  28.534  32.434  1.00  0.00    -0.354 N 
ATOM     49  C   UNL A   1      43.585  31.514  29.327  1.00  0.00     0.074 A 
ATOM     50  C   UNL A   1      42.506  32.473  29.414  1.00  0.00     0.031 C 
ATOM     51  C   UNL A   1      42.402  27.565  34.254  1.00  0.00     0.029 A 
ATOM     52  C   UNL A   1      43.463  27.451  33.254  1.00  0.00     0.049 A 
ATOM     53  H   UNL A   1      43.850  28.753  31.675  1.00  0.00     0.167 HD
ATOM     54  C   UNL A   1      44.578  31.573  28.409  1.00  0.00     0.031 A 
ATOM     55  C   UNL A   1      44.386  26.472  33.190  1.00  0.00     0.031 A 
ATOM     56  C   UNL A   1      45.637  30.606  28.302  1.00  0.00     0.049 A 
ATOM     57  C   UNL A   1      45.421  26.501  32.092  1.00  0.00     0.074 A 
ATOM     58  C   UNL A   1      46.686  30.572  27.401  1.00  0.00     0.029 A 
ATOM     59  N   UNL A   1      45.773  29.494  29.118  1.00  0.00    -0.354 N 
ATOM     60  N   UNL A   1      45.608  27.396  31.152  1.00  0.00    -0.248 NA
ATOM     61  C   UNL A   1      46.378  25.386  32.057  1.00  0.00     0.031 C 
ATOM     62  C   UNL A   1      47.423  29.407  27.633  1.00  0.00     0.029 A 
ATOM     63  C   UNL A   1      46.874  28.754  28.726  1.00  0.00     0.049 A 
ATOM     64  H   UNL A   1      45.175  29.265  29.867  1.00  0.00     0.167 HD
ATOM     65  C   UNL A   1      46.724  26.971  30.439  1.00  0.00     0.074 A 
ATOM     66  C   UNL A   1      47.181  25.748  31.067  1.00  0.00     0.031 C 
ATOM     67  C   UNL A   1      47.320  27.541  29.362  1.00  0.00     0.031 A 
BRANCH  54  68
ATOM     68  C   UNL A   1      44.540  32.709  27.424  1.00  0.00    -0.014 A 
ATOM     69  C   UNL A   1      45.082  33.966  27.739  1.00  0.00     0.009 A 
ATOM     70  C   UNL A   1      43.977  32.512  26.155  1.00  0.00     0.009 A 
ATOM     71  C   UNL A   1      45.027  35.011  26.815  1.00  0.00     0.001 A 
ATOM     72  C   UNL A   1      43.952  33.550  25.220  1.00  0.00     0.001 A 
ATOM     73  C   UNL A   1      44.468  34.800  25.555  1.00  0.00     0.000 A 
ENDBRANCH  54  68
BRANCH  55  74
ATOM     74  C   UNL A   1      44.370  25.354  34.174  1.00  0.00    -0.014 A 
ATOM     75  C   UNL A   1      45.064  25.453  35.390  1.00  0.00     0.009 A 
ATOM     76  C   UNL A   1      43.697  24.158  33.878  1.00  0.00     0.009 A 
ATOM     77  C   UNL A   1      45.116  24.368  36.269  1.00  0.00     0.001 A 
ATOM     78  C   UNL A   1      43.721  23.087  34.774  1.00  0.00     0.001 A 
ATOM     79  C   UNL A   1      44.442  23.188  35.962  1.00  0.00     0.000 A 
ENDBRANCH  55  74
BRANCH  67  80
ATOM     80  C   UNL A   1      48.560  26.878  28.825  1.00  0.00    -0.014 A 
ATOM     81  C   UNL A   1      48.498  25.910  27.811  1.00  0.00     0.009 A 
ATOM     82  C   UNL A   1      49.818  27.260  29.321  1.00  0.00     0.009 A 
ATOM     83  C   UNL A   1      49.666  25.309  27.336  1.00  0.00     0.001 A 
ATOM     84  C   UNL A   1      50.985  26.684  28.819  1.00  0.00     0.001 A 
ATOM     85  C   UNL A   1      50.907  25.699  27.837  1.00  0.00     0.000 A 
ENDBRANCH  67  80
ENDBRANCH  41  42
ENDBRANCH  34  36
ENDBRANCH  33  34
ENDBRANCH  32  33
ENDBRANCH  31  32
ENDBRANCH  30  31
ENDBRANCH  29  30
ENDBRANCH  28  29
ENDBRANCH  27  28
ENDBRANCH   1  27
TORSDOF 25
ENDMDL
