MODEL 1
REMARK VINA RESULT:      -9.5      0.000      0.000
REMARK SMILES C[C@H](C(=O)OCCOCCOCCOCCOC(=O)c1ccc(-c2c3nc(c(-c4ccccc4)c4ccc([nH]4)c(-c4ccccc4)c4nc(c(-c5ccccc5)c5ccc2[nH]5)C=C4)C=C3)cc1)N1CCc2ccccc21
REMARK SMILES IDX 12 1 11 2 10 3 9 4 8 5 7 6 6 7 5 8 3 9 4 10 2 11 1 12 68 13
REMARK SMILES IDX 69 14 76 15 70 16 71 17 75 18 72 19 74 20 73 21 13 22 14 23
REMARK SMILES IDX 15 24 16 25 17 26 18 27 19 28 20 29 21 30 67 31 22 32 66 33
REMARK SMILES IDX 23 34 24 35 25 36 60 37 26 38 65 39 59 40 61 41 27 42 64 43
REMARK SMILES IDX 58 44 57 45 28 47 50 48 35 49 49 50 36 51 39 52 48 53 62 54
REMARK SMILES IDX 37 55 38 56 47 58 63 59 40 60 29 61 30 62 34 63 31 64 33 65
REMARK SMILES IDX 32 66 51 67 52 68 56 69 53 70 55 71 54 72 41 73 42 74 46 75
REMARK SMILES IDX 43 76 45 77 44 78
REMARK H PARENT 61 46 39 57
REMARK Flexibility Score: inf
ROOT
ATOM      1  C   UNL A   1      32.742  36.193  30.419  1.00  0.00     0.188 C 
ENDROOT
BRANCH   1   2
ATOM      2  O   UNL A   1      32.707  35.255  29.347  1.00  0.00    -0.377 OA
BRANCH   2   3
ATOM      3  C   UNL A   1      33.660  34.199  29.344  1.00  0.00     0.188 C 
BRANCH   3   4
ATOM      4  C   UNL A   1      34.536  34.177  28.095  1.00  0.00     0.188 C 
BRANCH   4   5
ATOM      5  O   UNL A   1      34.792  32.883  27.556  1.00  0.00    -0.376 OA
BRANCH   5   6
ATOM      6  C   UNL A   1      33.853  31.864  27.907  1.00  0.00     0.202 C 
BRANCH   6   7
ATOM      7  C   UNL A   1      33.994  30.499  27.202  1.00  0.00     0.261 C 
BRANCH   7   8
ATOM      8  O   UNL A   1      33.018  30.234  26.163  1.00  0.00    -0.462 OA
BRANCH   8   9
ATOM      9  C   UNL A   1      33.215  29.105  25.411  1.00  0.00     0.328 C 
ATOM     10  O   UNL A   1      33.788  28.101  25.830  1.00  0.00    -0.250 OA
BRANCH   9  11
ATOM     11  C   UNL A   1      32.712  29.254  23.959  1.00  0.00     0.189 C 
ATOM     12  C   UNL A   1      33.777  28.768  22.972  1.00  0.00     0.044 C 
BRANCH  11  13
ATOM     13  N   UNL A   1      31.445  28.588  23.644  1.00  0.00    -0.358 N 
ATOM     14  C   UNL A   1      31.385  27.150  23.368  1.00  0.00     0.122 C 
ATOM     15  C   UNL A   1      30.163  29.085  23.565  1.00  0.00     0.041 A 
ATOM     16  C   UNL A   1      29.898  26.741  23.392  1.00  0.00     0.059 C 
ATOM     17  C   UNL A   1      29.225  28.073  23.318  1.00  0.00    -0.023 A 
ATOM     18  C   UNL A   1      29.733  30.398  23.622  1.00  0.00     0.026 A 
ATOM     19  C   UNL A   1      27.892  28.342  23.048  1.00  0.00     0.006 A 
ATOM     20  C   UNL A   1      28.396  30.695  23.326  1.00  0.00     0.002 A 
ATOM     21  C   UNL A   1      27.485  29.674  23.024  1.00  0.00     0.000 A 
ENDBRANCH  11  13
ENDBRANCH   9  11
ENDBRANCH   8   9
ENDBRANCH   7   8
ENDBRANCH   6   7
ENDBRANCH   5   6
ENDBRANCH   4   5
ENDBRANCH   3   4
ENDBRANCH   2   3
ENDBRANCH   1   2
BRANCH   1  22
ATOM     22  C   UNL A   1      34.061  36.342  31.185  1.00  0.00     0.188 C 
BRANCH  22  23
ATOM     23  O   UNL A   1      33.995  36.360  32.614  1.00  0.00    -0.376 OA
BRANCH  23  24
ATOM     24  C   UNL A   1      33.984  35.119  33.315  1.00  0.00     0.202 C 
BRANCH  24  25
ATOM     25  C   UNL A   1      34.609  33.945  32.561  1.00  0.00     0.261 C 
BRANCH  25  26
ATOM     26  O   UNL A   1      36.041  33.983  32.634  1.00  0.00    -0.460 OA
BRANCH  26  27
ATOM     27  C   UNL A   1      36.603  33.009  33.391  1.00  0.00     0.338 C 
ATOM     28  O   UNL A   1      36.377  32.740  34.552  1.00  0.00    -0.246 OA
BRANCH  27  29
ATOM     29  C   UNL A   1      37.430  32.166  32.508  1.00  0.00     0.060 A 
ATOM     30  C   UNL A   1      38.291  31.228  33.095  1.00  0.00     0.016 A 
ATOM     31  C   UNL A   1      37.385  32.330  31.124  1.00  0.00     0.016 A 
ATOM     32  C   UNL A   1      39.134  30.466  32.299  1.00  0.00     0.010 A 
ATOM     33  C   UNL A   1      38.257  31.594  30.327  1.00  0.00     0.010 A 
ATOM     34  C   UNL A   1      39.156  30.691  30.920  1.00  0.00    -0.014 A 
BRANCH  34  35
ATOM     35  C   UNL A   1      40.289  30.169  30.134  1.00  0.00     0.031 A 
ATOM     36  C   UNL A   1      41.475  31.069  29.938  1.00  0.00     0.074 A 
ATOM     37  C   UNL A   1      40.264  28.925  29.635  1.00  0.00     0.049 A 
ATOM     38  N   UNL A   1      42.560  30.870  29.238  1.00  0.00    -0.248 NA
ATOM     39  C   UNL A   1      41.428  32.373  30.624  1.00  0.00     0.031 C 
ATOM     40  C   UNL A   1      39.191  27.953  29.830  1.00  0.00     0.029 A 
ATOM     41  N   UNL A   1      41.178  28.272  28.852  1.00  0.00    -0.354 N 
ATOM     42  C   UNL A   1      43.313  32.027  29.385  1.00  0.00     0.074 A 
ATOM     43  C   UNL A   1      42.556  32.933  30.218  1.00  0.00     0.031 C 
ATOM     44  C   UNL A   1      39.504  26.823  29.171  1.00  0.00     0.029 A 
ATOM     45  C   UNL A   1      40.776  27.015  28.478  1.00  0.00     0.049 A 
ATOM     46  H   UNL A   1      42.040  28.666  28.584  1.00  0.00     0.167 HD
ATOM     47  C   UNL A   1      44.531  32.308  28.867  1.00  0.00     0.031 A 
ATOM     48  C   UNL A   1      41.363  26.136  27.646  1.00  0.00     0.031 A 
ATOM     49  C   UNL A   1      45.262  31.402  28.024  1.00  0.00     0.049 A 
ATOM     50  C   UNL A   1      42.675  26.509  27.006  1.00  0.00     0.074 A 
ATOM     51  C   UNL A   1      46.507  31.574  27.449  1.00  0.00     0.029 A 
ATOM     52  N   UNL A   1      44.802  30.154  27.627  1.00  0.00    -0.354 N 
ATOM     53  N   UNL A   1      43.392  27.598  27.159  1.00  0.00    -0.248 NA
ATOM     54  C   UNL A   1      43.260  25.530  26.081  1.00  0.00     0.031 C 
ATOM     55  C   UNL A   1      46.771  30.459  26.647  1.00  0.00     0.029 A 
ATOM     56  C   UNL A   1      45.724  29.559  26.786  1.00  0.00     0.049 A 
ATOM     57  H   UNL A   1      43.947  29.752  27.905  1.00  0.00     0.167 HD
ATOM     58  C   UNL A   1      44.529  27.419  26.380  1.00  0.00     0.074 A 
ATOM     59  C   UNL A   1      44.409  26.110  25.767  1.00  0.00     0.031 C 
ATOM     60  C   UNL A   1      45.579  28.255  26.189  1.00  0.00     0.031 A 
BRANCH  47  61
ATOM     61  C   UNL A   1      45.112  33.664  29.153  1.00  0.00    -0.014 A 
ATOM     62  C   UNL A   1      44.849  34.768  28.327  1.00  0.00     0.009 A 
ATOM     63  C   UNL A   1      45.927  33.841  30.282  1.00  0.00     0.009 A 
ATOM     64  C   UNL A   1      45.420  36.013  28.606  1.00  0.00     0.001 A 
ATOM     65  C   UNL A   1      46.470  35.093  30.578  1.00  0.00     0.001 A 
ATOM     66  C   UNL A   1      46.223  36.175  29.735  1.00  0.00     0.000 A 
ENDBRANCH  47  61
BRANCH  48  67
ATOM     67  C   UNL A   1      40.713  24.833  27.351  1.00  0.00    -0.014 A 
ATOM     68  C   UNL A   1      39.570  24.770  26.539  1.00  0.00     0.009 A 
ATOM     69  C   UNL A   1      41.223  23.643  27.894  1.00  0.00     0.009 A 
ATOM     70  C   UNL A   1      38.936  23.549  26.302  1.00  0.00     0.001 A 
ATOM     71  C   UNL A   1      40.606  22.419  27.628  1.00  0.00     0.001 A 
ATOM     72  C   UNL A   1      39.456  22.374  26.842  1.00  0.00     0.000 A 
ENDBRANCH  48  67
BRANCH  60  73
ATOM     73  C   UNL A   1      46.702  27.760  25.321  1.00  0.00    -0.014 A 
ATOM     74  C   UNL A   1      46.740  28.031  23.945  1.00  0.00     0.009 A 
ATOM     75  C   UNL A   1      47.764  27.051  25.905  1.00  0.00     0.009 A 
ATOM     76  C   UNL A   1      47.801  27.566  23.165  1.00  0.00     0.001 A 
ATOM     77  C   UNL A   1      48.841  26.620  25.130  1.00  0.00     0.001 A 
ATOM     78  C   UNL A   1      48.853  26.867  23.758  1.00  0.00     0.000 A 
ENDBRANCH  60  73
ENDBRANCH  34  35
ENDBRANCH  27  29
ENDBRANCH  26  27
ENDBRANCH  25  26
ENDBRANCH  24  25
ENDBRANCH  23  24
ENDBRANCH  22  23
ENDBRANCH   1  22
TORSDOF 21
ENDMDL
MODEL 2
REMARK VINA RESULT:      -9.3      4.029      9.035
REMARK SMILES C[C@H](C(=O)OCCOCCOCCOCCOC(=O)c1ccc(-c2c3nc(c(-c4ccccc4)c4ccc([nH]4)c(-c4ccccc4)c4nc(c(-c5ccccc5)c5ccc2[nH]5)C=C4)C=C3)cc1)N1CCc2ccccc21
REMARK SMILES IDX 12 1 11 2 10 3 9 4 8 5 7 6 6 7 5 8 3 9 4 10 2 11 1 12 68 13
REMARK SMILES IDX 69 14 76 15 70 16 71 17 75 18 72 19 74 20 73 21 13 22 14 23
REMARK SMILES IDX 15 24 16 25 17 26 18 27 19 28 20 29 21 30 67 31 22 32 66 33
REMARK SMILES IDX 23 34 24 35 25 36 60 37 26 38 65 39 59 40 61 41 27 42 64 43
REMARK SMILES IDX 58 44 57 45 28 47 50 48 35 49 49 50 36 51 39 52 48 53 62 54
REMARK SMILES IDX 37 55 38 56 47 58 63 59 40 60 29 61 30 62 34 63 31 64 33 65
REMARK SMILES IDX 32 66 51 67 52 68 56 69 53 70 55 71 54 72 41 73 42 74 46 75
REMARK SMILES IDX 43 76 45 77 44 78
REMARK H PARENT 61 46 39 57
REMARK Flexibility Score: inf
ROOT
ATOM      1  C   UNL A   1      33.153  19.963  25.328  1.00  0.00     0.188 C 
ENDROOT
BRANCH   1   2
ATOM      2  O   UNL A   1      32.076  20.834  25.665  1.00  0.00    -0.377 OA
BRANCH   2   3
ATOM      3  C   UNL A   1      32.305  22.237  25.623  1.00  0.00     0.188 C 
BRANCH   3   4
ATOM      4  C   UNL A   1      32.528  22.856  26.999  1.00  0.00     0.188 C 
BRANCH   4   5
ATOM      5  O   UNL A   1      31.527  23.779  27.419  1.00  0.00    -0.376 OA
BRANCH   5   6
ATOM      6  C   UNL A   1      30.418  23.943  26.532  1.00  0.00     0.202 C 
BRANCH   6   7
ATOM      7  C   UNL A   1      30.166  25.356  25.969  1.00  0.00     0.261 C 
BRANCH   7   8
ATOM      8  O   UNL A   1      29.840  25.413  24.557  1.00  0.00    -0.462 OA
BRANCH   8   9
ATOM      9  C   UNL A   1      29.733  26.661  24.002  1.00  0.00     0.328 C 
ATOM     10  O   UNL A   1      28.665  27.165  23.664  1.00  0.00    -0.250 OA
BRANCH   9  11
ATOM     11  C   UNL A   1      31.103  27.337  23.773  1.00  0.00     0.189 C 
ATOM     12  C   UNL A   1      31.328  27.599  22.281  1.00  0.00     0.044 C 
BRANCH  11  13
ATOM     13  N   UNL A   1      31.336  28.585  24.507  1.00  0.00    -0.358 N 
ATOM     14  C   UNL A   1      30.626  29.819  24.162  1.00  0.00     0.122 C 
ATOM     15  C   UNL A   1      32.159  28.858  25.577  1.00  0.00     0.041 A 
ATOM     16  C   UNL A   1      30.870  30.823  25.307  1.00  0.00     0.059 C 
ATOM     17  C   UNL A   1      32.009  30.177  26.026  1.00  0.00    -0.023 A 
ATOM     18  C   UNL A   1      33.111  28.052  26.172  1.00  0.00     0.026 A 
ATOM     19  C   UNL A   1      32.834  30.734  26.992  1.00  0.00     0.006 A 
ATOM     20  C   UNL A   1      33.973  28.601  27.131  1.00  0.00     0.002 A 
ATOM     21  C   UNL A   1      33.846  29.939  27.526  1.00  0.00     0.000 A 
ENDBRANCH  11  13
ENDBRANCH   9  11
ENDBRANCH   8   9
ENDBRANCH   7   8
ENDBRANCH   6   7
ENDBRANCH   5   6
ENDBRANCH   4   5
ENDBRANCH   3   4
ENDBRANCH   2   3
ENDBRANCH   1   2
BRANCH   1  22
ATOM     22  C   UNL A   1      34.408  20.595  24.716  1.00  0.00     0.188 C 
BRANCH  22  23
ATOM     23  O   UNL A   1      35.450  20.992  25.612  1.00  0.00    -0.376 OA
BRANCH  23  24
ATOM     24  C   UNL A   1      36.685  21.451  25.067  1.00  0.00     0.202 C 
BRANCH  24  25
ATOM     25  C   UNL A   1      37.545  22.278  26.023  1.00  0.00     0.261 C 
BRANCH  25  26
ATOM     26  O   UNL A   1      38.915  22.305  25.598  1.00  0.00    -0.460 OA
BRANCH  26  27
ATOM     27  C   UNL A   1      39.821  22.471  26.593  1.00  0.00     0.338 C 
ATOM     28  O   UNL A   1      40.644  21.675  26.994  1.00  0.00    -0.246 OA
BRANCH  27  29
ATOM     29  C   UNL A   1      39.785  23.884  27.011  1.00  0.00     0.060 A 
ATOM     30  C   UNL A   1      40.351  24.846  26.162  1.00  0.00     0.016 A 
ATOM     31  C   UNL A   1      39.239  24.246  28.242  1.00  0.00     0.016 A 
ATOM     32  C   UNL A   1      40.397  26.176  26.554  1.00  0.00     0.010 A 
ATOM     33  C   UNL A   1      39.319  25.574  28.653  1.00  0.00     0.010 A 
ATOM     34  C   UNL A   1      39.933  26.529  27.824  1.00  0.00    -0.014 A 
BRANCH  34  35
ATOM     35  C   UNL A   1      40.317  27.838  28.382  1.00  0.00     0.031 A 
ATOM     36  C   UNL A   1      41.746  28.024  28.807  1.00  0.00     0.074 A 
ATOM     37  C   UNL A   1      39.423  28.832  28.482  1.00  0.00     0.049 A 
ATOM     38  N   UNL A   1      42.313  29.050  29.381  1.00  0.00    -0.248 NA
ATOM     39  C   UNL A   1      42.658  26.894  28.549  1.00  0.00     0.031 C 
ATOM     40  C   UNL A   1      38.034  28.773  28.032  1.00  0.00     0.029 A 
ATOM     41  N   UNL A   1      39.559  30.091  29.003  1.00  0.00    -0.354 N 
ATOM     42  C   UNL A   1      43.639  28.684  29.569  1.00  0.00     0.074 A 
ATOM     43  C   UNL A   1      43.790  27.336  29.072  1.00  0.00     0.031 C 
ATOM     44  C   UNL A   1      37.438  29.946  28.309  1.00  0.00     0.029 A 
ATOM     45  C   UNL A   1      38.394  30.815  28.990  1.00  0.00     0.049 A 
ATOM     46  H   UNL A   1      40.411  30.442  29.352  1.00  0.00     0.167 HD
ATOM     47  C   UNL A   1      44.642  29.411  30.112  1.00  0.00     0.031 A 
ATOM     48  C   UNL A   1      38.133  32.032  29.500  1.00  0.00     0.031 A 
ATOM     49  C   UNL A   1      44.470  30.745  30.620  1.00  0.00     0.049 A 
ATOM     50  C   UNL A   1      39.244  32.785  30.185  1.00  0.00     0.074 A 
ATOM     51  C   UNL A   1      45.416  31.581  31.184  1.00  0.00     0.029 A 
ATOM     52  N   UNL A   1      43.264  31.430  30.633  1.00  0.00    -0.354 N 
ATOM     53  N   UNL A   1      40.501  32.442  30.347  1.00  0.00    -0.248 NA
ATOM     54  C   UNL A   1      38.901  34.095  30.752  1.00  0.00     0.031 C 
ATOM     55  C   UNL A   1      44.766  32.747  31.602  1.00  0.00     0.029 A 
ATOM     56  C   UNL A   1      43.433  32.667  31.228  1.00  0.00     0.049 A 
ATOM     57  H   UNL A   1      42.415  31.087  30.273  1.00  0.00     0.167 HD
ATOM     58  C   UNL A   1      41.106  33.508  31.002  1.00  0.00     0.074 A 
ATOM     59  C   UNL A   1      40.079  34.513  31.193  1.00  0.00     0.031 C 
ATOM     60  C   UNL A   1      42.392  33.648  31.406  1.00  0.00     0.031 A 
BRANCH  47  61
ATOM     61  C   UNL A   1      45.989  28.755  30.233  1.00  0.00    -0.014 A 
ATOM     62  C   UNL A   1      46.355  28.027  31.376  1.00  0.00     0.009 A 
ATOM     63  C   UNL A   1      46.903  28.856  29.173  1.00  0.00     0.009 A 
ATOM     64  C   UNL A   1      47.622  27.445  31.469  1.00  0.00     0.001 A 
ATOM     65  C   UNL A   1      48.157  28.247  29.254  1.00  0.00     0.001 A 
ATOM     66  C   UNL A   1      48.518  27.550  30.405  1.00  0.00     0.000 A 
ENDBRANCH  47  61
BRANCH  48  67
ATOM     67  C   UNL A   1      36.766  32.607  29.406  1.00  0.00    -0.014 A 
ATOM     68  C   UNL A   1      36.361  33.308  28.260  1.00  0.00     0.009 A 
ATOM     69  C   UNL A   1      35.861  32.471  30.470  1.00  0.00     0.009 A 
ATOM     70  C   UNL A   1      35.091  33.886  28.195  1.00  0.00     0.001 A 
ATOM     71  C   UNL A   1      34.580  33.020  30.389  1.00  0.00     0.001 A 
ATOM     72  C   UNL A   1      34.200  33.738  29.256  1.00  0.00     0.000 A 
ENDBRANCH  48  67
BRANCH  60  73
ATOM     73  C   UNL A   1      42.771  34.953  32.051  1.00  0.00    -0.014 A 
ATOM     74  C   UNL A   1      42.525  35.199  33.410  1.00  0.00     0.009 A 
ATOM     75  C   UNL A   1      43.431  35.932  31.290  1.00  0.00     0.009 A 
ATOM     76  C   UNL A   1      42.896  36.417  33.983  1.00  0.00     0.001 A 
ATOM     77  C   UNL A   1      43.834  37.132  31.875  1.00  0.00     0.001 A 
ATOM     78  C   UNL A   1      43.556  37.379  33.218  1.00  0.00     0.000 A 
ENDBRANCH  60  73
ENDBRANCH  34  35
ENDBRANCH  27  29
ENDBRANCH  26  27
ENDBRANCH  25  26
ENDBRANCH  24  25
ENDBRANCH  23  24
ENDBRANCH  22  23
ENDBRANCH   1  22
TORSDOF 21
ENDMDL
MODEL 3
REMARK VINA RESULT:      -9.3      3.993      8.874
REMARK SMILES C[C@H](C(=O)OCCOCCOCCOCCOC(=O)c1ccc(-c2c3nc(c(-c4ccccc4)c4ccc([nH]4)c(-c4ccccc4)c4nc(c(-c5ccccc5)c5ccc2[nH]5)C=C4)C=C3)cc1)N1CCc2ccccc21
REMARK SMILES IDX 12 1 11 2 10 3 9 4 8 5 7 6 6 7 5 8 3 9 4 10 2 11 1 12 68 13
REMARK SMILES IDX 69 14 76 15 70 16 71 17 75 18 72 19 74 20 73 21 13 22 14 23
REMARK SMILES IDX 15 24 16 25 17 26 18 27 19 28 20 29 21 30 67 31 22 32 66 33
REMARK SMILES IDX 23 34 24 35 25 36 60 37 26 38 65 39 59 40 61 41 27 42 64 43
REMARK SMILES IDX 58 44 57 45 28 47 50 48 35 49 49 50 36 51 39 52 48 53 62 54
REMARK SMILES IDX 37 55 38 56 47 58 63 59 40 60 29 61 30 62 34 63 31 64 33 65
REMARK SMILES IDX 32 66 51 67 52 68 56 69 53 70 55 71 54 72 41 73 42 74 46 75
REMARK SMILES IDX 43 76 45 77 44 78
REMARK H PARENT 61 46 39 57
REMARK Flexibility Score: inf
ROOT
ATOM      1  C   UNL A   1      30.468  25.624  25.166  1.00  0.00     0.188 C 
ENDROOT
BRANCH   1   2
ATOM      2  O   UNL A   1      29.916  25.777  23.860  1.00  0.00    -0.377 OA
BRANCH   2   3
ATOM      3  C   UNL A   1      30.154  26.997  23.166  1.00  0.00     0.188 C 
BRANCH   3   4
ATOM      4  C   UNL A   1      31.359  26.937  22.232  1.00  0.00     0.188 C 
BRANCH   4   5
ATOM      5  O   UNL A   1      32.595  27.345  22.810  1.00  0.00    -0.376 OA
BRANCH   5   6
ATOM      6  C   UNL A   1      33.630  26.359  22.831  1.00  0.00     0.202 C 
BRANCH   6   7
ATOM      7  C   UNL A   1      33.765  25.502  24.106  1.00  0.00     0.261 C 
BRANCH   7   8
ATOM      8  O   UNL A   1      33.375  24.113  23.964  1.00  0.00    -0.462 OA
BRANCH   8   9
ATOM      9  C   UNL A   1      34.380  23.217  23.707  1.00  0.00     0.328 C 
ATOM     10  O   UNL A   1      35.061  23.236  22.684  1.00  0.00    -0.250 OA
BRANCH   9  11
ATOM     11  C   UNL A   1      34.515  22.134  24.799  1.00  0.00     0.189 C 
ATOM     12  C   UNL A   1      33.657  20.914  24.451  1.00  0.00     0.044 C 
BRANCH  11  13
ATOM     13  N   UNL A   1      35.877  21.679  25.091  1.00  0.00    -0.358 N 
ATOM     14  C   UNL A   1      36.272  20.280  24.906  1.00  0.00     0.122 C 
ATOM     15  C   UNL A   1      36.983  22.373  25.531  1.00  0.00     0.041 A 
ATOM     16  C   UNL A   1      37.811  20.223  24.999  1.00  0.00     0.059 C 
ATOM     17  C   UNL A   1      38.120  21.556  25.596  1.00  0.00    -0.023 A 
ATOM     18  C   UNL A   1      37.073  23.684  25.961  1.00  0.00     0.026 A 
ATOM     19  C   UNL A   1      39.316  21.987  26.152  1.00  0.00     0.006 A 
ATOM     20  C   UNL A   1      38.264  24.132  26.549  1.00  0.00     0.002 A 
ATOM     21  C   UNL A   1      39.373  23.283  26.660  1.00  0.00     0.000 A 
ENDBRANCH  11  13
ENDBRANCH   9  11
ENDBRANCH   8   9
ENDBRANCH   7   8
ENDBRANCH   6   7
ENDBRANCH   5   6
ENDBRANCH   4   5
ENDBRANCH   3   4
ENDBRANCH   2   3
ENDBRANCH   1   2
BRANCH   1  22
ATOM     22  C   UNL A   1      30.406  26.833  26.106  1.00  0.00     0.188 C 
BRANCH  22  23
ATOM     23  O   UNL A   1      31.571  27.658  26.196  1.00  0.00    -0.376 OA
BRANCH  23  24
ATOM     24  C   UNL A   1      31.503  28.997  25.714  1.00  0.00     0.202 C 
BRANCH  24  25
ATOM     25  C   UNL A   1      31.912  30.069  26.723  1.00  0.00     0.261 C 
BRANCH  25  26
ATOM     26  O   UNL A   1      33.205  30.610  26.413  1.00  0.00    -0.460 OA
BRANCH  26  27
ATOM     27  C   UNL A   1      33.648  31.564  27.267  1.00  0.00     0.338 C 
ATOM     28  O   UNL A   1      33.033  32.509  27.717  1.00  0.00    -0.246 OA
BRANCH  27  29
ATOM     29  C   UNL A   1      34.986  31.168  27.740  1.00  0.00     0.060 A 
ATOM     30  C   UNL A   1      35.248  29.805  27.939  1.00  0.00     0.016 A 
ATOM     31  C   UNL A   1      35.954  32.133  28.022  1.00  0.00     0.016 A 
ATOM     32  C   UNL A   1      36.474  29.401  28.449  1.00  0.00     0.010 A 
ATOM     33  C   UNL A   1      37.169  31.732  28.569  1.00  0.00     0.010 A 
ATOM     34  C   UNL A   1      37.412  30.369  28.817  1.00  0.00    -0.014 A 
BRANCH  34  35
ATOM     35  C   UNL A   1      38.533  29.976  29.688  1.00  0.00     0.031 A 
ATOM     36  C   UNL A   1      39.593  29.087  29.104  1.00  0.00     0.074 A 
ATOM     37  C   UNL A   1      38.612  30.422  30.951  1.00  0.00     0.049 A 
ATOM     38  N   UNL A   1      40.638  28.555  29.679  1.00  0.00    -0.248 NA
ATOM     39  C   UNL A   1      39.452  28.752  27.675  1.00  0.00     0.031 C 
ATOM     40  C   UNL A   1      37.672  31.343  31.585  1.00  0.00     0.029 A 
ATOM     41  N   UNL A   1      39.531  30.147  31.926  1.00  0.00    -0.354 N 
ATOM     42  C   UNL A   1      41.266  27.809  28.690  1.00  0.00     0.074 A 
ATOM     43  C   UNL A   1      40.477  27.936  27.486  1.00  0.00     0.031 C 
ATOM     44  C   UNL A   1      38.060  31.550  32.856  1.00  0.00     0.029 A 
ATOM     45  C   UNL A   1      39.246  30.743  33.128  1.00  0.00     0.049 A 
ATOM     46  H   UNL A   1      40.322  29.577  31.779  1.00  0.00     0.167 HD
ATOM     47  C   UNL A   1      42.403  27.081  28.781  1.00  0.00     0.031 A 
ATOM     48  C   UNL A   1      39.865  30.621  34.317  1.00  0.00     0.031 A 
ATOM     49  C   UNL A   1      43.165  26.951  29.992  1.00  0.00     0.049 A 
ATOM     50  C   UNL A   1      41.075  29.729  34.416  1.00  0.00     0.074 A 
ATOM     51  C   UNL A   1      44.337  26.247  30.202  1.00  0.00     0.029 A 
ATOM     52  N   UNL A   1      42.820  27.531  31.204  1.00  0.00    -0.354 N 
ATOM     53  N   UNL A   1      41.675  29.038  33.476  1.00  0.00    -0.248 NA
ATOM     54  C   UNL A   1      41.695  29.605  35.741  1.00  0.00     0.031 C 
ATOM     55  C   UNL A   1      44.663  26.345  31.558  1.00  0.00     0.029 A 
ATOM     56  C   UNL A   1      43.737  27.173  32.175  1.00  0.00     0.049 A 
ATOM     57  H   UNL A   1      42.039  28.112  31.351  1.00  0.00     0.167 HD
ATOM     58  C   UNL A   1      42.762  28.426  34.086  1.00  0.00     0.074 A 
ATOM     59  C   UNL A   1      42.745  28.841  35.476  1.00  0.00     0.031 C 
ATOM     60  C   UNL A   1      43.695  27.600  33.551  1.00  0.00     0.031 A 
BRANCH  47  61
ATOM     61  C   UNL A   1      42.847  26.331  27.557  1.00  0.00    -0.014 A 
ATOM     62  C   UNL A   1      43.601  26.950  26.547  1.00  0.00     0.009 A 
ATOM     63  C   UNL A   1      42.517  24.974  27.421  1.00  0.00     0.009 A 
ATOM     64  C   UNL A   1      43.983  26.233  25.409  1.00  0.00     0.001 A 
ATOM     65  C   UNL A   1      42.927  24.251  26.299  1.00  0.00     0.001 A 
ATOM     66  C   UNL A   1      43.651  24.883  25.291  1.00  0.00     0.000 A 
ENDBRANCH  47  61
BRANCH  48  67
ATOM     67  C   UNL A   1      39.344  31.338  35.509  1.00  0.00    -0.014 A 
ATOM     68  C   UNL A   1      39.905  32.559  35.913  1.00  0.00     0.009 A 
ATOM     69  C   UNL A   1      38.290  30.797  36.263  1.00  0.00     0.009 A 
ATOM     70  C   UNL A   1      39.443  33.207  37.061  1.00  0.00     0.001 A 
ATOM     71  C   UNL A   1      37.807  31.464  37.391  1.00  0.00     0.001 A 
ATOM     72  C   UNL A   1      38.393  32.662  37.796  1.00  0.00     0.000 A 
ENDBRANCH  48  67
BRANCH  60  73
ATOM     73  C   UNL A   1      44.799  27.131  34.458  1.00  0.00    -0.014 A 
ATOM     74  C   UNL A   1      45.960  27.893  34.657  1.00  0.00     0.009 A 
ATOM     75  C   UNL A   1      44.647  25.925  35.161  1.00  0.00     0.009 A 
ATOM     76  C   UNL A   1      46.964  27.436  35.513  1.00  0.00     0.001 A 
ATOM     77  C   UNL A   1      45.635  25.489  36.044  1.00  0.00     0.001 A 
ATOM     78  C   UNL A   1      46.798  26.239  36.210  1.00  0.00     0.000 A 
ENDBRANCH  60  73
ENDBRANCH  34  35
ENDBRANCH  27  29
ENDBRANCH  26  27
ENDBRANCH  25  26
ENDBRANCH  24  25
ENDBRANCH  23  24
ENDBRANCH  22  23
ENDBRANCH   1  22
TORSDOF 21
ENDMDL
