MODEL 1
REMARK VINA RESULT:     -10.5      0.000      0.000
REMARK SMILES CCCC(=O)Nc1cccc(C(=O)N[C@@H](C(=O)OCCOCCOCCOCCOC(=O)c2ccc(-c3c4nc(c(-c5ccccc5)c5ccc([nH]5)c(-c5ccccc5)c5nc(c(-c6ccccc6)c6ccc3[nH]6)C=C5)C=C4)cc2)c2c(C)n[nH]c2C)c1
REMARK SMILES IDX 22 1 21 2 20 3 19 4 18 5 16 6 17 7 15 8 14 9 12 10 13 11
REMARK SMILES IDX 11 13 7 14 8 15 88 16 9 17 10 18 6 19 4 20 5 21 3 23 2 24
REMARK SMILES IDX 1 25 81 26 82 27 86 28 83 29 84 30 85 31 87 32 23 34 24 35
REMARK SMILES IDX 25 36 26 37 27 38 28 39 29 40 30 41 31 42 32 43 33 44 34 45
REMARK SMILES IDX 80 46 35 47 79 48 36 49 37 50 38 51 73 52 39 53 78 54 72 55
REMARK SMILES IDX 74 56 40 57 77 58 71 59 70 60 41 62 63 63 48 64 62 65 49 66
REMARK SMILES IDX 52 67 61 68 75 69 50 70 51 71 60 73 76 74 53 75 42 76 43 77
REMARK SMILES IDX 47 78 44 79 46 80 45 81 64 82 65 83 69 84 66 85 68 86 67 87
REMARK SMILES IDX 54 88 55 89 59 90 56 91 58 92 57 93
REMARK H PARENT 14 12 6 22 85 33 74 61 52 72
REMARK Flexibility Score: inf
ROOT
ATOM      1  C   UNL A   1      33.637  33.216  28.027  1.00  0.00     0.188 C 
ENDROOT
BRANCH   1   2
ATOM      2  O   UNL A   1      34.158  31.934  28.351  1.00  0.00    -0.376 OA
BRANCH   2   3
ATOM      3  C   UNL A   1      34.276  30.929  27.359  1.00  0.00     0.202 C 
BRANCH   3   4
ATOM      4  C   UNL A   1      33.086  29.991  27.086  1.00  0.00     0.261 C 
BRANCH   4   5
ATOM      5  O   UNL A   1      33.013  29.458  25.754  1.00  0.00    -0.461 OA
BRANCH   5   6
ATOM      6  C   UNL A   1      31.814  29.553  25.123  1.00  0.00     0.333 C 
ATOM      7  O   UNL A   1      31.054  30.491  25.327  1.00  0.00    -0.249 OA
BRANCH   6   8
ATOM      8  C   UNL A   1      31.564  28.346  24.141  1.00  0.00     0.227 C 
BRANCH   8   9
ATOM      9  N   UNL A   1      32.500  28.270  23.002  1.00  0.00    -0.335 N 
ATOM     10  C   UNL A   1      33.355  27.312  22.507  1.00  0.00     0.252 C 
ATOM     11  O   UNL A   1      34.112  27.639  21.593  1.00  0.00    -0.269 OA
ATOM     12  H   UNL A   1      32.516  29.099  22.473  1.00  0.00     0.165 HD
BRANCH  10  13
ATOM     13  C   UNL A   1      33.292  25.883  22.904  1.00  0.00     0.041 A 
ATOM     14  C   UNL A   1      33.534  24.296  24.678  1.00  0.00     0.041 A 
ATOM     15  C   UNL A   1      32.491  23.526  24.179  1.00  0.00     0.026 A 
ATOM     16  C   UNL A   1      34.031  25.381  23.963  1.00  0.00     0.040 A 
ATOM     17  C   UNL A   1      31.896  23.894  22.972  1.00  0.00     0.003 A 
ATOM     18  C   UNL A   1      32.267  25.094  22.355  1.00  0.00     0.014 A 
BRANCH  14  19
ATOM     19  N   UNL A   1      34.052  24.087  25.965  1.00  0.00    -0.326 N 
ATOM     20  C   UNL A   1      34.772  22.946  26.264  1.00  0.00     0.224 C 
ATOM     21  O   UNL A   1      34.500  22.334  27.299  1.00  0.00    -0.275 OA
ATOM     22  H   UNL A   1      33.901  24.763  26.664  1.00  0.00     0.169 HD
BRANCH  20  23
ATOM     23  C   UNL A   1      35.910  22.497  25.348  1.00  0.00     0.100 C 
BRANCH  23  24
ATOM     24  C   UNL A   1      35.817  21.066  24.820  1.00  0.00     0.006 C 
ATOM     25  C   UNL A   1      37.105  20.269  24.959  1.00  0.00     0.004 C 
ENDBRANCH  23  24
ENDBRANCH  20  23
ENDBRANCH  14  19
ENDBRANCH  10  13
ENDBRANCH   8   9
BRANCH   8  26
ATOM     26  C   UNL A   1      30.099  28.272  23.696  1.00  0.00     0.029 A 
ATOM     27  C   UNL A   1      29.257  29.140  22.904  1.00  0.00     0.065 A 
ATOM     28  C   UNL A   1      29.245  27.199  23.972  1.00  0.00     0.038 A 
ATOM     29  C   UNL A   1      29.477  30.473  22.278  1.00  0.00     0.069 C 
ATOM     30  N   UNL A   1      28.035  28.625  22.725  1.00  0.00    -0.180 NA
ATOM     31  N   UNL A   1      28.060  27.458  23.356  1.00  0.00    -0.282 N 
ATOM     32  C   UNL A   1      29.407  25.940  24.748  1.00  0.00     0.066 C 
ATOM     33  H   UNL A   1      27.295  26.837  23.375  1.00  0.00     0.190 HD
ENDBRANCH   8  26
ENDBRANCH   6   8
ENDBRANCH   5   6
ENDBRANCH   4   5
ENDBRANCH   3   4
ENDBRANCH   2   3
ENDBRANCH   1   2
BRANCH   1  34
ATOM     34  C   UNL A   1      33.803  34.249  29.165  1.00  0.00     0.188 C 
BRANCH  34  35
ATOM     35  O   UNL A   1      32.679  34.906  29.716  1.00  0.00    -0.377 OA
BRANCH  35  36
ATOM     36  C   UNL A   1      32.962  36.142  30.341  1.00  0.00     0.188 C 
BRANCH  36  37
ATOM     37  C   UNL A   1      32.264  36.225  31.705  1.00  0.00     0.188 C 
BRANCH  37  38
ATOM     38  O   UNL A   1      32.475  35.068  32.502  1.00  0.00    -0.376 OA
BRANCH  38  39
ATOM     39  C   UNL A   1      33.788  34.723  32.921  1.00  0.00     0.202 C 
BRANCH  39  40
ATOM     40  C   UNL A   1      34.268  33.271  33.144  1.00  0.00     0.261 C 
BRANCH  40  41
ATOM     41  O   UNL A   1      35.476  32.827  32.512  1.00  0.00    -0.460 OA
BRANCH  41  42
ATOM     42  C   UNL A   1      36.498  32.405  33.282  1.00  0.00     0.338 C 
ATOM     43  O   UNL A   1      36.594  32.481  34.485  1.00  0.00    -0.246 OA
BRANCH  42  44
ATOM     44  C   UNL A   1      37.394  31.612  32.401  1.00  0.00     0.060 A 
ATOM     45  C   UNL A   1      38.480  30.943  32.986  1.00  0.00     0.016 A 
ATOM     46  C   UNL A   1      37.138  31.478  31.033  1.00  0.00     0.016 A 
ATOM     47  C   UNL A   1      39.324  30.160  32.201  1.00  0.00     0.010 A 
ATOM     48  C   UNL A   1      38.015  30.734  30.238  1.00  0.00     0.010 A 
ATOM     49  C   UNL A   1      39.131  30.105  30.816  1.00  0.00    -0.014 A 
BRANCH  49  50
ATOM     50  C   UNL A   1      40.254  29.635  29.973  1.00  0.00     0.031 A 
ATOM     51  C   UNL A   1      41.377  30.602  29.717  1.00  0.00     0.074 A 
ATOM     52  C   UNL A   1      40.323  28.372  29.517  1.00  0.00     0.049 A 
ATOM     53  N   UNL A   1      42.482  30.435  29.037  1.00  0.00    -0.248 NA
ATOM     54  C   UNL A   1      41.240  31.940  30.322  1.00  0.00     0.031 C 
ATOM     55  C   UNL A   1      39.328  27.327  29.750  1.00  0.00     0.029 A 
ATOM     56  N   UNL A   1      41.289  27.757  28.762  1.00  0.00    -0.354 N 
ATOM     57  C   UNL A   1      43.168  31.639  29.139  1.00  0.00     0.074 A 
ATOM     58  C   UNL A   1      42.343  32.541  29.910  1.00  0.00     0.031 C 
ATOM     59  C   UNL A   1      39.732  26.199  29.137  1.00  0.00     0.029 A 
ATOM     60  C   UNL A   1      40.997  26.453  28.448  1.00  0.00     0.049 A 
ATOM     61  H   UNL A   1      42.115  28.209  28.471  1.00  0.00     0.167 HD
ATOM     62  C   UNL A   1      44.385  31.964  28.645  1.00  0.00     0.031 A 
ATOM     63  C   UNL A   1      41.667  25.577  27.674  1.00  0.00     0.031 A 
ATOM     64  C   UNL A   1      45.191  31.078  27.853  1.00  0.00     0.049 A 
ATOM     65  C   UNL A   1      42.975  25.998  27.051  1.00  0.00     0.074 A 
ATOM     66  C   UNL A   1      46.427  31.319  27.280  1.00  0.00     0.029 A 
ATOM     67  N   UNL A   1      44.837  29.781  27.517  1.00  0.00    -0.354 N 
ATOM     68  N   UNL A   1      43.619  27.136  27.158  1.00  0.00    -0.248 NA
ATOM     69  C   UNL A   1      43.658  25.001  26.212  1.00  0.00     0.031 C 
ATOM     70  C   UNL A   1      46.796  30.184  26.552  1.00  0.00     0.029 A 
ATOM     71  C   UNL A   1      45.825  29.212  26.733  1.00  0.00     0.049 A 
ATOM     72  H   UNL A   1      44.006  29.332  27.794  1.00  0.00     0.167 HD
ATOM     73  C   UNL A   1      44.797  26.977  26.438  1.00  0.00     0.074 A 
ATOM     74  C   UNL A   1      44.786  25.628  25.913  1.00  0.00     0.031 C 
ATOM     75  C   UNL A   1      45.801  27.864  26.230  1.00  0.00     0.031 A 
BRANCH  62  76
ATOM     76  C   UNL A   1      44.898  33.348  28.926  1.00  0.00    -0.014 A 
ATOM     77  C   UNL A   1      45.792  33.593  29.982  1.00  0.00     0.009 A 
ATOM     78  C   UNL A   1      44.511  34.416  28.103  1.00  0.00     0.009 A 
ATOM     79  C   UNL A   1      46.268  34.883  30.221  1.00  0.00     0.001 A 
ATOM     80  C   UNL A   1      45.012  35.699  28.325  1.00  0.00     0.001 A 
ATOM     81  C   UNL A   1      45.884  35.933  29.387  1.00  0.00     0.000 A 
ENDBRANCH  62  76
BRANCH  63  82
ATOM     82  C   UNL A   1      41.108  24.223  27.407  1.00  0.00    -0.014 A 
ATOM     83  C   UNL A   1      39.961  24.053  26.616  1.00  0.00     0.009 A 
ATOM     84  C   UNL A   1      41.690  23.091  28.001  1.00  0.00     0.009 A 
ATOM     85  C   UNL A   1      39.386  22.788  26.463  1.00  0.00     0.001 A 
ATOM     86  C   UNL A   1      41.134  21.824  27.816  1.00  0.00     0.001 A 
ATOM     87  C   UNL A   1      39.974  21.675  27.061  1.00  0.00     0.000 A 
ENDBRANCH  63  82
BRANCH  75  88
ATOM     88  C   UNL A   1      47.002  27.382  25.460  1.00  0.00    -0.014 A 
ATOM     89  C   UNL A   1      47.210  27.733  24.117  1.00  0.00     0.009 A 
ATOM     90  C   UNL A   1      47.957  26.582  26.108  1.00  0.00     0.009 A 
ATOM     91  C   UNL A   1      48.323  27.249  23.426  1.00  0.00     0.001 A 
ATOM     92  C   UNL A   1      49.088  26.133  25.427  1.00  0.00     0.001 A 
ATOM     93  C   UNL A   1      49.263  26.453  24.082  1.00  0.00     0.000 A 
ENDBRANCH  75  88
ENDBRANCH  49  50
ENDBRANCH  42  44
ENDBRANCH  41  42
ENDBRANCH  40  41
ENDBRANCH  39  40
ENDBRANCH  38  39
ENDBRANCH  37  38
ENDBRANCH  36  37
ENDBRANCH  35  36
ENDBRANCH  34  35
ENDBRANCH   1  34
TORSDOF 26
ENDMDL
MODEL 2
REMARK VINA RESULT:      -9.7      4.146      7.401
REMARK SMILES CCCC(=O)Nc1cccc(C(=O)N[C@@H](C(=O)OCCOCCOCCOCCOC(=O)c2ccc(-c3c4nc(c(-c5ccccc5)c5ccc([nH]5)c(-c5ccccc5)c5nc(c(-c6ccccc6)c6ccc3[nH]6)C=C5)C=C4)cc2)c2c(C)n[nH]c2C)c1
REMARK SMILES IDX 22 1 21 2 20 3 19 4 18 5 16 6 17 7 15 8 14 9 12 10 13 11
REMARK SMILES IDX 11 13 7 14 8 15 88 16 9 17 10 18 6 19 4 20 5 21 3 23 2 24
REMARK SMILES IDX 1 25 81 26 82 27 86 28 83 29 84 30 85 31 87 32 23 34 24 35
REMARK SMILES IDX 25 36 26 37 27 38 28 39 29 40 30 41 31 42 32 43 33 44 34 45
REMARK SMILES IDX 80 46 35 47 79 48 36 49 37 50 38 51 73 52 39 53 78 54 72 55
REMARK SMILES IDX 74 56 40 57 77 58 71 59 70 60 41 62 63 63 48 64 62 65 49 66
REMARK SMILES IDX 52 67 61 68 75 69 50 70 51 71 60 73 76 74 53 75 42 76 43 77
REMARK SMILES IDX 47 78 44 79 46 80 45 81 64 82 65 83 69 84 66 85 68 86 67 87
REMARK SMILES IDX 54 88 55 89 59 90 56 91 58 92 57 93
REMARK H PARENT 14 12 6 22 85 33 74 61 52 72
REMARK Flexibility Score: inf
ROOT
ATOM      1  C   UNL A   1      33.262  30.634  27.005  1.00  0.00     0.188 C 
ENDROOT
BRANCH   1   2
ATOM      2  O   UNL A   1      32.434  29.653  27.617  1.00  0.00    -0.376 OA
BRANCH   2   3
ATOM      3  C   UNL A   1      31.733  28.706  26.830  1.00  0.00     0.202 C 
BRANCH   3   4
ATOM      4  C   UNL A   1      32.112  27.217  26.922  1.00  0.00     0.261 C 
BRANCH   4   5
ATOM      5  O   UNL A   1      31.009  26.297  26.913  1.00  0.00    -0.461 OA
BRANCH   5   6
ATOM      6  C   UNL A   1      30.877  25.513  25.812  1.00  0.00     0.333 C 
ATOM      7  O   UNL A   1      29.799  25.369  25.252  1.00  0.00    -0.249 OA
BRANCH   6   8
ATOM      8  C   UNL A   1      32.245  24.856  25.384  1.00  0.00     0.227 C 
BRANCH   8   9
ATOM      9  N   UNL A   1      32.343  24.504  23.954  1.00  0.00    -0.335 N 
ATOM     10  C   UNL A   1      32.517  25.212  22.787  1.00  0.00     0.252 C 
ATOM     11  O   UNL A   1      32.412  24.598  21.725  1.00  0.00    -0.269 OA
ATOM     12  H   UNL A   1      32.264  23.535  23.799  1.00  0.00     0.165 HD
BRANCH  10  13
ATOM     13  C   UNL A   1      32.981  26.621  22.753  1.00  0.00     0.041 A 
ATOM     14  C   UNL A   1      32.356  28.921  22.534  1.00  0.00     0.041 A 
ATOM     15  C   UNL A   1      33.329  29.308  23.447  1.00  0.00     0.026 A 
ATOM     16  C   UNL A   1      32.286  27.609  22.075  1.00  0.00     0.040 A 
ATOM     17  C   UNL A   1      34.201  28.346  23.955  1.00  0.00     0.003 A 
ATOM     18  C   UNL A   1      34.003  26.997  23.641  1.00  0.00     0.014 A 
BRANCH  14  19
ATOM     19  N   UNL A   1      31.340  29.797  22.125  1.00  0.00    -0.326 N 
ATOM     20  C   UNL A   1      30.010  29.432  22.215  1.00  0.00     0.224 C 
ATOM     21  O   UNL A   1      29.278  29.635  21.244  1.00  0.00    -0.275 OA
ATOM     22  H   UNL A   1      31.577  30.683  21.769  1.00  0.00     0.169 HD
BRANCH  20  23
ATOM     23  C   UNL A   1      29.465  28.841  23.515  1.00  0.00     0.100 C 
BRANCH  23  24
ATOM     24  C   UNL A   1      28.253  27.921  23.373  1.00  0.00     0.006 C 
ATOM     25  C   UNL A   1      26.924  28.655  23.291  1.00  0.00     0.004 C 
ENDBRANCH  23  24
ENDBRANCH  20  23
ENDBRANCH  14  19
ENDBRANCH  10  13
ENDBRANCH   8   9
BRANCH   8  26
ATOM     26  C   UNL A   1      32.622  23.685  26.299  1.00  0.00     0.029 A 
ATOM     27  C   UNL A   1      33.884  23.140  26.745  1.00  0.00     0.065 A 
ATOM     28  C   UNL A   1      31.695  22.887  26.978  1.00  0.00     0.038 A 
ATOM     29  C   UNL A   1      35.301  23.467  26.426  1.00  0.00     0.069 C 
ATOM     30  N   UNL A   1      33.716  22.129  27.606  1.00  0.00    -0.180 NA
ATOM     31  N   UNL A   1      32.401  22.011  27.742  1.00  0.00    -0.282 N 
ATOM     32  C   UNL A   1      30.208  22.847  27.004  1.00  0.00     0.066 C 
ATOM     33  H   UNL A   1      31.977  21.354  28.341  1.00  0.00     0.190 HD
ENDBRANCH   8  26
ENDBRANCH   6   8
ENDBRANCH   5   6
ENDBRANCH   4   5
ENDBRANCH   3   4
ENDBRANCH   2   3
ENDBRANCH   1   2
BRANCH   1  34
ATOM     34  C   UNL A   1      34.728  30.587  27.493  1.00  0.00     0.188 C 
BRANCH  34  35
ATOM     35  O   UNL A   1      35.087  31.111  28.756  1.00  0.00    -0.377 OA
BRANCH  35  36
ATOM     36  C   UNL A   1      34.582  32.403  29.028  1.00  0.00     0.188 C 
BRANCH  36  37
ATOM     37  C   UNL A   1      35.437  33.470  28.331  1.00  0.00     0.188 C 
BRANCH  37  38
ATOM     38  O   UNL A   1      35.198  34.778  28.831  1.00  0.00    -0.376 OA
BRANCH  38  39
ATOM     39  C   UNL A   1      33.980  35.444  28.530  1.00  0.00     0.202 C 
BRANCH  39  40
ATOM     40  C   UNL A   1      32.994  35.963  29.601  1.00  0.00     0.261 C 
BRANCH  40  41
ATOM     41  O   UNL A   1      32.666  35.126  30.717  1.00  0.00    -0.460 OA
BRANCH  41  42
ATOM     42  C   UNL A   1      32.861  35.596  31.965  1.00  0.00     0.338 C 
ATOM     43  O   UNL A   1      32.119  36.298  32.610  1.00  0.00    -0.246 OA
BRANCH  42  44
ATOM     44  C   UNL A   1      34.061  34.900  32.498  1.00  0.00     0.060 A 
ATOM     45  C   UNL A   1      35.307  35.531  32.371  1.00  0.00     0.016 A 
ATOM     46  C   UNL A   1      33.956  33.676  33.166  1.00  0.00     0.016 A 
ATOM     47  C   UNL A   1      36.452  34.930  32.890  1.00  0.00     0.010 A 
ATOM     48  C   UNL A   1      35.112  33.048  33.639  1.00  0.00     0.010 A 
ATOM     49  C   UNL A   1      36.367  33.659  33.468  1.00  0.00    -0.014 A 
BRANCH  49  50
ATOM     50  C   UNL A   1      37.614  32.874  33.618  1.00  0.00     0.031 A 
ATOM     51  C   UNL A   1      38.414  33.085  34.875  1.00  0.00     0.074 A 
ATOM     52  C   UNL A   1      37.986  31.946  32.720  1.00  0.00     0.049 A 
ATOM     53  N   UNL A   1      39.524  32.512  35.262  1.00  0.00    -0.248 NA
ATOM     54  C   UNL A   1      37.883  34.074  35.831  1.00  0.00     0.031 C 
ATOM     55  C   UNL A   1      37.262  31.608  31.496  1.00  0.00     0.029 A 
ATOM     56  N   UNL A   1      39.075  31.112  32.711  1.00  0.00    -0.354 N 
ATOM     57  C   UNL A   1      39.816  33.064  36.503  1.00  0.00     0.074 A 
ATOM     58  C   UNL A   1      38.793  34.044  36.789  1.00  0.00     0.031 C 
ATOM     59  C   UNL A   1      37.936  30.641  30.847  1.00  0.00     0.029 A 
ATOM     60  C   UNL A   1      39.150  30.315  31.595  1.00  0.00     0.049 A 
ATOM     61  H   UNL A   1      39.741  31.087  33.436  1.00  0.00     0.167 HD
ATOM     62  C   UNL A   1      40.838  32.773  37.340  1.00  0.00     0.031 A 
ATOM     63  C   UNL A   1      40.103  29.442  31.217  1.00  0.00     0.031 A 
ATOM     64  C   UNL A   1      41.871  31.820  37.042  1.00  0.00     0.049 A 
ATOM     65  C   UNL A   1      41.286  29.208  32.123  1.00  0.00     0.074 A 
ATOM     66  C   UNL A   1      42.967  31.470  37.809  1.00  0.00     0.029 A 
ATOM     67  N   UNL A   1      41.937  31.069  35.879  1.00  0.00    -0.354 N 
ATOM     68  N   UNL A   1      41.550  29.729  33.297  1.00  0.00    -0.248 NA
ATOM     69  C   UNL A   1      42.298  28.247  31.654  1.00  0.00     0.031 C 
ATOM     70  C   UNL A   1      43.726  30.546  37.086  1.00  0.00     0.029 A 
ATOM     71  C   UNL A   1      43.063  30.266  35.902  1.00  0.00     0.049 A 
ATOM     72  H   UNL A   1      41.280  31.102  35.147  1.00  0.00     0.167 HD
ATOM     73  C   UNL A   1      42.731  29.131  33.724  1.00  0.00     0.074 A 
ATOM     74  C   UNL A   1      43.121  28.196  32.691  1.00  0.00     0.031 C 
ATOM     75  C   UNL A   1      43.429  29.333  34.869  1.00  0.00     0.031 A 
BRANCH  62  76
ATOM     76  C   UNL A   1      40.899  33.518  38.643  1.00  0.00    -0.014 A 
ATOM     77  C   UNL A   1      41.579  34.743  38.750  1.00  0.00     0.009 A 
ATOM     78  C   UNL A   1      40.238  33.007  39.770  1.00  0.00     0.009 A 
ATOM     79  C   UNL A   1      41.614  35.428  39.966  1.00  0.00     0.001 A 
ATOM     80  C   UNL A   1      40.250  33.709  40.976  1.00  0.00     0.001 A 
ATOM     81  C   UNL A   1      40.943  34.915  41.075  1.00  0.00     0.000 A 
ENDBRANCH  62  76
BRANCH  63  82
ATOM     82  C   UNL A   1      40.009  28.741  29.906  1.00  0.00    -0.014 A 
ATOM     83  C   UNL A   1      39.407  27.479  29.798  1.00  0.00     0.009 A 
ATOM     84  C   UNL A   1      40.586  29.313  28.760  1.00  0.00     0.009 A 
ATOM     85  C   UNL A   1      39.422  26.787  28.583  1.00  0.00     0.001 A 
ATOM     86  C   UNL A   1      40.567  28.636  27.539  1.00  0.00     0.001 A 
ATOM     87  C   UNL A   1      40.000  27.367  27.455  1.00  0.00     0.000 A 
ENDBRANCH  63  82
BRANCH  75  88
ATOM     88  C   UNL A   1      44.647  28.478  35.096  1.00  0.00    -0.014 A 
ATOM     89  C   UNL A   1      44.568  27.230  35.731  1.00  0.00     0.009 A 
ATOM     90  C   UNL A   1      45.896  28.927  34.635  1.00  0.00     0.009 A 
ATOM     91  C   UNL A   1      45.722  26.473  35.945  1.00  0.00     0.001 A 
ATOM     92  C   UNL A   1      47.042  28.151  34.816  1.00  0.00     0.001 A 
ATOM     93  C   UNL A   1      46.957  26.932  35.484  1.00  0.00     0.000 A 
ENDBRANCH  75  88
ENDBRANCH  49  50
ENDBRANCH  42  44
ENDBRANCH  41  42
ENDBRANCH  40  41
ENDBRANCH  39  40
ENDBRANCH  38  39
ENDBRANCH  37  38
ENDBRANCH  36  37
ENDBRANCH  35  36
ENDBRANCH  34  35
ENDBRANCH   1  34
TORSDOF 26
ENDMDL
MODEL 3
REMARK VINA RESULT:      -8.7      3.100      7.695
REMARK SMILES CCCC(=O)Nc1cccc(C(=O)N[C@@H](C(=O)OCCOCCOCCOCCOC(=O)c2ccc(-c3c4nc(c(-c5ccccc5)c5ccc([nH]5)c(-c5ccccc5)c5nc(c(-c6ccccc6)c6ccc3[nH]6)C=C5)C=C4)cc2)c2c(C)n[nH]c2C)c1
REMARK SMILES IDX 22 1 21 2 20 3 19 4 18 5 16 6 17 7 15 8 14 9 12 10 13 11
REMARK SMILES IDX 11 13 7 14 8 15 88 16 9 17 10 18 6 19 4 20 5 21 3 23 2 24
REMARK SMILES IDX 1 25 81 26 82 27 86 28 83 29 84 30 85 31 87 32 23 34 24 35
REMARK SMILES IDX 25 36 26 37 27 38 28 39 29 40 30 41 31 42 32 43 33 44 34 45
REMARK SMILES IDX 80 46 35 47 79 48 36 49 37 50 38 51 73 52 39 53 78 54 72 55
REMARK SMILES IDX 74 56 40 57 77 58 71 59 70 60 41 62 63 63 48 64 62 65 49 66
REMARK SMILES IDX 52 67 61 68 75 69 50 70 51 71 60 73 76 74 53 75 42 76 43 77
REMARK SMILES IDX 47 78 44 79 46 80 45 81 64 82 65 83 69 84 66 85 68 86 67 87
REMARK SMILES IDX 54 88 55 89 59 90 56 91 58 92 57 93
REMARK H PARENT 14 12 6 22 85 33 74 61 52 72
REMARK Flexibility Score: inf
ROOT
ATOM      1  C   UNL A   1      31.870  28.494  23.165  1.00  0.00     0.188 C 
ENDROOT
BRANCH   1   2
ATOM      2  O   UNL A   1      31.083  27.466  22.577  1.00  0.00    -0.376 OA
BRANCH   2   3
ATOM      3  C   UNL A   1      31.691  26.435  21.820  1.00  0.00     0.202 C 
BRANCH   3   4
ATOM      4  C   UNL A   1      31.861  25.038  22.443  1.00  0.00     0.261 C 
BRANCH   4   5
ATOM      5  O   UNL A   1      32.989  24.884  23.318  1.00  0.00    -0.461 OA
BRANCH   5   6
ATOM      6  C   UNL A   1      32.780  24.193  24.468  1.00  0.00     0.333 C 
ATOM      7  O   UNL A   1      31.813  24.415  25.184  1.00  0.00    -0.249 OA
BRANCH   6   8
ATOM      8  C   UNL A   1      33.905  23.120  24.727  1.00  0.00     0.227 C 
BRANCH   8   9
ATOM      9  N   UNL A   1      34.923  23.021  23.663  1.00  0.00    -0.335 N 
ATOM     10  C   UNL A   1      36.299  22.988  23.631  1.00  0.00     0.252 C 
ATOM     11  O   UNL A   1      36.847  23.040  22.530  1.00  0.00    -0.269 OA
ATOM     12  H   UNL A   1      34.525  22.966  22.765  1.00  0.00     0.165 HD
BRANCH  10  13
ATOM     13  C   UNL A   1      37.133  22.730  24.832  1.00  0.00     0.041 A 
ATOM     14  C   UNL A   1      38.946  21.480  25.767  1.00  0.00     0.041 A 
ATOM     15  C   UNL A   1      39.353  22.572  26.525  1.00  0.00     0.026 A 
ATOM     16  C   UNL A   1      37.757  21.512  25.046  1.00  0.00     0.040 A 
ATOM     17  C   UNL A   1      38.584  23.735  26.502  1.00  0.00     0.003 A 
ATOM     18  C   UNL A   1      37.498  23.830  25.626  1.00  0.00     0.014 A 
BRANCH  14  19
ATOM     19  N   UNL A   1      39.763  20.352  25.604  1.00  0.00    -0.326 N 
ATOM     20  C   UNL A   1      40.959  20.237  26.287  1.00  0.00     0.224 C 
ATOM     21  O   UNL A   1      41.962  19.885  25.661  1.00  0.00    -0.275 OA
ATOM     22  H   UNL A   1      39.481  19.632  24.996  1.00  0.00     0.169 HD
BRANCH  20  23
ATOM     23  C   UNL A   1      41.009  20.495  27.793  1.00  0.00     0.100 C 
BRANCH  23  24
ATOM     24  C   UNL A   1      41.762  21.751  28.231  1.00  0.00     0.006 C 
ATOM     25  C   UNL A   1      42.726  22.291  27.186  1.00  0.00     0.004 C 
ENDBRANCH  23  24
ENDBRANCH  20  23
ENDBRANCH  14  19
ENDBRANCH  10  13
ENDBRANCH   8   9
BRANCH   8  26
ATOM     26  C   UNL A   1      33.312  21.754  25.093  1.00  0.00     0.029 A 
ATOM     27  C   UNL A   1      32.607  20.744  24.338  1.00  0.00     0.065 A 
ATOM     28  C   UNL A   1      33.411  21.166  26.359  1.00  0.00     0.038 A 
ATOM     29  C   UNL A   1      32.129  20.678  22.930  1.00  0.00     0.069 C 
ATOM     30  N   UNL A   1      32.329  19.666  25.082  1.00  0.00    -0.180 NA
ATOM     31  N   UNL A   1      32.836  19.937  26.278  1.00  0.00    -0.282 N 
ATOM     32  C   UNL A   1      33.992  21.619  27.651  1.00  0.00     0.066 C 
ATOM     33  H   UNL A   1      32.801  19.306  27.034  1.00  0.00     0.190 HD
ENDBRANCH   8  26
ENDBRANCH   6   8
ENDBRANCH   5   6
ENDBRANCH   4   5
ENDBRANCH   3   4
ENDBRANCH   2   3
ENDBRANCH   1   2
BRANCH   1  34
ATOM     34  C   UNL A   1      31.425  28.858  24.601  1.00  0.00     0.188 C 
BRANCH  34  35
ATOM     35  O   UNL A   1      30.798  30.095  24.872  1.00  0.00    -0.377 OA
BRANCH  35  36
ATOM     36  C   UNL A   1      31.465  30.902  25.822  1.00  0.00     0.188 C 
BRANCH  36  37
ATOM     37  C   UNL A   1      32.287  30.031  26.782  1.00  0.00     0.188 C 
BRANCH  37  38
ATOM     38  O   UNL A   1      33.654  30.413  26.836  1.00  0.00    -0.376 OA
BRANCH  38  39
ATOM     39  C   UNL A   1      34.606  29.564  27.461  1.00  0.00     0.202 C 
BRANCH  39  40
ATOM     40  C   UNL A   1      35.903  30.070  28.132  1.00  0.00     0.261 C 
BRANCH  40  41
ATOM     41  O   UNL A   1      36.813  29.121  28.705  1.00  0.00    -0.460 OA
BRANCH  41  42
ATOM     42  C   UNL A   1      37.651  29.526  29.678  1.00  0.00     0.338 C 
ATOM     43  O   UNL A   1      37.362  29.893  30.793  1.00  0.00    -0.246 OA
BRANCH  42  44
ATOM     44  C   UNL A   1      39.027  29.219  29.209  1.00  0.00     0.060 A 
ATOM     45  C   UNL A   1      39.958  28.741  30.143  1.00  0.00     0.016 A 
ATOM     46  C   UNL A   1      39.381  29.342  27.862  1.00  0.00     0.016 A 
ATOM     47  C   UNL A   1      41.248  28.408  29.738  1.00  0.00     0.010 A 
ATOM     48  C   UNL A   1      40.692  29.057  27.465  1.00  0.00     0.010 A 
ATOM     49  C   UNL A   1      41.637  28.625  28.412  1.00  0.00    -0.014 A 
BRANCH  49  50
ATOM     50  C   UNL A   1      43.086  28.672  28.106  1.00  0.00     0.031 A 
ATOM     51  C   UNL A   1      43.694  27.456  27.461  1.00  0.00     0.074 A 
ATOM     52  C   UNL A   1      43.823  29.777  28.313  1.00  0.00     0.049 A 
ATOM     53  N   UNL A   1      44.925  27.248  27.072  1.00  0.00    -0.248 NA
ATOM     54  C   UNL A   1      42.784  26.323  27.211  1.00  0.00     0.031 C 
ATOM     55  C   UNL A   1      43.333  31.035  28.874  1.00  0.00     0.029 A 
ATOM     56  N   UNL A   1      45.151  30.012  28.062  1.00  0.00    -0.354 N 
ATOM     57  C   UNL A   1      44.933  25.969  26.528  1.00  0.00     0.074 A 
ATOM     58  C   UNL A   1      43.599  25.433  26.672  1.00  0.00     0.031 C 
ATOM     59  C   UNL A   1      44.355  31.908  28.935  1.00  0.00     0.029 A 
ATOM     60  C   UNL A   1      45.572  31.261  28.446  1.00  0.00     0.049 A 
ATOM     61  H   UNL A   1      45.747  29.346  27.647  1.00  0.00     0.167 HD
ATOM     62  C   UNL A   1      45.957  25.302  25.949  1.00  0.00     0.031 A 
ATOM     63  C   UNL A   1      46.804  31.806  28.422  1.00  0.00     0.031 A 
ATOM     64  C   UNL A   1      47.290  25.824  25.834  1.00  0.00     0.049 A 
ATOM     65  C   UNL A   1      47.951  31.003  27.861  1.00  0.00     0.074 A 
ATOM     66  C   UNL A   1      48.408  25.219  25.288  1.00  0.00     0.029 A 
ATOM     67  N   UNL A   1      47.686  27.075  26.278  1.00  0.00    -0.354 N 
ATOM     68  N   UNL A   1      47.948  29.797  27.343  1.00  0.00    -0.248 NA
ATOM     69  C   UNL A   1      49.274  31.647  27.866  1.00  0.00     0.031 C 
ATOM     70  C   UNL A   1      49.493  26.084  25.452  1.00  0.00     0.029 A 
ATOM     71  C   UNL A   1      49.035  27.256  26.031  1.00  0.00     0.049 A 
ATOM     72  H   UNL A   1      47.096  27.736  26.706  1.00  0.00     0.167 HD
ATOM     73  C   UNL A   1      49.252  29.557  26.925  1.00  0.00     0.074 A 
ATOM     74  C   UNL A   1      50.014  30.749  27.234  1.00  0.00     0.031 C 
ATOM     75  C   UNL A   1      49.774  28.453  26.336  1.00  0.00     0.031 A 
BRANCH  62  76
ATOM     76  C   UNL A   1      45.675  23.923  25.423  1.00  0.00    -0.014 A 
ATOM     77  C   UNL A   1      45.078  23.731  24.165  1.00  0.00     0.009 A 
ATOM     78  C   UNL A   1      46.042  22.800  26.179  1.00  0.00     0.009 A 
ATOM     79  C   UNL A   1      44.835  22.442  23.688  1.00  0.00     0.001 A 
ATOM     80  C   UNL A   1      45.826  21.513  25.686  1.00  0.00     0.001 A 
ATOM     81  C   UNL A   1      45.217  21.335  24.445  1.00  0.00     0.000 A 
ENDBRANCH  62  76
BRANCH  63  82
ATOM     82  C   UNL A   1      47.038  33.169  28.973  1.00  0.00    -0.014 A 
ATOM     83  C   UNL A   1      46.946  34.308  28.160  1.00  0.00     0.009 A 
ATOM     84  C   UNL A   1      47.423  33.328  30.315  1.00  0.00     0.009 A 
ATOM     85  C   UNL A   1      47.273  35.570  28.665  1.00  0.00     0.001 A 
ATOM     86  C   UNL A   1      47.714  34.594  30.827  1.00  0.00     0.001 A 
ATOM     87  C   UNL A   1      47.655  35.711  29.999  1.00  0.00     0.000 A 
ENDBRANCH  63  82
BRANCH  75  88
ATOM     88  C   UNL A   1      51.221  28.508  25.923  1.00  0.00    -0.014 A 
ATOM     89  C   UNL A   1      51.614  28.991  24.666  1.00  0.00     0.009 A 
ATOM     90  C   UNL A   1      52.210  28.092  26.830  1.00  0.00     0.009 A 
ATOM     91  C   UNL A   1      52.964  29.006  24.307  1.00  0.00     0.001 A 
ATOM     92  C   UNL A   1      53.560  28.146  26.484  1.00  0.00     0.001 A 
ATOM     93  C   UNL A   1      53.936  28.588  25.217  1.00  0.00     0.000 A 
ENDBRANCH  75  88
ENDBRANCH  49  50
ENDBRANCH  42  44
ENDBRANCH  41  42
ENDBRANCH  40  41
ENDBRANCH  39  40
ENDBRANCH  38  39
ENDBRANCH  37  38
ENDBRANCH  36  37
ENDBRANCH  35  36
ENDBRANCH  34  35
ENDBRANCH   1  34
TORSDOF 26
ENDMDL
