MODEL 1
REMARK VINA RESULT:      -9.4      0.000      0.000
REMARK SMILES C=C[C@@H]1[C@@H](O)C[C@H]2[C@]3(CC[C@]4(C)[C@@H]([C@H](C)CCC=C(C)C)CC[C@]24C)C[C@]13CCC(=O)OCCOCCOCCOCCOC(=O)c1ccc(-c2c3nc(c(-c4ccccc4)c4ccc([nH]4)c(-c4ccccc4)c4nc(c(-c5ccccc5)c5ccc2[nH]5)C=C4)C=C3)cc1
REMARK SMILES IDX 36 1 35 2 34 3 33 4 32 5 30 6 31 7 29 8 28 9 27 10 3 11 4 12
REMARK SMILES IDX 6 13 8 14 26 15 7 16 9 17 24 18 10 19 11 20 23 21 25 22
REMARK SMILES IDX 13 23 12 24 22 25 2 26 1 27 5 28 14 30 15 31 16 32 17 33
REMARK SMILES IDX 18 34 19 35 20 36 21 37 37 38 38 39 39 40 40 41 41 42 42 43
REMARK SMILES IDX 43 44 44 45 45 46 46 47 47 48 48 49 94 50 49 51 93 52 50 53
REMARK SMILES IDX 51 54 52 55 87 56 53 57 92 58 86 59 88 60 54 61 91 62 85 63
REMARK SMILES IDX 84 64 55 66 77 67 62 68 76 69 63 70 66 71 75 72 89 73 64 74
REMARK SMILES IDX 65 75 74 77 90 78 67 79 56 80 57 81 61 82 58 83 60 84 59 85
REMARK SMILES IDX 78 86 79 87 83 88 80 89 82 90 81 91 68 92 69 93 73 94 70 95
REMARK SMILES IDX 72 96 71 97
REMARK H PARENT 5 29 88 65 66 76
REMARK Flexibility Score: inf
ROOT
ATOM      1  C   UNL A   1      42.223  22.632  27.516  1.00  0.00     0.188 C 
ENDROOT
BRANCH   1   2
ATOM      2  O   UNL A   1      41.142  23.408  28.017  1.00  0.00    -0.376 OA
BRANCH   2   3
ATOM      3  C   UNL A   1      40.476  24.350  27.187  1.00  0.00     0.202 C 
BRANCH   3   4
ATOM      4  C   UNL A   1      38.947  24.363  27.107  1.00  0.00     0.261 C 
BRANCH   4   5
ATOM      5  O   UNL A   1      38.476  23.818  25.861  1.00  0.00    -0.463 OA
BRANCH   5   6
ATOM      6  C   UNL A   1      38.272  22.491  25.743  1.00  0.00     0.305 C 
ATOM      7  O   UNL A   1      39.115  21.651  26.036  1.00  0.00    -0.252 OA
BRANCH   6   8
ATOM      8  C   UNL A   1      36.939  22.129  25.097  1.00  0.00     0.123 C 
BRANCH   8   9
ATOM      9  C   UNL A   1      35.734  23.079  24.972  1.00  0.00     0.020 C 
BRANCH   9  10
ATOM     10  C   UNL A   1      34.355  22.659  24.383  1.00  0.00    -0.014 C 
ATOM     11  C   UNL A   1      33.693  21.356  24.905  1.00  0.00     0.047 C 
ATOM     12  C   UNL A   1      32.658  21.682  25.980  1.00  0.00     0.122 C 
ATOM     13  C   UNL A   1      31.643  22.667  25.433  1.00  0.00     0.037 C 
ATOM     14  C   UNL A   1      33.491  23.911  24.013  1.00  0.00    -0.019 C 
ATOM     15  C   UNL A   1      33.932  22.944  22.954  1.00  0.00     0.016 C 
ATOM     16  C   UNL A   1      32.246  23.998  24.922  1.00  0.00     0.005 C 
ATOM     17  C   UNL A   1      34.034  25.289  23.615  1.00  0.00     0.008 C 
ATOM     18  C   UNL A   1      31.140  25.008  24.400  1.00  0.00    -0.023 C 
ATOM     19  C   UNL A   1      32.918  26.105  22.966  1.00  0.00     0.008 C 
ATOM     20  C   UNL A   1      31.766  26.398  23.953  1.00  0.00    -0.024 C 
ATOM     21  C   UNL A   1      30.266  25.476  25.590  1.00  0.00     0.008 C 
ATOM     22  C   UNL A   1      30.276  24.355  23.295  1.00  0.00     0.012 C 
ATOM     23  C   UNL A   1      32.197  27.005  25.343  1.00  0.00    -0.002 C 
ATOM     24  C   UNL A   1      30.740  27.322  23.255  1.00  0.00     0.012 C 
ATOM     25  C   UNL A   1      31.084  26.551  26.322  1.00  0.00     0.005 C 
BRANCH  11  26
ATOM     26  C   UNL A   1      33.045  20.426  23.870  1.00  0.00    -0.028 C 
ATOM     27  C   UNL A   1      32.284  19.360  24.141  1.00  0.00     0.004 C 
ENDBRANCH  11  26
BRANCH  12  28
ATOM     28  O   UNL A   1      33.258  22.188  27.168  1.00  0.00    -0.392 OA
ATOM     29  H   UNL A   1      32.757  21.880  27.939  1.00  0.00     0.210 HD
ENDBRANCH  12  28
BRANCH  23  30
ATOM     30  C   UNL A   1      32.714  28.467  25.524  1.00  0.00    -0.010 C 
ATOM     31  C   UNL A   1      33.587  29.020  24.391  1.00  0.00     0.008 C 
BRANCH  30  32
ATOM     32  C   UNL A   1      33.358  28.747  26.903  1.00  0.00     0.008 C 
BRANCH  32  33
ATOM     33  C   UNL A   1      34.799  29.277  26.841  1.00  0.00     0.027 C 
BRANCH  33  34
ATOM     34  C   UNL A   1      35.031  30.262  27.965  1.00  0.00    -0.028 C 
ATOM     35  C   UNL A   1      36.204  30.535  28.573  1.00  0.00    -0.080 C 
ATOM     36  C   UNL A   1      36.273  31.471  29.750  1.00  0.00     0.039 C 
ATOM     37  C   UNL A   1      37.516  29.925  28.162  1.00  0.00     0.039 C 
ENDBRANCH  33  34
ENDBRANCH  32  33
ENDBRANCH  30  32
ENDBRANCH  23  30
ENDBRANCH   9  10
ENDBRANCH   8   9
ENDBRANCH   6   8
ENDBRANCH   5   6
ENDBRANCH   4   5
ENDBRANCH   3   4
ENDBRANCH   2   3
ENDBRANCH   1   2
BRANCH   1  38
ATOM     38  C   UNL A   1      42.365  22.448  26.001  1.00  0.00     0.188 C 
BRANCH  38  39
ATOM     39  O   UNL A   1      42.345  21.192  25.360  1.00  0.00    -0.377 OA
BRANCH  39  40
ATOM     40  C   UNL A   1      42.844  20.108  26.111  1.00  0.00     0.188 C 
BRANCH  40  41
ATOM     41  C   UNL A   1      43.715  19.214  25.235  1.00  0.00     0.188 C 
BRANCH  41  42
ATOM     42  O   UNL A   1      45.086  19.316  25.596  1.00  0.00    -0.376 OA
BRANCH  42  43
ATOM     43  C   UNL A   1      45.967  19.903  24.643  1.00  0.00     0.202 C 
BRANCH  43  44
ATOM     44  C   UNL A   1      45.946  21.417  24.327  1.00  0.00     0.261 C 
BRANCH  44  45
ATOM     45  O   UNL A   1      46.420  22.346  25.319  1.00  0.00    -0.460 OA
BRANCH  45  46
ATOM     46  C   UNL A   1      46.574  23.638  24.987  1.00  0.00     0.338 C 
ATOM     47  O   UNL A   1      46.980  24.088  23.925  1.00  0.00    -0.246 OA
BRANCH  46  48
ATOM     48  C   UNL A   1      46.046  24.459  26.099  1.00  0.00     0.060 A 
ATOM     49  C   UNL A   1      44.735  24.948  26.035  1.00  0.00     0.016 A 
ATOM     50  C   UNL A   1      46.856  24.769  27.196  1.00  0.00     0.016 A 
ATOM     51  C   UNL A   1      44.242  25.776  27.048  1.00  0.00     0.010 A 
ATOM     52  C   UNL A   1      46.368  25.616  28.199  1.00  0.00     0.010 A 
ATOM     53  C   UNL A   1      45.071  26.152  28.113  1.00  0.00    -0.014 A 
BRANCH  53  54
ATOM     54  C   UNL A   1      44.655  27.253  29.024  1.00  0.00     0.031 A 
ATOM     55  C   UNL A   1      44.670  28.665  28.499  1.00  0.00     0.074 A 
ATOM     56  C   UNL A   1      44.251  27.015  30.285  1.00  0.00     0.049 A 
ATOM     57  N   UNL A   1      44.390  29.786  29.115  1.00  0.00    -0.248 NA
ATOM     58  C   UNL A   1      45.057  28.834  27.089  1.00  0.00     0.031 C 
ATOM     59  C   UNL A   1      44.143  25.698  30.907  1.00  0.00     0.029 A 
ATOM     60  N   UNL A   1      43.862  27.888  31.273  1.00  0.00    -0.354 N 
ATOM     61  C   UNL A   1      44.578  30.790  28.174  1.00  0.00     0.074 A 
ATOM     62  C   UNL A   1      45.023  30.150  26.955  1.00  0.00     0.031 C 
ATOM     63  C   UNL A   1      43.721  25.849  32.175  1.00  0.00     0.029 A 
ATOM     64  C   UNL A   1      43.567  27.274  32.467  1.00  0.00     0.049 A 
ATOM     65  H   UNL A   1      43.798  28.861  31.138  1.00  0.00     0.167 HD
ATOM     66  C   UNL A   1      44.394  32.126  28.306  1.00  0.00     0.031 A 
ATOM     67  C   UNL A   1      43.238  27.802  33.662  1.00  0.00     0.031 A 
ATOM     68  C   UNL A   1      43.969  32.769  29.520  1.00  0.00     0.049 A 
ATOM     69  C   UNL A   1      43.126  29.299  33.810  1.00  0.00     0.074 A 
ATOM     70  C   UNL A   1      43.739  34.116  29.747  1.00  0.00     0.029 A 
ATOM     71  N   UNL A   1      43.725  32.115  30.717  1.00  0.00    -0.354 N 
ATOM     72  N   UNL A   1      43.274  30.235  32.904  1.00  0.00    -0.248 NA
ATOM     73  C   UNL A   1      42.793  29.810  35.149  1.00  0.00     0.031 C 
ATOM     74  C   UNL A   1      43.422  34.283  31.098  1.00  0.00     0.029 A 
ATOM     75  C   UNL A   1      43.380  33.034  31.695  1.00  0.00     0.049 A 
ATOM     76  H   UNL A   1      43.787  31.142  30.852  1.00  0.00     0.167 HD
ATOM     77  C   UNL A   1      43.022  31.439  33.554  1.00  0.00     0.074 A 
ATOM     78  C   UNL A   1      42.694  31.113  34.926  1.00  0.00     0.031 C 
ATOM     79  C   UNL A   1      43.055  32.700  33.057  1.00  0.00     0.031 A 
BRANCH  66  80
ATOM     80  C   UNL A   1      44.697  32.989  27.111  1.00  0.00    -0.014 A 
ATOM     81  C   UNL A   1      45.927  33.654  26.978  1.00  0.00     0.009 A 
ATOM     82  C   UNL A   1      43.746  33.110  26.085  1.00  0.00     0.009 A 
ATOM     83  C   UNL A   1      46.183  34.450  25.859  1.00  0.00     0.001 A 
ATOM     84  C   UNL A   1      44.017  33.881  24.954  1.00  0.00     0.001 A 
ATOM     85  C   UNL A   1      45.231  34.558  24.846  1.00  0.00     0.000 A 
ENDBRANCH  66  80
BRANCH  67  86
ATOM     86  C   UNL A   1      43.017  26.915  34.837  1.00  0.00    -0.014 A 
ATOM     87  C   UNL A   1      44.078  26.565  35.686  1.00  0.00     0.009 A 
ATOM     88  C   UNL A   1      41.743  26.383  35.095  1.00  0.00     0.009 A 
ATOM     89  C   UNL A   1      43.875  25.681  36.750  1.00  0.00     0.001 A 
ATOM     90  C   UNL A   1      41.536  25.525  36.178  1.00  0.00     0.001 A 
ATOM     91  C   UNL A   1      42.604  25.167  36.998  1.00  0.00     0.000 A 
ENDBRANCH  67  86
BRANCH  79  92
ATOM     92  C   UNL A   1      42.686  33.826  33.988  1.00  0.00    -0.014 A 
ATOM     93  C   UNL A   1      43.644  34.452  34.800  1.00  0.00     0.009 A 
ATOM     94  C   UNL A   1      41.363  34.295  34.016  1.00  0.00     0.009 A 
ATOM     95  C   UNL A   1      43.275  35.500  35.648  1.00  0.00     0.001 A 
ATOM     96  C   UNL A   1      41.005  35.365  34.837  1.00  0.00     0.001 A 
ATOM     97  C   UNL A   1      41.958  35.959  35.661  1.00  0.00     0.000 A 
ENDBRANCH  79  92
ENDBRANCH  53  54
ENDBRANCH  46  48
ENDBRANCH  45  46
ENDBRANCH  44  45
ENDBRANCH  43  44
ENDBRANCH  42  43
ENDBRANCH  41  42
ENDBRANCH  40  41
ENDBRANCH  39  40
ENDBRANCH  38  39
ENDBRANCH   1  38
TORSDOF 28
ENDMDL
MODEL 2
REMARK VINA RESULT:      -9.4      1.586      2.328
REMARK SMILES C=C[C@@H]1[C@@H](O)C[C@H]2[C@]3(CC[C@]4(C)[C@@H]([C@H](C)CCC=C(C)C)CC[C@]24C)C[C@]13CCC(=O)OCCOCCOCCOCCOC(=O)c1ccc(-c2c3nc(c(-c4ccccc4)c4ccc([nH]4)c(-c4ccccc4)c4nc(c(-c5ccccc5)c5ccc2[nH]5)C=C4)C=C3)cc1
REMARK SMILES IDX 36 1 35 2 34 3 33 4 32 5 30 6 31 7 29 8 28 9 27 10 3 11 4 12
REMARK SMILES IDX 6 13 8 14 26 15 7 16 9 17 24 18 10 19 11 20 23 21 25 22
REMARK SMILES IDX 13 23 12 24 22 25 2 26 1 27 5 28 14 30 15 31 16 32 17 33
REMARK SMILES IDX 18 34 19 35 20 36 21 37 37 38 38 39 39 40 40 41 41 42 42 43
REMARK SMILES IDX 43 44 44 45 45 46 46 47 47 48 48 49 94 50 49 51 93 52 50 53
REMARK SMILES IDX 51 54 52 55 87 56 53 57 92 58 86 59 88 60 54 61 91 62 85 63
REMARK SMILES IDX 84 64 55 66 77 67 62 68 76 69 63 70 66 71 75 72 89 73 64 74
REMARK SMILES IDX 65 75 74 77 90 78 67 79 56 80 57 81 61 82 58 83 60 84 59 85
REMARK SMILES IDX 78 86 79 87 83 88 80 89 82 90 81 91 68 92 69 93 73 94 70 95
REMARK SMILES IDX 72 96 71 97
REMARK H PARENT 5 29 88 65 66 76
REMARK Flexibility Score: inf
ROOT
ATOM      1  C   UNL A   1      42.797  24.006  26.893  1.00  0.00     0.188 C 
ENDROOT
BRANCH   1   2
ATOM      2  O   UNL A   1      41.677  24.454  27.644  1.00  0.00    -0.376 OA
BRANCH   2   3
ATOM      3  C   UNL A   1      40.765  25.399  27.099  1.00  0.00     0.202 C 
BRANCH   3   4
ATOM      4  C   UNL A   1      39.256  25.184  27.237  1.00  0.00     0.261 C 
BRANCH   4   5
ATOM      5  O   UNL A   1      38.723  24.433  26.131  1.00  0.00    -0.463 OA
BRANCH   5   6
ATOM      6  C   UNL A   1      38.544  23.102  26.248  1.00  0.00     0.305 C 
ATOM      7  O   UNL A   1      39.459  22.314  26.455  1.00  0.00    -0.252 OA
BRANCH   6   8
ATOM      8  C   UNL A   1      37.112  22.649  25.978  1.00  0.00     0.123 C 
BRANCH   8   9
ATOM      9  C   UNL A   1      36.075  23.445  25.165  1.00  0.00     0.020 C 
BRANCH   9  10
ATOM     10  C   UNL A   1      34.704  22.868  24.707  1.00  0.00    -0.014 C 
ATOM     11  C   UNL A   1      34.104  21.671  25.491  1.00  0.00     0.047 C 
ATOM     12  C   UNL A   1      33.078  22.165  26.508  1.00  0.00     0.122 C 
ATOM     13  C   UNL A   1      32.014  22.986  25.804  1.00  0.00     0.037 C 
ATOM     14  C   UNL A   1      33.783  23.990  24.120  1.00  0.00    -0.019 C 
ATOM     15  C   UNL A   1      34.243  22.849  23.261  1.00  0.00     0.016 C 
ATOM     16  C   UNL A   1      32.552  24.210  25.027  1.00  0.00     0.005 C 
ATOM     17  C   UNL A   1      34.262  25.281  23.445  1.00  0.00     0.008 C 
ATOM     18  C   UNL A   1      31.397  25.057  24.346  1.00  0.00    -0.023 C 
ATOM     19  C   UNL A   1      33.102  25.913  22.678  1.00  0.00     0.008 C 
ATOM     20  C   UNL A   1      31.958  26.352  23.618  1.00  0.00    -0.024 C 
ATOM     21  C   UNL A   1      30.527  25.719  25.443  1.00  0.00     0.008 C 
ATOM     22  C   UNL A   1      30.539  24.168  23.413  1.00  0.00     0.012 C 
ATOM     23  C   UNL A   1      32.390  27.238  24.850  1.00  0.00    -0.002 C 
ATOM     24  C   UNL A   1      30.883  27.083  22.779  1.00  0.00     0.012 C 
ATOM     25  C   UNL A   1      31.315  26.946  25.927  1.00  0.00     0.005 C 
BRANCH  11  26
ATOM     26  C   UNL A   1      33.475  20.532  24.676  1.00  0.00    -0.028 C 
ATOM     27  C   UNL A   1      32.896  19.436  25.178  1.00  0.00     0.004 C 
ENDBRANCH  11  26
BRANCH  12  28
ATOM     28  O   UNL A   1      33.678  22.916  27.557  1.00  0.00    -0.392 OA
ATOM     29  H   UNL A   1      32.990  23.387  28.054  1.00  0.00     0.210 HD
ENDBRANCH  12  28
BRANCH  23  30
ATOM     30  C   UNL A   1      32.851  28.724  24.726  1.00  0.00    -0.010 C 
ATOM     31  C   UNL A   1      33.983  29.000  23.728  1.00  0.00     0.008 C 
BRANCH  30  32
ATOM     32  C   UNL A   1      33.130  29.417  26.081  1.00  0.00     0.008 C 
BRANCH  32  33
ATOM     33  C   UNL A   1      33.951  28.580  27.073  1.00  0.00     0.027 C 
BRANCH  33  34
ATOM     34  C   UNL A   1      35.410  28.968  26.985  1.00  0.00    -0.028 C 
ATOM     35  C   UNL A   1      36.117  29.670  27.893  1.00  0.00    -0.080 C 
ATOM     36  C   UNL A   1      37.544  30.071  27.631  1.00  0.00     0.039 C 
ATOM     37  C   UNL A   1      35.553  30.134  29.209  1.00  0.00     0.039 C 
ENDBRANCH  33  34
ENDBRANCH  32  33
ENDBRANCH  30  32
ENDBRANCH  23  30
ENDBRANCH   9  10
ENDBRANCH   8   9
ENDBRANCH   6   8
ENDBRANCH   5   6
ENDBRANCH   4   5
ENDBRANCH   3   4
ENDBRANCH   2   3
ENDBRANCH   1   2
BRANCH   1  38
ATOM     38  C   UNL A   1      42.586  23.548  25.445  1.00  0.00     0.188 C 
BRANCH  38  39
ATOM     39  O   UNL A   1      42.668  22.204  25.029  1.00  0.00    -0.377 OA
BRANCH  39  40
ATOM     40  C   UNL A   1      43.540  21.380  25.772  1.00  0.00     0.188 C 
BRANCH  40  41
ATOM     41  C   UNL A   1      44.778  21.041  24.949  1.00  0.00     0.188 C 
BRANCH  41  42
ATOM     42  O   UNL A   1      45.945  21.631  25.506  1.00  0.00    -0.376 OA
BRANCH  42  43
ATOM     43  C   UNL A   1      46.141  23.024  25.281  1.00  0.00     0.202 C 
BRANCH  43  44
ATOM     44  C   UNL A   1      46.503  23.999  26.426  1.00  0.00     0.261 C 
BRANCH  44  45
ATOM     45  O   UNL A   1      47.412  25.083  26.163  1.00  0.00    -0.460 OA
BRANCH  45  46
ATOM     46  C   UNL A   1      46.979  26.148  25.469  1.00  0.00     0.338 C 
ATOM     47  O   UNL A   1      47.055  26.330  24.263  1.00  0.00    -0.246 OA
BRANCH  46  48
ATOM     48  C   UNL A   1      46.265  27.041  26.409  1.00  0.00     0.060 A 
ATOM     49  C   UNL A   1      46.982  27.704  27.414  1.00  0.00     0.016 A 
ATOM     50  C   UNL A   1      44.880  27.205  26.315  1.00  0.00     0.016 A 
ATOM     51  C   UNL A   1      46.314  28.502  28.347  1.00  0.00     0.010 A 
ATOM     52  C   UNL A   1      44.210  27.987  27.263  1.00  0.00     0.010 A 
ATOM     53  C   UNL A   1      44.918  28.612  28.305  1.00  0.00    -0.014 A 
BRANCH  53  54
ATOM     54  C   UNL A   1      44.186  29.210  29.454  1.00  0.00     0.031 A 
ATOM     55  C   UNL A   1      43.777  30.658  29.371  1.00  0.00     0.074 A 
ATOM     56  C   UNL A   1      43.864  28.489  30.543  1.00  0.00     0.049 A 
ATOM     57  N   UNL A   1      43.169  31.404  30.258  1.00  0.00    -0.248 NA
ATOM     58  C   UNL A   1      44.103  31.358  28.117  1.00  0.00     0.031 C 
ATOM     59  C   UNL A   1      44.155  27.070  30.737  1.00  0.00     0.029 A 
ATOM     60  N   UNL A   1      43.225  28.863  31.700  1.00  0.00    -0.354 N 
ATOM     61  C   UNL A   1      43.050  32.660  29.676  1.00  0.00     0.074 A 
ATOM     62  C   UNL A   1      43.674  32.584  28.373  1.00  0.00     0.031 C 
ATOM     63  C   UNL A   1      43.700  26.694  31.946  1.00  0.00     0.029 A 
ATOM     64  C   UNL A   1      43.122  27.853  32.626  1.00  0.00     0.049 A 
ATOM     65  H   UNL A   1      42.872  29.770  31.852  1.00  0.00     0.167 HD
ATOM     66  C   UNL A   1      42.472  33.779  30.176  1.00  0.00     0.031 A 
ATOM     67  C   UNL A   1      42.643  27.869  33.886  1.00  0.00     0.031 A 
ATOM     68  C   UNL A   1      41.866  33.865  31.477  1.00  0.00     0.049 A 
ATOM     69  C   UNL A   1      42.084  29.148  34.455  1.00  0.00     0.074 A 
ATOM     70  C   UNL A   1      41.240  34.951  32.065  1.00  0.00     0.029 A 
ATOM     71  N   UNL A   1      41.824  32.831  32.400  1.00  0.00    -0.354 N 
ATOM     72  N   UNL A   1      41.948  30.320  33.883  1.00  0.00    -0.248 NA
ATOM     73  C   UNL A   1      41.604  29.103  35.845  1.00  0.00     0.031 C 
ATOM     74  C   UNL A   1      40.879  34.594  33.368  1.00  0.00     0.029 A 
ATOM     75  C   UNL A   1      41.212  33.264  33.565  1.00  0.00     0.049 A 
ATOM     76  H   UNL A   1      42.175  31.924  32.248  1.00  0.00     0.167 HD
ATOM     77  C   UNL A   1      41.341  31.139  34.829  1.00  0.00     0.074 A 
ATOM     78  C   UNL A   1      41.119  30.325  36.006  1.00  0.00     0.031 C 
ATOM     79  C   UNL A   1      40.996  32.447  34.730  1.00  0.00     0.031 A 
BRANCH  66  80
ATOM     80  C   UNL A   1      42.507  35.018  29.323  1.00  0.00    -0.014 A 
ATOM     81  C   UNL A   1      41.490  35.302  28.397  1.00  0.00     0.009 A 
ATOM     82  C   UNL A   1      43.561  35.934  29.475  1.00  0.00     0.009 A 
ATOM     83  C   UNL A   1      41.548  36.459  27.617  1.00  0.00     0.001 A 
ATOM     84  C   UNL A   1      43.599  37.105  28.717  1.00  0.00     0.001 A 
ATOM     85  C   UNL A   1      42.597  37.362  27.782  1.00  0.00     0.000 A 
ENDBRANCH  66  80
BRANCH  67  86
ATOM     86  C   UNL A   1      42.692  26.636  34.720  1.00  0.00    -0.014 A 
ATOM     87  C   UNL A   1      43.918  26.108  35.152  1.00  0.00     0.009 A 
ATOM     88  C   UNL A   1      41.509  25.961  35.060  1.00  0.00     0.009 A 
ATOM     89  C   UNL A   1      43.961  24.916  35.882  1.00  0.00     0.001 A 
ATOM     90  C   UNL A   1      41.551  24.788  35.818  1.00  0.00     0.001 A 
ATOM     91  C   UNL A   1      42.777  24.261  36.219  1.00  0.00     0.000 A 
ENDBRANCH  67  86
BRANCH  79  92
ATOM     92  C   UNL A   1      40.299  33.075  35.909  1.00  0.00    -0.014 A 
ATOM     93  C   UNL A   1      41.016  33.726  36.925  1.00  0.00     0.009 A 
ATOM     94  C   UNL A   1      38.897  33.051  35.979  1.00  0.00     0.009 A 
ATOM     95  C   UNL A   1      40.343  34.308  38.003  1.00  0.00     0.001 A 
ATOM     96  C   UNL A   1      38.226  33.663  37.038  1.00  0.00     0.001 A 
ATOM     97  C   UNL A   1      38.950  34.281  38.055  1.00  0.00     0.000 A 
ENDBRANCH  79  92
ENDBRANCH  53  54
ENDBRANCH  46  48
ENDBRANCH  45  46
ENDBRANCH  44  45
ENDBRANCH  43  44
ENDBRANCH  42  43
ENDBRANCH  41  42
ENDBRANCH  40  41
ENDBRANCH  39  40
ENDBRANCH  38  39
ENDBRANCH   1  38
TORSDOF 28
ENDMDL
MODEL 3
REMARK VINA RESULT:      -9.0      2.735      4.744
REMARK SMILES C=C[C@@H]1[C@@H](O)C[C@H]2[C@]3(CC[C@]4(C)[C@@H]([C@H](C)CCC=C(C)C)CC[C@]24C)C[C@]13CCC(=O)OCCOCCOCCOCCOC(=O)c1ccc(-c2c3nc(c(-c4ccccc4)c4ccc([nH]4)c(-c4ccccc4)c4nc(c(-c5ccccc5)c5ccc2[nH]5)C=C4)C=C3)cc1
REMARK SMILES IDX 36 1 35 2 34 3 33 4 32 5 30 6 31 7 29 8 28 9 27 10 3 11 4 12
REMARK SMILES IDX 6 13 8 14 26 15 7 16 9 17 24 18 10 19 11 20 23 21 25 22
REMARK SMILES IDX 13 23 12 24 22 25 2 26 1 27 5 28 14 30 15 31 16 32 17 33
REMARK SMILES IDX 18 34 19 35 20 36 21 37 37 38 38 39 39 40 40 41 41 42 42 43
REMARK SMILES IDX 43 44 44 45 45 46 46 47 47 48 48 49 94 50 49 51 93 52 50 53
REMARK SMILES IDX 51 54 52 55 87 56 53 57 92 58 86 59 88 60 54 61 91 62 85 63
REMARK SMILES IDX 84 64 55 66 77 67 62 68 76 69 63 70 66 71 75 72 89 73 64 74
REMARK SMILES IDX 65 75 74 77 90 78 67 79 56 80 57 81 61 82 58 83 60 84 59 85
REMARK SMILES IDX 78 86 79 87 83 88 80 89 82 90 81 91 68 92 69 93 73 94 70 95
REMARK SMILES IDX 72 96 71 97
REMARK H PARENT 5 29 88 65 66 76
REMARK Flexibility Score: inf
ROOT
ATOM      1  C   UNL A   1      43.176  23.972  26.596  1.00  0.00     0.188 C 
ENDROOT
BRANCH   1   2
ATOM      2  O   UNL A   1      42.182  24.383  27.526  1.00  0.00    -0.376 OA
BRANCH   2   3
ATOM      3  C   UNL A   1      40.929  24.884  27.078  1.00  0.00     0.202 C 
BRANCH   3   4
ATOM      4  C   UNL A   1      39.627  24.379  27.707  1.00  0.00     0.261 C 
BRANCH   4   5
ATOM      5  O   UNL A   1      38.676  23.973  26.706  1.00  0.00    -0.463 OA
BRANCH   5   6
ATOM      6  C   UNL A   1      38.659  22.695  26.277  1.00  0.00     0.305 C 
ATOM      7  O   UNL A   1      39.559  21.896  26.501  1.00  0.00    -0.252 OA
BRANCH   6   8
ATOM      8  C   UNL A   1      37.469  22.365  25.381  1.00  0.00     0.123 C 
BRANCH   8   9
ATOM      9  C   UNL A   1      36.114  23.096  25.411  1.00  0.00     0.020 C 
BRANCH   9  10
ATOM     10  C   UNL A   1      34.800  22.512  24.816  1.00  0.00    -0.014 C 
ATOM     11  C   UNL A   1      34.212  21.220  25.444  1.00  0.00     0.047 C 
ATOM     12  C   UNL A   1      33.107  21.570  26.438  1.00  0.00     0.122 C 
ATOM     13  C   UNL A   1      32.049  22.412  25.753  1.00  0.00     0.037 C 
ATOM     14  C   UNL A   1      33.863  23.648  24.284  1.00  0.00    -0.019 C 
ATOM     15  C   UNL A   1      34.424  22.616  23.350  1.00  0.00     0.016 C 
ATOM     16  C   UNL A   1      32.573  23.728  25.130  1.00  0.00     0.005 C 
ATOM     17  C   UNL A   1      34.320  25.017  23.766  1.00  0.00     0.008 C 
ATOM     18  C   UNL A   1      31.421  24.590  24.463  1.00  0.00    -0.023 C 
ATOM     19  C   UNL A   1      33.178  25.673  22.993  1.00  0.00     0.008 C 
ATOM     20  C   UNL A   1      31.962  25.972  23.899  1.00  0.00    -0.024 C 
ATOM     21  C   UNL A   1      30.460  25.104  25.563  1.00  0.00     0.008 C 
ATOM     22  C   UNL A   1      30.661  23.762  23.399  1.00  0.00     0.012 C 
ATOM     23  C   UNL A   1      32.281  26.749  25.234  1.00  0.00    -0.002 C 
ATOM     24  C   UNL A   1      30.904  26.737  23.068  1.00  0.00     0.012 C 
ATOM     25  C   UNL A   1      31.160  26.309  26.210  1.00  0.00     0.005 C 
BRANCH  11  26
ATOM     26  C   UNL A   1      33.685  20.142  24.487  1.00  0.00    -0.028 C 
ATOM     27  C   UNL A   1      33.861  18.823  24.618  1.00  0.00     0.004 C 
ENDBRANCH  11  26
BRANCH  12  28
ATOM     28  O   UNL A   1      33.612  22.238  27.590  1.00  0.00    -0.392 OA
ATOM     29  H   UNL A   1      33.575  23.197  27.450  1.00  0.00     0.210 HD
ENDBRANCH  12  28
BRANCH  23  30
ATOM     30  C   UNL A   1      32.679  28.257  25.281  1.00  0.00    -0.010 C 
ATOM     31  C   UNL A   1      34.113  28.565  25.730  1.00  0.00     0.008 C 
BRANCH  30  32
ATOM     32  C   UNL A   1      31.664  29.159  26.024  1.00  0.00     0.008 C 
BRANCH  32  33
ATOM     33  C   UNL A   1      31.112  30.325  25.190  1.00  0.00     0.027 C 
BRANCH  33  34
ATOM     34  C   UNL A   1      30.386  29.788  23.976  1.00  0.00    -0.028 C 
ATOM     35  C   UNL A   1      29.314  30.335  23.367  1.00  0.00    -0.080 C 
ATOM     36  C   UNL A   1      28.629  29.638  22.222  1.00  0.00     0.039 C 
ATOM     37  C   UNL A   1      28.699  31.644  23.781  1.00  0.00     0.039 C 
ENDBRANCH  33  34
ENDBRANCH  32  33
ENDBRANCH  30  32
ENDBRANCH  23  30
ENDBRANCH   9  10
ENDBRANCH   8   9
ENDBRANCH   6   8
ENDBRANCH   5   6
ENDBRANCH   4   5
ENDBRANCH   3   4
ENDBRANCH   2   3
ENDBRANCH   1   2
BRANCH   1  38
ATOM     38  C   UNL A   1      42.740  23.271  25.304  1.00  0.00     0.188 C 
BRANCH  38  39
ATOM     39  O   UNL A   1      43.128  21.961  24.955  1.00  0.00    -0.377 OA
BRANCH  39  40
ATOM     40  C   UNL A   1      44.353  21.516  25.493  1.00  0.00     0.188 C 
BRANCH  40  41
ATOM     41  C   UNL A   1      45.449  21.577  24.435  1.00  0.00     0.188 C 
BRANCH  41  42
ATOM     42  O   UNL A   1      46.540  22.380  24.866  1.00  0.00    -0.376 OA
BRANCH  42  43
ATOM     43  C   UNL A   1      46.402  23.791  24.729  1.00  0.00     0.202 C 
BRANCH  43  44
ATOM     44  C   UNL A   1      46.466  24.745  25.945  1.00  0.00     0.261 C 
BRANCH  44  45
ATOM     45  O   UNL A   1      47.159  26.000  25.815  1.00  0.00    -0.460 OA
BRANCH  45  46
ATOM     46  C   UNL A   1      46.473  27.093  25.445  1.00  0.00     0.338 C 
ATOM     47  O   UNL A   1      46.062  27.368  24.326  1.00  0.00    -0.246 OA
BRANCH  46  48
ATOM     48  C   UNL A   1      46.177  27.878  26.663  1.00  0.00     0.060 A 
ATOM     49  C   UNL A   1      46.005  27.217  27.887  1.00  0.00     0.016 A 
ATOM     50  C   UNL A   1      46.041  29.267  26.595  1.00  0.00     0.016 A 
ATOM     51  C   UNL A   1      45.664  27.938  29.036  1.00  0.00     0.010 A 
ATOM     52  C   UNL A   1      45.679  29.985  27.741  1.00  0.00     0.010 A 
ATOM     53  C   UNL A   1      45.454  29.321  28.960  1.00  0.00    -0.014 A 
BRANCH  53  54
ATOM     54  C   UNL A   1      44.812  30.037  30.095  1.00  0.00     0.031 A 
ATOM     55  C   UNL A   1      43.309  30.147  30.118  1.00  0.00     0.074 A 
ATOM     56  C   UNL A   1      45.533  30.564  31.100  1.00  0.00     0.049 A 
ATOM     57  N   UNL A   1      42.531  30.755  30.978  1.00  0.00    -0.248 NA
ATOM     58  C   UNL A   1      42.588  29.483  29.019  1.00  0.00     0.031 C 
ATOM     59  C   UNL A   1      46.987  30.492  31.229  1.00  0.00     0.029 A 
ATOM     60  N   UNL A   1      45.132  31.276  32.205  1.00  0.00    -0.354 N 
ATOM     61  C   UNL A   1      41.235  30.557  30.519  1.00  0.00     0.074 A 
ATOM     62  C   UNL A   1      41.332  29.799  29.291  1.00  0.00     0.031 C 
ATOM     63  C   UNL A   1      47.357  31.140  32.349  1.00  0.00     0.029 A 
ATOM     64  C   UNL A   1      46.172  31.706  32.993  1.00  0.00     0.049 A 
ATOM     65  H   UNL A   1      44.187  31.461  32.413  1.00  0.00     0.167 HD
ATOM     66  C   UNL A   1      40.066  30.965  31.068  1.00  0.00     0.031 A 
ATOM     67  C   UNL A   1      46.170  32.487  34.091  1.00  0.00     0.031 A 
ATOM     68  C   UNL A   1      39.965  31.735  32.279  1.00  0.00     0.049 A 
ATOM     69  C   UNL A   1      44.863  33.005  34.636  1.00  0.00     0.074 A 
ATOM     70  C   UNL A   1      38.823  32.181  32.924  1.00  0.00     0.029 A 
ATOM     71  N   UNL A   1      41.045  32.186  33.021  1.00  0.00    -0.354 N 
ATOM     72  N   UNL A   1      43.642  32.784  34.211  1.00  0.00    -0.248 NA
ATOM     73  C   UNL A   1      44.935  33.876  35.819  1.00  0.00     0.031 C 
ATOM     74  C   UNL A   1      39.215  32.959  34.017  1.00  0.00     0.029 A 
ATOM     75  C   UNL A   1      40.597  32.934  34.098  1.00  0.00     0.049 A 
ATOM     76  H   UNL A   1      41.989  32.001  32.815  1.00  0.00     0.167 HD
ATOM     77  C   UNL A   1      42.804  33.460  35.091  1.00  0.00     0.074 A 
ATOM     78  C   UNL A   1      43.654  34.085  36.083  1.00  0.00     0.031 C 
ATOM     79  C   UNL A   1      41.451  33.552  35.080  1.00  0.00     0.031 A 
BRANCH  66  80
ATOM     80  C   UNL A   1      38.798  30.622  30.335  1.00  0.00    -0.014 A 
ATOM     81  C   UNL A   1      38.016  29.513  30.698  1.00  0.00     0.009 A 
ATOM     82  C   UNL A   1      38.361  31.444  29.284  1.00  0.00     0.009 A 
ATOM     83  C   UNL A   1      36.843  29.215  30.000  1.00  0.00     0.001 A 
ATOM     84  C   UNL A   1      37.172  31.163  28.609  1.00  0.00     0.001 A 
ATOM     85  C   UNL A   1      36.419  30.043  28.962  1.00  0.00     0.000 A 
ENDBRANCH  66  80
BRANCH  67  86
ATOM     86  C   UNL A   1      47.455  32.862  34.745  1.00  0.00    -0.014 A 
ATOM     87  C   UNL A   1      48.164  34.003  34.338  1.00  0.00     0.009 A 
ATOM     88  C   UNL A   1      47.997  32.056  35.759  1.00  0.00     0.009 A 
ATOM     89  C   UNL A   1      49.400  34.313  34.913  1.00  0.00     0.001 A 
ATOM     90  C   UNL A   1      49.216  32.386  36.355  1.00  0.00     0.001 A 
ATOM     91  C   UNL A   1      49.921  33.508  35.925  1.00  0.00     0.000 A 
ENDBRANCH  67  86
BRANCH  79  92
ATOM     92  C   UNL A   1      40.795  34.320  36.197  1.00  0.00    -0.014 A 
ATOM     93  C   UNL A   1      40.524  35.693  36.086  1.00  0.00     0.009 A 
ATOM     94  C   UNL A   1      40.401  33.645  37.364  1.00  0.00     0.009 A 
ATOM     95  C   UNL A   1      39.906  36.379  37.135  1.00  0.00     0.001 A 
ATOM     96  C   UNL A   1      39.753  34.324  38.396  1.00  0.00     0.001 A 
ATOM     97  C   UNL A   1      39.516  35.693  38.286  1.00  0.00     0.000 A 
ENDBRANCH  79  92
ENDBRANCH  53  54
ENDBRANCH  46  48
ENDBRANCH  45  46
ENDBRANCH  44  45
ENDBRANCH  43  44
ENDBRANCH  42  43
ENDBRANCH  41  42
ENDBRANCH  40  41
ENDBRANCH  39  40
ENDBRANCH  38  39
ENDBRANCH   1  38
TORSDOF 28
ENDMDL
