MODEL 1
REMARK VINA RESULT:      -9.9      0.000      0.000
REMARK SMILES Cc1ccc(C)c(Oc2cccc(F)c2C(=O)OCCOCCOCCOCCOC(=O)c2ccc(-c3c4nc(c(-c5ccccc5)c5ccc([nH]5)c(-c5ccccc5)c5nc(c(-c6ccccc6)c6ccc3[nH]6)C=C5)C=C4)cc2)c1
REMARK SMILES IDX 24 1 23 2 22 3 21 4 20 5 19 6 18 7 16 8 17 9 15 10 9 11
REMARK SMILES IDX 10 12 11 13 13 14 12 15 14 16 8 17 7 18 1 19 2 20 3 21 81 22
REMARK SMILES IDX 4 23 5 24 6 25 25 26 26 27 27 28 28 29 29 30 30 31 31 32
REMARK SMILES IDX 32 33 33 34 34 35 80 36 35 37 79 38 36 39 37 40 38 41 73 42
REMARK SMILES IDX 39 43 78 44 72 45 74 46 40 47 77 48 71 49 70 50 41 52 63 53
REMARK SMILES IDX 48 54 62 55 49 56 52 57 61 58 75 59 50 60 51 61 60 63 76 64
REMARK SMILES IDX 53 65 42 66 43 67 47 68 44 69 46 70 45 71 64 72 65 73 69 74
REMARK SMILES IDX 66 75 68 76 67 77 54 78 55 79 59 80 56 81 58 82 57 83
REMARK H PARENT 74 51 52 62
REMARK Flexibility Score: inf
ROOT
ATOM      1  O   UNL A   1      42.647  20.441  26.138  1.00  0.00    -0.377 OA
ENDROOT
BRANCH   1   2
ATOM      2  C   UNL A   1      41.340  20.808  26.570  1.00  0.00     0.188 C 
BRANCH   2   3
ATOM      3  C   UNL A   1      41.023  22.268  26.920  1.00  0.00     0.188 C 
BRANCH   3   4
ATOM      4  O   UNL A   1      39.846  22.847  26.426  1.00  0.00    -0.376 OA
BRANCH   4   5
ATOM      5  C   UNL A   1      38.848  21.915  26.070  1.00  0.00     0.202 C 
BRANCH   5   6
ATOM      6  C   UNL A   1      37.727  22.338  25.099  1.00  0.00     0.261 C 
BRANCH   6   7
ATOM      7  O   UNL A   1      36.384  21.693  25.081  1.00  0.00    -0.459 OA
BRANCH   7   8
ATOM      8  C   UNL A   1      35.187  22.248  25.530  1.00  0.00     0.345 C 
ATOM      9  O   UNL A   1      35.018  22.997  26.477  1.00  0.00    -0.246 OA
BRANCH   8  10
ATOM     10  C   UNL A   1      33.971  22.067  24.736  1.00  0.00     0.138 A 
ATOM     11  C   UNL A   1      33.622  22.940  23.628  1.00  0.00     0.144 A 
ATOM     12  C   UNL A   1      32.808  22.346  22.656  1.00  0.00     0.048 A 
ATOM     13  C   UNL A   1      32.202  21.083  22.869  1.00  0.00     0.007 A 
ATOM     14  C   UNL A   1      33.302  20.854  24.970  1.00  0.00     0.141 A 
ATOM     15  C   UNL A   1      32.402  20.369  24.048  1.00  0.00     0.040 A 
ATOM     16  F   UNL A   1      33.551  20.084  26.041  1.00  0.00    -0.206 F 
BRANCH  11  17
ATOM     17  O   UNL A   1      34.244  24.160  23.269  1.00  0.00    -0.456 OA
BRANCH  17  18
ATOM     18  C   UNL A   1      33.923  25.469  23.702  1.00  0.00     0.130 A 
ATOM     19  C   UNL A   1      33.864  28.114  26.573  1.00  0.00     0.044 C 
ATOM     20  C   UNL A   1      33.834  27.462  25.216  1.00  0.00    -0.047 A 
ATOM     21  C   UNL A   1      33.600  28.323  24.154  1.00  0.00     0.004 A 
ATOM     22  C   UNL A   1      33.952  26.043  24.979  1.00  0.00     0.050 A 
ATOM     23  C   UNL A   1      33.333  27.765  22.927  1.00  0.00     0.007 A 
ATOM     24  C   UNL A   1      33.420  26.360  22.727  1.00  0.00    -0.008 A 
ATOM     25  C   UNL A   1      32.723  25.872  21.504  1.00  0.00     0.048 C 
ENDBRANCH  17  18
ENDBRANCH  11  17
ENDBRANCH   8  10
ENDBRANCH   7   8
ENDBRANCH   6   7
ENDBRANCH   5   6
ENDBRANCH   4   5
ENDBRANCH   3   4
ENDBRANCH   2   3
ENDBRANCH   1   2
BRANCH   1  26
ATOM     26  C   UNL A   1      42.795  19.168  25.526  1.00  0.00     0.188 C 
BRANCH  26  27
ATOM     27  C   UNL A   1      43.953  18.318  26.066  1.00  0.00     0.188 C 
BRANCH  27  28
ATOM     28  O   UNL A   1      45.040  18.272  25.174  1.00  0.00    -0.376 OA
BRANCH  28  29
ATOM     29  C   UNL A   1      46.315  18.705  25.602  1.00  0.00     0.202 C 
BRANCH  29  30
ATOM     30  C   UNL A   1      46.697  19.870  24.701  1.00  0.00     0.261 C 
BRANCH  30  31
ATOM     31  O   UNL A   1      46.169  21.114  25.248  1.00  0.00    -0.460 OA
BRANCH  31  32
ATOM     32  C   UNL A   1      45.232  21.803  24.505  1.00  0.00     0.338 C 
ATOM     33  O   UNL A   1      44.707  21.395  23.508  1.00  0.00    -0.246 OA
BRANCH  32  34
ATOM     34  C   UNL A   1      45.070  23.199  25.091  1.00  0.00     0.060 A 
ATOM     35  C   UNL A   1      45.826  23.676  26.179  1.00  0.00     0.016 A 
ATOM     36  C   UNL A   1      43.981  23.966  24.710  1.00  0.00     0.016 A 
ATOM     37  C   UNL A   1      45.421  24.841  26.935  1.00  0.00     0.010 A 
ATOM     38  C   UNL A   1      43.559  25.033  25.516  1.00  0.00     0.010 A 
ATOM     39  C   UNL A   1      44.203  25.500  26.682  1.00  0.00    -0.014 A 
BRANCH  39  40
ATOM     40  C   UNL A   1      43.625  26.858  27.254  1.00  0.00     0.031 A 
ATOM     41  C   UNL A   1      44.786  27.724  27.023  1.00  0.00     0.074 A 
ATOM     42  C   UNL A   1      42.820  27.407  28.278  1.00  0.00     0.049 A 
ATOM     43  N   UNL A   1      45.625  27.994  27.970  1.00  0.00    -0.248 NA
ATOM     44  C   UNL A   1      45.306  28.020  25.672  1.00  0.00     0.031 C 
ATOM     45  C   UNL A   1      42.456  26.853  29.569  1.00  0.00     0.029 A 
ATOM     46  N   UNL A   1      41.819  28.448  28.264  1.00  0.00    -0.354 N 
ATOM     47  C   UNL A   1      46.376  28.986  27.404  1.00  0.00     0.074 A 
ATOM     48  C   UNL A   1      46.409  28.700  25.991  1.00  0.00     0.031 C 
ATOM     49  C   UNL A   1      41.214  27.210  29.965  1.00  0.00     0.029 A 
ATOM     50  C   UNL A   1      40.634  28.233  29.089  1.00  0.00     0.049 A 
ATOM     51  H   UNL A   1      41.931  29.264  27.725  1.00  0.00     0.167 HD
ATOM     52  C   UNL A   1      46.281  30.180  28.043  1.00  0.00     0.031 A 
ATOM     53  C   UNL A   1      39.680  29.066  29.688  1.00  0.00     0.031 A 
ATOM     54  C   UNL A   1      46.032  30.010  29.470  1.00  0.00     0.049 A 
ATOM     55  C   UNL A   1      40.421  29.957  30.600  1.00  0.00     0.074 A 
ATOM     56  C   UNL A   1      46.749  29.327  30.441  1.00  0.00     0.029 A 
ATOM     57  N   UNL A   1      44.735  30.097  29.948  1.00  0.00    -0.354 N 
ATOM     58  N   UNL A   1      40.988  29.554  31.697  1.00  0.00    -0.248 NA
ATOM     59  C   UNL A   1      40.930  31.205  30.051  1.00  0.00     0.031 C 
ATOM     60  C   UNL A   1      45.861  28.989  31.491  1.00  0.00     0.029 A 
ATOM     61  C   UNL A   1      44.618  29.534  31.217  1.00  0.00     0.049 A 
ATOM     62  H   UNL A   1      43.989  30.506  29.453  1.00  0.00     0.167 HD
ATOM     63  C   UNL A   1      42.251  30.103  31.567  1.00  0.00     0.074 A 
ATOM     64  C   UNL A   1      42.115  31.225  30.657  1.00  0.00     0.031 C 
ATOM     65  C   UNL A   1      43.353  29.389  31.904  1.00  0.00     0.031 A 
BRANCH  52  66
ATOM     66  C   UNL A   1      46.074  31.424  27.239  1.00  0.00    -0.014 A 
ATOM     67  C   UNL A   1      47.127  32.317  27.077  1.00  0.00     0.009 A 
ATOM     68  C   UNL A   1      44.823  31.794  26.688  1.00  0.00     0.009 A 
ATOM     69  C   UNL A   1      46.947  33.502  26.354  1.00  0.00     0.001 A 
ATOM     70  C   UNL A   1      44.646  32.950  25.931  1.00  0.00     0.001 A 
ATOM     71  C   UNL A   1      45.716  33.810  25.770  1.00  0.00     0.000 A 
ENDBRANCH  52  66
BRANCH  53  72
ATOM     72  C   UNL A   1      38.221  29.391  29.362  1.00  0.00    -0.014 A 
ATOM     73  C   UNL A   1      37.162  29.390  30.291  1.00  0.00     0.009 A 
ATOM     74  C   UNL A   1      37.822  29.772  28.085  1.00  0.00     0.009 A 
ATOM     75  C   UNL A   1      35.933  30.058  30.033  1.00  0.00     0.001 A 
ATOM     76  C   UNL A   1      36.634  30.495  27.816  1.00  0.00     0.001 A 
ATOM     77  C   UNL A   1      35.715  30.705  28.825  1.00  0.00     0.000 A 
ENDBRANCH  53  72
BRANCH  65  78
ATOM     78  C   UNL A   1      43.182  28.502  33.114  1.00  0.00    -0.014 A 
ATOM     79  C   UNL A   1      43.230  27.099  33.134  1.00  0.00     0.009 A 
ATOM     80  C   UNL A   1      42.819  29.143  34.303  1.00  0.00     0.009 A 
ATOM     81  C   UNL A   1      42.849  26.358  34.260  1.00  0.00     0.001 A 
ATOM     82  C   UNL A   1      42.464  28.412  35.440  1.00  0.00     0.001 A 
ATOM     83  C   UNL A   1      42.454  27.020  35.413  1.00  0.00     0.000 A 
ENDBRANCH  65  78
ENDBRANCH  39  40
ENDBRANCH  32  34
ENDBRANCH  31  32
ENDBRANCH  30  31
ENDBRANCH  29  30
ENDBRANCH  28  29
ENDBRANCH  27  28
ENDBRANCH  26  27
ENDBRANCH   1  26
TORSDOF 22
ENDMDL
MODEL 2
REMARK VINA RESULT:      -9.3      4.065      9.395
REMARK SMILES Cc1ccc(C)c(Oc2cccc(F)c2C(=O)OCCOCCOCCOCCOC(=O)c2ccc(-c3c4nc(c(-c5ccccc5)c5ccc([nH]5)c(-c5ccccc5)c5nc(c(-c6ccccc6)c6ccc3[nH]6)C=C5)C=C4)cc2)c1
REMARK SMILES IDX 24 1 23 2 22 3 21 4 20 5 19 6 18 7 16 8 17 9 15 10 9 11
REMARK SMILES IDX 10 12 11 13 13 14 12 15 14 16 8 17 7 18 1 19 2 20 3 21 81 22
REMARK SMILES IDX 4 23 5 24 6 25 25 26 26 27 27 28 28 29 29 30 30 31 31 32
REMARK SMILES IDX 32 33 33 34 34 35 80 36 35 37 79 38 36 39 37 40 38 41 73 42
REMARK SMILES IDX 39 43 78 44 72 45 74 46 40 47 77 48 71 49 70 50 41 52 63 53
REMARK SMILES IDX 48 54 62 55 49 56 52 57 61 58 75 59 50 60 51 61 60 63 76 64
REMARK SMILES IDX 53 65 42 66 43 67 47 68 44 69 46 70 45 71 64 72 65 73 69 74
REMARK SMILES IDX 66 75 68 76 67 77 54 78 55 79 59 80 56 81 58 82 57 83
REMARK H PARENT 74 51 52 62
REMARK Flexibility Score: inf
ROOT
ATOM      1  O   UNL A   1      34.324  32.901  28.243  1.00  0.00    -0.377 OA
ENDROOT
BRANCH   1   2
ATOM      2  C   UNL A   1      33.904  31.543  28.162  1.00  0.00     0.188 C 
BRANCH   2   3
ATOM      3  C   UNL A   1      34.283  30.687  26.946  1.00  0.00     0.188 C 
BRANCH   3   4
ATOM      4  O   UNL A   1      33.405  29.681  26.520  1.00  0.00    -0.376 OA
BRANCH   4   5
ATOM      5  C   UNL A   1      33.140  28.694  27.493  1.00  0.00     0.202 C 
BRANCH   5   6
ATOM      6  C   UNL A   1      31.698  28.177  27.676  1.00  0.00     0.261 C 
BRANCH   6   7
ATOM      7  O   UNL A   1      30.963  27.438  26.612  1.00  0.00    -0.459 OA
BRANCH   7   8
ATOM      8  C   UNL A   1      31.258  26.167  26.123  1.00  0.00     0.345 C 
ATOM      9  O   UNL A   1      30.896  25.091  26.568  1.00  0.00    -0.246 OA
BRANCH   8  10
ATOM     10  C   UNL A   1      31.964  26.036  24.848  1.00  0.00     0.138 A 
ATOM     11  C   UNL A   1      33.003  25.044  24.626  1.00  0.00     0.144 A 
ATOM     12  C   UNL A   1      33.164  24.662  23.289  1.00  0.00     0.048 A 
ATOM     13  C   UNL A   1      32.523  25.362  22.236  1.00  0.00     0.007 A 
ATOM     14  C   UNL A   1      31.398  26.772  23.793  1.00  0.00     0.141 A 
ATOM     15  C   UNL A   1      31.691  26.451  22.487  1.00  0.00     0.040 A 
ATOM     16  F   UNL A   1      30.506  27.756  23.994  1.00  0.00    -0.206 F 
BRANCH  11  17
ATOM     17  O   UNL A   1      33.620  24.217  25.596  1.00  0.00    -0.456 OA
BRANCH  17  18
ATOM     18  C   UNL A   1      33.977  22.852  25.485  1.00  0.00     0.130 A 
ATOM     19  C   UNL A   1      32.865  19.137  25.029  1.00  0.00     0.044 C 
ATOM     20  C   UNL A   1      33.688  20.397  25.082  1.00  0.00    -0.047 A 
ATOM     21  C   UNL A   1      35.040  20.228  24.821  1.00  0.00     0.004 A 
ATOM     22  C   UNL A   1      33.184  21.698  25.450  1.00  0.00     0.050 A 
ATOM     23  C   UNL A   1      35.877  21.288  25.078  1.00  0.00     0.007 A 
ATOM     24  C   UNL A   1      35.358  22.550  25.475  1.00  0.00    -0.008 A 
ATOM     25  C   UNL A   1      36.362  23.454  26.102  1.00  0.00     0.048 C 
ENDBRANCH  17  18
ENDBRANCH  11  17
ENDBRANCH   8  10
ENDBRANCH   7   8
ENDBRANCH   6   7
ENDBRANCH   5   6
ENDBRANCH   4   5
ENDBRANCH   3   4
ENDBRANCH   2   3
ENDBRANCH   1   2
BRANCH   1  26
ATOM     26  C   UNL A   1      35.666  33.189  27.878  1.00  0.00     0.188 C 
BRANCH  26  27
ATOM     27  C   UNL A   1      36.563  33.672  29.026  1.00  0.00     0.188 C 
BRANCH  27  28
ATOM     28  O   UNL A   1      36.000  33.406  30.288  1.00  0.00    -0.376 OA
BRANCH  28  29
ATOM     29  C   UNL A   1      36.749  32.693  31.251  1.00  0.00     0.202 C 
BRANCH  29  30
ATOM     30  C   UNL A   1      38.038  32.267  30.563  1.00  0.00     0.261 C 
BRANCH  30  31
ATOM     31  O   UNL A   1      38.145  30.814  30.567  1.00  0.00    -0.460 OA
BRANCH  31  32
ATOM     32  C   UNL A   1      37.767  30.133  29.427  1.00  0.00     0.338 C 
ATOM     33  O   UNL A   1      36.636  29.937  29.083  1.00  0.00    -0.246 OA
BRANCH  32  34
ATOM     34  C   UNL A   1      39.013  29.574  28.753  1.00  0.00     0.060 A 
ATOM     35  C   UNL A   1      39.218  29.602  27.359  1.00  0.00     0.016 A 
ATOM     36  C   UNL A   1      39.885  28.792  29.492  1.00  0.00     0.016 A 
ATOM     37  C   UNL A   1      40.212  28.767  26.720  1.00  0.00     0.010 A 
ATOM     38  C   UNL A   1      40.772  27.924  28.840  1.00  0.00     0.010 A 
ATOM     39  C   UNL A   1      40.956  27.816  27.445  1.00  0.00    -0.014 A 
BRANCH  39  40
ATOM     40  C   UNL A   1      42.184  26.916  27.010  1.00  0.00     0.031 A 
ATOM     41  C   UNL A   1      41.704  25.615  27.489  1.00  0.00     0.074 A 
ATOM     42  C   UNL A   1      43.594  26.893  26.907  1.00  0.00     0.049 A 
ATOM     43  N   UNL A   1      42.094  25.129  28.623  1.00  0.00    -0.248 NA
ATOM     44  C   UNL A   1      40.491  24.965  26.954  1.00  0.00     0.031 C 
ATOM     45  C   UNL A   1      44.587  27.701  27.589  1.00  0.00     0.029 A 
ATOM     46  N   UNL A   1      44.476  26.388  25.882  1.00  0.00    -0.354 N 
ATOM     47  C   UNL A   1      41.614  23.851  28.559  1.00  0.00     0.074 A 
ATOM     48  C   UNL A   1      40.402  23.922  27.783  1.00  0.00     0.031 C 
ATOM     49  C   UNL A   1      45.671  27.961  26.824  1.00  0.00     0.029 A 
ATOM     50  C   UNL A   1      45.660  27.187  25.579  1.00  0.00     0.049 A 
ATOM     51  H   UNL A   1      44.290  25.544  25.411  1.00  0.00     0.167 HD
ATOM     52  C   UNL A   1      42.582  22.899  28.566  1.00  0.00     0.031 A 
ATOM     53  C   UNL A   1      46.919  26.922  25.025  1.00  0.00     0.031 A 
ATOM     54  C   UNL A   1      43.758  23.331  29.314  1.00  0.00     0.049 A 
ATOM     55  C   UNL A   1      47.554  25.918  25.898  1.00  0.00     0.074 A 
ATOM     56  C   UNL A   1      43.891  23.753  30.629  1.00  0.00     0.029 A 
ATOM     57  N   UNL A   1      44.838  23.866  28.633  1.00  0.00    -0.354 N 
ATOM     58  N   UNL A   1      47.963  26.168  27.106  1.00  0.00    -0.248 NA
ATOM     59  C   UNL A   1      47.304  24.515  25.598  1.00  0.00     0.031 C 
ATOM     60  C   UNL A   1      45.050  24.563  30.718  1.00  0.00     0.029 A 
ATOM     61  C   UNL A   1      45.682  24.574  29.486  1.00  0.00     0.049 A 
ATOM     62  H   UNL A   1      44.991  23.760  27.666  1.00  0.00     0.167 HD
ATOM     63  C   UNL A   1      47.395  25.120  27.807  1.00  0.00     0.074 A 
ATOM     64  C   UNL A   1      47.160  24.064  26.841  1.00  0.00     0.031 C 
ATOM     65  C   UNL A   1      46.825  25.328  29.020  1.00  0.00     0.031 A 
BRANCH  52  66
ATOM     66  C   UNL A   1      42.510  21.777  27.581  1.00  0.00    -0.014 A 
ATOM     67  C   UNL A   1      43.415  21.732  26.526  1.00  0.00     0.009 A 
ATOM     68  C   UNL A   1      41.505  20.779  27.612  1.00  0.00     0.009 A 
ATOM     69  C   UNL A   1      43.346  20.707  25.575  1.00  0.00     0.001 A 
ATOM     70  C   UNL A   1      41.456  19.732  26.695  1.00  0.00     0.001 A 
ATOM     71  C   UNL A   1      42.381  19.702  25.668  1.00  0.00     0.000 A 
ENDBRANCH  52  66
BRANCH  53  72
ATOM     72  C   UNL A   1      47.547  27.217  23.661  1.00  0.00    -0.014 A 
ATOM     73  C   UNL A   1      47.034  28.118  22.709  1.00  0.00     0.009 A 
ATOM     74  C   UNL A   1      48.743  26.628  23.263  1.00  0.00     0.009 A 
ATOM     75  C   UNL A   1      47.835  28.636  21.653  1.00  0.00     0.001 A 
ATOM     76  C   UNL A   1      49.587  27.166  22.260  1.00  0.00     0.001 A 
ATOM     77  C   UNL A   1      49.154  28.233  21.498  1.00  0.00     0.000 A 
ENDBRANCH  53  72
BRANCH  65  78
ATOM     78  C   UNL A   1      47.537  26.343  29.884  1.00  0.00    -0.014 A 
ATOM     79  C   UNL A   1      47.078  27.628  30.212  1.00  0.00     0.009 A 
ATOM     80  C   UNL A   1      48.832  26.007  30.290  1.00  0.00     0.009 A 
ATOM     81  C   UNL A   1      47.899  28.573  30.839  1.00  0.00     0.001 A 
ATOM     82  C   UNL A   1      49.650  26.935  30.942  1.00  0.00     0.001 A 
ATOM     83  C   UNL A   1      49.194  28.225  31.195  1.00  0.00     0.000 A 
ENDBRANCH  65  78
ENDBRANCH  39  40
ENDBRANCH  32  34
ENDBRANCH  31  32
ENDBRANCH  30  31
ENDBRANCH  29  30
ENDBRANCH  28  29
ENDBRANCH  27  28
ENDBRANCH  26  27
ENDBRANCH   1  26
TORSDOF 22
ENDMDL
MODEL 3
REMARK VINA RESULT:      -9.2      4.536     10.059
REMARK SMILES Cc1ccc(C)c(Oc2cccc(F)c2C(=O)OCCOCCOCCOCCOC(=O)c2ccc(-c3c4nc(c(-c5ccccc5)c5ccc([nH]5)c(-c5ccccc5)c5nc(c(-c6ccccc6)c6ccc3[nH]6)C=C5)C=C4)cc2)c1
REMARK SMILES IDX 24 1 23 2 22 3 21 4 20 5 19 6 18 7 16 8 17 9 15 10 9 11
REMARK SMILES IDX 10 12 11 13 13 14 12 15 14 16 8 17 7 18 1 19 2 20 3 21 81 22
REMARK SMILES IDX 4 23 5 24 6 25 25 26 26 27 27 28 28 29 29 30 30 31 31 32
REMARK SMILES IDX 32 33 33 34 34 35 80 36 35 37 79 38 36 39 37 40 38 41 73 42
REMARK SMILES IDX 39 43 78 44 72 45 74 46 40 47 77 48 71 49 70 50 41 52 63 53
REMARK SMILES IDX 48 54 62 55 49 56 52 57 61 58 75 59 50 60 51 61 60 63 76 64
REMARK SMILES IDX 53 65 42 66 43 67 47 68 44 69 46 70 45 71 64 72 65 73 69 74
REMARK SMILES IDX 66 75 68 76 67 77 54 78 55 79 59 80 56 81 58 82 57 83
REMARK H PARENT 74 51 52 62
REMARK Flexibility Score: inf
ROOT
ATOM      1  O   UNL A   1      35.699  31.173  29.302  1.00  0.00    -0.377 OA
ENDROOT
BRANCH   1   2
ATOM      2  C   UNL A   1      35.204  31.138  27.966  1.00  0.00     0.188 C 
BRANCH   2   3
ATOM      3  C   UNL A   1      35.004  29.796  27.250  1.00  0.00     0.188 C 
BRANCH   3   4
ATOM      4  O   UNL A   1      33.736  29.200  27.262  1.00  0.00    -0.376 OA
BRANCH   4   5
ATOM      5  C   UNL A   1      33.326  28.686  26.012  1.00  0.00     0.202 C 
BRANCH   5   6
ATOM      6  C   UNL A   1      32.983  27.188  25.884  1.00  0.00     0.261 C 
BRANCH   6   7
ATOM      7  O   UNL A   1      33.695  26.272  24.950  1.00  0.00    -0.459 OA
BRANCH   7   8
ATOM      8  C   UNL A   1      33.290  24.996  24.564  1.00  0.00     0.345 C 
ATOM      9  O   UNL A   1      32.918  24.630  23.461  1.00  0.00    -0.246 OA
BRANCH   8  10
ATOM     10  C   UNL A   1      33.435  23.883  25.503  1.00  0.00     0.138 A 
ATOM     11  C   UNL A   1      34.722  23.285  25.816  1.00  0.00     0.144 A 
ATOM     12  C   UNL A   1      34.789  22.678  27.075  1.00  0.00     0.048 A 
ATOM     13  C   UNL A   1      33.627  22.471  27.860  1.00  0.00     0.007 A 
ATOM     14  C   UNL A   1      32.281  23.603  26.252  1.00  0.00     0.141 A 
ATOM     15  C   UNL A   1      32.370  22.880  27.420  1.00  0.00     0.040 A 
ATOM     16  F   UNL A   1      31.068  24.073  25.918  1.00  0.00    -0.206 F 
BRANCH  11  17
ATOM     17  O   UNL A   1      35.958  23.518  25.163  1.00  0.00    -0.456 OA
BRANCH  17  18
ATOM     18  C   UNL A   1      37.265  23.422  25.698  1.00  0.00     0.130 A 
ATOM     19  C   UNL A   1      40.188  25.082  27.685  1.00  0.00     0.044 C 
ATOM     20  C   UNL A   1      39.290  24.071  27.021  1.00  0.00    -0.047 A 
ATOM     21  C   UNL A   1      39.742  22.761  27.069  1.00  0.00     0.004 A 
ATOM     22  C   UNL A   1      38.079  24.388  26.302  1.00  0.00     0.050 A 
ATOM     23  C   UNL A   1      39.093  21.832  26.290  1.00  0.00     0.007 A 
ATOM     24  C   UNL A   1      37.923  22.179  25.561  1.00  0.00    -0.008 A 
ATOM     25  C   UNL A   1      37.577  21.225  24.471  1.00  0.00     0.048 C 
ENDBRANCH  17  18
ENDBRANCH  11  17
ENDBRANCH   8  10
ENDBRANCH   7   8
ENDBRANCH   6   7
ENDBRANCH   5   6
ENDBRANCH   4   5
ENDBRANCH   3   4
ENDBRANCH   2   3
ENDBRANCH   1   2
BRANCH   1  26
ATOM     26  C   UNL A   1      35.450  32.350  30.056  1.00  0.00     0.188 C 
BRANCH  26  27
ATOM     27  C   UNL A   1      34.498  33.356  29.397  1.00  0.00     0.188 C 
BRANCH  27  28
ATOM     28  O   UNL A   1      33.730  34.059  30.343  1.00  0.00    -0.376 OA
BRANCH  28  29
ATOM     29  C   UNL A   1      33.350  35.395  30.081  1.00  0.00     0.202 C 
BRANCH  29  30
ATOM     30  C   UNL A   1      32.803  35.949  31.389  1.00  0.00     0.261 C 
BRANCH  30  31
ATOM     31  O   UNL A   1      33.325  35.178  32.510  1.00  0.00    -0.460 OA
BRANCH  31  32
ATOM     32  C   UNL A   1      34.285  35.766  33.309  1.00  0.00     0.338 C 
ATOM     33  O   UNL A   1      34.275  36.907  33.675  1.00  0.00    -0.246 OA
BRANCH  32  34
ATOM     34  C   UNL A   1      35.409  34.764  33.545  1.00  0.00     0.060 A 
ATOM     35  C   UNL A   1      35.671  34.175  34.797  1.00  0.00     0.016 A 
ATOM     36  C   UNL A   1      36.371  34.590  32.564  1.00  0.00     0.016 A 
ATOM     37  C   UNL A   1      36.929  33.521  35.081  1.00  0.00     0.010 A 
ATOM     38  C   UNL A   1      37.616  34.037  32.895  1.00  0.00     0.010 A 
ATOM     39  C   UNL A   1      37.991  33.525  34.156  1.00  0.00    -0.014 A 
BRANCH  39  40
ATOM     40  C   UNL A   1      39.377  32.761  34.171  1.00  0.00     0.031 A 
ATOM     41  C   UNL A   1      40.280  33.908  34.032  1.00  0.00     0.074 A 
ATOM     42  C   UNL A   1      40.031  31.587  33.731  1.00  0.00     0.049 A 
ATOM     43  N   UNL A   1      40.780  34.238  32.885  1.00  0.00    -0.248 NA
ATOM     44  C   UNL A   1      40.375  34.978  35.046  1.00  0.00     0.031 C 
ATOM     45  C   UNL A   1      39.686  30.682  32.651  1.00  0.00     0.029 A 
ATOM     46  N   UNL A   1      40.968  30.704  34.384  1.00  0.00    -0.354 N 
ATOM     47  C   UNL A   1      41.714  35.169  33.244  1.00  0.00     0.074 A 
ATOM     48  C   UNL A   1      41.187  35.827  34.413  1.00  0.00     0.031 C 
ATOM     49  C   UNL A   1      40.005  29.396  32.918  1.00  0.00     0.029 A 
ATOM     50  C   UNL A   1      40.807  29.274  34.139  1.00  0.00     0.049 A 
ATOM     51  H   UNL A   1      41.684  31.050  34.966  1.00  0.00     0.167 HD
ATOM     52  C   UNL A   1      42.990  34.807  32.956  1.00  0.00     0.031 A 
ATOM     53  C   UNL A   1      41.652  28.159  34.193  1.00  0.00     0.031 A 
ATOM     54  C   UNL A   1      43.055  33.946  31.780  1.00  0.00     0.049 A 
ATOM     55  C   UNL A   1      42.747  28.420  33.240  1.00  0.00     0.074 A 
ATOM     56  C   UNL A   1      42.614  34.151  30.481  1.00  0.00     0.029 A 
ATOM     57  N   UNL A   1      43.119  32.573  31.947  1.00  0.00    -0.354 N 
ATOM     58  N   UNL A   1      42.591  28.436  31.950  1.00  0.00    -0.248 NA
ATOM     59  C   UNL A   1      43.917  29.129  33.740  1.00  0.00     0.031 C 
ATOM     60  C   UNL A   1      42.395  32.885  29.884  1.00  0.00     0.029 A 
ATOM     61  C   UNL A   1      42.781  31.899  30.775  1.00  0.00     0.049 A 
ATOM     62  H   UNL A   1      43.373  32.128  32.787  1.00  0.00     0.167 HD
ATOM     63  C   UNL A   1      43.209  29.628  31.617  1.00  0.00     0.074 A 
ATOM     64  C   UNL A   1      44.138  29.919  32.693  1.00  0.00     0.031 C 
ATOM     65  C   UNL A   1      42.657  30.459  30.699  1.00  0.00     0.031 A 
BRANCH  52  66
ATOM     66  C   UNL A   1      44.052  34.988  33.993  1.00  0.00    -0.014 A 
ATOM     67  C   UNL A   1      44.205  34.032  34.991  1.00  0.00     0.009 A 
ATOM     68  C   UNL A   1      44.877  36.138  34.069  1.00  0.00     0.009 A 
ATOM     69  C   UNL A   1      45.172  34.197  35.989  1.00  0.00     0.001 A 
ATOM     70  C   UNL A   1      45.871  36.288  35.033  1.00  0.00     0.001 A 
ATOM     71  C   UNL A   1      46.013  35.312  36.001  1.00  0.00     0.000 A 
ENDBRANCH  52  66
BRANCH  53  72
ATOM     72  C   UNL A   1      41.796  26.999  35.182  1.00  0.00    -0.014 A 
ATOM     73  C   UNL A   1      41.553  27.078  36.566  1.00  0.00     0.009 A 
ATOM     74  C   UNL A   1      42.145  25.719  34.764  1.00  0.00     0.009 A 
ATOM     75  C   UNL A   1      41.327  25.920  37.360  1.00  0.00     0.001 A 
ATOM     76  C   UNL A   1      41.868  24.547  35.510  1.00  0.00     0.001 A 
ATOM     77  C   UNL A   1      41.381  24.652  36.797  1.00  0.00     0.000 A 
ENDBRANCH  53  72
BRANCH  65  78
ATOM     78  C   UNL A   1      41.986  29.761  29.541  1.00  0.00    -0.014 A 
ATOM     79  C   UNL A   1      42.624  29.172  28.438  1.00  0.00     0.009 A 
ATOM     80  C   UNL A   1      40.589  29.818  29.511  1.00  0.00     0.009 A 
ATOM     81  C   UNL A   1      41.914  28.738  27.312  1.00  0.00     0.001 A 
ATOM     82  C   UNL A   1      39.869  29.362  28.403  1.00  0.00     0.001 A 
ATOM     83  C   UNL A   1      40.531  28.844  27.293  1.00  0.00     0.000 A 
ENDBRANCH  65  78
ENDBRANCH  39  40
ENDBRANCH  32  34
ENDBRANCH  31  32
ENDBRANCH  30  31
ENDBRANCH  29  30
ENDBRANCH  28  29
ENDBRANCH  27  28
ENDBRANCH  26  27
ENDBRANCH   1  26
TORSDOF 22
ENDMDL
