MODEL 1
REMARK VINA RESULT:     -10.6      0.000      0.000
REMARK SMILES Cc1c(NC(=O)c2ccc(Br)cc2N)cccc1C(=O)OCCOCCOCCOCCOC(=O)c1ccc(-c2c3nc(c(-c4ccccc4)c4ccc([nH]4)c(-c4ccccc4)c4nc(c(-c5ccccc5)c5ccc2[nH]5)C=C4)C=C3)cc1
REMARK SMILES IDX 26 1 25 2 24 3 23 4 22 5 21 6 19 7 20 8 18 9 1 10 2 11 3 12
REMARK SMILES IDX 15 13 17 14 16 15 4 16 5 17 6 19 7 20 8 21 13 22 9 23 12 24
REMARK SMILES IDX 10 25 11 26 14 27 27 30 28 31 29 32 30 33 31 34 32 35 33 36
REMARK SMILES IDX 34 37 35 38 36 39 37 40 83 41 38 42 82 43 39 44 40 45 41 46
REMARK SMILES IDX 76 47 42 48 81 49 75 50 77 51 43 52 80 53 74 54 73 55 44 57
REMARK SMILES IDX 66 58 51 59 65 60 52 61 55 62 64 63 78 64 53 65 54 66 63 68
REMARK SMILES IDX 79 69 56 70 45 71 46 72 50 73 47 74 49 75 48 76 67 77 68 78
REMARK SMILES IDX 72 79 69 80 71 81 70 82 57 83 58 84 62 85 59 86 61 87 60 88
REMARK H PARENT 4 18 14 28 14 29 77 56 55 67
REMARK Flexibility Score: inf
ROOT
ATOM      1  C   UNL A   1      33.709  29.791  27.100  1.00  0.00     0.188 C 
ENDROOT
BRANCH   1   2
ATOM      2  C   UNL A   1      33.101  29.705  25.693  1.00  0.00     0.188 C 
BRANCH   2   3
ATOM      3  O   UNL A   1      33.252  28.534  24.912  1.00  0.00    -0.376 OA
BRANCH   3   4
ATOM      4  C   UNL A   1      33.058  28.697  23.512  1.00  0.00     0.202 C 
BRANCH   4   5
ATOM      5  C   UNL A   1      33.611  27.633  22.585  1.00  0.00     0.261 C 
BRANCH   5   6
ATOM      6  O   UNL A   1      33.260  26.355  23.104  1.00  0.00    -0.460 OA
BRANCH   6   7
ATOM      7  C   UNL A   1      32.019  25.962  22.785  1.00  0.00     0.338 C 
ATOM      8  O   UNL A   1      31.497  26.010  21.693  1.00  0.00    -0.246 OA
BRANCH   7   9
ATOM      9  C   UNL A   1      31.488  25.130  23.890  1.00  0.00     0.065 A 
ATOM     10  C   UNL A   1      31.588  22.806  22.775  1.00  0.00     0.047 C 
ATOM     11  C   UNL A   1      31.410  23.722  23.958  1.00  0.00    -0.013 A 
ATOM     12  C   UNL A   1      31.052  23.151  25.195  1.00  0.00     0.045 A 
ATOM     13  C   UNL A   1      30.646  23.978  26.254  1.00  0.00     0.026 A 
ATOM     14  C   UNL A   1      30.963  25.924  24.923  1.00  0.00     0.016 A 
ATOM     15  C   UNL A   1      30.517  25.349  26.094  1.00  0.00     0.003 A 
BRANCH  12  16
ATOM     16  N   UNL A   1      31.125  21.747  25.340  1.00  0.00    -0.322 N 
ATOM     17  C   UNL A   1      32.226  20.919  25.393  1.00  0.00     0.257 C 
ATOM     18  H   UNL A   1      30.257  21.290  25.417  1.00  0.00     0.170 HD
ATOM     19  O   UNL A   1      32.103  19.705  25.259  1.00  0.00    -0.269 OA
BRANCH  17  20
ATOM     20  C   UNL A   1      33.562  21.497  25.661  1.00  0.00     0.063 A 
ATOM     21  C   UNL A   1      34.460  21.514  24.584  1.00  0.00     0.017 A 
ATOM     22  C   UNL A   1      33.878  22.120  26.887  1.00  0.00     0.045 A 
ATOM     23  C   UNL A   1      35.661  22.210  24.699  1.00  0.00     0.016 A 
ATOM     24  C   UNL A   1      35.095  22.803  26.983  1.00  0.00     0.042 A 
ATOM     25  C   UNL A   1      35.963  22.866  25.890  1.00  0.00     0.020 A 
ATOM     26  Br  UNL A   1      37.563  23.862  26.031  1.00  0.00    -0.051 Br
BRANCH  22  27
ATOM     27  N   UNL A   1      33.093  21.999  28.029  1.00  0.00    -0.398 N 
ATOM     28  H   UNL A   1      32.127  21.831  27.946  1.00  0.00     0.156 HD
ATOM     29  H   UNL A   1      33.504  22.079  28.920  1.00  0.00     0.156 HD
ENDBRANCH  22  27
ENDBRANCH  17  20
ENDBRANCH  12  16
ENDBRANCH   7   9
ENDBRANCH   6   7
ENDBRANCH   5   6
ENDBRANCH   4   5
ENDBRANCH   3   4
ENDBRANCH   2   3
ENDBRANCH   1   2
BRANCH   1  30
ATOM     30  O   UNL A   1      33.840  31.036  27.766  1.00  0.00    -0.377 OA
BRANCH  30  31
ATOM     31  C   UNL A   1      35.145  31.453  28.170  1.00  0.00     0.188 C 
BRANCH  31  32
ATOM     32  C   UNL A   1      35.591  32.874  27.843  1.00  0.00     0.188 C 
BRANCH  32  33
ATOM     33  O   UNL A   1      35.137  33.747  28.876  1.00  0.00    -0.376 OA
BRANCH  33  34
ATOM     34  C   UNL A   1      34.465  34.926  28.444  1.00  0.00     0.202 C 
BRANCH  34  35
ATOM     35  C   UNL A   1      33.252  35.303  29.302  1.00  0.00     0.261 C 
BRANCH  35  36
ATOM     36  O   UNL A   1      33.274  34.551  30.531  1.00  0.00    -0.460 OA
BRANCH  36  37
ATOM     37  C   UNL A   1      33.152  35.288  31.668  1.00  0.00     0.338 C 
ATOM     38  O   UNL A   1      32.566  36.354  31.761  1.00  0.00    -0.246 OA
BRANCH  37  39
ATOM     39  C   UNL A   1      34.086  34.769  32.707  1.00  0.00     0.060 A 
ATOM     40  C   UNL A   1      35.221  35.512  33.070  1.00  0.00     0.016 A 
ATOM     41  C   UNL A   1      34.026  33.420  33.024  1.00  0.00     0.016 A 
ATOM     42  C   UNL A   1      36.368  34.859  33.550  1.00  0.00     0.010 A 
ATOM     43  C   UNL A   1      35.192  32.779  33.380  1.00  0.00     0.010 A 
ATOM     44  C   UNL A   1      36.394  33.469  33.590  1.00  0.00    -0.014 A 
BRANCH  44  45
ATOM     45  C   UNL A   1      37.608  32.630  33.685  1.00  0.00     0.031 A 
ATOM     46  C   UNL A   1      37.639  31.325  32.936  1.00  0.00     0.074 A 
ATOM     47  C   UNL A   1      38.769  33.223  34.086  1.00  0.00     0.049 A 
ATOM     48  N   UNL A   1      38.675  30.571  32.803  1.00  0.00    -0.248 NA
ATOM     49  C   UNL A   1      36.501  30.788  32.184  1.00  0.00     0.031 C 
ATOM     50  C   UNL A   1      40.140  32.799  33.786  1.00  0.00     0.029 A 
ATOM     51  N   UNL A   1      39.005  34.376  34.826  1.00  0.00    -0.354 N 
ATOM     52  C   UNL A   1      38.481  29.726  31.726  1.00  0.00     0.074 A 
ATOM     53  C   UNL A   1      37.079  29.847  31.424  1.00  0.00     0.031 C 
ATOM     54  C   UNL A   1      41.037  33.545  34.444  1.00  0.00     0.029 A 
ATOM     55  C   UNL A   1      40.278  34.295  35.405  1.00  0.00     0.049 A 
ATOM     56  H   UNL A   1      38.378  35.128  34.928  1.00  0.00     0.167 HD
ATOM     57  C   UNL A   1      39.570  29.134  31.143  1.00  0.00     0.031 A 
ATOM     58  C   UNL A   1      40.461  34.128  36.748  1.00  0.00     0.031 A 
ATOM     59  C   UNL A   1      40.799  29.371  31.931  1.00  0.00     0.049 A 
ATOM     60  C   UNL A   1      41.009  32.705  36.971  1.00  0.00     0.074 A 
ATOM     61  C   UNL A   1      42.056  29.876  31.652  1.00  0.00     0.029 A 
ATOM     62  N   UNL A   1      40.743  29.261  33.323  1.00  0.00    -0.354 N 
ATOM     63  N   UNL A   1      40.687  31.670  36.214  1.00  0.00    -0.248 NA
ATOM     64  C   UNL A   1      42.185  32.429  37.798  1.00  0.00     0.031 C 
ATOM     65  C   UNL A   1      42.659  30.258  32.892  1.00  0.00     0.029 A 
ATOM     66  C   UNL A   1      41.809  29.891  33.932  1.00  0.00     0.049 A 
ATOM     67  H   UNL A   1      40.029  28.790  33.811  1.00  0.00     0.167 HD
ATOM     68  C   UNL A   1      41.697  30.736  36.275  1.00  0.00     0.074 A 
ATOM     69  C   UNL A   1      42.566  31.220  37.342  1.00  0.00     0.031 C 
ATOM     70  C   UNL A   1      42.008  29.750  35.369  1.00  0.00     0.031 A 
BRANCH  57  71
ATOM     71  C   UNL A   1      39.595  28.482  29.758  1.00  0.00    -0.014 A 
ATOM     72  C   UNL A   1      39.429  27.084  29.642  1.00  0.00     0.009 A 
ATOM     73  C   UNL A   1      39.855  29.149  28.544  1.00  0.00     0.009 A 
ATOM     74  C   UNL A   1      39.520  26.402  28.414  1.00  0.00     0.001 A 
ATOM     75  C   UNL A   1      39.913  28.477  27.305  1.00  0.00     0.001 A 
ATOM     76  C   UNL A   1      39.751  27.102  27.241  1.00  0.00     0.000 A 
ENDBRANCH  57  71
BRANCH  58  77
ATOM     77  C   UNL A   1      39.542  35.036  37.509  1.00  0.00    -0.014 A 
ATOM     78  C   UNL A   1      38.830  34.374  38.545  1.00  0.00     0.009 A 
ATOM     79  C   UNL A   1      39.877  36.385  37.721  1.00  0.00     0.009 A 
ATOM     80  C   UNL A   1      38.740  34.925  39.832  1.00  0.00     0.001 A 
ATOM     81  C   UNL A   1      39.737  36.949  39.006  1.00  0.00     0.001 A 
ATOM     82  C   UNL A   1      39.249  36.194  40.075  1.00  0.00     0.000 A 
ENDBRANCH  58  77
BRANCH  70  83
ATOM     83  C   UNL A   1      42.497  28.394  35.829  1.00  0.00    -0.014 A 
ATOM     84  C   UNL A   1      43.855  28.080  35.939  1.00  0.00     0.009 A 
ATOM     85  C   UNL A   1      41.580  27.483  36.413  1.00  0.00     0.009 A 
ATOM     86  C   UNL A   1      44.274  26.916  36.590  1.00  0.00     0.001 A 
ATOM     87  C   UNL A   1      41.997  26.352  37.109  1.00  0.00     0.001 A 
ATOM     88  C   UNL A   1      43.349  26.065  37.190  1.00  0.00     0.000 A 
ENDBRANCH  70  83
ENDBRANCH  44  45
ENDBRANCH  37  39
ENDBRANCH  36  37
ENDBRANCH  35  36
ENDBRANCH  34  35
ENDBRANCH  33  34
ENDBRANCH  32  33
ENDBRANCH  31  32
ENDBRANCH  30  31
ENDBRANCH   1  30
TORSDOF 23
ENDMDL
MODEL 2
REMARK VINA RESULT:     -10.6      1.607      2.406
REMARK SMILES Cc1c(NC(=O)c2ccc(Br)cc2N)cccc1C(=O)OCCOCCOCCOCCOC(=O)c1ccc(-c2c3nc(c(-c4ccccc4)c4ccc([nH]4)c(-c4ccccc4)c4nc(c(-c5ccccc5)c5ccc2[nH]5)C=C4)C=C3)cc1
REMARK SMILES IDX 26 1 25 2 24 3 23 4 22 5 21 6 19 7 20 8 18 9 1 10 2 11 3 12
REMARK SMILES IDX 15 13 17 14 16 15 4 16 5 17 6 19 7 20 8 21 13 22 9 23 12 24
REMARK SMILES IDX 10 25 11 26 14 27 27 30 28 31 29 32 30 33 31 34 32 35 33 36
REMARK SMILES IDX 34 37 35 38 36 39 37 40 83 41 38 42 82 43 39 44 40 45 41 46
REMARK SMILES IDX 76 47 42 48 81 49 75 50 77 51 43 52 80 53 74 54 73 55 44 57
REMARK SMILES IDX 66 58 51 59 65 60 52 61 55 62 64 63 78 64 53 65 54 66 63 68
REMARK SMILES IDX 79 69 56 70 45 71 46 72 50 73 47 74 49 75 48 76 67 77 68 78
REMARK SMILES IDX 72 79 69 80 71 81 70 82 57 83 58 84 62 85 59 86 61 87 60 88
REMARK H PARENT 4 18 14 28 14 29 77 56 55 67
REMARK Flexibility Score: inf
ROOT
ATOM      1  C   UNL A   1      35.961  31.616  28.081  1.00  0.00     0.188 C 
ENDROOT
BRANCH   1   2
ATOM      2  C   UNL A   1      35.027  30.403  27.970  1.00  0.00     0.188 C 
BRANCH   2   3
ATOM      3  O   UNL A   1      34.240  30.201  26.812  1.00  0.00    -0.376 OA
BRANCH   3   4
ATOM      4  C   UNL A   1      32.945  30.788  26.836  1.00  0.00     0.202 C 
BRANCH   4   5
ATOM      5  C   UNL A   1      31.765  29.934  26.414  1.00  0.00     0.261 C 
BRANCH   5   6
ATOM      6  O   UNL A   1      32.080  29.311  25.174  1.00  0.00    -0.460 OA
BRANCH   6   7
ATOM      7  C   UNL A   1      31.006  28.990  24.439  1.00  0.00     0.338 C 
ATOM      8  O   UNL A   1      30.236  29.755  23.902  1.00  0.00    -0.246 OA
BRANCH   7   9
ATOM      9  C   UNL A   1      31.091  27.555  24.080  1.00  0.00     0.065 A 
ATOM     10  C   UNL A   1      30.752  26.499  26.409  1.00  0.00     0.047 C 
ATOM     11  C   UNL A   1      30.853  26.436  24.907  1.00  0.00    -0.013 A 
ATOM     12  C   UNL A   1      30.800  25.172  24.288  1.00  0.00     0.045 A 
ATOM     13  C   UNL A   1      31.126  25.045  22.930  1.00  0.00     0.026 A 
ATOM     14  C   UNL A   1      31.530  27.383  22.756  1.00  0.00     0.016 A 
ATOM     15  C   UNL A   1      31.575  26.128  22.188  1.00  0.00     0.003 A 
BRANCH  12  16
ATOM     16  N   UNL A   1      30.402  24.055  25.059  1.00  0.00    -0.322 N 
ATOM     17  C   UNL A   1      31.103  22.918  25.396  1.00  0.00     0.257 C 
ATOM     18  H   UNL A   1      29.483  24.097  25.408  1.00  0.00     0.170 HD
ATOM     19  O   UNL A   1      30.521  21.935  25.849  1.00  0.00    -0.269 OA
BRANCH  17  20
ATOM     20  C   UNL A   1      32.576  22.899  25.258  1.00  0.00     0.063 A 
ATOM     21  C   UNL A   1      33.301  23.616  26.221  1.00  0.00     0.017 A 
ATOM     22  C   UNL A   1      33.230  22.099  24.296  1.00  0.00     0.045 A 
ATOM     23  C   UNL A   1      34.687  23.492  26.274  1.00  0.00     0.016 A 
ATOM     24  C   UNL A   1      34.623  21.999  24.362  1.00  0.00     0.042 A 
ATOM     25  C   UNL A   1      35.338  22.669  25.358  1.00  0.00     0.020 A 
ATOM     26  Br  UNL A   1      37.212  22.448  25.463  1.00  0.00    -0.051 Br
BRANCH  22  27
ATOM     27  N   UNL A   1      32.570  21.497  23.230  1.00  0.00    -0.398 N 
ATOM     28  H   UNL A   1      32.967  20.714  22.785  1.00  0.00     0.156 HD
ATOM     29  H   UNL A   1      31.706  21.853  22.921  1.00  0.00     0.156 HD
ENDBRANCH  22  27
ENDBRANCH  17  20
ENDBRANCH  12  16
ENDBRANCH   7   9
ENDBRANCH   6   7
ENDBRANCH   5   6
ENDBRANCH   4   5
ENDBRANCH   3   4
ENDBRANCH   2   3
ENDBRANCH   1   2
BRANCH   1  30
ATOM     30  O   UNL A   1      35.461  32.938  27.965  1.00  0.00    -0.377 OA
BRANCH  30  31
ATOM     31  C   UNL A   1      34.445  33.359  28.876  1.00  0.00     0.188 C 
BRANCH  31  32
ATOM     32  C   UNL A   1      33.315  34.238  28.352  1.00  0.00     0.188 C 
BRANCH  32  33
ATOM     33  O   UNL A   1      32.562  34.728  29.460  1.00  0.00    -0.376 OA
BRANCH  33  34
ATOM     34  C   UNL A   1      33.074  35.895  30.094  1.00  0.00     0.202 C 
BRANCH  34  35
ATOM     35  C   UNL A   1      32.562  36.105  31.524  1.00  0.00     0.261 C 
BRANCH  35  36
ATOM     36  O   UNL A   1      33.650  35.950  32.456  1.00  0.00    -0.460 OA
BRANCH  36  37
ATOM     37  C   UNL A   1      33.927  34.669  32.821  1.00  0.00     0.338 C 
ATOM     38  O   UNL A   1      33.100  33.792  33.011  1.00  0.00    -0.246 OA
BRANCH  37  39
ATOM     39  C   UNL A   1      35.350  34.566  33.253  1.00  0.00     0.060 A 
ATOM     40  C   UNL A   1      36.383  34.884  32.357  1.00  0.00     0.016 A 
ATOM     41  C   UNL A   1      35.637  33.816  34.384  1.00  0.00     0.016 A 
ATOM     42  C   UNL A   1      37.643  34.274  32.486  1.00  0.00     0.010 A 
ATOM     43  C   UNL A   1      36.833  33.134  34.432  1.00  0.00     0.010 A 
ATOM     44  C   UNL A   1      37.830  33.299  33.460  1.00  0.00    -0.014 A 
BRANCH  44  45
ATOM     45  C   UNL A   1      38.923  32.303  33.486  1.00  0.00     0.031 A 
ATOM     46  C   UNL A   1      38.831  31.112  32.569  1.00  0.00     0.074 A 
ATOM     47  C   UNL A   1      40.125  32.681  34.005  1.00  0.00     0.049 A 
ATOM     48  N   UNL A   1      39.770  30.254  32.373  1.00  0.00    -0.248 NA
ATOM     49  C   UNL A   1      37.677  30.831  31.709  1.00  0.00     0.031 C 
ATOM     50  C   UNL A   1      41.446  32.124  33.702  1.00  0.00     0.029 A 
ATOM     51  N   UNL A   1      40.463  33.688  34.903  1.00  0.00    -0.354 N 
ATOM     52  C   UNL A   1      39.531  29.587  31.185  1.00  0.00     0.074 A 
ATOM     53  C   UNL A   1      38.173  29.929  30.851  1.00  0.00     0.031 C 
ATOM     54  C   UNL A   1      42.393  32.655  34.487  1.00  0.00     0.029 A 
ATOM     55  C   UNL A   1      41.683  33.366  35.512  1.00  0.00     0.049 A 
ATOM     56  H   UNL A   1      39.930  34.496  35.083  1.00  0.00     0.167 HD
ATOM     57  C   UNL A   1      40.567  28.938  30.568  1.00  0.00     0.031 A 
ATOM     58  C   UNL A   1      41.771  33.005  36.826  1.00  0.00     0.031 A 
ATOM     59  C   UNL A   1      41.771  28.908  31.425  1.00  0.00     0.049 A 
ATOM     60  C   UNL A   1      42.123  31.506  36.875  1.00  0.00     0.074 A 
ATOM     61  C   UNL A   1      43.096  29.276  31.264  1.00  0.00     0.029 A 
ATOM     62  N   UNL A   1      41.628  28.627  32.787  1.00  0.00    -0.354 N 
ATOM     63  N   UNL A   1      41.716  30.629  35.974  1.00  0.00    -0.248 NA
ATOM     64  C   UNL A   1      43.210  30.973  37.700  1.00  0.00     0.031 C 
ATOM     65  C   UNL A   1      43.673  29.412  32.566  1.00  0.00     0.029 A 
ATOM     66  C   UNL A   1      42.729  29.028  33.515  1.00  0.00     0.049 A 
ATOM     67  H   UNL A   1      40.835  28.195  33.180  1.00  0.00     0.167 HD
ATOM     68  C   UNL A   1      42.597  29.570  35.944  1.00  0.00     0.074 A 
ATOM     69  C   UNL A   1      43.461  29.795  37.099  1.00  0.00     0.031 C 
ATOM     70  C   UNL A   1      42.832  28.678  34.926  1.00  0.00     0.031 A 
BRANCH  57  71
ATOM     71  C   UNL A   1      40.585  28.473  29.109  1.00  0.00    -0.014 A 
ATOM     72  C   UNL A   1      41.183  27.238  28.779  1.00  0.00     0.009 A 
ATOM     73  C   UNL A   1      40.118  29.217  28.007  1.00  0.00     0.009 A 
ATOM     74  C   UNL A   1      41.311  26.779  27.454  1.00  0.00     0.001 A 
ATOM     75  C   UNL A   1      40.211  28.750  26.680  1.00  0.00     0.001 A 
ATOM     76  C   UNL A   1      40.814  27.532  26.402  1.00  0.00     0.000 A 
ENDBRANCH  57  71
BRANCH  58  77
ATOM     77  C   UNL A   1      40.932  33.920  37.669  1.00  0.00    -0.014 A 
ATOM     78  C   UNL A   1      39.708  33.332  38.087  1.00  0.00     0.009 A 
ATOM     79  C   UNL A   1      41.531  34.845  38.540  1.00  0.00     0.009 A 
ATOM     80  C   UNL A   1      39.278  33.420  39.419  1.00  0.00     0.001 A 
ATOM     81  C   UNL A   1      41.063  34.965  39.866  1.00  0.00     0.001 A 
ATOM     82  C   UNL A   1      39.994  34.192  40.325  1.00  0.00     0.000 A 
ENDBRANCH  58  77
BRANCH  70  83
ATOM     83  C   UNL A   1      43.122  27.221  35.216  1.00  0.00    -0.014 A 
ATOM     84  C   UNL A   1      42.111  26.282  35.440  1.00  0.00     0.009 A 
ATOM     85  C   UNL A   1      44.431  26.717  35.008  1.00  0.00     0.009 A 
ATOM     86  C   UNL A   1      42.393  24.913  35.464  1.00  0.00     0.001 A 
ATOM     87  C   UNL A   1      44.704  25.351  34.977  1.00  0.00     0.001 A 
ATOM     88  C   UNL A   1      43.682  24.449  35.214  1.00  0.00     0.000 A 
ENDBRANCH  70  83
ENDBRANCH  44  45
ENDBRANCH  37  39
ENDBRANCH  36  37
ENDBRANCH  35  36
ENDBRANCH  34  35
ENDBRANCH  33  34
ENDBRANCH  32  33
ENDBRANCH  31  32
ENDBRANCH  30  31
ENDBRANCH   1  30
TORSDOF 23
ENDMDL
MODEL 3
REMARK VINA RESULT:     -10.2      3.091      7.155
REMARK SMILES Cc1c(NC(=O)c2ccc(Br)cc2N)cccc1C(=O)OCCOCCOCCOCCOC(=O)c1ccc(-c2c3nc(c(-c4ccccc4)c4ccc([nH]4)c(-c4ccccc4)c4nc(c(-c5ccccc5)c5ccc2[nH]5)C=C4)C=C3)cc1
REMARK SMILES IDX 26 1 25 2 24 3 23 4 22 5 21 6 19 7 20 8 18 9 1 10 2 11 3 12
REMARK SMILES IDX 15 13 17 14 16 15 4 16 5 17 6 19 7 20 8 21 13 22 9 23 12 24
REMARK SMILES IDX 10 25 11 26 14 27 27 30 28 31 29 32 30 33 31 34 32 35 33 36
REMARK SMILES IDX 34 37 35 38 36 39 37 40 83 41 38 42 82 43 39 44 40 45 41 46
REMARK SMILES IDX 76 47 42 48 81 49 75 50 77 51 43 52 80 53 74 54 73 55 44 57
REMARK SMILES IDX 66 58 51 59 65 60 52 61 55 62 64 63 78 64 53 65 54 66 63 68
REMARK SMILES IDX 79 69 56 70 45 71 46 72 50 73 47 74 49 75 48 76 67 77 68 78
REMARK SMILES IDX 72 79 69 80 71 81 70 82 57 83 58 84 62 85 59 86 61 87 60 88
REMARK H PARENT 4 18 14 28 14 29 77 56 55 67
REMARK Flexibility Score: inf
ROOT
ATOM      1  C   UNL A   1      33.301  35.202  29.674  1.00  0.00     0.188 C 
ENDROOT
BRANCH   1   2
ATOM      2  C   UNL A   1      33.839  34.307  28.549  1.00  0.00     0.188 C 
BRANCH   2   3
ATOM      3  O   UNL A   1      33.896  32.901  28.709  1.00  0.00    -0.376 OA
BRANCH   3   4
ATOM      4  C   UNL A   1      34.218  32.159  27.540  1.00  0.00     0.202 C 
BRANCH   4   5
ATOM      5  C   UNL A   1      33.683  30.747  27.419  1.00  0.00     0.261 C 
BRANCH   5   6
ATOM      6  O   UNL A   1      33.191  30.562  26.097  1.00  0.00    -0.460 OA
BRANCH   6   7
ATOM      7  C   UNL A   1      31.854  30.516  26.015  1.00  0.00     0.338 C 
ATOM      8  O   UNL A   1      31.091  31.457  26.026  1.00  0.00    -0.246 OA
BRANCH   7   9
ATOM      9  C   UNL A   1      31.454  29.166  25.555  1.00  0.00     0.065 A 
ATOM     10  C   UNL A   1      31.966  27.808  27.688  1.00  0.00     0.047 C 
ATOM     11  C   UNL A   1      31.371  27.978  26.314  1.00  0.00    -0.013 A 
ATOM     12  C   UNL A   1      30.774  26.858  25.703  1.00  0.00     0.045 A 
ATOM     13  C   UNL A   1      30.425  26.908  24.344  1.00  0.00     0.026 A 
ATOM     14  C   UNL A   1      31.209  29.147  24.172  1.00  0.00     0.016 A 
ATOM     15  C   UNL A   1      30.721  28.013  23.560  1.00  0.00     0.003 A 
BRANCH  12  16
ATOM     16  N   UNL A   1      30.527  25.708  26.487  1.00  0.00    -0.322 N 
ATOM     17  C   UNL A   1      31.039  24.434  26.373  1.00  0.00     0.257 C 
ATOM     18  H   UNL A   1      29.893  25.838  27.228  1.00  0.00     0.170 HD
ATOM     19  O   UNL A   1      30.520  23.496  26.973  1.00  0.00    -0.269 OA
BRANCH  17  20
ATOM     20  C   UNL A   1      32.253  24.204  25.559  1.00  0.00     0.063 A 
ATOM     21  C   UNL A   1      33.473  24.580  26.140  1.00  0.00     0.017 A 
ATOM     22  C   UNL A   1      32.211  23.520  24.325  1.00  0.00     0.045 A 
ATOM     23  C   UNL A   1      34.670  24.222  25.525  1.00  0.00     0.016 A 
ATOM     24  C   UNL A   1      33.426  23.182  23.719  1.00  0.00     0.042 A 
ATOM     25  C   UNL A   1      34.640  23.509  24.328  1.00  0.00     0.020 A 
ATOM     26  Br  UNL A   1      36.259  22.968  23.519  1.00  0.00    -0.051 Br
BRANCH  22  27
ATOM     27  N   UNL A   1      31.030  23.265  23.634  1.00  0.00    -0.398 N 
ATOM     28  H   UNL A   1      30.665  23.939  23.018  1.00  0.00     0.156 HD
ATOM     29  H   UNL A   1      30.561  22.409  23.762  1.00  0.00     0.156 HD
ENDBRANCH  22  27
ENDBRANCH  17  20
ENDBRANCH  12  16
ENDBRANCH   7   9
ENDBRANCH   6   7
ENDBRANCH   5   6
ENDBRANCH   4   5
ENDBRANCH   3   4
ENDBRANCH   2   3
ENDBRANCH   1   2
BRANCH   1  30
ATOM     30  O   UNL A   1      33.273  34.751  31.018  1.00  0.00    -0.377 OA
BRANCH  30  31
ATOM     31  C   UNL A   1      33.064  35.715  32.051  1.00  0.00     0.188 C 
BRANCH  31  32
ATOM     32  C   UNL A   1      34.272  36.450  32.619  1.00  0.00     0.188 C 
BRANCH  32  33
ATOM     33  O   UNL A   1      34.435  36.078  33.987  1.00  0.00    -0.376 OA
BRANCH  33  34
ATOM     34  C   UNL A   1      34.866  34.742  34.222  1.00  0.00     0.202 C 
BRANCH  34  35
ATOM     35  C   UNL A   1      36.354  34.507  33.939  1.00  0.00     0.261 C 
BRANCH  35  36
ATOM     36  O   UNL A   1      36.646  33.098  34.011  1.00  0.00    -0.460 OA
BRANCH  36  37
ATOM     37  C   UNL A   1      37.266  32.688  35.151  1.00  0.00     0.338 C 
ATOM     38  O   UNL A   1      36.851  32.862  36.285  1.00  0.00    -0.246 OA
BRANCH  37  39
ATOM     39  C   UNL A   1      38.664  32.272  34.841  1.00  0.00     0.060 A 
ATOM     40  C   UNL A   1      39.422  32.992  33.903  1.00  0.00     0.016 A 
ATOM     41  C   UNL A   1      39.057  30.990  35.194  1.00  0.00     0.016 A 
ATOM     42  C   UNL A   1      40.435  32.349  33.172  1.00  0.00     0.010 A 
ATOM     43  C   UNL A   1      39.967  30.339  34.390  1.00  0.00     0.010 A 
ATOM     44  C   UNL A   1      40.626  30.981  33.331  1.00  0.00    -0.014 A 
BRANCH  44  45
ATOM     45  C   UNL A   1      41.348  30.094  32.393  1.00  0.00     0.031 A 
ATOM     46  C   UNL A   1      42.784  29.752  32.692  1.00  0.00     0.074 A 
ATOM     47  C   UNL A   1      40.613  29.312  31.552  1.00  0.00     0.049 A 
ATOM     48  N   UNL A   1      43.484  28.878  32.055  1.00  0.00    -0.248 NA
ATOM     49  C   UNL A   1      43.542  30.315  33.813  1.00  0.00     0.031 C 
ATOM     50  C   UNL A   1      41.010  28.045  30.934  1.00  0.00     0.029 A 
ATOM     51  N   UNL A   1      39.312  29.441  31.079  1.00  0.00    -0.354 N 
ATOM     52  C   UNL A   1      44.559  28.504  32.841  1.00  0.00     0.074 A 
ATOM     53  C   UNL A   1      44.592  29.485  33.893  1.00  0.00     0.031 C 
ATOM     54  C   UNL A   1      40.084  27.612  30.068  1.00  0.00     0.029 A 
ATOM     55  C   UNL A   1      39.186  28.717  29.887  1.00  0.00     0.049 A 
ATOM     56  H   UNL A   1      38.595  29.959  31.512  1.00  0.00     0.167 HD
ATOM     57  C   UNL A   1      45.200  27.324  32.569  1.00  0.00     0.031 A 
ATOM     58  C   UNL A   1      39.039  29.327  28.673  1.00  0.00     0.031 A 
ATOM     59  C   UNL A   1      44.720  26.729  31.304  1.00  0.00     0.049 A 
ATOM     60  C   UNL A   1      40.340  29.108  27.880  1.00  0.00     0.074 A 
ATOM     61  C   UNL A   1      44.215  25.495  30.933  1.00  0.00     0.029 A 
ATOM     62  N   UNL A   1      44.520  27.559  30.197  1.00  0.00    -0.354 N 
ATOM     63  N   UNL A   1      41.535  29.032  28.439  1.00  0.00    -0.248 NA
ATOM     64  C   UNL A   1      40.354  28.618  26.500  1.00  0.00     0.031 C 
ATOM     65  C   UNL A   1      43.531  25.658  29.687  1.00  0.00     0.029 A 
ATOM     66  C   UNL A   1      43.707  26.969  29.250  1.00  0.00     0.049 A 
ATOM     67  H   UNL A   1      44.912  28.457  30.103  1.00  0.00     0.167 HD
ATOM     68  C   UNL A   1      42.371  28.302  27.623  1.00  0.00     0.074 A 
ATOM     69  C   UNL A   1      41.609  28.141  26.389  1.00  0.00     0.031 C 
ATOM     70  C   UNL A   1      43.512  27.615  27.959  1.00  0.00     0.031 A 
BRANCH  57  71
ATOM     71  C   UNL A   1      46.141  26.581  33.522  1.00  0.00    -0.014 A 
ATOM     72  C   UNL A   1      45.785  26.435  34.880  1.00  0.00     0.009 A 
ATOM     73  C   UNL A   1      47.413  26.076  33.186  1.00  0.00     0.009 A 
ATOM     74  C   UNL A   1      46.631  25.837  35.833  1.00  0.00     0.001 A 
ATOM     75  C   UNL A   1      48.252  25.445  34.128  1.00  0.00     0.001 A 
ATOM     76  C   UNL A   1      47.864  25.331  35.454  1.00  0.00     0.000 A 
ENDBRANCH  57  71
BRANCH  58  77
ATOM     77  C   UNL A   1      38.040  30.442  28.776  1.00  0.00    -0.014 A 
ATOM     78  C   UNL A   1      36.756  30.007  29.205  1.00  0.00     0.009 A 
ATOM     79  C   UNL A   1      38.440  31.734  29.157  1.00  0.00     0.009 A 
ATOM     80  C   UNL A   1      36.057  30.690  30.210  1.00  0.00     0.001 A 
ATOM     81  C   UNL A   1      37.704  32.437  30.134  1.00  0.00     0.001 A 
ATOM     82  C   UNL A   1      36.565  31.879  30.717  1.00  0.00     0.000 A 
ENDBRANCH  58  77
BRANCH  70  83
ATOM     83  C   UNL A   1      44.701  27.571  27.023  1.00  0.00    -0.014 A 
ATOM     84  C   UNL A   1      45.283  28.725  26.491  1.00  0.00     0.009 A 
ATOM     85  C   UNL A   1      45.420  26.359  26.867  1.00  0.00     0.009 A 
ATOM     86  C   UNL A   1      46.514  28.671  25.831  1.00  0.00     0.001 A 
ATOM     87  C   UNL A   1      46.672  26.312  26.258  1.00  0.00     0.001 A 
ATOM     88  C   UNL A   1      47.216  27.472  25.732  1.00  0.00     0.000 A 
ENDBRANCH  70  83
ENDBRANCH  44  45
ENDBRANCH  37  39
ENDBRANCH  36  37
ENDBRANCH  35  36
ENDBRANCH  34  35
ENDBRANCH  33  34
ENDBRANCH  32  33
ENDBRANCH  31  32
ENDBRANCH  30  31
ENDBRANCH   1  30
TORSDOF 23
ENDMDL
