MODEL 1
REMARK VINA RESULT:      -9.7      0.000      0.000
REMARK SMILES O=C(OCCOCCOCCOCCOC(=O)c1ccnc(Oc2cccc(C(F)(F)F)c2)c1)c1ccc(-c2c3nc(c(-c4ccccc4)c4ccc([nH]4)c(-c4ccccc4)c4nc(c(-c5ccccc5)c5ccc2[nH]5)C=C4)C=C3)cc1
REMARK SMILES IDX 10 1 9 2 8 3 7 4 6 5 5 6 4 7 3 8 2 9 1 10 35 11 36 12 82 13
REMARK SMILES IDX 37 14 81 15 38 16 39 17 40 18 75 19 41 20 80 21 74 22 76 23
REMARK SMILES IDX 42 24 79 25 73 26 72 27 43 29 65 30 50 31 64 32 51 33 54 34
REMARK SMILES IDX 63 35 77 36 52 37 53 38 62 40 78 41 55 42 44 43 45 44 49 45
REMARK SMILES IDX 46 46 48 47 47 48 66 49 67 50 71 51 68 52 70 53 69 54 56 55
REMARK SMILES IDX 57 56 61 57 58 58 60 59 59 60 11 61 12 62 13 63 14 64 15 65
REMARK SMILES IDX 16 66 17 67 18 68 19 69 34 70 20 71 22 72 21 73 23 74 24 75
REMARK SMILES IDX 25 76 33 77 26 78 28 79 27 80 29 81 30 82 31 83 32 84
REMARK H PARENT 76 28 54 39
REMARK Flexibility Score: inf
ROOT
ATOM      1  C   UNL A   1      34.612  33.618  29.357  1.00  0.00     0.188 C 
ENDROOT
BRANCH   1   2
ATOM      2  O   UNL A   1      33.300  34.161  29.456  1.00  0.00    -0.377 OA
BRANCH   2   3
ATOM      3  C   UNL A   1      33.198  35.584  29.493  1.00  0.00     0.188 C 
BRANCH   3   4
ATOM      4  C   UNL A   1      32.903  36.162  30.875  1.00  0.00     0.188 C 
BRANCH   4   5
ATOM      5  O   UNL A   1      32.740  35.084  31.794  1.00  0.00    -0.376 OA
BRANCH   5   6
ATOM      6  C   UNL A   1      33.845  34.820  32.648  1.00  0.00     0.202 C 
BRANCH   6   7
ATOM      7  C   UNL A   1      33.885  33.410  33.231  1.00  0.00     0.261 C 
BRANCH   7   8
ATOM      8  O   UNL A   1      34.932  32.602  32.675  1.00  0.00    -0.460 OA
BRANCH   8   9
ATOM      9  C   UNL A   1      36.179  32.399  33.167  1.00  0.00     0.338 C 
ATOM     10  O   UNL A   1      36.368  32.548  34.374  1.00  0.00    -0.246 OA
BRANCH   9  11
ATOM     11  C   UNL A   1      37.337  31.952  32.340  1.00  0.00     0.060 A 
ATOM     12  C   UNL A   1      37.571  32.325  31.016  1.00  0.00     0.016 A 
ATOM     13  C   UNL A   1      38.320  31.191  32.989  1.00  0.00     0.016 A 
ATOM     14  C   UNL A   1      38.690  31.890  30.322  1.00  0.00     0.010 A 
ATOM     15  C   UNL A   1      39.479  30.792  32.316  1.00  0.00     0.010 A 
ATOM     16  C   UNL A   1      39.650  31.119  30.965  1.00  0.00    -0.014 A 
BRANCH  16  17
ATOM     17  C   UNL A   1      40.739  30.540  30.157  1.00  0.00     0.031 A 
ATOM     18  C   UNL A   1      42.022  31.308  30.069  1.00  0.00     0.074 A 
ATOM     19  C   UNL A   1      40.618  29.307  29.634  1.00  0.00     0.049 A 
ATOM     20  N   UNL A   1      43.081  31.072  29.344  1.00  0.00    -0.248 NA
ATOM     21  C   UNL A   1      42.128  32.506  30.923  1.00  0.00     0.031 C 
ATOM     22  C   UNL A   1      39.458  28.426  29.797  1.00  0.00     0.029 A 
ATOM     23  N   UNL A   1      41.496  28.567  28.890  1.00  0.00    -0.354 N 
ATOM     24  C   UNL A   1      43.957  32.114  29.619  1.00  0.00     0.074 A 
ATOM     25  C   UNL A   1      43.309  32.986  30.572  1.00  0.00     0.031 C 
ATOM     26  C   UNL A   1      39.711  27.252  29.194  1.00  0.00     0.029 A 
ATOM     27  C   UNL A   1      41.010  27.331  28.536  1.00  0.00     0.049 A 
ATOM     28  H   UNL A   1      42.390  28.888  28.632  1.00  0.00     0.167 HD
ATOM     29  C   UNL A   1      45.192  32.323  29.109  1.00  0.00     0.031 A 
ATOM     30  C   UNL A   1      41.544  26.394  27.731  1.00  0.00     0.031 A 
ATOM     31  C   UNL A   1      45.805  31.437  28.161  1.00  0.00     0.049 A 
ATOM     32  C   UNL A   1      42.872  26.698  27.092  1.00  0.00     0.074 A 
ATOM     33  C   UNL A   1      47.005  31.573  27.492  1.00  0.00     0.029 A 
ATOM     34  N   UNL A   1      45.250  30.229  27.759  1.00  0.00    -0.354 N 
ATOM     35  N   UNL A   1      43.653  27.740  27.266  1.00  0.00    -0.248 NA
ATOM     36  C   UNL A   1      43.383  25.715  26.131  1.00  0.00     0.031 C 
ATOM     37  C   UNL A   1      47.158  30.459  26.656  1.00  0.00     0.029 A 
ATOM     38  C   UNL A   1      46.078  29.609  26.845  1.00  0.00     0.049 A 
ATOM     39  H   UNL A   1      44.391  29.869  28.079  1.00  0.00     0.167 HD
ATOM     40  C   UNL A   1      44.752  27.534  26.446  1.00  0.00     0.074 A 
ATOM     41  C   UNL A   1      44.548  26.252  25.795  1.00  0.00     0.031 C 
ATOM     42  C   UNL A   1      45.830  28.329  26.234  1.00  0.00     0.031 A 
BRANCH  29  43
ATOM     43  C   UNL A   1      45.888  33.589  29.518  1.00  0.00    -0.014 A 
ATOM     44  C   UNL A   1      45.355  34.853  29.215  1.00  0.00     0.009 A 
ATOM     45  C   UNL A   1      47.132  33.514  30.163  1.00  0.00     0.009 A 
ATOM     46  C   UNL A   1      46.076  36.012  29.510  1.00  0.00     0.001 A 
ATOM     47  C   UNL A   1      47.838  34.676  30.481  1.00  0.00     0.001 A 
ATOM     48  C   UNL A   1      47.315  35.923  30.142  1.00  0.00     0.000 A 
ENDBRANCH  29  43
BRANCH  30  49
ATOM     49  C   UNL A   1      40.803  25.140  27.423  1.00  0.00    -0.014 A 
ATOM     50  C   UNL A   1      39.690  25.147  26.570  1.00  0.00     0.009 A 
ATOM     51  C   UNL A   1      41.195  23.922  28.004  1.00  0.00     0.009 A 
ATOM     52  C   UNL A   1      38.973  23.970  26.327  1.00  0.00     0.001 A 
ATOM     53  C   UNL A   1      40.499  22.741  27.733  1.00  0.00     0.001 A 
ATOM     54  C   UNL A   1      39.381  22.768  26.904  1.00  0.00     0.000 A 
ENDBRANCH  30  49
BRANCH  42  55
ATOM     55  C   UNL A   1      46.873  27.806  25.292  1.00  0.00    -0.014 A 
ATOM     56  C   UNL A   1      47.894  26.955  25.741  1.00  0.00     0.009 A 
ATOM     57  C   UNL A   1      46.803  28.140  23.931  1.00  0.00     0.009 A 
ATOM     58  C   UNL A   1      48.845  26.470  24.843  1.00  0.00     0.001 A 
ATOM     59  C   UNL A   1      47.739  27.631  23.033  1.00  0.00     0.001 A 
ATOM     60  C   UNL A   1      48.764  26.804  23.491  1.00  0.00     0.000 A 
ENDBRANCH  42  55
ENDBRANCH  16  17
ENDBRANCH   9  11
ENDBRANCH   8   9
ENDBRANCH   7   8
ENDBRANCH   6   7
ENDBRANCH   5   6
ENDBRANCH   4   5
ENDBRANCH   3   4
ENDBRANCH   2   3
ENDBRANCH   1   2
BRANCH   1  61
ATOM     61  C   UNL A   1      34.891  32.538  28.290  1.00  0.00     0.188 C 
BRANCH  61  62
ATOM     62  O   UNL A   1      34.108  31.358  28.414  1.00  0.00    -0.376 OA
BRANCH  62  63
ATOM     63  C   UNL A   1      33.644  30.803  27.185  1.00  0.00     0.202 C 
BRANCH  63  64
ATOM     64  C   UNL A   1      32.797  29.536  27.343  1.00  0.00     0.261 C 
BRANCH  64  65
ATOM     65  O   UNL A   1      33.195  28.425  26.516  1.00  0.00    -0.460 OA
BRANCH  65  66
ATOM     66  C   UNL A   1      32.713  28.313  25.257  1.00  0.00     0.338 C 
ATOM     67  O   UNL A   1      33.085  28.913  24.265  1.00  0.00    -0.246 OA
BRANCH  66  68
ATOM     68  C   UNL A   1      31.818  27.130  25.261  1.00  0.00     0.067 A 
ATOM     69  C   UNL A   1      30.691  27.129  24.439  1.00  0.00     0.036 A 
ATOM     70  C   UNL A   1      31.999  26.129  26.229  1.00  0.00     0.084 A 
ATOM     71  C   UNL A   1      29.761  26.134  24.641  1.00  0.00     0.116 A 
ATOM     72  C   UNL A   1      30.988  25.194  26.376  1.00  0.00     0.220 A 
ATOM     73  N   UNL A   1      29.888  25.181  25.586  1.00  0.00    -0.222 NA
BRANCH  72  74
ATOM     74  O   UNL A   1      31.042  24.118  27.224  1.00  0.00    -0.439 OA
BRANCH  74  75
ATOM     75  C   UNL A   1      31.888  23.063  26.979  1.00  0.00     0.130 A 
ATOM     76  C   UNL A   1      32.878  22.846  27.939  1.00  0.00     0.047 A 
ATOM     77  C   UNL A   1      31.961  22.418  25.738  1.00  0.00     0.060 A 
ATOM     78  C   UNL A   1      33.931  21.972  27.683  1.00  0.00     0.004 A 
ATOM     79  C   UNL A   1      33.043  21.553  25.460  1.00  0.00     0.059 A 
ATOM     80  C   UNL A   1      34.013  21.328  26.453  1.00  0.00     0.013 A 
BRANCH  79  81
ATOM     81  C   UNL A   1      33.228  20.890  24.117  1.00  0.00     0.416 C 
ATOM     82  F   UNL A   1      33.902  21.667  23.225  1.00  0.00    -0.166 F 
ATOM     83  F   UNL A   1      33.942  19.733  24.205  1.00  0.00    -0.166 F 
ATOM     84  F   UNL A   1      32.059  20.553  23.505  1.00  0.00    -0.166 F 
ENDBRANCH  79  81
ENDBRANCH  74  75
ENDBRANCH  72  74
ENDBRANCH  66  68
ENDBRANCH  65  66
ENDBRANCH  64  65
ENDBRANCH  63  64
ENDBRANCH  62  63
ENDBRANCH  61  62
ENDBRANCH   1  61
TORSDOF 23
ENDMDL
MODEL 2
REMARK VINA RESULT:      -9.6      1.707      2.481
REMARK SMILES O=C(OCCOCCOCCOCCOC(=O)c1ccnc(Oc2cccc(C(F)(F)F)c2)c1)c1ccc(-c2c3nc(c(-c4ccccc4)c4ccc([nH]4)c(-c4ccccc4)c4nc(c(-c5ccccc5)c5ccc2[nH]5)C=C4)C=C3)cc1
REMARK SMILES IDX 10 1 9 2 8 3 7 4 6 5 5 6 4 7 3 8 2 9 1 10 35 11 36 12 82 13
REMARK SMILES IDX 37 14 81 15 38 16 39 17 40 18 75 19 41 20 80 21 74 22 76 23
REMARK SMILES IDX 42 24 79 25 73 26 72 27 43 29 65 30 50 31 64 32 51 33 54 34
REMARK SMILES IDX 63 35 77 36 52 37 53 38 62 40 78 41 55 42 44 43 45 44 49 45
REMARK SMILES IDX 46 46 48 47 47 48 66 49 67 50 71 51 68 52 70 53 69 54 56 55
REMARK SMILES IDX 57 56 61 57 58 58 60 59 59 60 11 61 12 62 13 63 14 64 15 65
REMARK SMILES IDX 16 66 17 67 18 68 19 69 34 70 20 71 22 72 21 73 23 74 24 75
REMARK SMILES IDX 25 76 33 77 26 78 28 79 27 80 29 81 30 82 31 83 32 84
REMARK H PARENT 76 28 54 39
REMARK Flexibility Score: inf
ROOT
ATOM      1  C   UNL A   1      35.072  30.937  27.671  1.00  0.00     0.188 C 
ENDROOT
BRANCH   1   2
ATOM      2  O   UNL A   1      35.585  30.259  28.813  1.00  0.00    -0.377 OA
BRANCH   2   3
ATOM      3  C   UNL A   1      35.957  31.072  29.925  1.00  0.00     0.188 C 
BRANCH   3   4
ATOM      4  C   UNL A   1      35.090  32.314  30.120  1.00  0.00     0.188 C 
BRANCH   4   5
ATOM      5  O   UNL A   1      34.564  32.300  31.444  1.00  0.00    -0.376 OA
BRANCH   5   6
ATOM      6  C   UNL A   1      34.390  33.568  32.060  1.00  0.00     0.202 C 
BRANCH   6   7
ATOM      7  C   UNL A   1      34.715  33.610  33.551  1.00  0.00     0.261 C 
BRANCH   7   8
ATOM      8  O   UNL A   1      36.055  33.192  33.847  1.00  0.00    -0.460 OA
BRANCH   8   9
ATOM      9  C   UNL A   1      37.214  33.706  33.367  1.00  0.00     0.338 C 
ATOM     10  O   UNL A   1      37.495  34.874  33.631  1.00  0.00    -0.246 OA
BRANCH   9  11
ATOM     11  C   UNL A   1      38.206  32.922  32.575  1.00  0.00     0.060 A 
ATOM     12  C   UNL A   1      38.845  31.761  33.009  1.00  0.00     0.016 A 
ATOM     13  C   UNL A   1      38.417  33.329  31.249  1.00  0.00     0.016 A 
ATOM     14  C   UNL A   1      39.735  31.070  32.200  1.00  0.00     0.010 A 
ATOM     15  C   UNL A   1      39.270  32.610  30.406  1.00  0.00     0.010 A 
ATOM     16  C   UNL A   1      39.956  31.491  30.894  1.00  0.00    -0.014 A 
BRANCH  16  17
ATOM     17  C   UNL A   1      41.025  30.835  30.120  1.00  0.00     0.031 A 
ATOM     18  C   UNL A   1      42.351  31.528  30.039  1.00  0.00     0.074 A 
ATOM     19  C   UNL A   1      40.845  29.599  29.621  1.00  0.00     0.049 A 
ATOM     20  N   UNL A   1      43.407  31.217  29.340  1.00  0.00    -0.248 NA
ATOM     21  C   UNL A   1      42.509  32.737  30.869  1.00  0.00     0.031 C 
ATOM     22  C   UNL A   1      39.635  28.787  29.781  1.00  0.00     0.029 A 
ATOM     23  N   UNL A   1      41.693  28.794  28.909  1.00  0.00    -0.354 N 
ATOM     24  C   UNL A   1      44.335  32.215  29.609  1.00  0.00     0.074 A 
ATOM     25  C   UNL A   1      43.721  33.142  30.530  1.00  0.00     0.031 C 
ATOM     26  C   UNL A   1      39.832  27.588  29.208  1.00  0.00     0.029 A 
ATOM     27  C   UNL A   1      41.144  27.580  28.573  1.00  0.00     0.049 A 
ATOM     28  H   UNL A   1      42.608  29.059  28.662  1.00  0.00     0.167 HD
ATOM     29  C   UNL A   1      45.588  32.344  29.117  1.00  0.00     0.031 A 
ATOM     30  C   UNL A   1      41.640  26.597  27.798  1.00  0.00     0.031 A 
ATOM     31  C   UNL A   1      46.168  31.404  28.200  1.00  0.00     0.049 A 
ATOM     32  C   UNL A   1      42.993  26.813  27.178  1.00  0.00     0.074 A 
ATOM     33  C   UNL A   1      47.385  31.458  27.551  1.00  0.00     0.029 A 
ATOM     34  N   UNL A   1      45.553  30.220  27.814  1.00  0.00    -0.354 N 
ATOM     35  N   UNL A   1      43.828  27.813  27.344  1.00  0.00    -0.248 NA
ATOM     36  C   UNL A   1      43.465  25.781  26.248  1.00  0.00     0.031 C 
ATOM     37  C   UNL A   1      47.490  30.319  26.742  1.00  0.00     0.029 A 
ATOM     38  C   UNL A   1      46.361  29.534  26.929  1.00  0.00     0.049 A 
ATOM     39  H   UNL A   1      44.669  29.915  28.125  1.00  0.00     0.167 HD
ATOM     40  C   UNL A   1      44.929  27.528  26.549  1.00  0.00     0.074 A 
ATOM     41  C   UNL A   1      44.665  26.245  25.923  1.00  0.00     0.031 C 
ATOM     42  C   UNL A   1      46.053  28.257  26.341  1.00  0.00     0.031 A 
BRANCH  29  43
ATOM     43  C   UNL A   1      46.346  33.577  29.512  1.00  0.00    -0.014 A 
ATOM     44  C   UNL A   1      46.265  34.763  28.763  1.00  0.00     0.009 A 
ATOM     45  C   UNL A   1      47.209  33.533  30.618  1.00  0.00     0.009 A 
ATOM     46  C   UNL A   1      47.064  35.861  29.090  1.00  0.00     0.001 A 
ATOM     47  C   UNL A   1      47.986  34.642  30.958  1.00  0.00     0.001 A 
ATOM     48  C   UNL A   1      47.923  35.800  30.186  1.00  0.00     0.000 A 
ENDBRANCH  29  43
BRANCH  30  49
ATOM     49  C   UNL A   1      40.835  25.379  27.503  1.00  0.00    -0.014 A 
ATOM     50  C   UNL A   1      39.596  25.470  26.853  1.00  0.00     0.009 A 
ATOM     51  C   UNL A   1      41.296  24.111  27.895  1.00  0.00     0.009 A 
ATOM     52  C   UNL A   1      38.828  24.323  26.624  1.00  0.00     0.001 A 
ATOM     53  C   UNL A   1      40.544  22.963  27.636  1.00  0.00     0.001 A 
ATOM     54  C   UNL A   1      39.304  23.070  27.011  1.00  0.00     0.000 A 
ENDBRANCH  30  49
BRANCH  42  55
ATOM     55  C   UNL A   1      47.081  27.656  25.430  1.00  0.00    -0.014 A 
ATOM     56  C   UNL A   1      47.104  27.960  24.061  1.00  0.00     0.009 A 
ATOM     57  C   UNL A   1      48.065  26.810  25.965  1.00  0.00     0.009 A 
ATOM     58  C   UNL A   1      48.081  27.400  23.236  1.00  0.00     0.001 A 
ATOM     59  C   UNL A   1      49.054  26.274  25.143  1.00  0.00     0.001 A 
ATOM     60  C   UNL A   1      49.056  26.563  23.779  1.00  0.00     0.000 A 
ENDBRANCH  42  55
ENDBRANCH  16  17
ENDBRANCH   9  11
ENDBRANCH   8   9
ENDBRANCH   7   8
ENDBRANCH   6   7
ENDBRANCH   5   6
ENDBRANCH   4   5
ENDBRANCH   3   4
ENDBRANCH   2   3
ENDBRANCH   1   2
BRANCH   1  61
ATOM     61  C   UNL A   1      33.572  30.794  27.334  1.00  0.00     0.188 C 
BRANCH  61  62
ATOM     62  O   UNL A   1      33.256  29.726  26.453  1.00  0.00    -0.376 OA
BRANCH  62  63
ATOM     63  C   UNL A   1      32.950  28.484  27.084  1.00  0.00     0.202 C 
BRANCH  63  64
ATOM     64  C   UNL A   1      31.507  28.012  26.885  1.00  0.00     0.261 C 
BRANCH  64  65
ATOM     65  O   UNL A   1      31.275  27.229  25.698  1.00  0.00    -0.460 OA
BRANCH  65  66
ATOM     66  C   UNL A   1      31.080  27.845  24.510  1.00  0.00     0.338 C 
ATOM     67  O   UNL A   1      30.305  28.751  24.263  1.00  0.00    -0.246 OA
BRANCH  66  68
ATOM     68  C   UNL A   1      32.174  27.384  23.621  1.00  0.00     0.067 A 
ATOM     69  C   UNL A   1      33.058  28.323  23.088  1.00  0.00     0.036 A 
ATOM     70  C   UNL A   1      32.183  26.055  23.168  1.00  0.00     0.084 A 
ATOM     71  C   UNL A   1      33.903  27.901  22.088  1.00  0.00     0.116 A 
ATOM     72  C   UNL A   1      33.047  25.741  22.132  1.00  0.00     0.220 A 
ATOM     73  N   UNL A   1      33.910  26.641  21.604  1.00  0.00    -0.222 NA
BRANCH  72  74
ATOM     74  O   UNL A   1      33.225  24.480  21.624  1.00  0.00    -0.439 OA
BRANCH  74  75
ATOM     75  C   UNL A   1      33.491  23.413  22.450  1.00  0.00     0.130 A 
ATOM     76  C   UNL A   1      32.525  22.405  22.466  1.00  0.00     0.047 A 
ATOM     77  C   UNL A   1      34.495  23.437  23.424  1.00  0.00     0.060 A 
ATOM     78  C   UNL A   1      32.563  21.404  23.433  1.00  0.00     0.004 A 
ATOM     79  C   UNL A   1      34.524  22.442  24.427  1.00  0.00     0.059 A 
ATOM     80  C   UNL A   1      33.557  21.420  24.407  1.00  0.00     0.013 A 
BRANCH  79  81
ATOM     81  C   UNL A   1      35.527  22.453  25.554  1.00  0.00     0.416 C 
ATOM     82  F   UNL A   1      35.862  23.709  25.960  1.00  0.00    -0.166 F 
ATOM     83  F   UNL A   1      35.062  21.822  26.669  1.00  0.00    -0.166 F 
ATOM     84  F   UNL A   1      36.703  21.837  25.249  1.00  0.00    -0.166 F 
ENDBRANCH  79  81
ENDBRANCH  74  75
ENDBRANCH  72  74
ENDBRANCH  66  68
ENDBRANCH  65  66
ENDBRANCH  64  65
ENDBRANCH  63  64
ENDBRANCH  62  63
ENDBRANCH  61  62
ENDBRANCH   1  61
TORSDOF 23
ENDMDL
MODEL 3
REMARK VINA RESULT:      -8.9      4.746      7.625
REMARK SMILES O=C(OCCOCCOCCOCCOC(=O)c1ccnc(Oc2cccc(C(F)(F)F)c2)c1)c1ccc(-c2c3nc(c(-c4ccccc4)c4ccc([nH]4)c(-c4ccccc4)c4nc(c(-c5ccccc5)c5ccc2[nH]5)C=C4)C=C3)cc1
REMARK SMILES IDX 10 1 9 2 8 3 7 4 6 5 5 6 4 7 3 8 2 9 1 10 35 11 36 12 82 13
REMARK SMILES IDX 37 14 81 15 38 16 39 17 40 18 75 19 41 20 80 21 74 22 76 23
REMARK SMILES IDX 42 24 79 25 73 26 72 27 43 29 65 30 50 31 64 32 51 33 54 34
REMARK SMILES IDX 63 35 77 36 52 37 53 38 62 40 78 41 55 42 44 43 45 44 49 45
REMARK SMILES IDX 46 46 48 47 47 48 66 49 67 50 71 51 68 52 70 53 69 54 56 55
REMARK SMILES IDX 57 56 61 57 58 58 60 59 59 60 11 61 12 62 13 63 14 64 15 65
REMARK SMILES IDX 16 66 17 67 18 68 19 69 34 70 20 71 22 72 21 73 23 74 24 75
REMARK SMILES IDX 25 76 33 77 26 78 28 79 27 80 29 81 30 82 31 83 32 84
REMARK H PARENT 76 28 54 39
REMARK Flexibility Score: inf
ROOT
ATOM      1  C   UNL A   1      36.351  33.944  30.515  1.00  0.00     0.188 C 
ENDROOT
BRANCH   1   2
ATOM      2  O   UNL A   1      35.052  34.268  30.030  1.00  0.00    -0.377 OA
BRANCH   2   3
ATOM      3  C   UNL A   1      34.157  34.878  30.959  1.00  0.00     0.188 C 
BRANCH   3   4
ATOM      4  C   UNL A   1      34.155  34.242  32.348  1.00  0.00     0.188 C 
BRANCH   4   5
ATOM      5  O   UNL A   1      34.978  35.024  33.209  1.00  0.00    -0.376 OA
BRANCH   5   6
ATOM      6  C   UNL A   1      35.524  34.349  34.333  1.00  0.00     0.202 C 
BRANCH   6   7
ATOM      7  C   UNL A   1      35.932  32.901  34.079  1.00  0.00     0.261 C 
BRANCH   7   8
ATOM      8  O   UNL A   1      36.791  32.370  35.099  1.00  0.00    -0.460 OA
BRANCH   8   9
ATOM      9  C   UNL A   1      38.114  32.600  35.277  1.00  0.00     0.338 C 
ATOM     10  O   UNL A   1      38.473  33.243  36.263  1.00  0.00    -0.246 OA
BRANCH   9  11
ATOM     11  C   UNL A   1      39.179  32.074  34.374  1.00  0.00     0.060 A 
ATOM     12  C   UNL A   1      38.966  31.547  33.101  1.00  0.00     0.016 A 
ATOM     13  C   UNL A   1      40.505  32.233  34.803  1.00  0.00     0.016 A 
ATOM     14  C   UNL A   1      40.014  31.104  32.308  1.00  0.00     0.010 A 
ATOM     15  C   UNL A   1      41.574  31.840  33.990  1.00  0.00     0.010 A 
ATOM     16  C   UNL A   1      41.324  31.245  32.748  1.00  0.00    -0.014 A 
BRANCH  16  17
ATOM     17  C   UNL A   1      42.399  30.619  31.956  1.00  0.00     0.031 A 
ATOM     18  C   UNL A   1      42.842  29.244  32.352  1.00  0.00     0.074 A 
ATOM     19  C   UNL A   1      42.862  31.215  30.844  1.00  0.00     0.049 A 
ATOM     20  N   UNL A   1      43.830  28.527  31.892  1.00  0.00    -0.248 NA
ATOM     21  C   UNL A   1      42.057  28.582  33.411  1.00  0.00     0.031 C 
ATOM     22  C   UNL A   1      42.380  32.489  30.300  1.00  0.00     0.029 A 
ATOM     23  N   UNL A   1      43.816  30.812  29.949  1.00  0.00    -0.354 N 
ATOM     24  C   UNL A   1      43.813  27.354  32.635  1.00  0.00     0.074 A 
ATOM     25  C   UNL A   1      42.723  27.452  33.577  1.00  0.00     0.031 C 
ATOM     26  C   UNL A   1      43.023  32.746  29.149  1.00  0.00     0.029 A 
ATOM     27  C   UNL A   1      44.016  31.702  28.921  1.00  0.00     0.049 A 
ATOM     28  H   UNL A   1      44.312  29.966  30.034  1.00  0.00     0.167 HD
ATOM     29  C   UNL A   1      44.646  26.292  32.538  1.00  0.00     0.031 A 
ATOM     30  C   UNL A   1      44.932  31.686  27.935  1.00  0.00     0.031 A 
ATOM     31  C   UNL A   1      45.723  26.228  31.591  1.00  0.00     0.049 A 
ATOM     32  C   UNL A   1      45.915  30.547  27.915  1.00  0.00     0.074 A 
ATOM     33  C   UNL A   1      46.697  25.262  31.444  1.00  0.00     0.029 A 
ATOM     34  N   UNL A   1      45.949  27.187  30.611  1.00  0.00    -0.354 N 
ATOM     35  N   UNL A   1      45.969  29.489  28.690  1.00  0.00    -0.248 NA
ATOM     36  C   UNL A   1      46.975  30.609  26.902  1.00  0.00     0.031 C 
ATOM     37  C   UNL A   1      47.537  25.657  30.395  1.00  0.00     0.029 A 
ATOM     38  C   UNL A   1      47.053  26.840  29.858  1.00  0.00     0.049 A 
ATOM     39  H   UNL A   1      45.402  27.994  30.474  1.00  0.00     0.167 HD
ATOM     40  C   UNL A   1      47.060  28.751  28.254  1.00  0.00     0.074 A 
ATOM     41  C   UNL A   1      47.622  29.473  27.127  1.00  0.00     0.031 C 
ATOM     42  C   UNL A   1      47.566  27.591  28.741  1.00  0.00     0.031 A 
BRANCH  29  43
ATOM     43  C   UNL A   1      44.452  25.187  33.534  1.00  0.00    -0.014 A 
ATOM     44  C   UNL A   1      44.974  25.268  34.836  1.00  0.00     0.009 A 
ATOM     45  C   UNL A   1      43.788  24.014  33.142  1.00  0.00     0.009 A 
ATOM     46  C   UNL A   1      44.873  24.181  35.707  1.00  0.00     0.001 A 
ATOM     47  C   UNL A   1      43.665  22.939  34.025  1.00  0.00     0.001 A 
ATOM     48  C   UNL A   1      44.219  23.019  35.301  1.00  0.00     0.000 A 
ENDBRANCH  29  43
BRANCH  30  49
ATOM     49  C   UNL A   1      45.017  32.803  26.955  1.00  0.00    -0.014 A 
ATOM     50  C   UNL A   1      44.302  32.765  25.749  1.00  0.00     0.009 A 
ATOM     51  C   UNL A   1      45.838  33.915  27.213  1.00  0.00     0.009 A 
ATOM     52  C   UNL A   1      44.427  33.800  24.815  1.00  0.00     0.001 A 
ATOM     53  C   UNL A   1      45.936  34.963  26.295  1.00  0.00     0.001 A 
ATOM     54  C   UNL A   1      45.240  34.899  25.090  1.00  0.00     0.000 A 
ENDBRANCH  30  49
BRANCH  42  55
ATOM     55  C   UNL A   1      48.756  27.027  28.025  1.00  0.00    -0.014 A 
ATOM     56  C   UNL A   1      50.061  27.299  28.462  1.00  0.00     0.009 A 
ATOM     57  C   UNL A   1      48.561  26.177  26.926  1.00  0.00     0.009 A 
ATOM     58  C   UNL A   1      51.153  26.750  27.789  1.00  0.00     0.001 A 
ATOM     59  C   UNL A   1      49.653  25.609  26.273  1.00  0.00     0.001 A 
ATOM     60  C   UNL A   1      50.948  25.903  26.700  1.00  0.00     0.000 A 
ENDBRANCH  42  55
ENDBRANCH  16  17
ENDBRANCH   9  11
ENDBRANCH   8   9
ENDBRANCH   7   8
ENDBRANCH   6   7
ENDBRANCH   5   6
ENDBRANCH   4   5
ENDBRANCH   3   4
ENDBRANCH   2   3
ENDBRANCH   1   2
BRANCH   1  61
ATOM     61  C   UNL A   1      37.189  32.897  29.751  1.00  0.00     0.188 C 
BRANCH  61  62
ATOM     62  O   UNL A   1      36.529  32.289  28.650  1.00  0.00    -0.376 OA
BRANCH  62  63
ATOM     63  C   UNL A   1      35.826  31.085  28.949  1.00  0.00     0.202 C 
BRANCH  63  64
ATOM     64  C   UNL A   1      36.435  30.263  30.090  1.00  0.00     0.261 C 
BRANCH  64  65
ATOM     65  O   UNL A   1      37.029  29.011  29.696  1.00  0.00    -0.460 OA
BRANCH  65  66
ATOM     66  C   UNL A   1      38.156  28.577  30.304  1.00  0.00     0.338 C 
ATOM     67  O   UNL A   1      38.247  27.994  31.369  1.00  0.00    -0.246 OA
BRANCH  66  68
ATOM     68  C   UNL A   1      39.244  28.715  29.305  1.00  0.00     0.067 A 
ATOM     69  C   UNL A   1      38.915  28.944  27.969  1.00  0.00     0.036 A 
ATOM     70  C   UNL A   1      40.565  28.415  29.675  1.00  0.00     0.084 A 
ATOM     71  C   UNL A   1      39.923  28.828  27.039  1.00  0.00     0.116 A 
ATOM     72  C   UNL A   1      41.498  28.286  28.659  1.00  0.00     0.220 A 
ATOM     73  N   UNL A   1      41.193  28.503  27.358  1.00  0.00    -0.222 NA
BRANCH  72  74
ATOM     74  O   UNL A   1      42.836  28.064  28.857  1.00  0.00    -0.439 OA
BRANCH  74  75
ATOM     75  C   UNL A   1      43.423  26.881  28.476  1.00  0.00     0.130 A 
ATOM     76  C   UNL A   1      44.177  26.930  27.302  1.00  0.00     0.047 A 
ATOM     77  C   UNL A   1      43.077  25.645  29.036  1.00  0.00     0.060 A 
ATOM     78  C   UNL A   1      44.613  25.757  26.692  1.00  0.00     0.004 A 
ATOM     79  C   UNL A   1      43.490  24.449  28.405  1.00  0.00     0.059 A 
ATOM     80  C   UNL A   1      44.273  24.524  27.240  1.00  0.00     0.013 A 
BRANCH  79  81
ATOM     81  C   UNL A   1      43.085  23.085  28.908  1.00  0.00     0.416 C 
ATOM     82  F   UNL A   1      41.745  22.969  29.119  1.00  0.00    -0.166 F 
ATOM     83  F   UNL A   1      43.403  22.094  28.028  1.00  0.00    -0.166 F 
ATOM     84  F   UNL A   1      43.677  22.734  30.083  1.00  0.00    -0.166 F 
ENDBRANCH  79  81
ENDBRANCH  74  75
ENDBRANCH  72  74
ENDBRANCH  66  68
ENDBRANCH  65  66
ENDBRANCH  64  65
ENDBRANCH  63  64
ENDBRANCH  62  63
ENDBRANCH  61  62
ENDBRANCH   1  61
TORSDOF 23
ENDMDL
