MODEL 1
REMARK VINA RESULT:      -9.3      0.000      0.000
REMARK SMILES C[C@H]1C[N@H+]2CCCC[C@@H]2CN1C(=O)[C@H]([NH3+])CC(=O)OCCOCCOCCOCCOC(=O)c1ccc(-c2c3nc(c(-c4ccccc4)c4ccc([nH]4)c(-c4ccccc4)c4nc(c(-c5ccccc5)c5ccc2[nH]5)C=C4)C=C3)cc1
REMARK SMILES IDX 24 1 23 2 22 3 21 4 20 5 19 6 17 7 18 8 16 9 14 10 12 11
REMARK SMILES IDX 13 12 11 13 1 14 2 15 3 16 4 17 10 18 5 19 9 20 6 22 8 23
REMARK SMILES IDX 7 24 15 25 25 29 26 30 27 31 28 32 29 33 30 34 31 35 32 36
REMARK SMILES IDX 33 37 34 38 35 39 81 40 36 41 80 42 37 43 38 44 39 45 74 46
REMARK SMILES IDX 40 47 79 48 73 49 75 50 41 51 78 52 72 53 71 54 42 56 64 57
REMARK SMILES IDX 49 58 63 59 50 60 53 61 62 62 76 63 51 64 52 65 61 67 77 68
REMARK SMILES IDX 54 69 43 70 44 71 48 72 45 73 47 74 46 75 65 76 66 77 70 78
REMARK SMILES IDX 67 79 69 80 68 81 55 82 56 83 60 84 57 85 59 86 58 87
REMARK H PARENT 4 21 15 26 15 27 15 28 75 55 53 66
REMARK Flexibility Score: inf
ROOT
ATOM      1  C   UNL A   1      33.824  31.486  27.839  1.00  0.00     0.188 C 
ENDROOT
BRANCH   1   2
ATOM      2  C   UNL A   1      34.725  30.274  27.574  1.00  0.00     0.188 C 
BRANCH   2   3
ATOM      3  O   UNL A   1      34.245  29.194  26.796  1.00  0.00    -0.376 OA
BRANCH   3   4
ATOM      4  C   UNL A   1      33.355  29.410  25.705  1.00  0.00     0.202 C 
BRANCH   4   5
ATOM      5  C   UNL A   1      33.267  28.462  24.495  1.00  0.00     0.261 C 
BRANCH   5   6
ATOM      6  O   UNL A   1      32.132  28.689  23.647  1.00  0.00    -0.463 OA
BRANCH   6   7
ATOM      7  C   UNL A   1      31.826  27.691  22.790  1.00  0.00     0.312 C 
ATOM      8  O   UNL A   1      32.632  27.159  22.032  1.00  0.00    -0.252 OA
BRANCH   7   9
ATOM      9  C   UNL A   1      30.474  27.072  23.045  1.00  0.00     0.198 C 
BRANCH   9  10
ATOM     10  C   UNL A   1      30.154  26.124  24.193  1.00  0.00     0.282 C 
BRANCH  10  11
ATOM     11  C   UNL A   1      30.879  24.704  24.205  1.00  0.00     0.282 C 
ATOM     12  O   UNL A   1      30.456  23.854  23.408  1.00  0.00    -0.268 OA
BRANCH  11  13
ATOM     13  N   UNL A   1      31.906  24.361  25.085  1.00  0.00    -0.323 N 
ATOM     14  C   UNL A   1      30.285  23.072  26.645  1.00  0.00     0.037 C 
ATOM     15  C   UNL A   1      31.664  23.697  26.400  1.00  0.00     0.137 C 
ATOM     16  C   UNL A   1      32.726  22.562  26.696  1.00  0.00     0.287 C 
ATOM     17  N   UNL A   1      34.088  22.659  26.117  1.00  0.00    -0.329 N 
ATOM     18  C   UNL A   1      33.333  24.653  24.942  1.00  0.00     0.185 C 
ATOM     19  C   UNL A   1      34.697  21.321  26.020  1.00  0.00     0.262 C 
ATOM     20  C   UNL A   1      34.072  23.315  24.795  1.00  0.00     0.203 C 
ATOM     21  H   UNL A   1      34.652  23.238  26.739  1.00  0.00     0.348 HD
ATOM     22  C   UNL A   1      36.125  21.387  25.479  1.00  0.00     0.062 C 
ATOM     23  C   UNL A   1      35.496  23.490  24.256  1.00  0.00     0.067 C 
ATOM     24  C   UNL A   1      36.194  22.135  24.151  1.00  0.00     0.012 C 
ENDBRANCH  11  13
ENDBRANCH  10  11
BRANCH  10  25
ATOM     25  N   UNL A   1      28.694  25.918  24.325  1.00  0.00    -0.347 N 
ATOM     26  H   UNL A   1      28.417  25.097  23.787  1.00  0.00     0.345 HD
ATOM     27  H   UNL A   1      28.202  26.739  23.972  1.00  0.00     0.345 HD
ATOM     28  H   UNL A   1      28.459  25.775  25.307  1.00  0.00     0.345 HD
ENDBRANCH  10  25
ENDBRANCH   9  10
ENDBRANCH   7   9
ENDBRANCH   6   7
ENDBRANCH   5   6
ENDBRANCH   4   5
ENDBRANCH   3   4
ENDBRANCH   2   3
ENDBRANCH   1   2
BRANCH   1  29
ATOM     29  O   UNL A   1      34.500  32.701  28.083  1.00  0.00    -0.377 OA
BRANCH  29  30
ATOM     30  C   UNL A   1      34.902  33.015  29.413  1.00  0.00     0.188 C 
BRANCH  30  31
ATOM     31  C   UNL A   1      34.160  34.100  30.224  1.00  0.00     0.188 C 
BRANCH  31  32
ATOM     32  O   UNL A   1      33.755  33.703  31.522  1.00  0.00    -0.376 OA
BRANCH  32  33
ATOM     33  C   UNL A   1      34.216  34.436  32.646  1.00  0.00     0.202 C 
BRANCH  33  34
ATOM     34  C   UNL A   1      35.127  33.729  33.661  1.00  0.00     0.261 C 
BRANCH  34  35
ATOM     35  O   UNL A   1      35.832  32.565  33.201  1.00  0.00    -0.460 OA
BRANCH  35  36
ATOM     36  C   UNL A   1      36.927  32.160  33.870  1.00  0.00     0.338 C 
ATOM     37  O   UNL A   1      37.107  32.168  35.077  1.00  0.00    -0.246 OA
BRANCH  36  38
ATOM     38  C   UNL A   1      37.825  31.511  32.894  1.00  0.00     0.060 A 
ATOM     39  C   UNL A   1      38.991  30.875  33.344  1.00  0.00     0.016 A 
ATOM     40  C   UNL A   1      37.513  31.538  31.533  1.00  0.00     0.016 A 
ATOM     41  C   UNL A   1      39.875  30.305  32.427  1.00  0.00     0.010 A 
ATOM     42  C   UNL A   1      38.408  30.988  30.616  1.00  0.00     0.010 A 
ATOM     43  C   UNL A   1      39.612  30.406  31.055  1.00  0.00    -0.014 A 
BRANCH  43  44
ATOM     44  C   UNL A   1      40.681  30.143  30.063  1.00  0.00     0.031 A 
ATOM     45  C   UNL A   1      40.664  28.815  29.355  1.00  0.00     0.074 A 
ATOM     46  C   UNL A   1      41.654  31.034  29.808  1.00  0.00     0.049 A 
ATOM     47  N   UNL A   1      41.560  28.278  28.570  1.00  0.00    -0.248 NA
ATOM     48  C   UNL A   1      39.472  27.975  29.575  1.00  0.00     0.031 C 
ATOM     49  C   UNL A   1      41.751  32.375  30.380  1.00  0.00     0.029 A 
ATOM     50  N   UNL A   1      42.767  30.923  29.011  1.00  0.00    -0.354 N 
ATOM     51  C   UNL A   1      41.051  27.034  28.220  1.00  0.00     0.074 A 
ATOM     52  C   UNL A   1      39.783  26.882  28.897  1.00  0.00     0.031 C 
ATOM     53  C   UNL A   1      42.882  32.954  29.937  1.00  0.00     0.029 A 
ATOM     54  C   UNL A   1      43.608  32.007  29.091  1.00  0.00     0.049 A 
ATOM     55  H   UNL A   1      42.946  30.143  28.438  1.00  0.00     0.167 HD
ATOM     56  C   UNL A   1      41.590  26.098  27.403  1.00  0.00     0.031 A 
ATOM     57  C   UNL A   1      44.840  32.191  28.574  1.00  0.00     0.031 A 
ATOM     58  C   UNL A   1      42.861  26.241  26.749  1.00  0.00     0.049 A 
ATOM     59  C   UNL A   1      45.466  31.095  27.747  1.00  0.00     0.074 A 
ATOM     60  C   UNL A   1      43.503  25.348  25.909  1.00  0.00     0.029 A 
ATOM     61  N   UNL A   1      43.686  27.347  26.869  1.00  0.00    -0.354 N 
ATOM     62  N   UNL A   1      44.977  29.923  27.416  1.00  0.00    -0.248 NA
ATOM     63  C   UNL A   1      46.815  31.350  27.217  1.00  0.00     0.031 C 
ATOM     64  C   UNL A   1      44.743  25.891  25.566  1.00  0.00     0.029 A 
ATOM     65  C   UNL A   1      44.840  27.153  26.131  1.00  0.00     0.049 A 
ATOM     66  H   UNL A   1      43.483  28.151  27.400  1.00  0.00     0.167 HD
ATOM     67  C   UNL A   1      45.937  29.324  26.607  1.00  0.00     0.074 A 
ATOM     68  C   UNL A   1      47.033  30.262  26.491  1.00  0.00     0.031 C 
ATOM     69  C   UNL A   1      45.911  28.108  26.008  1.00  0.00     0.031 A 
BRANCH  56  70
ATOM     70  C   UNL A   1      40.817  24.825  27.204  1.00  0.00    -0.014 A 
ATOM     71  C   UNL A   1      41.230  23.619  27.792  1.00  0.00     0.009 A 
ATOM     72  C   UNL A   1      39.639  24.838  26.439  1.00  0.00     0.009 A 
ATOM     73  C   UNL A   1      40.499  22.447  27.593  1.00  0.00     0.001 A 
ATOM     74  C   UNL A   1      38.892  23.671  26.268  1.00  0.00     0.001 A 
ATOM     75  C   UNL A   1      39.328  22.476  26.837  1.00  0.00     0.000 A 
ENDBRANCH  56  70
BRANCH  57  76
ATOM     76  C   UNL A   1      45.594  33.443  28.857  1.00  0.00    -0.014 A 
ATOM     77  C   UNL A   1      46.423  33.545  29.986  1.00  0.00     0.009 A 
ATOM     78  C   UNL A   1      45.454  34.562  28.020  1.00  0.00     0.009 A 
ATOM     79  C   UNL A   1      47.064  34.749  30.287  1.00  0.00     0.001 A 
ATOM     80  C   UNL A   1      46.124  35.753  28.304  1.00  0.00     0.001 A 
ATOM     81  C   UNL A   1      46.918  35.850  29.445  1.00  0.00     0.000 A 
ENDBRANCH  57  76
BRANCH  69  82
ATOM     82  C   UNL A   1      47.060  27.743  25.108  1.00  0.00    -0.014 A 
ATOM     83  C   UNL A   1      48.174  27.035  25.581  1.00  0.00     0.009 A 
ATOM     84  C   UNL A   1      46.980  28.047  23.738  1.00  0.00     0.009 A 
ATOM     85  C   UNL A   1      49.196  26.663  24.705  1.00  0.00     0.001 A 
ATOM     86  C   UNL A   1      47.986  27.646  22.861  1.00  0.00     0.001 A 
ATOM     87  C   UNL A   1      49.098  26.959  23.346  1.00  0.00     0.000 A 
ENDBRANCH  69  82
ENDBRANCH  43  44
ENDBRANCH  36  38
ENDBRANCH  35  36
ENDBRANCH  34  35
ENDBRANCH  33  34
ENDBRANCH  32  33
ENDBRANCH  31  32
ENDBRANCH  30  31
ENDBRANCH  29  30
ENDBRANCH   1  29
TORSDOF 24
ENDMDL
MODEL 2
REMARK VINA RESULT:      -9.1      4.791     10.294
REMARK SMILES C[C@H]1C[N@H+]2CCCC[C@@H]2CN1C(=O)[C@H]([NH3+])CC(=O)OCCOCCOCCOCCOC(=O)c1ccc(-c2c3nc(c(-c4ccccc4)c4ccc([nH]4)c(-c4ccccc4)c4nc(c(-c5ccccc5)c5ccc2[nH]5)C=C4)C=C3)cc1
REMARK SMILES IDX 24 1 23 2 22 3 21 4 20 5 19 6 17 7 18 8 16 9 14 10 12 11
REMARK SMILES IDX 13 12 11 13 1 14 2 15 3 16 4 17 10 18 5 19 9 20 6 22 8 23
REMARK SMILES IDX 7 24 15 25 25 29 26 30 27 31 28 32 29 33 30 34 31 35 32 36
REMARK SMILES IDX 33 37 34 38 35 39 81 40 36 41 80 42 37 43 38 44 39 45 74 46
REMARK SMILES IDX 40 47 79 48 73 49 75 50 41 51 78 52 72 53 71 54 42 56 64 57
REMARK SMILES IDX 49 58 63 59 50 60 53 61 62 62 76 63 51 64 52 65 61 67 77 68
REMARK SMILES IDX 54 69 43 70 44 71 48 72 45 73 47 74 46 75 65 76 66 77 70 78
REMARK SMILES IDX 67 79 69 80 68 81 55 82 56 83 60 84 57 85 59 86 58 87
REMARK H PARENT 4 21 15 26 15 27 15 28 75 55 53 66
REMARK Flexibility Score: inf
ROOT
ATOM      1  C   UNL A   1      43.968  18.770  25.568  1.00  0.00     0.188 C 
ENDROOT
BRANCH   1   2
ATOM      2  C   UNL A   1      42.560  18.656  26.165  1.00  0.00     0.188 C 
BRANCH   2   3
ATOM      3  O   UNL A   1      41.989  19.759  26.842  1.00  0.00    -0.376 OA
BRANCH   3   4
ATOM      4  C   UNL A   1      41.359  20.818  26.126  1.00  0.00     0.202 C 
BRANCH   4   5
ATOM      5  C   UNL A   1      39.845  20.860  25.852  1.00  0.00     0.261 C 
BRANCH   5   6
ATOM      6  O   UNL A   1      39.198  22.066  26.284  1.00  0.00    -0.463 OA
BRANCH   6   7
ATOM      7  C   UNL A   1      37.984  22.311  25.744  1.00  0.00     0.312 C 
ATOM      8  O   UNL A   1      37.548  23.433  25.503  1.00  0.00    -0.252 OA
BRANCH   7   9
ATOM      9  C   UNL A   1      37.316  21.080  25.183  1.00  0.00     0.198 C 
BRANCH   9  10
ATOM     10  C   UNL A   1      35.830  20.964  24.870  1.00  0.00     0.282 C 
BRANCH  10  11
ATOM     11  C   UNL A   1      34.830  21.922  25.659  1.00  0.00     0.282 C 
ATOM     12  O   UNL A   1      34.751  21.760  26.885  1.00  0.00    -0.268 OA
BRANCH  11  13
ATOM     13  N   UNL A   1      34.017  22.876  25.044  1.00  0.00    -0.323 N 
ATOM     14  C   UNL A   1      32.157  21.136  24.562  1.00  0.00     0.037 C 
ATOM     15  C   UNL A   1      32.753  22.529  24.329  1.00  0.00     0.137 C 
ATOM     16  C   UNL A   1      31.596  23.565  24.635  1.00  0.00     0.287 C 
ATOM     17  N   UNL A   1      31.935  24.970  24.971  1.00  0.00    -0.329 N 
ATOM     18  C   UNL A   1      34.277  24.310  24.907  1.00  0.00     0.185 C 
ATOM     19  C   UNL A   1      30.843  25.585  25.745  1.00  0.00     0.262 C 
ATOM     20  C   UNL A   1      33.207  25.059  25.714  1.00  0.00     0.203 C 
ATOM     21  H   UNL A   1      32.054  25.481  24.098  1.00  0.00     0.348 HD
ATOM     22  C   UNL A   1      31.132  27.052  26.064  1.00  0.00     0.062 C 
ATOM     23  C   UNL A   1      33.586  26.521  25.972  1.00  0.00     0.067 C 
ATOM     24  C   UNL A   1      32.481  27.227  26.755  1.00  0.00     0.012 C 
ENDBRANCH  11  13
ENDBRANCH  10  11
BRANCH  10  25
ATOM     25  N   UNL A   1      35.363  19.567  25.006  1.00  0.00    -0.347 N 
ATOM     26  H   UNL A   1      35.676  19.023  24.202  1.00  0.00     0.345 HD
ATOM     27  H   UNL A   1      34.344  19.552  25.051  1.00  0.00     0.345 HD
ATOM     28  H   UNL A   1      35.747  19.161  25.859  1.00  0.00     0.345 HD
ENDBRANCH  10  25
ENDBRANCH   9  10
ENDBRANCH   7   9
ENDBRANCH   6   7
ENDBRANCH   5   6
ENDBRANCH   4   5
ENDBRANCH   3   4
ENDBRANCH   2   3
ENDBRANCH   1   2
BRANCH   1  29
ATOM     29  O   UNL A   1      44.047  19.430  24.323  1.00  0.00    -0.377 OA
BRANCH  29  30
ATOM     30  C   UNL A   1      44.918  20.547  24.184  1.00  0.00     0.188 C 
BRANCH  30  31
ATOM     31  C   UNL A   1      46.003  20.835  25.244  1.00  0.00     0.188 C 
BRANCH  31  32
ATOM     32  O   UNL A   1      46.102  22.189  25.647  1.00  0.00    -0.376 OA
BRANCH  32  33
ATOM     33  C   UNL A   1      46.374  23.184  24.673  1.00  0.00     0.202 C 
BRANCH  33  34
ATOM     34  C   UNL A   1      46.156  24.658  25.047  1.00  0.00     0.261 C 
BRANCH  34  35
ATOM     35  O   UNL A   1      44.920  25.259  24.630  1.00  0.00    -0.460 OA
BRANCH  35  36
ATOM     36  C   UNL A   1      43.763  24.765  25.107  1.00  0.00     0.338 C 
ATOM     37  O   UNL A   1      43.085  23.867  24.633  1.00  0.00    -0.246 OA
BRANCH  36  38
ATOM     38  C   UNL A   1      43.536  25.375  26.433  1.00  0.00     0.060 A 
ATOM     39  C   UNL A   1      43.008  24.594  27.471  1.00  0.00     0.016 A 
ATOM     40  C   UNL A   1      43.842  26.720  26.644  1.00  0.00     0.016 A 
ATOM     41  C   UNL A   1      42.738  25.171  28.713  1.00  0.00     0.010 A 
ATOM     42  C   UNL A   1      43.552  27.301  27.878  1.00  0.00     0.010 A 
ATOM     43  C   UNL A   1      42.961  26.540  28.903  1.00  0.00    -0.014 A 
BRANCH  43  44
ATOM     44  C   UNL A   1      42.360  27.246  30.060  1.00  0.00     0.031 A 
ATOM     45  C   UNL A   1      41.066  27.980  29.833  1.00  0.00     0.074 A 
ATOM     46  C   UNL A   1      42.945  27.263  31.269  1.00  0.00     0.049 A 
ATOM     47  N   UNL A   1      40.422  28.798  30.624  1.00  0.00    -0.248 NA
ATOM     48  C   UNL A   1      40.417  27.769  28.526  1.00  0.00     0.031 C 
ATOM     49  C   UNL A   1      44.164  26.545  31.635  1.00  0.00     0.029 A 
ATOM     50  N   UNL A   1      42.593  27.938  32.412  1.00  0.00    -0.354 N 
ATOM     51  C   UNL A   1      39.307  29.211  29.905  1.00  0.00     0.074 A 
ATOM     52  C   UNL A   1      39.374  28.579  28.607  1.00  0.00     0.031 C 
ATOM     53  C   UNL A   1      44.476  26.842  32.909  1.00  0.00     0.029 A 
ATOM     54  C   UNL A   1      43.507  27.806  33.430  1.00  0.00     0.049 A 
ATOM     55  H   UNL A   1      41.767  28.467  32.494  1.00  0.00     0.167 HD
ATOM     56  C   UNL A   1      38.312  30.043  30.293  1.00  0.00     0.031 A 
ATOM     57  C   UNL A   1      43.572  28.426  34.625  1.00  0.00     0.031 A 
ATOM     58  C   UNL A   1      38.259  30.688  31.575  1.00  0.00     0.049 A 
ATOM     59  C   UNL A   1      42.505  29.425  34.999  1.00  0.00     0.074 A 
ATOM     60  C   UNL A   1      37.300  31.557  32.063  1.00  0.00     0.029 A 
ATOM     61  N   UNL A   1      39.211  30.538  32.570  1.00  0.00    -0.354 N 
ATOM     62  N   UNL A   1      41.452  29.808  34.317  1.00  0.00    -0.248 NA
ATOM     63  C   UNL A   1      42.633  30.076  36.312  1.00  0.00     0.031 C 
ATOM     64  C   UNL A   1      37.702  31.978  33.333  1.00  0.00     0.029 A 
ATOM     65  C   UNL A   1      38.871  31.311  33.665  1.00  0.00     0.049 A 
ATOM     66  H   UNL A   1      40.011  29.966  32.508  1.00  0.00     0.167 HD
ATOM     67  C   UNL A   1      40.773  30.706  35.135  1.00  0.00     0.074 A 
ATOM     68  C   UNL A   1      41.529  30.807  36.364  1.00  0.00     0.031 C 
ATOM     69  C   UNL A   1      39.623  31.382  34.891  1.00  0.00     0.031 A 
BRANCH  56  70
ATOM     70  C   UNL A   1      37.220  30.326  29.300  1.00  0.00    -0.014 A 
ATOM     71  C   UNL A   1      36.307  29.331  28.914  1.00  0.00     0.009 A 
ATOM     72  C   UNL A   1      37.084  31.617  28.764  1.00  0.00     0.009 A 
ATOM     73  C   UNL A   1      35.301  29.615  27.989  1.00  0.00     0.001 A 
ATOM     74  C   UNL A   1      36.057  31.906  27.863  1.00  0.00     0.001 A 
ATOM     75  C   UNL A   1      35.172  30.902  27.470  1.00  0.00     0.000 A 
ENDBRANCH  56  70
BRANCH  57  76
ATOM     76  C   UNL A   1      44.711  28.163  35.547  1.00  0.00    -0.014 A 
ATOM     77  C   UNL A   1      45.899  28.904  35.453  1.00  0.00     0.009 A 
ATOM     78  C   UNL A   1      44.631  27.135  36.501  1.00  0.00     0.009 A 
ATOM     79  C   UNL A   1      46.992  28.599  36.268  1.00  0.00     0.001 A 
ATOM     80  C   UNL A   1      45.713  26.855  37.338  1.00  0.00     0.001 A 
ATOM     81  C   UNL A   1      46.897  27.578  37.212  1.00  0.00     0.000 A 
ENDBRANCH  57  76
BRANCH  69  82
ATOM     82  C   UNL A   1      39.061  32.233  35.997  1.00  0.00    -0.014 A 
ATOM     83  C   UNL A   1      38.161  31.720  36.941  1.00  0.00     0.009 A 
ATOM     84  C   UNL A   1      39.511  33.557  36.137  1.00  0.00     0.009 A 
ATOM     85  C   UNL A   1      37.703  32.523  37.988  1.00  0.00     0.001 A 
ATOM     86  C   UNL A   1      39.078  34.346  37.201  1.00  0.00     0.001 A 
ATOM     87  C   UNL A   1      38.168  33.831  38.123  1.00  0.00     0.000 A 
ENDBRANCH  69  82
ENDBRANCH  43  44
ENDBRANCH  36  38
ENDBRANCH  35  36
ENDBRANCH  34  35
ENDBRANCH  33  34
ENDBRANCH  32  33
ENDBRANCH  31  32
ENDBRANCH  30  31
ENDBRANCH  29  30
ENDBRANCH   1  29
TORSDOF 24
ENDMDL
MODEL 3
REMARK VINA RESULT:      -9.0      4.754     10.314
REMARK SMILES C[C@H]1C[N@H+]2CCCC[C@@H]2CN1C(=O)[C@H]([NH3+])CC(=O)OCCOCCOCCOCCOC(=O)c1ccc(-c2c3nc(c(-c4ccccc4)c4ccc([nH]4)c(-c4ccccc4)c4nc(c(-c5ccccc5)c5ccc2[nH]5)C=C4)C=C3)cc1
REMARK SMILES IDX 24 1 23 2 22 3 21 4 20 5 19 6 17 7 18 8 16 9 14 10 12 11
REMARK SMILES IDX 13 12 11 13 1 14 2 15 3 16 4 17 10 18 5 19 9 20 6 22 8 23
REMARK SMILES IDX 7 24 15 25 25 29 26 30 27 31 28 32 29 33 30 34 31 35 32 36
REMARK SMILES IDX 33 37 34 38 35 39 81 40 36 41 80 42 37 43 38 44 39 45 74 46
REMARK SMILES IDX 40 47 79 48 73 49 75 50 41 51 78 52 72 53 71 54 42 56 64 57
REMARK SMILES IDX 49 58 63 59 50 60 53 61 62 62 76 63 51 64 52 65 61 67 77 68
REMARK SMILES IDX 54 69 43 70 44 71 48 72 45 73 47 74 46 75 65 76 66 77 70 78
REMARK SMILES IDX 67 79 69 80 68 81 55 82 56 83 60 84 57 85 59 86 58 87
REMARK H PARENT 4 21 15 26 15 27 15 28 75 55 53 66
REMARK Flexibility Score: inf
ROOT
ATOM      1  C   UNL A   1      42.511  18.827  26.281  1.00  0.00     0.188 C 
ENDROOT
BRANCH   1   2
ATOM      2  C   UNL A   1      41.571  19.877  26.885  1.00  0.00     0.188 C 
BRANCH   2   3
ATOM      3  O   UNL A   1      40.822  20.726  26.036  1.00  0.00    -0.376 OA
BRANCH   3   4
ATOM      4  C   UNL A   1      40.122  21.854  26.553  1.00  0.00     0.202 C 
BRANCH   4   5
ATOM      5  C   UNL A   1      38.709  22.249  26.086  1.00  0.00     0.261 C 
BRANCH   5   6
ATOM      6  O   UNL A   1      38.099  21.312  25.186  1.00  0.00    -0.463 OA
BRANCH   6   7
ATOM      7  C   UNL A   1      36.890  21.664  24.697  1.00  0.00     0.312 C 
ATOM      8  O   UNL A   1      36.720  22.258  23.636  1.00  0.00    -0.252 OA
BRANCH   7   9
ATOM      9  C   UNL A   1      35.737  21.009  25.414  1.00  0.00     0.198 C 
BRANCH   9  10
ATOM     10  C   UNL A   1      34.562  20.324  24.728  1.00  0.00     0.282 C 
BRANCH  10  11
ATOM     11  C   UNL A   1      33.093  20.706  25.215  1.00  0.00     0.282 C 
ATOM     12  O   UNL A   1      32.336  19.765  25.497  1.00  0.00    -0.268 OA
BRANCH  11  13
ATOM     13  N   UNL A   1      32.611  22.014  25.287  1.00  0.00    -0.323 N 
ATOM     14  C   UNL A   1      33.358  22.268  27.756  1.00  0.00     0.037 C 
ATOM     15  C   UNL A   1      32.556  22.793  26.559  1.00  0.00     0.137 C 
ATOM     16  C   UNL A   1      33.000  24.298  26.352  1.00  0.00     0.287 C 
ATOM     17  N   UNL A   1      32.798  24.950  25.035  1.00  0.00    -0.329 N 
ATOM     18  C   UNL A   1      32.013  22.800  24.206  1.00  0.00     0.185 C 
ATOM     19  C   UNL A   1      33.741  26.070  24.872  1.00  0.00     0.262 C 
ATOM     20  C   UNL A   1      32.941  23.989  23.924  1.00  0.00     0.203 C 
ATOM     21  H   UNL A   1      31.845  25.310  25.007  1.00  0.00     0.348 HD
ATOM     22  C   UNL A   1      33.526  26.803  23.548  1.00  0.00     0.062 C 
ATOM     23  C   UNL A   1      32.639  24.661  22.580  1.00  0.00     0.067 C 
ATOM     24  C   UNL A   1      33.573  25.850  22.358  1.00  0.00     0.012 C 
ENDBRANCH  11  13
ENDBRANCH  10  11
BRANCH  10  25
ATOM     25  N   UNL A   1      34.710  18.852  24.759  1.00  0.00    -0.347 N 
ATOM     26  H   UNL A   1      33.878  18.435  25.178  1.00  0.00     0.345 HD
ATOM     27  H   UNL A   1      35.530  18.604  25.313  1.00  0.00     0.345 HD
ATOM     28  H   UNL A   1      34.823  18.501  23.808  1.00  0.00     0.345 HD
ENDBRANCH  10  25
ENDBRANCH   9  10
ENDBRANCH   7   9
ENDBRANCH   6   7
ENDBRANCH   5   6
ENDBRANCH   4   5
ENDBRANCH   3   4
ENDBRANCH   2   3
ENDBRANCH   1   2
BRANCH   1  29
ATOM     29  O   UNL A   1      43.020  19.135  25.001  1.00  0.00    -0.377 OA
BRANCH  29  30
ATOM     30  C   UNL A   1      44.408  19.418  24.857  1.00  0.00     0.188 C 
BRANCH  30  31
ATOM     31  C   UNL A   1      44.908  20.876  24.763  1.00  0.00     0.188 C 
BRANCH  31  32
ATOM     32  O   UNL A   1      43.970  21.798  24.238  1.00  0.00    -0.376 OA
BRANCH  32  33
ATOM     33  C   UNL A   1      44.137  23.182  24.499  1.00  0.00     0.202 C 
BRANCH  33  34
ATOM     34  C   UNL A   1      43.016  23.933  25.234  1.00  0.00     0.261 C 
BRANCH  34  35
ATOM     35  O   UNL A   1      43.371  25.171  25.868  1.00  0.00    -0.460 OA
BRANCH  35  36
ATOM     36  C   UNL A   1      42.497  26.195  25.834  1.00  0.00     0.338 C 
ATOM     37  O   UNL A   1      41.754  26.508  24.917  1.00  0.00    -0.246 OA
BRANCH  36  38
ATOM     38  C   UNL A   1      42.447  26.777  27.190  1.00  0.00     0.060 A 
ATOM     39  C   UNL A   1      41.703  26.136  28.190  1.00  0.00     0.016 A 
ATOM     40  C   UNL A   1      43.133  27.961  27.466  1.00  0.00     0.016 A 
ATOM     41  C   UNL A   1      41.603  26.705  29.461  1.00  0.00     0.010 A 
ATOM     42  C   UNL A   1      43.015  28.540  28.729  1.00  0.00     0.010 A 
ATOM     43  C   UNL A   1      42.216  27.937  29.718  1.00  0.00    -0.014 A 
BRANCH  43  44
ATOM     44  C   UNL A   1      41.838  28.730  30.912  1.00  0.00     0.031 A 
ATOM     45  C   UNL A   1      40.646  29.641  30.794  1.00  0.00     0.074 A 
ATOM     46  C   UNL A   1      42.535  28.671  32.059  1.00  0.00     0.049 A 
ATOM     47  N   UNL A   1      40.206  30.548  31.626  1.00  0.00    -0.248 NA
ATOM     48  C   UNL A   1      39.849  29.516  29.560  1.00  0.00     0.031 C 
ATOM     49  C   UNL A   1      43.669  27.788  32.321  1.00  0.00     0.029 A 
ATOM     50  N   UNL A   1      42.396  29.398  33.215  1.00  0.00    -0.354 N 
ATOM     51  C   UNL A   1      39.096  31.112  31.009  1.00  0.00     0.074 A 
ATOM     52  C   UNL A   1      38.945  30.468  29.724  1.00  0.00     0.031 C 
ATOM     53  C   UNL A   1      44.144  28.047  33.553  1.00  0.00     0.029 A 
ATOM     54  C   UNL A   1      43.377  29.143  34.144  1.00  0.00     0.049 A 
ATOM     55  H   UNL A   1      41.666  30.041  33.365  1.00  0.00     0.167 HD
ATOM     56  C   UNL A   1      38.272  32.082  31.472  1.00  0.00     0.031 A 
ATOM     57  C   UNL A   1      43.647  29.756  35.314  1.00  0.00     0.031 A 
ATOM     58  C   UNL A   1      38.437  32.737  32.740  1.00  0.00     0.049 A 
ATOM     59  C   UNL A   1      42.774  30.901  35.767  1.00  0.00     0.074 A 
ATOM     60  C   UNL A   1      37.664  33.739  33.299  1.00  0.00     0.029 A 
ATOM     61  N   UNL A   1      39.451  32.459  33.642  1.00  0.00    -0.354 N 
ATOM     62  N   UNL A   1      41.725  31.426  35.181  1.00  0.00    -0.248 NA
ATOM     63  C   UNL A   1      43.122  31.536  37.048  1.00  0.00     0.031 C 
ATOM     64  C   UNL A   1      38.244  34.106  34.516  1.00  0.00     0.029 A 
ATOM     65  C   UNL A   1      39.334  33.281  34.748  1.00  0.00     0.049 A 
ATOM     66  H   UNL A   1      40.152  31.778  33.515  1.00  0.00     0.167 HD
ATOM     67  C   UNL A   1      41.265  32.419  36.041  1.00  0.00     0.074 A 
ATOM     68  C   UNL A   1      42.144  32.419  37.190  1.00  0.00     0.031 C 
ATOM     69  C   UNL A   1      40.205  33.251  35.894  1.00  0.00     0.031 A 
BRANCH  56  70
ATOM     70  C   UNL A   1      37.140  32.511  30.583  1.00  0.00    -0.014 A 
ATOM     71  C   UNL A   1      35.847  31.987  30.740  1.00  0.00     0.009 A 
ATOM     72  C   UNL A   1      37.363  33.480  29.591  1.00  0.00     0.009 A 
ATOM     73  C   UNL A   1      34.809  32.398  29.901  1.00  0.00     0.001 A 
ATOM     74  C   UNL A   1      36.317  33.914  28.775  1.00  0.00     0.001 A 
ATOM     75  C   UNL A   1      35.043  33.366  28.925  1.00  0.00     0.000 A 
ENDBRANCH  56  70
BRANCH  57  76
ATOM     76  C   UNL A   1      44.822  29.338  36.128  1.00  0.00    -0.014 A 
ATOM     77  C   UNL A   1      46.074  29.946  35.948  1.00  0.00     0.009 A 
ATOM     78  C   UNL A   1      44.705  28.296  37.062  1.00  0.00     0.009 A 
ATOM     79  C   UNL A   1      47.189  29.495  36.659  1.00  0.00     0.001 A 
ATOM     80  C   UNL A   1      45.814  27.871  37.796  1.00  0.00     0.001 A 
ATOM     81  C   UNL A   1      47.058  28.461  37.584  1.00  0.00     0.000 A 
ENDBRANCH  57  76
BRANCH  69  82
ATOM     82  C   UNL A   1      39.880  34.183  37.031  1.00  0.00    -0.014 A 
ATOM     83  C   UNL A   1      40.286  35.524  37.026  1.00  0.00     0.009 A 
ATOM     84  C   UNL A   1      39.079  33.719  38.088  1.00  0.00     0.009 A 
ATOM     85  C   UNL A   1      39.918  36.376  38.071  1.00  0.00     0.001 A 
ATOM     86  C   UNL A   1      38.686  34.578  39.112  1.00  0.00     0.001 A 
ATOM     87  C   UNL A   1      39.112  35.906  39.107  1.00  0.00     0.000 A 
ENDBRANCH  69  82
ENDBRANCH  43  44
ENDBRANCH  36  38
ENDBRANCH  35  36
ENDBRANCH  34  35
ENDBRANCH  33  34
ENDBRANCH  32  33
ENDBRANCH  31  32
ENDBRANCH  30  31
ENDBRANCH  29  30
ENDBRANCH   1  29
TORSDOF 24
ENDMDL
