MODEL 1
REMARK VINA RESULT:     -10.4      0.000      0.000
REMARK SMILES Cc1ccc(Nc2c(Cl)cccc2Cl)c(CC(=O)OCCOCCOCCOCCOC(=O)c2ccc(-c3c4nc(c(-c5ccccc5)c5ccc([nH]5)c(-c5ccccc5)c5nc(c(-c6ccccc6)c6ccc3[nH]6)C=C5)C=C4)cc2)c1
REMARK SMILES IDX 24 1 23 2 22 3 21 4 20 5 19 6 17 7 18 8 16 9 15 10 1 11 2 12
REMARK SMILES IDX 3 13 82 14 4 15 5 16 6 17 7 19 8 20 13 21 9 22 10 23 12 24
REMARK SMILES IDX 14 25 11 26 25 27 26 28 27 29 28 30 29 31 30 32 31 33 32 34
REMARK SMILES IDX 33 35 34 36 35 37 81 38 36 39 80 40 37 41 38 42 39 43 74 44
REMARK SMILES IDX 40 45 79 46 73 47 75 48 41 49 78 50 72 51 71 52 42 54 64 55
REMARK SMILES IDX 49 56 63 57 50 58 53 59 62 60 76 61 51 62 52 63 61 65 77 66
REMARK SMILES IDX 54 67 43 68 44 69 48 70 45 71 47 72 46 73 65 74 66 75 70 76
REMARK SMILES IDX 67 77 69 78 68 79 55 80 56 81 60 82 57 83 59 84 58 85
REMARK H PARENT 6 18 75 53 53 64
REMARK Flexibility Score: inf
ROOT
ATOM      1  C   UNL A   1      36.047  31.327  28.680  1.00  0.00     0.188 C 
ENDROOT
BRANCH   1   2
ATOM      2  C   UNL A   1      35.524  30.615  27.462  1.00  0.00     0.188 C 
BRANCH   2   3
ATOM      3  O   UNL A   1      34.357  29.825  27.576  1.00  0.00    -0.376 OA
BRANCH   3   4
ATOM      4  C   UNL A   1      33.214  30.533  27.150  1.00  0.00     0.202 C 
BRANCH   4   5
ATOM      5  C   UNL A   1      32.173  29.739  26.372  1.00  0.00     0.261 C 
BRANCH   5   6
ATOM      6  O   UNL A   1      32.550  28.361  26.236  1.00  0.00    -0.463 OA
BRANCH   6   7
ATOM      7  C   UNL A   1      31.689  27.491  26.807  1.00  0.00     0.310 C 
ATOM      8  O   UNL A   1      31.123  27.689  27.879  1.00  0.00    -0.252 OA
BRANCH   7   9
ATOM      9  C   UNL A   1      31.486  26.205  26.045  1.00  0.00     0.160 C 
BRANCH   9  10
ATOM     10  C   UNL A   1      32.556  25.660  25.107  1.00  0.00    -0.013 A 
ATOM     11  C   UNL A   1      35.864  23.801  25.789  1.00  0.00     0.044 C 
ATOM     12  C   UNL A   1      34.728  24.471  25.078  1.00  0.00    -0.051 A 
ATOM     13  C   UNL A   1      34.640  24.401  23.698  1.00  0.00     0.005 A 
ATOM     14  C   UNL A   1      33.708  25.135  25.765  1.00  0.00     0.009 A 
ATOM     15  C   UNL A   1      33.558  24.982  23.027  1.00  0.00     0.026 A 
ATOM     16  C   UNL A   1      32.464  25.585  23.683  1.00  0.00     0.042 A 
BRANCH  16  17
ATOM     17  N   UNL A   1      31.353  26.108  22.923  1.00  0.00    -0.353 N 
ATOM     18  H   UNL A   1      31.030  25.525  22.199  1.00  0.00     0.167 HD
BRANCH  17  19
ATOM     19  C   UNL A   1      30.642  27.361  23.068  1.00  0.00     0.076 A 
ATOM     20  C   UNL A   1      29.267  27.452  23.333  1.00  0.00     0.066 A 
ATOM     21  C   UNL A   1      31.251  28.581  22.678  1.00  0.00     0.066 A 
ATOM     22  Cl  UNL A   1      28.474  26.297  24.354  1.00  0.00    -0.082 Cl
ATOM     23  C   UNL A   1      28.501  28.546  22.890  1.00  0.00     0.023 A 
ATOM     24  C   UNL A   1      30.493  29.658  22.180  1.00  0.00     0.023 A 
ATOM     25  Cl  UNL A   1      32.974  28.788  22.753  1.00  0.00    -0.082 Cl
ATOM     26  C   UNL A   1      29.105  29.612  22.231  1.00  0.00     0.003 A 
ENDBRANCH  17  19
ENDBRANCH  16  17
ENDBRANCH   9  10
ENDBRANCH   7   9
ENDBRANCH   6   7
ENDBRANCH   5   6
ENDBRANCH   4   5
ENDBRANCH   3   4
ENDBRANCH   2   3
ENDBRANCH   1   2
BRANCH   1  27
ATOM     27  O   UNL A   1      35.839  32.729  28.736  1.00  0.00    -0.377 OA
BRANCH  27  28
ATOM     28  C   UNL A   1      34.446  33.040  28.870  1.00  0.00     0.188 C 
BRANCH  28  29
ATOM     29  C   UNL A   1      33.953  34.370  28.285  1.00  0.00     0.188 C 
BRANCH  29  30
ATOM     30  O   UNL A   1      32.855  34.847  29.050  1.00  0.00    -0.376 OA
BRANCH  30  31
ATOM     31  C   UNL A   1      32.913  36.173  29.562  1.00  0.00     0.202 C 
BRANCH  31  32
ATOM     32  C   UNL A   1      32.659  36.094  31.064  1.00  0.00     0.261 C 
BRANCH  32  33
ATOM     33  O   UNL A   1      33.576  36.997  31.727  1.00  0.00    -0.460 OA
BRANCH  33  34
ATOM     34  C   UNL A   1      33.936  36.595  32.984  1.00  0.00     0.338 C 
ATOM     35  O   UNL A   1      33.889  37.290  33.979  1.00  0.00    -0.246 OA
BRANCH  34  36
ATOM     36  C   UNL A   1      34.625  35.264  32.938  1.00  0.00     0.060 A 
ATOM     37  C   UNL A   1      34.668  34.481  34.106  1.00  0.00     0.016 A 
ATOM     38  C   UNL A   1      35.436  34.917  31.861  1.00  0.00     0.016 A 
ATOM     39  C   UNL A   1      35.617  33.454  34.246  1.00  0.00     0.010 A 
ATOM     40  C   UNL A   1      36.400  33.927  32.025  1.00  0.00     0.010 A 
ATOM     41  C   UNL A   1      36.552  33.229  33.238  1.00  0.00    -0.014 A 
BRANCH  41  42
ATOM     42  C   UNL A   1      37.806  32.451  33.399  1.00  0.00     0.031 A 
ATOM     43  C   UNL A   1      37.902  31.062  32.842  1.00  0.00     0.074 A 
ATOM     44  C   UNL A   1      38.955  33.133  33.664  1.00  0.00     0.049 A 
ATOM     45  N   UNL A   1      38.980  30.348  32.832  1.00  0.00    -0.248 NA
ATOM     46  C   UNL A   1      36.786  30.355  32.207  1.00  0.00     0.031 C 
ATOM     47  C   UNL A   1      40.320  32.795  33.238  1.00  0.00     0.029 A 
ATOM     48  N   UNL A   1      39.170  34.312  34.363  1.00  0.00    -0.354 N 
ATOM     49  C   UNL A   1      38.831  29.368  31.870  1.00  0.00     0.074 A 
ATOM     50  C   UNL A   1      37.409  29.321  31.625  1.00  0.00     0.031 C 
ATOM     51  C   UNL A   1      41.210  33.662  33.745  1.00  0.00     0.029 A 
ATOM     52  C   UNL A   1      40.503  34.345  34.796  1.00  0.00     0.049 A 
ATOM     53  H   UNL A   1      38.496  35.010  34.530  1.00  0.00     0.167 HD
ATOM     54  C   UNL A   1      39.942  28.854  31.256  1.00  0.00     0.031 A 
ATOM     55  C   UNL A   1      40.826  34.226  36.119  1.00  0.00     0.031 A 
ATOM     56  C   UNL A   1      41.206  29.253  31.914  1.00  0.00     0.049 A 
ATOM     57  C   UNL A   1      41.543  32.900  36.397  1.00  0.00     0.074 A 
ATOM     58  C   UNL A   1      42.462  29.670  31.495  1.00  0.00     0.029 A 
ATOM     59  N   UNL A   1      41.231  29.379  33.302  1.00  0.00    -0.354 N 
ATOM     60  N   UNL A   1      41.621  31.923  35.523  1.00  0.00    -0.248 NA
ATOM     61  C   UNL A   1      42.258  32.557  37.619  1.00  0.00     0.031 C 
ATOM     62  C   UNL A   1      43.191  30.124  32.637  1.00  0.00     0.029 A 
ATOM     63  C   UNL A   1      42.424  29.881  33.762  1.00  0.00     0.049 A 
ATOM     64  H   UNL A   1      40.478  29.135  33.886  1.00  0.00     0.167 HD
ATOM     65  C   UNL A   1      42.405  30.903  35.976  1.00  0.00     0.074 A 
ATOM     66  C   UNL A   1      42.729  31.325  37.330  1.00  0.00     0.031 C 
ATOM     67  C   UNL A   1      42.711  29.819  35.194  1.00  0.00     0.031 A 
BRANCH  54  68
ATOM     68  C   UNL A   1      39.922  28.113  29.918  1.00  0.00    -0.014 A 
ATOM     69  C   UNL A   1      39.251  26.878  29.809  1.00  0.00     0.009 A 
ATOM     70  C   UNL A   1      40.634  28.511  28.769  1.00  0.00     0.009 A 
ATOM     71  C   UNL A   1      39.302  26.086  28.647  1.00  0.00     0.001 A 
ATOM     72  C   UNL A   1      40.651  27.748  27.585  1.00  0.00     0.001 A 
ATOM     73  C   UNL A   1      39.994  26.528  27.528  1.00  0.00     0.000 A 
ENDBRANCH  54  68
BRANCH  55  74
ATOM     74  C   UNL A   1      39.890  35.047  36.957  1.00  0.00    -0.014 A 
ATOM     75  C   UNL A   1      39.098  34.285  37.854  1.00  0.00     0.009 A 
ATOM     76  C   UNL A   1      40.240  36.353  37.342  1.00  0.00     0.009 A 
ATOM     77  C   UNL A   1      38.899  34.705  39.175  1.00  0.00     0.001 A 
ATOM     78  C   UNL A   1      40.001  36.783  38.662  1.00  0.00     0.001 A 
ATOM     79  C   UNL A   1      39.396  35.934  39.593  1.00  0.00     0.000 A 
ENDBRANCH  55  74
BRANCH  67  80
ATOM     80  C   UNL A   1      43.263  28.492  35.669  1.00  0.00    -0.014 A 
ATOM     81  C   UNL A   1      42.564  27.290  35.701  1.00  0.00     0.009 A 
ATOM     82  C   UNL A   1      44.615  28.442  36.104  1.00  0.00     0.009 A 
ATOM     83  C   UNL A   1      43.212  26.090  36.031  1.00  0.00     0.001 A 
ATOM     84  C   UNL A   1      45.261  27.258  36.449  1.00  0.00     0.001 A 
ATOM     85  C   UNL A   1      44.561  26.071  36.384  1.00  0.00     0.000 A 
ENDBRANCH  67  80
ENDBRANCH  41  42
ENDBRANCH  34  36
ENDBRANCH  33  34
ENDBRANCH  32  33
ENDBRANCH  31  32
ENDBRANCH  30  31
ENDBRANCH  29  30
ENDBRANCH  28  29
ENDBRANCH  27  28
ENDBRANCH   1  27
TORSDOF 23
ENDMDL
MODEL 2
REMARK VINA RESULT:      -9.8      3.938      8.960
REMARK SMILES Cc1ccc(Nc2c(Cl)cccc2Cl)c(CC(=O)OCCOCCOCCOCCOC(=O)c2ccc(-c3c4nc(c(-c5ccccc5)c5ccc([nH]5)c(-c5ccccc5)c5nc(c(-c6ccccc6)c6ccc3[nH]6)C=C5)C=C4)cc2)c1
REMARK SMILES IDX 24 1 23 2 22 3 21 4 20 5 19 6 17 7 18 8 16 9 15 10 1 11 2 12
REMARK SMILES IDX 3 13 82 14 4 15 5 16 6 17 7 19 8 20 13 21 9 22 10 23 12 24
REMARK SMILES IDX 14 25 11 26 25 27 26 28 27 29 28 30 29 31 30 32 31 33 32 34
REMARK SMILES IDX 33 35 34 36 35 37 81 38 36 39 80 40 37 41 38 42 39 43 74 44
REMARK SMILES IDX 40 45 79 46 73 47 75 48 41 49 78 50 72 51 71 52 42 54 64 55
REMARK SMILES IDX 49 56 63 57 50 58 53 59 62 60 76 61 51 62 52 63 61 65 77 66
REMARK SMILES IDX 54 67 43 68 44 69 48 70 45 71 47 72 46 73 65 74 66 75 70 76
REMARK SMILES IDX 67 77 69 78 68 79 55 80 56 81 60 82 57 83 59 84 58 85
REMARK H PARENT 6 18 75 53 53 64
REMARK Flexibility Score: inf
ROOT
ATOM      1  C   UNL A   1      33.816  22.511  23.633  1.00  0.00     0.188 C 
ENDROOT
BRANCH   1   2
ATOM      2  C   UNL A   1      33.100  23.026  24.852  1.00  0.00     0.188 C 
BRANCH   2   3
ATOM      3  O   UNL A   1      31.914  22.384  25.273  1.00  0.00    -0.376 OA
BRANCH   3   4
ATOM      4  C   UNL A   1      30.817  23.271  25.255  1.00  0.00     0.202 C 
BRANCH   4   5
ATOM      5  C   UNL A   1      30.670  24.196  26.456  1.00  0.00     0.261 C 
BRANCH   5   6
ATOM      6  O   UNL A   1      29.889  25.358  26.137  1.00  0.00    -0.463 OA
BRANCH   6   7
ATOM      7  C   UNL A   1      30.579  26.518  26.179  1.00  0.00     0.310 C 
ATOM      8  O   UNL A   1      31.187  26.920  27.168  1.00  0.00    -0.252 OA
BRANCH   7   9
ATOM      9  C   UNL A   1      30.524  27.336  24.913  1.00  0.00     0.160 C 
BRANCH   9  10
ATOM     10  C   UNL A   1      31.714  27.412  23.965  1.00  0.00    -0.013 A 
ATOM     11  C   UNL A   1      32.865  25.107  21.096  1.00  0.00     0.044 C 
ATOM     12  C   UNL A   1      32.809  26.236  22.080  1.00  0.00    -0.051 A 
ATOM     13  C   UNL A   1      33.684  27.302  21.959  1.00  0.00     0.005 A 
ATOM     14  C   UNL A   1      31.861  26.282  23.106  1.00  0.00     0.009 A 
ATOM     15  C   UNL A   1      33.610  28.383  22.844  1.00  0.00     0.026 A 
ATOM     16  C   UNL A   1      32.616  28.513  23.837  1.00  0.00     0.042 A 
BRANCH  16  17
ATOM     17  N   UNL A   1      32.566  29.690  24.672  1.00  0.00    -0.353 N 
ATOM     18  H   UNL A   1      32.147  30.480  24.259  1.00  0.00     0.167 HD
BRANCH  17  19
ATOM     19  C   UNL A   1      33.039  29.884  26.027  1.00  0.00     0.076 A 
ATOM     20  C   UNL A   1      32.775  31.032  26.790  1.00  0.00     0.066 A 
ATOM     21  C   UNL A   1      34.034  29.031  26.568  1.00  0.00     0.066 A 
ATOM     22  Cl  UNL A   1      31.260  31.866  26.656  1.00  0.00    -0.082 Cl
ATOM     23  C   UNL A   1      33.666  31.481  27.781  1.00  0.00     0.023 A 
ATOM     24  C   UNL A   1      34.965  29.493  27.518  1.00  0.00     0.023 A 
ATOM     25  Cl  UNL A   1      34.181  27.380  26.048  1.00  0.00    -0.082 Cl
ATOM     26  C   UNL A   1      34.813  30.753  28.083  1.00  0.00     0.003 A 
ENDBRANCH  17  19
ENDBRANCH  16  17
ENDBRANCH   9  10
ENDBRANCH   7   9
ENDBRANCH   6   7
ENDBRANCH   5   6
ENDBRANCH   4   5
ENDBRANCH   3   4
ENDBRANCH   2   3
ENDBRANCH   1   2
BRANCH   1  27
ATOM     27  O   UNL A   1      35.044  23.140  23.303  1.00  0.00    -0.377 OA
BRANCH  27  28
ATOM     28  C   UNL A   1      35.407  24.115  24.289  1.00  0.00     0.188 C 
BRANCH  28  29
ATOM     29  C   UNL A   1      36.619  23.813  25.178  1.00  0.00     0.188 C 
BRANCH  29  30
ATOM     30  O   UNL A   1      37.366  22.743  24.617  1.00  0.00    -0.376 OA
BRANCH  30  31
ATOM     31  C   UNL A   1      37.426  21.514  25.331  1.00  0.00     0.202 C 
BRANCH  31  32
ATOM     32  C   UNL A   1      38.896  21.227  25.624  1.00  0.00     0.261 C 
BRANCH  32  33
ATOM     33  O   UNL A   1      39.293  22.018  26.768  1.00  0.00    -0.460 OA
BRANCH  33  34
ATOM     34  C   UNL A   1      40.439  22.739  26.571  1.00  0.00     0.338 C 
ATOM     35  O   UNL A   1      41.540  22.263  26.377  1.00  0.00    -0.246 OA
BRANCH  34  36
ATOM     36  C   UNL A   1      40.208  24.192  26.865  1.00  0.00     0.060 A 
ATOM     37  C   UNL A   1      40.982  25.153  26.192  1.00  0.00     0.016 A 
ATOM     38  C   UNL A   1      39.447  24.585  27.963  1.00  0.00     0.016 A 
ATOM     39  C   UNL A   1      41.108  26.458  26.701  1.00  0.00     0.010 A 
ATOM     40  C   UNL A   1      39.610  25.866  28.483  1.00  0.00     0.010 A 
ATOM     41  C   UNL A   1      40.492  26.797  27.903  1.00  0.00    -0.014 A 
BRANCH  41  42
ATOM     42  C   UNL A   1      40.828  27.987  28.725  1.00  0.00     0.031 A 
ATOM     43  C   UNL A   1      39.976  29.218  28.642  1.00  0.00     0.074 A 
ATOM     44  C   UNL A   1      41.622  27.809  29.818  1.00  0.00     0.049 A 
ATOM     45  N   UNL A   1      40.117  30.260  29.394  1.00  0.00    -0.248 NA
ATOM     46  C   UNL A   1      38.851  29.375  27.716  1.00  0.00     0.031 C 
ATOM     47  C   UNL A   1      41.580  28.545  31.088  1.00  0.00     0.029 A 
ATOM     48  N   UNL A   1      42.645  26.905  30.058  1.00  0.00    -0.354 N 
ATOM     49  C   UNL A   1      38.931  30.966  29.369  1.00  0.00     0.074 A 
ATOM     50  C   UNL A   1      38.241  30.464  28.205  1.00  0.00     0.031 C 
ATOM     51  C   UNL A   1      42.560  28.141  31.910  1.00  0.00     0.029 A 
ATOM     52  C   UNL A   1      43.473  27.416  31.067  1.00  0.00     0.049 A 
ATOM     53  H   UNL A   1      42.771  26.044  29.596  1.00  0.00     0.167 HD
ATOM     54  C   UNL A   1      38.590  31.746  30.442  1.00  0.00     0.031 A 
ATOM     55  C   UNL A   1      44.746  27.839  30.799  1.00  0.00     0.031 A 
ATOM     56  C   UNL A   1      39.700  31.929  31.403  1.00  0.00     0.049 A 
ATOM     57  C   UNL A   1      44.867  29.360  30.952  1.00  0.00     0.074 A 
ATOM     58  C   UNL A   1      39.834  31.932  32.785  1.00  0.00     0.029 A 
ATOM     59  N   UNL A   1      41.001  32.029  30.916  1.00  0.00    -0.354 N 
ATOM     60  N   UNL A   1      43.833  30.157  31.092  1.00  0.00    -0.248 NA
ATOM     61  C   UNL A   1      46.112  30.114  31.005  1.00  0.00     0.031 C 
ATOM     62  C   UNL A   1      41.227  31.945  33.103  1.00  0.00     0.029 A 
ATOM     63  C   UNL A   1      41.937  32.063  31.921  1.00  0.00     0.049 A 
ATOM     64  H   UNL A   1      41.225  32.072  29.959  1.00  0.00     0.167 HD
ATOM     65  C   UNL A   1      44.218  31.445  31.320  1.00  0.00     0.074 A 
ATOM     66  C   UNL A   1      45.665  31.375  31.190  1.00  0.00     0.031 C 
ATOM     67  C   UNL A   1      43.312  32.437  31.594  1.00  0.00     0.031 A 
BRANCH  54  68
ATOM     68  C   UNL A   1      37.168  32.222  30.744  1.00  0.00    -0.014 A 
ATOM     69  C   UNL A   1      36.679  33.402  30.146  1.00  0.00     0.009 A 
ATOM     70  C   UNL A   1      36.306  31.628  31.688  1.00  0.00     0.009 A 
ATOM     71  C   UNL A   1      35.433  33.961  30.478  1.00  0.00     0.001 A 
ATOM     72  C   UNL A   1      35.035  32.155  31.990  1.00  0.00     0.001 A 
ATOM     73  C   UNL A   1      34.603  33.330  31.394  1.00  0.00     0.000 A 
ENDBRANCH  54  68
BRANCH  55  74
ATOM     74  C   UNL A   1      45.429  26.873  29.877  1.00  0.00    -0.014 A 
ATOM     75  C   UNL A   1      45.452  25.536  30.352  1.00  0.00     0.009 A 
ATOM     76  C   UNL A   1      45.391  27.072  28.485  1.00  0.00     0.009 A 
ATOM     77  C   UNL A   1      45.176  24.463  29.496  1.00  0.00     0.001 A 
ATOM     78  C   UNL A   1      45.152  25.980  27.627  1.00  0.00     0.001 A 
ATOM     79  C   UNL A   1      44.975  24.692  28.140  1.00  0.00     0.000 A 
ENDBRANCH  55  74
BRANCH  67  80
ATOM     80  C   UNL A   1      43.559  33.929  31.525  1.00  0.00    -0.014 A 
ATOM     81  C   UNL A   1      43.230  34.754  30.455  1.00  0.00     0.009 A 
ATOM     82  C   UNL A   1      44.159  34.566  32.645  1.00  0.00     0.009 A 
ATOM     83  C   UNL A   1      43.378  36.146  30.549  1.00  0.00     0.001 A 
ATOM     84  C   UNL A   1      44.325  35.944  32.740  1.00  0.00     0.001 A 
ATOM     85  C   UNL A   1      43.905  36.741  31.695  1.00  0.00     0.000 A 
ENDBRANCH  67  80
ENDBRANCH  41  42
ENDBRANCH  34  36
ENDBRANCH  33  34
ENDBRANCH  32  33
ENDBRANCH  31  32
ENDBRANCH  30  31
ENDBRANCH  29  30
ENDBRANCH  28  29
ENDBRANCH  27  28
ENDBRANCH   1  27
TORSDOF 23
ENDMDL
MODEL 3
REMARK VINA RESULT:      -9.8      6.098     11.001
REMARK SMILES Cc1ccc(Nc2c(Cl)cccc2Cl)c(CC(=O)OCCOCCOCCOCCOC(=O)c2ccc(-c3c4nc(c(-c5ccccc5)c5ccc([nH]5)c(-c5ccccc5)c5nc(c(-c6ccccc6)c6ccc3[nH]6)C=C5)C=C4)cc2)c1
REMARK SMILES IDX 24 1 23 2 22 3 21 4 20 5 19 6 17 7 18 8 16 9 15 10 1 11 2 12
REMARK SMILES IDX 3 13 82 14 4 15 5 16 6 17 7 19 8 20 13 21 9 22 10 23 12 24
REMARK SMILES IDX 14 25 11 26 25 27 26 28 27 29 28 30 29 31 30 32 31 33 32 34
REMARK SMILES IDX 33 35 34 36 35 37 81 38 36 39 80 40 37 41 38 42 39 43 74 44
REMARK SMILES IDX 40 45 79 46 73 47 75 48 41 49 78 50 72 51 71 52 42 54 64 55
REMARK SMILES IDX 49 56 63 57 50 58 53 59 62 60 76 61 51 62 52 63 61 65 77 66
REMARK SMILES IDX 54 67 43 68 44 69 48 70 45 71 47 72 46 73 65 74 66 75 70 76
REMARK SMILES IDX 67 77 69 78 68 79 55 80 56 81 60 82 57 83 59 84 58 85
REMARK H PARENT 6 18 75 53 53 64
REMARK Flexibility Score: inf
ROOT
ATOM      1  C   UNL A   1      38.507  23.191  26.221  1.00  0.00     0.188 C 
ENDROOT
BRANCH   1   2
ATOM      2  C   UNL A   1      37.390  23.700  25.351  1.00  0.00     0.188 C 
BRANCH   2   3
ATOM      3  O   UNL A   1      36.935  22.899  24.280  1.00  0.00    -0.376 OA
BRANCH   3   4
ATOM      4  C   UNL A   1      35.526  22.855  24.234  1.00  0.00     0.202 C 
BRANCH   4   5
ATOM      5  C   UNL A   1      34.865  23.459  23.002  1.00  0.00     0.261 C 
BRANCH   5   6
ATOM      6  O   UNL A   1      34.241  24.717  23.297  1.00  0.00    -0.463 OA
BRANCH   6   7
ATOM      7  C   UNL A   1      33.358  25.132  22.363  1.00  0.00     0.310 C 
ATOM      8  O   UNL A   1      33.652  25.852  21.412  1.00  0.00    -0.252 OA
BRANCH   7   9
ATOM      9  C   UNL A   1      31.937  24.678  22.586  1.00  0.00     0.160 C 
BRANCH   9  10
ATOM     10  C   UNL A   1      31.475  24.150  23.939  1.00  0.00    -0.013 A 
ATOM     11  C   UNL A   1      31.986  20.747  25.678  1.00  0.00     0.044 C 
ATOM     12  C   UNL A   1      31.546  22.152  25.401  1.00  0.00    -0.051 A 
ATOM     13  C   UNL A   1      30.940  22.895  26.399  1.00  0.00     0.005 A 
ATOM     14  C   UNL A   1      31.770  22.772  24.169  1.00  0.00     0.009 A 
ATOM     15  C   UNL A   1      30.568  24.224  26.166  1.00  0.00     0.026 A 
ATOM     16  C   UNL A   1      30.852  24.917  24.971  1.00  0.00     0.042 A 
BRANCH  16  17
ATOM     17  N   UNL A   1      30.493  26.309  24.828  1.00  0.00    -0.353 N 
ATOM     18  H   UNL A   1      29.544  26.515  24.994  1.00  0.00     0.167 HD
BRANCH  17  19
ATOM     19  C   UNL A   1      31.318  27.446  24.477  1.00  0.00     0.076 A 
ATOM     20  C   UNL A   1      31.081  28.269  23.366  1.00  0.00     0.066 A 
ATOM     21  C   UNL A   1      32.582  27.631  25.092  1.00  0.00     0.066 A 
ATOM     22  Cl  UNL A   1      29.466  28.634  22.850  1.00  0.00    -0.082 Cl
ATOM     23  C   UNL A   1      32.129  28.931  22.701  1.00  0.00     0.023 A 
ATOM     24  C   UNL A   1      33.651  28.243  24.410  1.00  0.00     0.023 A 
ATOM     25  Cl  UNL A   1      32.886  27.069  26.707  1.00  0.00    -0.082 Cl
ATOM     26  C   UNL A   1      33.434  28.844  23.176  1.00  0.00     0.003 A 
ENDBRANCH  17  19
ENDBRANCH  16  17
ENDBRANCH   9  10
ENDBRANCH   7   9
ENDBRANCH   6   7
ENDBRANCH   5   6
ENDBRANCH   4   5
ENDBRANCH   3   4
ENDBRANCH   2   3
ENDBRANCH   1   2
BRANCH   1  27
ATOM     27  O   UNL A   1      38.651  21.784  26.314  1.00  0.00    -0.377 OA
BRANCH  27  28
ATOM     28  C   UNL A   1      40.023  21.417  26.514  1.00  0.00     0.188 C 
BRANCH  28  29
ATOM     29  C   UNL A   1      40.494  20.077  25.935  1.00  0.00     0.188 C 
BRANCH  29  30
ATOM     30  O   UNL A   1      41.606  19.602  26.680  1.00  0.00    -0.376 OA
BRANCH  30  31
ATOM     31  C   UNL A   1      42.353  18.509  26.159  1.00  0.00     0.202 C 
BRANCH  31  32
ATOM     32  C   UNL A   1      43.509  19.089  25.349  1.00  0.00     0.261 C 
BRANCH  32  33
ATOM     33  O   UNL A   1      43.746  20.443  25.802  1.00  0.00    -0.460 OA
BRANCH  33  34
ATOM     34  C   UNL A   1      44.380  21.231  24.881  1.00  0.00     0.338 C 
ATOM     35  O   UNL A   1      44.668  20.891  23.751  1.00  0.00    -0.246 OA
BRANCH  34  36
ATOM     36  C   UNL A   1      44.892  22.487  25.522  1.00  0.00     0.060 A 
ATOM     37  C   UNL A   1      44.648  22.699  26.890  1.00  0.00     0.016 A 
ATOM     38  C   UNL A   1      45.357  23.546  24.746  1.00  0.00     0.016 A 
ATOM     39  C   UNL A   1      44.729  23.990  27.442  1.00  0.00     0.010 A 
ATOM     40  C   UNL A   1      45.393  24.826  25.290  1.00  0.00     0.010 A 
ATOM     41  C   UNL A   1      45.015  25.080  26.622  1.00  0.00    -0.014 A 
BRANCH  41  42
ATOM     42  C   UNL A   1      44.776  26.500  26.981  1.00  0.00     0.031 A 
ATOM     43  C   UNL A   1      43.401  27.084  26.849  1.00  0.00     0.074 A 
ATOM     44  C   UNL A   1      45.676  27.116  27.798  1.00  0.00     0.049 A 
ATOM     45  N   UNL A   1      43.067  28.271  27.238  1.00  0.00    -0.248 NA
ATOM     46  C   UNL A   1      42.255  26.362  26.289  1.00  0.00     0.031 C 
ATOM     47  C   UNL A   1      45.415  28.161  28.796  1.00  0.00     0.029 A 
ATOM     48  N   UNL A   1      47.043  26.933  27.943  1.00  0.00    -0.354 N 
ATOM     49  C   UNL A   1      41.695  28.297  27.390  1.00  0.00     0.074 A 
ATOM     50  C   UNL A   1      41.231  27.150  26.647  1.00  0.00     0.031 C 
ATOM     51  C   UNL A   1      46.556  28.578  29.365  1.00  0.00     0.029 A 
ATOM     52  C   UNL A   1      47.598  28.093  28.499  1.00  0.00     0.049 A 
ATOM     53  H   UNL A   1      47.542  26.121  27.696  1.00  0.00     0.167 HD
ATOM     54  C   UNL A   1      41.134  29.170  28.284  1.00  0.00     0.031 A 
ATOM     55  C   UNL A   1      48.411  28.915  27.769  1.00  0.00     0.031 A 
ATOM     56  C   UNL A   1      42.093  30.174  28.795  1.00  0.00     0.049 A 
ATOM     57  C   UNL A   1      47.732  30.261  27.492  1.00  0.00     0.074 A 
ATOM     58  C   UNL A   1      42.380  30.744  30.028  1.00  0.00     0.029 A 
ATOM     59  N   UNL A   1      43.073  30.667  27.935  1.00  0.00    -0.354 N 
ATOM     60  N   UNL A   1      46.462  30.492  27.728  1.00  0.00    -0.248 NA
ATOM     61  C   UNL A   1      48.389  31.458  26.983  1.00  0.00     0.031 C 
ATOM     62  C   UNL A   1      43.586  31.503  29.905  1.00  0.00     0.029 A 
ATOM     63  C   UNL A   1      43.970  31.487  28.576  1.00  0.00     0.049 A 
ATOM     64  H   UNL A   1      43.117  30.451  26.976  1.00  0.00     0.167 HD
ATOM     65  C   UNL A   1      46.136  31.797  27.500  1.00  0.00     0.074 A 
ATOM     66  C   UNL A   1      47.373  32.348  26.970  1.00  0.00     0.031 C 
ATOM     67  C   UNL A   1      44.888  32.293  27.773  1.00  0.00     0.031 A 
BRANCH  54  68
ATOM     68  C   UNL A   1      39.727  29.023  28.864  1.00  0.00    -0.014 A 
ATOM     69  C   UNL A   1      38.607  29.410  28.099  1.00  0.00     0.009 A 
ATOM     70  C   UNL A   1      39.440  28.625  30.185  1.00  0.00     0.009 A 
ATOM     71  C   UNL A   1      37.300  29.421  28.618  1.00  0.00     0.001 A 
ATOM     72  C   UNL A   1      38.129  28.586  30.698  1.00  0.00     0.001 A 
ATOM     73  C   UNL A   1      37.059  28.997  29.918  1.00  0.00     0.000 A 
ENDBRANCH  54  68
BRANCH  55  74
ATOM     74  C   UNL A   1      49.378  28.102  26.959  1.00  0.00    -0.014 A 
ATOM     75  C   UNL A   1      50.224  27.267  27.733  1.00  0.00     0.009 A 
ATOM     76  C   UNL A   1      49.029  27.663  25.669  1.00  0.00     0.009 A 
ATOM     77  C   UNL A   1      50.483  25.946  27.347  1.00  0.00     0.001 A 
ATOM     78  C   UNL A   1      49.328  26.344  25.273  1.00  0.00     0.001 A 
ATOM     79  C   UNL A   1      49.990  25.469  26.138  1.00  0.00     0.000 A 
ENDBRANCH  55  74
BRANCH  67  80
ATOM     80  C   UNL A   1      44.302  33.592  27.262  1.00  0.00    -0.014 A 
ATOM     81  C   UNL A   1      43.907  33.841  25.951  1.00  0.00     0.009 A 
ATOM     82  C   UNL A   1      44.109  34.655  28.186  1.00  0.00     0.009 A 
ATOM     83  C   UNL A   1      43.248  35.032  25.613  1.00  0.00     0.001 A 
ATOM     84  C   UNL A   1      43.473  35.847  27.855  1.00  0.00     0.001 A 
ATOM     85  C   UNL A   1      43.015  36.024  26.565  1.00  0.00     0.000 A 
ENDBRANCH  67  80
ENDBRANCH  41  42
ENDBRANCH  34  36
ENDBRANCH  33  34
ENDBRANCH  32  33
ENDBRANCH  31  32
ENDBRANCH  30  31
ENDBRANCH  29  30
ENDBRANCH  28  29
ENDBRANCH  27  28
ENDBRANCH   1  27
TORSDOF 23
ENDMDL
