MODEL 1
REMARK VINA RESULT:      -8.4      0.000      0.000
REMARK SMILES O=C(/C=C\c1ccc(OCc2ccc(Br)cc2)cc1)OCCOCCOCCOCCOC(=O)c1ccc(-c2c3nc(c(-c4ccccc4)c4ccc([nH]4)c(-c4ccccc4)c4nc(c(-c5ccccc5)c5ccc2[nH]5)C=C4)C=C3)cc1
REMARK SMILES IDX 25 1 24 2 23 3 22 4 21 5 20 6 2 7 1 8 3 9 4 10 5 11 6 12
REMARK SMILES IDX 19 13 7 14 18 15 8 16 9 17 10 18 11 19 12 20 17 21 13 22
REMARK SMILES IDX 16 23 14 24 15 25 26 26 27 27 28 28 29 29 30 30 31 31 32 32
REMARK SMILES IDX 33 33 34 34 35 35 36 36 82 37 37 38 81 39 38 40 39 41 40 42
REMARK SMILES IDX 75 43 41 44 80 45 74 46 76 47 42 48 79 49 73 50 72 51 43 53
REMARK SMILES IDX 65 54 50 55 64 56 51 57 54 58 63 59 77 60 52 61 53 62 62 64
REMARK SMILES IDX 78 65 55 66 44 67 45 68 49 69 46 70 48 71 47 72 66 73 67 74
REMARK SMILES IDX 71 75 68 76 70 77 69 78 56 79 57 80 61 81 58 82 60 83 59 84
REMARK H PARENT 76 52 54 63
REMARK Flexibility Score: inf
ROOT
ATOM      1  C   UNL A   1      32.871  27.601  22.322  1.00  0.00     0.188 C 
ENDROOT
BRANCH   1   2
ATOM      2  C   UNL A   1      32.174  28.976  22.253  1.00  0.00     0.188 C 
BRANCH   2   3
ATOM      3  O   UNL A   1      30.818  28.863  21.848  1.00  0.00    -0.376 OA
BRANCH   3   4
ATOM      4  C   UNL A   1      29.824  29.377  22.719  1.00  0.00     0.202 C 
BRANCH   4   5
ATOM      5  C   UNL A   1      29.156  28.384  23.684  1.00  0.00     0.261 C 
BRANCH   5   6
ATOM      6  O   UNL A   1      30.009  27.301  24.046  1.00  0.00    -0.460 OA
BRANCH   6   7
ATOM      7  C   UNL A   1      29.581  26.048  24.271  1.00  0.00     0.330 C 
ATOM      8  O   UNL A   1      28.938  25.810  25.292  1.00  0.00    -0.247 OA
BRANCH   7   9
ATOM      9  C   UNL A   1      30.014  24.901  23.437  1.00  0.00     0.094 C 
ATOM     10  C   UNL A   1      31.100  24.152  23.154  1.00  0.00     0.015 C 
BRANCH  10  11
ATOM     11  C   UNL A   1      32.516  24.159  23.552  1.00  0.00    -0.025 A 
ATOM     12  C   UNL A   1      32.824  24.597  24.842  1.00  0.00     0.012 A 
ATOM     13  C   UNL A   1      33.586  23.887  22.693  1.00  0.00     0.012 A 
ATOM     14  C   UNL A   1      34.133  24.539  25.319  1.00  0.00     0.047 A 
ATOM     15  C   UNL A   1      34.892  23.765  23.178  1.00  0.00     0.047 A 
ATOM     16  C   UNL A   1      35.136  23.991  24.524  1.00  0.00     0.119 A 
BRANCH  16  17
ATOM     17  O   UNL A   1      36.251  23.611  25.207  1.00  0.00    -0.489 OA
BRANCH  17  18
ATOM     18  C   UNL A   1      36.151  22.500  26.105  1.00  0.00     0.265 C 
BRANCH  18  19
ATOM     19  C   UNL A   1      35.541  21.177  25.644  1.00  0.00    -0.011 A 
ATOM     20  C   UNL A   1      36.370  20.222  25.023  1.00  0.00     0.008 A 
ATOM     21  C   UNL A   1      34.191  20.845  25.799  1.00  0.00     0.008 A 
ATOM     22  C   UNL A   1      35.868  19.026  24.509  1.00  0.00     0.016 A 
ATOM     23  C   UNL A   1      33.675  19.652  25.276  1.00  0.00     0.016 A 
ATOM     24  C   UNL A   1      34.514  18.753  24.625  1.00  0.00     0.017 A 
ATOM     25  Br  UNL A   1      33.820  17.151  23.908  1.00  0.00    -0.051 Br
ENDBRANCH  18  19
ENDBRANCH  17  18
ENDBRANCH  16  17
ENDBRANCH  10  11
ENDBRANCH   7   9
ENDBRANCH   6   7
ENDBRANCH   5   6
ENDBRANCH   4   5
ENDBRANCH   3   4
ENDBRANCH   2   3
ENDBRANCH   1   2
BRANCH   1  26
ATOM     26  O   UNL A   1      33.873  27.484  23.332  1.00  0.00    -0.377 OA
BRANCH  26  27
ATOM     27  C   UNL A   1      33.967  28.572  24.246  1.00  0.00     0.188 C 
BRANCH  27  28
ATOM     28  C   UNL A   1      33.609  28.256  25.717  1.00  0.00     0.188 C 
BRANCH  28  29
ATOM     29  O   UNL A   1      33.954  29.123  26.785  1.00  0.00    -0.376 OA
BRANCH  29  30
ATOM     30  C   UNL A   1      32.968  29.999  27.306  1.00  0.00     0.202 C 
BRANCH  30  31
ATOM     31  C   UNL A   1      33.304  31.488  27.531  1.00  0.00     0.261 C 
BRANCH  31  32
ATOM     32  O   UNL A   1      34.698  31.813  27.706  1.00  0.00    -0.460 OA
BRANCH  32  33
ATOM     33  C   UNL A   1      35.187  31.608  28.949  1.00  0.00     0.338 C 
ATOM     34  O   UNL A   1      34.710  32.000  30.000  1.00  0.00    -0.246 OA
BRANCH  33  35
ATOM     35  C   UNL A   1      36.340  30.679  28.923  1.00  0.00     0.060 A 
ATOM     36  C   UNL A   1      36.772  30.163  30.153  1.00  0.00     0.016 A 
ATOM     37  C   UNL A   1      37.080  30.432  27.765  1.00  0.00     0.016 A 
ATOM     38  C   UNL A   1      37.981  29.476  30.247  1.00  0.00     0.010 A 
ATOM     39  C   UNL A   1      38.306  29.752  27.864  1.00  0.00     0.010 A 
ATOM     40  C   UNL A   1      38.790  29.322  29.115  1.00  0.00    -0.014 A 
BRANCH  40  41
ATOM     41  C   UNL A   1      40.200  28.875  29.295  1.00  0.00     0.031 A 
ATOM     42  C   UNL A   1      40.587  27.483  28.899  1.00  0.00     0.074 A 
ATOM     43  C   UNL A   1      41.160  29.709  29.727  1.00  0.00     0.049 A 
ATOM     44  N   UNL A   1      41.770  26.924  28.932  1.00  0.00    -0.248 NA
ATOM     45  C   UNL A   1      39.516  26.616  28.391  1.00  0.00     0.031 C 
ATOM     46  C   UNL A   1      40.930  31.098  30.077  1.00  0.00     0.029 A 
ATOM     47  N   UNL A   1      42.502  29.526  29.958  1.00  0.00    -0.354 N 
ATOM     48  C   UNL A   1      41.591  25.646  28.428  1.00  0.00     0.074 A 
ATOM     49  C   UNL A   1      40.176  25.494  28.152  1.00  0.00     0.031 C 
ATOM     50  C   UNL A   1      42.075  31.630  30.533  1.00  0.00     0.029 A 
ATOM     51  C   UNL A   1      43.127  30.631  30.482  1.00  0.00     0.049 A 
ATOM     52  H   UNL A   1      42.972  28.681  29.766  1.00  0.00     0.167 HD
ATOM     53  C   UNL A   1      42.522  24.693  28.195  1.00  0.00     0.031 A 
ATOM     54  C   UNL A   1      44.396  30.846  30.881  1.00  0.00     0.031 A 
ATOM     55  C   UNL A   1      43.924  24.829  28.498  1.00  0.00     0.049 A 
ATOM     56  C   UNL A   1      45.395  29.747  30.694  1.00  0.00     0.074 A 
ATOM     57  C   UNL A   1      44.938  23.905  28.307  1.00  0.00     0.029 A 
ATOM     58  N   UNL A   1      44.511  25.951  29.062  1.00  0.00    -0.354 N 
ATOM     59  N   UNL A   1      45.209  28.552  30.192  1.00  0.00    -0.248 NA
ATOM     60  C   UNL A   1      46.779  30.033  31.093  1.00  0.00     0.031 C 
ATOM     61  C   UNL A   1      46.127  24.448  28.807  1.00  0.00     0.029 A 
ATOM     62  C   UNL A   1      45.868  25.734  29.249  1.00  0.00     0.049 A 
ATOM     63  H   UNL A   1      44.035  26.781  29.296  1.00  0.00     0.167 HD
ATOM     64  C   UNL A   1      46.456  27.948  30.192  1.00  0.00     0.074 A 
ATOM     65  C   UNL A   1      47.395  28.922  30.713  1.00  0.00     0.031 C 
ATOM     66  C   UNL A   1      46.790  26.697  29.796  1.00  0.00     0.031 A 
BRANCH  53  67
ATOM     67  C   UNL A   1      42.035  23.402  27.604  1.00  0.00    -0.014 A 
ATOM     68  C   UNL A   1      42.041  23.193  26.214  1.00  0.00     0.009 A 
ATOM     69  C   UNL A   1      41.572  22.380  28.445  1.00  0.00     0.009 A 
ATOM     70  C   UNL A   1      41.565  21.996  25.679  1.00  0.00     0.001 A 
ATOM     71  C   UNL A   1      41.124  21.173  27.909  1.00  0.00     0.001 A 
ATOM     72  C   UNL A   1      41.112  20.985  26.527  1.00  0.00     0.000 A 
ENDBRANCH  53  67
BRANCH  54  73
ATOM     73  C   UNL A   1      44.796  32.150  31.482  1.00  0.00    -0.014 A 
ATOM     74  C   UNL A   1      45.435  33.136  30.714  1.00  0.00     0.009 A 
ATOM     75  C   UNL A   1      44.553  32.408  32.841  1.00  0.00     0.009 A 
ATOM     76  C   UNL A   1      45.853  34.334  31.301  1.00  0.00     0.001 A 
ATOM     77  C   UNL A   1      44.941  33.622  33.417  1.00  0.00     0.001 A 
ATOM     78  C   UNL A   1      45.602  34.578  32.650  1.00  0.00     0.000 A 
ENDBRANCH  54  73
BRANCH  66  79
ATOM     79  C   UNL A   1      48.242  26.326  29.907  1.00  0.00    -0.014 A 
ATOM     80  C   UNL A   1      48.747  25.692  31.053  1.00  0.00     0.009 A 
ATOM     81  C   UNL A   1      49.120  26.634  28.856  1.00  0.00     0.009 A 
ATOM     82  C   UNL A   1      50.112  25.424  31.168  1.00  0.00     0.001 A 
ATOM     83  C   UNL A   1      50.478  26.333  28.960  1.00  0.00     0.001 A 
ATOM     84  C   UNL A   1      50.975  25.742  30.120  1.00  0.00     0.000 A 
ENDBRANCH  66  79
ENDBRANCH  40  41
ENDBRANCH  33  35
ENDBRANCH  32  33
ENDBRANCH  31  32
ENDBRANCH  30  31
ENDBRANCH  29  30
ENDBRANCH  28  29
ENDBRANCH  27  28
ENDBRANCH  26  27
ENDBRANCH   1  26
TORSDOF 24
ENDMDL
MODEL 2
REMARK VINA RESULT:      -7.9      1.079      1.583
REMARK SMILES O=C(/C=C\c1ccc(OCc2ccc(Br)cc2)cc1)OCCOCCOCCOCCOC(=O)c1ccc(-c2c3nc(c(-c4ccccc4)c4ccc([nH]4)c(-c4ccccc4)c4nc(c(-c5ccccc5)c5ccc2[nH]5)C=C4)C=C3)cc1
REMARK SMILES IDX 25 1 24 2 23 3 22 4 21 5 20 6 2 7 1 8 3 9 4 10 5 11 6 12
REMARK SMILES IDX 19 13 7 14 18 15 8 16 9 17 10 18 11 19 12 20 17 21 13 22
REMARK SMILES IDX 16 23 14 24 15 25 26 26 27 27 28 28 29 29 30 30 31 31 32 32
REMARK SMILES IDX 33 33 34 34 35 35 36 36 82 37 37 38 81 39 38 40 39 41 40 42
REMARK SMILES IDX 75 43 41 44 80 45 74 46 76 47 42 48 79 49 73 50 72 51 43 53
REMARK SMILES IDX 65 54 50 55 64 56 51 57 54 58 63 59 77 60 52 61 53 62 62 64
REMARK SMILES IDX 78 65 55 66 44 67 45 68 49 69 46 70 48 71 47 72 66 73 67 74
REMARK SMILES IDX 71 75 68 76 70 77 69 78 56 79 57 80 61 81 58 82 60 83 59 84
REMARK H PARENT 76 52 54 63
REMARK Flexibility Score: inf
ROOT
ATOM      1  C   UNL A   1      32.980  27.017  21.617  1.00  0.00     0.188 C 
ENDROOT
BRANCH   1   2
ATOM      2  C   UNL A   1      31.890  28.059  21.943  1.00  0.00     0.188 C 
BRANCH   2   3
ATOM      3  O   UNL A   1      30.583  27.531  21.770  1.00  0.00    -0.376 OA
BRANCH   3   4
ATOM      4  C   UNL A   1      29.490  28.316  22.215  1.00  0.00     0.202 C 
BRANCH   4   5
ATOM      5  C   UNL A   1      28.818  27.898  23.534  1.00  0.00     0.261 C 
BRANCH   5   6
ATOM      6  O   UNL A   1      29.648  27.067  24.342  1.00  0.00    -0.460 OA
BRANCH   6   7
ATOM      7  C   UNL A   1      30.459  27.526  25.309  1.00  0.00     0.330 C 
ATOM      8  O   UNL A   1      30.912  28.664  25.219  1.00  0.00    -0.247 OA
BRANCH   7   9
ATOM      9  C   UNL A   1      30.983  26.649  26.385  1.00  0.00     0.094 C 
ATOM     10  C   UNL A   1      31.775  25.574  26.579  1.00  0.00     0.015 C 
BRANCH  10  11
ATOM     11  C   UNL A   1      32.526  24.651  25.714  1.00  0.00    -0.025 A 
ATOM     12  C   UNL A   1      33.569  23.924  26.295  1.00  0.00     0.012 A 
ATOM     13  C   UNL A   1      32.362  24.545  24.329  1.00  0.00     0.012 A 
ATOM     14  C   UNL A   1      34.259  22.961  25.559  1.00  0.00     0.047 A 
ATOM     15  C   UNL A   1      33.003  23.541  23.597  1.00  0.00     0.047 A 
ATOM     16  C   UNL A   1      33.874  22.682  24.250  1.00  0.00     0.119 A 
BRANCH  16  17
ATOM     17  O   UNL A   1      34.319  21.486  23.776  1.00  0.00    -0.489 OA
BRANCH  17  18
ATOM     18  C   UNL A   1      34.911  20.567  24.702  1.00  0.00     0.265 C 
BRANCH  18  19
ATOM     19  C   UNL A   1      34.391  19.136  24.823  1.00  0.00    -0.011 A 
ATOM     20  C   UNL A   1      33.133  18.915  25.415  1.00  0.00     0.008 A 
ATOM     21  C   UNL A   1      35.093  18.011  24.377  1.00  0.00     0.008 A 
ATOM     22  C   UNL A   1      32.628  17.631  25.627  1.00  0.00     0.016 A 
ATOM     23  C   UNL A   1      34.600  16.718  24.596  1.00  0.00     0.016 A 
ATOM     24  C   UNL A   1      33.375  16.534  25.229  1.00  0.00     0.017 A 
ATOM     25  Br  UNL A   1      32.715  14.793  25.537  1.00  0.00    -0.051 Br
ENDBRANCH  18  19
ENDBRANCH  17  18
ENDBRANCH  16  17
ENDBRANCH  10  11
ENDBRANCH   7   9
ENDBRANCH   6   7
ENDBRANCH   5   6
ENDBRANCH   4   5
ENDBRANCH   3   4
ENDBRANCH   2   3
ENDBRANCH   1   2
BRANCH   1  26
ATOM     26  O   UNL A   1      34.230  27.226  22.275  1.00  0.00    -0.377 OA
BRANCH  26  27
ATOM     27  C   UNL A   1      34.271  28.306  23.203  1.00  0.00     0.188 C 
BRANCH  27  28
ATOM     28  C   UNL A   1      34.033  27.937  24.687  1.00  0.00     0.188 C 
BRANCH  28  29
ATOM     29  O   UNL A   1      34.496  28.747  25.755  1.00  0.00    -0.376 OA
BRANCH  29  30
ATOM     30  C   UNL A   1      33.866  28.640  27.021  1.00  0.00     0.202 C 
BRANCH  30  31
ATOM     31  C   UNL A   1      33.274  29.897  27.693  1.00  0.00     0.261 C 
BRANCH  31  32
ATOM     32  O   UNL A   1      34.040  31.112  27.572  1.00  0.00    -0.460 OA
BRANCH  32  33
ATOM     33  C   UNL A   1      34.853  31.388  28.617  1.00  0.00     0.338 C 
ATOM     34  O   UNL A   1      34.626  32.147  29.543  1.00  0.00    -0.246 OA
BRANCH  33  35
ATOM     35  C   UNL A   1      36.050  30.515  28.608  1.00  0.00     0.060 A 
ATOM     36  C   UNL A   1      36.354  29.838  29.797  1.00  0.00     0.016 A 
ATOM     37  C   UNL A   1      36.939  30.471  27.532  1.00  0.00     0.016 A 
ATOM     38  C   UNL A   1      37.578  29.189  29.948  1.00  0.00     0.010 A 
ATOM     39  C   UNL A   1      38.179  29.829  27.691  1.00  0.00     0.010 A 
ATOM     40  C   UNL A   1      38.528  29.235  28.920  1.00  0.00    -0.014 A 
BRANCH  40  41
ATOM     41  C   UNL A   1      39.927  28.817  29.216  1.00  0.00     0.031 A 
ATOM     42  C   UNL A   1      40.379  27.439  28.843  1.00  0.00     0.074 A 
ATOM     43  C   UNL A   1      40.828  29.668  29.736  1.00  0.00     0.049 A 
ATOM     44  N   UNL A   1      41.567  26.905  28.971  1.00  0.00    -0.248 NA
ATOM     45  C   UNL A   1      39.374  26.553  28.238  1.00  0.00     0.031 C 
ATOM     46  C   UNL A   1      40.537  31.047  30.077  1.00  0.00     0.029 A 
ATOM     47  N   UNL A   1      42.149  29.512  30.079  1.00  0.00    -0.354 N 
ATOM     48  C   UNL A   1      41.460  25.629  28.443  1.00  0.00     0.074 A 
ATOM     49  C   UNL A   1      40.079  25.448  28.046  1.00  0.00     0.031 C 
ATOM     50  C   UNL A   1      41.626  31.600  30.634  1.00  0.00     0.029 A 
ATOM     51  C   UNL A   1      42.702  30.625  30.664  1.00  0.00     0.049 A 
ATOM     52  H   UNL A   1      42.653  28.680  29.920  1.00  0.00     0.167 HD
ATOM     53  C   UNL A   1      42.430  24.699  28.283  1.00  0.00     0.031 A 
ATOM     54  C   UNL A   1      43.926  30.864  31.171  1.00  0.00     0.031 A 
ATOM     55  C   UNL A   1      43.798  24.863  28.705  1.00  0.00     0.049 A 
ATOM     56  C   UNL A   1      44.963  29.789  31.060  1.00  0.00     0.074 A 
ATOM     57  C   UNL A   1      44.845  23.965  28.593  1.00  0.00     0.029 A 
ATOM     58  N   UNL A   1      44.308  25.992  29.326  1.00  0.00    -0.354 N 
ATOM     59  N   UNL A   1      44.848  28.596  30.534  1.00  0.00    -0.248 NA
ATOM     60  C   UNL A   1      46.301  30.102  31.579  1.00  0.00     0.031 C 
ATOM     61  C   UNL A   1      45.975  24.528  29.197  1.00  0.00     0.029 A 
ATOM     62  C   UNL A   1      45.649  25.804  29.627  1.00  0.00     0.049 A 
ATOM     63  H   UNL A   1      43.795  26.808  29.526  1.00  0.00     0.167 HD
ATOM     64  C   UNL A   1      46.104  28.020  30.635  1.00  0.00     0.074 A 
ATOM     65  C   UNL A   1      46.972  29.009  31.244  1.00  0.00     0.031 C 
ATOM     66  C   UNL A   1      46.499  26.780  30.259  1.00  0.00     0.031 A 
BRANCH  53  67
ATOM     67  C   UNL A   1      42.024  23.405  27.640  1.00  0.00    -0.014 A 
ATOM     68  C   UNL A   1      41.427  22.378  28.391  1.00  0.00     0.009 A 
ATOM     69  C   UNL A   1      42.232  23.212  26.267  1.00  0.00     0.009 A 
ATOM     70  C   UNL A   1      41.075  21.173  27.783  1.00  0.00     0.001 A 
ATOM     71  C   UNL A   1      41.852  22.018  25.655  1.00  0.00     0.001 A 
ATOM     72  C   UNL A   1      41.283  20.996  26.415  1.00  0.00     0.000 A 
ENDBRANCH  53  67
BRANCH  54  73
ATOM     73  C   UNL A   1      44.244  32.170  31.815  1.00  0.00    -0.014 A 
ATOM     74  C   UNL A   1      44.766  33.238  31.069  1.00  0.00     0.009 A 
ATOM     75  C   UNL A   1      44.040  32.349  33.194  1.00  0.00     0.009 A 
ATOM     76  C   UNL A   1      45.110  34.441  31.693  1.00  0.00     0.001 A 
ATOM     77  C   UNL A   1      44.352  33.565  33.809  1.00  0.00     0.001 A 
ATOM     78  C   UNL A   1      44.898  34.605  33.061  1.00  0.00     0.000 A 
ENDBRANCH  54  73
BRANCH  66  79
ATOM     79  C   UNL A   1      47.944  26.441  30.490  1.00  0.00    -0.014 A 
ATOM     80  C   UNL A   1      48.376  25.872  31.699  1.00  0.00     0.009 A 
ATOM     81  C   UNL A   1      48.891  26.712  29.489  1.00  0.00     0.009 A 
ATOM     82  C   UNL A   1      49.733  25.634  31.923  1.00  0.00     0.001 A 
ATOM     83  C   UNL A   1      50.242  26.440  29.703  1.00  0.00     0.001 A 
ATOM     84  C   UNL A   1      50.664  25.916  30.924  1.00  0.00     0.000 A 
ENDBRANCH  66  79
ENDBRANCH  40  41
ENDBRANCH  33  35
ENDBRANCH  32  33
ENDBRANCH  31  32
ENDBRANCH  30  31
ENDBRANCH  29  30
ENDBRANCH  28  29
ENDBRANCH  27  28
ENDBRANCH  26  27
ENDBRANCH   1  26
TORSDOF 24
ENDMDL
MODEL 3
REMARK VINA RESULT:      -7.7      5.592     10.137
REMARK SMILES O=C(/C=C\c1ccc(OCc2ccc(Br)cc2)cc1)OCCOCCOCCOCCOC(=O)c1ccc(-c2c3nc(c(-c4ccccc4)c4ccc([nH]4)c(-c4ccccc4)c4nc(c(-c5ccccc5)c5ccc2[nH]5)C=C4)C=C3)cc1
REMARK SMILES IDX 25 1 24 2 23 3 22 4 21 5 20 6 2 7 1 8 3 9 4 10 5 11 6 12
REMARK SMILES IDX 19 13 7 14 18 15 8 16 9 17 10 18 11 19 12 20 17 21 13 22
REMARK SMILES IDX 16 23 14 24 15 25 26 26 27 27 28 28 29 29 30 30 31 31 32 32
REMARK SMILES IDX 33 33 34 34 35 35 36 36 82 37 37 38 81 39 38 40 39 41 40 42
REMARK SMILES IDX 75 43 41 44 80 45 74 46 76 47 42 48 79 49 73 50 72 51 43 53
REMARK SMILES IDX 65 54 50 55 64 56 51 57 54 58 63 59 77 60 52 61 53 62 62 64
REMARK SMILES IDX 78 65 55 66 44 67 45 68 49 69 46 70 48 71 47 72 66 73 67 74
REMARK SMILES IDX 71 75 68 76 70 77 69 78 56 79 57 80 61 81 58 82 60 83 59 84
REMARK H PARENT 76 52 54 63
REMARK Flexibility Score: inf
ROOT
ATOM      1  C   UNL A   1      32.337  35.899  30.096  1.00  0.00     0.188 C 
ENDROOT
BRANCH   1   2
ATOM      2  C   UNL A   1      33.260  37.061  30.517  1.00  0.00     0.188 C 
BRANCH   2   3
ATOM      3  O   UNL A   1      32.944  37.545  31.814  1.00  0.00    -0.376 OA
BRANCH   3   4
ATOM      4  C   UNL A   1      33.005  36.629  32.894  1.00  0.00     0.202 C 
BRANCH   4   5
ATOM      5  C   UNL A   1      34.307  36.594  33.710  1.00  0.00     0.261 C 
BRANCH   5   6
ATOM      6  O   UNL A   1      34.569  35.316  34.285  1.00  0.00    -0.460 OA
BRANCH   6   7
ATOM      7  C   UNL A   1      35.394  34.402  33.746  1.00  0.00     0.330 C 
ATOM      8  O   UNL A   1      35.343  33.242  34.147  1.00  0.00    -0.247 OA
BRANCH   7   9
ATOM      9  C   UNL A   1      36.494  34.775  32.823  1.00  0.00     0.094 C 
ATOM     10  C   UNL A   1      37.785  34.494  32.552  1.00  0.00     0.015 C 
BRANCH  10  11
ATOM     11  C   UNL A   1      38.819  33.627  33.140  1.00  0.00    -0.025 A 
ATOM     12  C   UNL A   1      40.063  33.581  32.504  1.00  0.00     0.012 A 
ATOM     13  C   UNL A   1      38.610  32.749  34.208  1.00  0.00     0.012 A 
ATOM     14  C   UNL A   1      41.117  32.858  33.060  1.00  0.00     0.047 A 
ATOM     15  C   UNL A   1      39.675  32.070  34.809  1.00  0.00     0.047 A 
ATOM     16  C   UNL A   1      40.950  32.219  34.286  1.00  0.00     0.119 A 
BRANCH  16  17
ATOM     17  O   UNL A   1      42.113  31.904  34.919  1.00  0.00    -0.489 OA
BRANCH  17  18
ATOM     18  C   UNL A   1      42.074  30.918  35.957  1.00  0.00     0.265 C 
BRANCH  18  19
ATOM     19  C   UNL A   1      42.353  29.447  35.648  1.00  0.00    -0.011 A 
ATOM     20  C   UNL A   1      43.615  28.910  35.966  1.00  0.00     0.008 A 
ATOM     21  C   UNL A   1      41.422  28.585  35.059  1.00  0.00     0.008 A 
ATOM     22  C   UNL A   1      43.965  27.598  35.643  1.00  0.00     0.016 A 
ATOM     23  C   UNL A   1      41.768  27.270  34.719  1.00  0.00     0.016 A 
ATOM     24  C   UNL A   1      43.041  26.787  35.005  1.00  0.00     0.017 A 
ATOM     25  Br  UNL A   1      43.515  25.020  34.538  1.00  0.00    -0.051 Br
ENDBRANCH  18  19
ENDBRANCH  17  18
ENDBRANCH  16  17
ENDBRANCH  10  11
ENDBRANCH   7   9
ENDBRANCH   6   7
ENDBRANCH   5   6
ENDBRANCH   4   5
ENDBRANCH   3   4
ENDBRANCH   2   3
ENDBRANCH   1   2
BRANCH   1  26
ATOM     26  O   UNL A   1      32.955  34.906  29.276  1.00  0.00    -0.377 OA
BRANCH  26  27
ATOM     27  C   UNL A   1      34.176  35.286  28.651  1.00  0.00     0.188 C 
BRANCH  27  28
ATOM     28  C   UNL A   1      34.816  34.235  27.714  1.00  0.00     0.188 C 
BRANCH  28  29
ATOM     29  O   UNL A   1      35.552  33.127  28.206  1.00  0.00    -0.376 OA
BRANCH  29  30
ATOM     30  C   UNL A   1      35.956  33.120  29.566  1.00  0.00     0.202 C 
BRANCH  30  31
ATOM     31  C   UNL A   1      35.531  31.959  30.489  1.00  0.00     0.261 C 
BRANCH  31  32
ATOM     32  O   UNL A   1      36.469  31.578  31.515  1.00  0.00    -0.460 OA
BRANCH  32  33
ATOM     33  C   UNL A   1      36.944  30.315  31.423  1.00  0.00     0.338 C 
ATOM     34  O   UNL A   1      36.296  29.284  31.454  1.00  0.00    -0.246 OA
BRANCH  33  35
ATOM     35  C   UNL A   1      38.391  30.310  31.110  1.00  0.00     0.060 A 
ATOM     36  C   UNL A   1      38.768  30.729  29.826  1.00  0.00     0.016 A 
ATOM     37  C   UNL A   1      39.346  29.771  31.976  1.00  0.00     0.016 A 
ATOM     38  C   UNL A   1      40.071  30.534  29.373  1.00  0.00     0.010 A 
ATOM     39  C   UNL A   1      40.655  29.563  31.512  1.00  0.00     0.010 A 
ATOM     40  C   UNL A   1      41.009  29.890  30.188  1.00  0.00    -0.014 A 
BRANCH  40  41
ATOM     41  C   UNL A   1      42.283  29.412  29.580  1.00  0.00     0.031 A 
ATOM     42  C   UNL A   1      43.474  30.320  29.556  1.00  0.00     0.074 A 
ATOM     43  C   UNL A   1      42.424  28.157  29.121  1.00  0.00     0.049 A 
ATOM     44  N   UNL A   1      44.681  30.072  29.117  1.00  0.00    -0.248 NA
ATOM     45  C   UNL A   1      43.289  31.670  30.106  1.00  0.00     0.031 C 
ATOM     46  C   UNL A   1      41.371  27.161  29.150  1.00  0.00     0.029 A 
ATOM     47  N   UNL A   1      43.484  27.505  28.539  1.00  0.00    -0.354 N 
ATOM     48  C   UNL A   1      45.408  31.227  29.357  1.00  0.00     0.074 A 
ATOM     49  C   UNL A   1      44.492  32.194  29.927  1.00  0.00     0.031 C 
ATOM     50  C   UNL A   1      41.813  26.039  28.558  1.00  0.00     0.029 A 
ATOM     51  C   UNL A   1      43.188  26.226  28.134  1.00  0.00     0.049 A 
ATOM     52  H   UNL A   1      44.372  27.916  28.422  1.00  0.00     0.167 HD
ATOM     53  C   UNL A   1      46.725  31.454  29.144  1.00  0.00     0.031 A 
ATOM     54  C   UNL A   1      43.919  25.290  27.498  1.00  0.00     0.031 A 
ATOM     55  C   UNL A   1      47.632  30.506  28.549  1.00  0.00     0.049 A 
ATOM     56  C   UNL A   1      45.352  25.593  27.193  1.00  0.00     0.074 A 
ATOM     57  C   UNL A   1      48.982  30.660  28.283  1.00  0.00     0.029 A 
ATOM     58  N   UNL A   1      47.285  29.235  28.120  1.00  0.00    -0.354 N 
ATOM     59  N   UNL A   1      46.028  26.685  27.451  1.00  0.00    -0.248 NA
ATOM     60  C   UNL A   1      46.132  24.531  26.544  1.00  0.00     0.031 C 
ATOM     61  C   UNL A   1      49.438  29.502  27.642  1.00  0.00     0.029 A 
ATOM     62  C   UNL A   1      48.389  28.602  27.568  1.00  0.00     0.049 A 
ATOM     63  H   UNL A   1      46.387  28.838  28.195  1.00  0.00     0.167 HD
ATOM     64  C   UNL A   1      47.321  26.436  27.018  1.00  0.00     0.074 A 
ATOM     65  C   UNL A   1      47.340  25.078  26.511  1.00  0.00     0.031 C 
ATOM     66  C   UNL A   1      48.393  27.262  27.038  1.00  0.00     0.031 A 
BRANCH  53  67
ATOM     67  C   UNL A   1      47.250  32.804  29.539  1.00  0.00    -0.014 A 
ATOM     68  C   UNL A   1      47.378  33.837  28.596  1.00  0.00     0.009 A 
ATOM     69  C   UNL A   1      47.610  33.049  30.872  1.00  0.00     0.009 A 
ATOM     70  C   UNL A   1      47.887  35.079  28.975  1.00  0.00     0.001 A 
ATOM     71  C   UNL A   1      48.091  34.302  31.255  1.00  0.00     0.001 A 
ATOM     72  C   UNL A   1      48.238  35.312  30.305  1.00  0.00     0.000 A 
ENDBRANCH  53  67
BRANCH  54  73
ATOM     73  C   UNL A   1      43.316  23.981  27.118  1.00  0.00    -0.014 A 
ATOM     74  C   UNL A   1      42.972  23.031  28.093  1.00  0.00     0.009 A 
ATOM     75  C   UNL A   1      43.098  23.666  25.767  1.00  0.00     0.009 A 
ATOM     76  C   UNL A   1      42.456  21.786  27.722  1.00  0.00     0.001 A 
ATOM     77  C   UNL A   1      42.550  22.432  25.400  1.00  0.00     0.001 A 
ATOM     78  C   UNL A   1      42.241  21.489  26.377  1.00  0.00     0.000 A 
ENDBRANCH  54  73
BRANCH  66  79
ATOM     79  C   UNL A   1      49.679  26.701  26.502  1.00  0.00    -0.014 A 
ATOM     80  C   UNL A   1      50.078  26.928  25.174  1.00  0.00     0.009 A 
ATOM     81  C   UNL A   1      50.495  25.915  27.332  1.00  0.00     0.009 A 
ATOM     82  C   UNL A   1      51.238  26.335  24.673  1.00  0.00     0.001 A 
ATOM     83  C   UNL A   1      51.672  25.354  26.838  1.00  0.00     0.001 A 
ATOM     84  C   UNL A   1      52.035  25.551  25.506  1.00  0.00     0.000 A 
ENDBRANCH  66  79
ENDBRANCH  40  41
ENDBRANCH  33  35
ENDBRANCH  32  33
ENDBRANCH  31  32
ENDBRANCH  30  31
ENDBRANCH  29  30
ENDBRANCH  28  29
ENDBRANCH  27  28
ENDBRANCH  26  27
ENDBRANCH   1  26
TORSDOF 24
ENDMDL
