MODEL 1
REMARK VINA RESULT:      -8.4      0.000      0.000
REMARK SMILES COc1c[nH]c(C[N@H+]2CCC[C@@H](c3ccc(C(=O)OCCOCCOCCOCCOC(=O)c4ccc(-c5c6nc(c(-c7ccccc7)c7ccc([nH]7)c(-c7ccccc7)c7nc(c(-c8ccccc8)c8ccc5[nH]8)C=C7)C=C6)cc4)cc3)C2)cc1=O
REMARK SMILES IDX 24 1 23 2 22 3 21 4 20 5 19 6 17 7 18 8 16 9 13 10 14 11
REMARK SMILES IDX 83 12 15 13 82 14 12 15 8 16 9 17 84 18 10 20 11 21 7 22
REMARK SMILES IDX 6 23 3 24 4 25 86 26 5 27 85 28 87 29 2 31 1 32 25 33 26 34
REMARK SMILES IDX 27 35 28 36 29 37 30 38 31 39 32 40 33 41 34 42 35 43 81 44
REMARK SMILES IDX 36 45 80 46 37 47 38 48 39 49 74 50 40 51 79 52 73 53 75 54
REMARK SMILES IDX 41 55 78 56 72 57 71 58 42 60 64 61 49 62 63 63 50 64 53 65
REMARK SMILES IDX 62 66 76 67 51 68 52 69 61 71 77 72 54 73 43 74 44 75 48 76
REMARK SMILES IDX 45 77 47 78 46 79 65 80 66 81 70 82 67 83 69 84 68 85 55 86
REMARK SMILES IDX 56 87 60 88 57 89 59 90 58 91
REMARK H PARENT 8 19 5 30 75 59 53 70
REMARK Flexibility Score: inf
ROOT
ATOM      1  C   UNL A   1      33.878  34.551  28.619  1.00  0.00     0.188 C 
ENDROOT
BRANCH   1   2
ATOM      2  C   UNL A   1      34.013  33.027  28.417  1.00  0.00     0.188 C 
BRANCH   2   3
ATOM      3  O   UNL A   1      35.160  32.650  27.675  1.00  0.00    -0.376 OA
BRANCH   3   4
ATOM      4  C   UNL A   1      35.961  31.578  28.134  1.00  0.00     0.202 C 
BRANCH   4   5
ATOM      5  C   UNL A   1      37.284  31.875  28.857  1.00  0.00     0.261 C 
BRANCH   5   6
ATOM      6  O   UNL A   1      37.454  31.267  30.141  1.00  0.00    -0.460 OA
BRANCH   6   7
ATOM      7  C   UNL A   1      37.313  29.926  30.200  1.00  0.00     0.338 C 
ATOM      8  O   UNL A   1      36.337  29.312  30.593  1.00  0.00    -0.246 OA
BRANCH   7   9
ATOM      9  C   UNL A   1      38.456  29.311  29.490  1.00  0.00     0.060 A 
ATOM     10  C   UNL A   1      40.702  28.242  28.195  1.00  0.00    -0.039 A 
ATOM     11  C   UNL A   1      40.805  28.756  29.501  1.00  0.00     0.005 A 
ATOM     12  C   UNL A   1      39.435  28.166  27.596  1.00  0.00     0.005 A 
ATOM     13  C   UNL A   1      39.698  29.322  30.127  1.00  0.00     0.016 A 
ATOM     14  C   UNL A   1      38.311  28.686  28.247  1.00  0.00     0.016 A 
BRANCH  10  15
ATOM     15  C   UNL A   1      41.958  28.000  27.360  1.00  0.00     0.074 C 
ATOM     16  N   UNL A   1      43.683  26.151  27.062  1.00  0.00    -0.329 N 
ATOM     17  C   UNL A   1      43.435  26.150  25.615  1.00  0.00     0.262 C 
ATOM     18  C   UNL A   1      42.515  26.627  27.800  1.00  0.00     0.270 C 
ATOM     19  H   UNL A   1      44.448  26.806  27.231  1.00  0.00     0.348 HD
ATOM     20  C   UNL A   1      42.992  27.533  25.120  1.00  0.00     0.062 C 
ATOM     21  C   UNL A   1      41.734  28.021  25.844  1.00  0.00     0.020 C 
BRANCH  16  22
ATOM     22  C   UNL A   1      44.148  24.833  27.561  1.00  0.00     0.317 C 
BRANCH  22  23
ATOM     23  C   UNL A   1      43.649  23.589  26.821  1.00  0.00     0.074 A 
ATOM     24  C   UNL A   1      42.981  21.067  25.648  1.00  0.00     0.182 A 
ATOM     25  C   UNL A   1      44.233  21.541  25.689  1.00  0.00     0.133 A 
ATOM     26  C   UNL A   1      41.906  21.993  26.156  1.00  0.00     0.223 A 
ATOM     27  N   UNL A   1      44.563  22.779  26.169  1.00  0.00    -0.357 N 
ATOM     28  C   UNL A   1      42.342  23.268  26.801  1.00  0.00     0.083 A 
ATOM     29  O   UNL A   1      40.709  21.732  26.088  1.00  0.00    -0.286 OA
ATOM     30  H   UNL A   1      45.483  23.105  26.047  1.00  0.00     0.166 HD
BRANCH  24  31
ATOM     31  O   UNL A   1      42.734  19.769  25.244  1.00  0.00    -0.491 OA
ATOM     32  C   UNL A   1      42.810  18.828  26.307  1.00  0.00     0.278 C 
ENDBRANCH  24  31
ENDBRANCH  22  23
ENDBRANCH  16  22
ENDBRANCH  10  15
ENDBRANCH   7   9
ENDBRANCH   6   7
ENDBRANCH   5   6
ENDBRANCH   4   5
ENDBRANCH   3   4
ENDBRANCH   2   3
ENDBRANCH   1   2
BRANCH   1  33
ATOM     33  O   UNL A   1      32.809  35.036  29.420  1.00  0.00    -0.377 OA
BRANCH  33  34
ATOM     34  C   UNL A   1      33.067  35.506  30.742  1.00  0.00     0.188 C 
BRANCH  34  35
ATOM     35  C   UNL A   1      34.275  35.009  31.574  1.00  0.00     0.188 C 
BRANCH  35  36
ATOM     36  O   UNL A   1      33.998  34.764  32.942  1.00  0.00    -0.376 OA
BRANCH  36  37
ATOM     37  C   UNL A   1      34.631  33.656  33.556  1.00  0.00     0.202 C 
BRANCH  37  38
ATOM     38  C   UNL A   1      35.624  33.965  34.686  1.00  0.00     0.261 C 
BRANCH  38  39
ATOM     39  O   UNL A   1      36.412  32.859  35.151  1.00  0.00    -0.460 OA
BRANCH  39  40
ATOM     40  C   UNL A   1      37.593  33.146  35.736  1.00  0.00     0.338 C 
ATOM     41  O   UNL A   1      37.770  33.718  36.801  1.00  0.00    -0.246 OA
BRANCH  40  42
ATOM     42  C   UNL A   1      38.657  32.480  34.959  1.00  0.00     0.060 A 
ATOM     43  C   UNL A   1      39.996  32.753  35.264  1.00  0.00     0.016 A 
ATOM     44  C   UNL A   1      38.333  31.579  33.941  1.00  0.00     0.016 A 
ATOM     45  C   UNL A   1      41.017  32.152  34.527  1.00  0.00     0.010 A 
ATOM     46  C   UNL A   1      39.356  30.992  33.191  1.00  0.00     0.010 A 
ATOM     47  C   UNL A   1      40.701  31.301  33.460  1.00  0.00    -0.014 A 
BRANCH  47  48
ATOM     48  C   UNL A   1      41.773  30.871  32.529  1.00  0.00     0.031 A 
ATOM     49  C   UNL A   1      42.210  31.814  31.442  1.00  0.00     0.074 A 
ATOM     50  C   UNL A   1      42.380  29.679  32.672  1.00  0.00     0.049 A 
ATOM     51  N   UNL A   1      43.135  31.658  30.528  1.00  0.00    -0.248 NA
ATOM     52  C   UNL A   1      41.510  33.107  31.377  1.00  0.00     0.031 C 
ATOM     53  C   UNL A   1      42.077  28.692  33.705  1.00  0.00     0.029 A 
ATOM     54  N   UNL A   1      43.385  29.101  31.936  1.00  0.00    -0.354 N 
ATOM     55  C   UNL A   1      43.124  32.829  29.780  1.00  0.00     0.074 A 
ATOM     56  C   UNL A   1      42.078  33.670  30.321  1.00  0.00     0.031 C 
ATOM     57  C   UNL A   1      42.883  27.628  33.540  1.00  0.00     0.029 A 
ATOM     58  C   UNL A   1      43.732  27.846  32.371  1.00  0.00     0.049 A 
ATOM     59  H   UNL A   1      43.815  29.544  31.170  1.00  0.00     0.167 HD
ATOM     60  C   UNL A   1      43.916  33.177  28.738  1.00  0.00     0.031 A 
ATOM     61  C   UNL A   1      44.624  26.967  31.873  1.00  0.00     0.031 A 
ATOM     62  C   UNL A   1      44.941  32.332  28.183  1.00  0.00     0.049 A 
ATOM     63  C   UNL A   1      45.440  27.348  30.663  1.00  0.00     0.074 A 
ATOM     64  C   UNL A   1      45.806  32.600  27.137  1.00  0.00     0.029 A 
ATOM     65  N   UNL A   1      45.230  31.049  28.621  1.00  0.00    -0.354 N 
ATOM     66  N   UNL A   1      45.445  28.470  29.985  1.00  0.00    -0.248 NA
ATOM     67  C   UNL A   1      46.385  26.339  30.163  1.00  0.00     0.031 C 
ATOM     68  C   UNL A   1      46.571  31.453  26.897  1.00  0.00     0.029 A 
ATOM     69  C   UNL A   1      46.238  30.499  27.845  1.00  0.00     0.049 A 
ATOM     70  H   UNL A   1      44.785  30.594  29.373  1.00  0.00     0.167 HD
ATOM     71  C   UNL A   1      46.413  28.315  29.000  1.00  0.00     0.074 A 
ATOM     72  C   UNL A   1      46.988  26.998  29.184  1.00  0.00     0.031 C 
ATOM     73  C   UNL A   1      46.796  29.184  28.032  1.00  0.00     0.031 A 
BRANCH  60  74
ATOM     74  C   UNL A   1      43.673  34.519  28.102  1.00  0.00    -0.014 A 
ATOM     75  C   UNL A   1      44.062  35.712  28.733  1.00  0.00     0.009 A 
ATOM     76  C   UNL A   1      43.070  34.587  26.837  1.00  0.00     0.009 A 
ATOM     77  C   UNL A   1      43.816  36.947  28.125  1.00  0.00     0.001 A 
ATOM     78  C   UNL A   1      42.856  35.820  26.217  1.00  0.00     0.001 A 
ATOM     79  C   UNL A   1      43.220  36.998  26.866  1.00  0.00     0.000 A 
ENDBRANCH  60  74
BRANCH  61  80
ATOM     80  C   UNL A   1      44.789  25.631  32.504  1.00  0.00    -0.014 A 
ATOM     81  C   UNL A   1      44.108  24.510  32.007  1.00  0.00     0.009 A 
ATOM     82  C   UNL A   1      45.612  25.477  33.632  1.00  0.00     0.009 A 
ATOM     83  C   UNL A   1      44.224  23.270  32.642  1.00  0.00     0.001 A 
ATOM     84  C   UNL A   1      45.754  24.230  34.243  1.00  0.00     0.001 A 
ATOM     85  C   UNL A   1      45.051  23.130  33.755  1.00  0.00     0.000 A 
ENDBRANCH  61  80
BRANCH  73  86
ATOM     86  C   UNL A   1      47.920  28.755  27.126  1.00  0.00    -0.014 A 
ATOM     87  C   UNL A   1      49.251  29.124  27.376  1.00  0.00     0.009 A 
ATOM     88  C   UNL A   1      47.641  27.951  26.008  1.00  0.00     0.009 A 
ATOM     89  C   UNL A   1      50.269  28.742  26.499  1.00  0.00     0.001 A 
ATOM     90  C   UNL A   1      48.664  27.538  25.154  1.00  0.00     0.001 A 
ATOM     91  C   UNL A   1      49.975  27.947  25.392  1.00  0.00     0.000 A 
ENDBRANCH  73  86
ENDBRANCH  47  48
ENDBRANCH  40  42
ENDBRANCH  39  40
ENDBRANCH  38  39
ENDBRANCH  37  38
ENDBRANCH  36  37
ENDBRANCH  35  36
ENDBRANCH  34  35
ENDBRANCH  33  34
ENDBRANCH   1  33
TORSDOF 24
ENDMDL
MODEL 2
REMARK VINA RESULT:      -7.6      3.298      4.234
REMARK SMILES COc1c[nH]c(C[N@H+]2CCC[C@@H](c3ccc(C(=O)OCCOCCOCCOCCOC(=O)c4ccc(-c5c6nc(c(-c7ccccc7)c7ccc([nH]7)c(-c7ccccc7)c7nc(c(-c8ccccc8)c8ccc5[nH]8)C=C7)C=C6)cc4)cc3)C2)cc1=O
REMARK SMILES IDX 24 1 23 2 22 3 21 4 20 5 19 6 17 7 18 8 16 9 13 10 14 11
REMARK SMILES IDX 83 12 15 13 82 14 12 15 8 16 9 17 84 18 10 20 11 21 7 22
REMARK SMILES IDX 6 23 3 24 4 25 86 26 5 27 85 28 87 29 2 31 1 32 25 33 26 34
REMARK SMILES IDX 27 35 28 36 29 37 30 38 31 39 32 40 33 41 34 42 35 43 81 44
REMARK SMILES IDX 36 45 80 46 37 47 38 48 39 49 74 50 40 51 79 52 73 53 75 54
REMARK SMILES IDX 41 55 78 56 72 57 71 58 42 60 64 61 49 62 63 63 50 64 53 65
REMARK SMILES IDX 62 66 76 67 51 68 52 69 61 71 77 72 54 73 43 74 44 75 48 76
REMARK SMILES IDX 45 77 47 78 46 79 65 80 66 81 70 82 67 83 69 84 68 85 55 86
REMARK SMILES IDX 56 87 60 88 57 89 59 90 58 91
REMARK H PARENT 8 19 5 30 75 59 53 70
REMARK Flexibility Score: inf
ROOT
ATOM      1  C   UNL A   1      34.713  31.839  28.261  1.00  0.00     0.188 C 
ENDROOT
BRANCH   1   2
ATOM      2  C   UNL A   1      35.945  30.969  27.932  1.00  0.00     0.188 C 
BRANCH   2   3
ATOM      3  O   UNL A   1      36.618  30.478  29.078  1.00  0.00    -0.376 OA
BRANCH   3   4
ATOM      4  C   UNL A   1      37.775  29.681  28.914  1.00  0.00     0.202 C 
BRANCH   4   5
ATOM      5  C   UNL A   1      39.146  30.356  28.757  1.00  0.00     0.261 C 
BRANCH   5   6
ATOM      6  O   UNL A   1      40.288  29.548  29.055  1.00  0.00    -0.460 OA
BRANCH   6   7
ATOM      7  C   UNL A   1      41.015  29.116  28.003  1.00  0.00     0.338 C 
ATOM      8  O   UNL A   1      41.834  29.758  27.369  1.00  0.00    -0.246 OA
BRANCH   7   9
ATOM      9  C   UNL A   1      40.827  27.652  27.883  1.00  0.00     0.060 A 
ATOM     10  C   UNL A   1      40.379  24.903  27.560  1.00  0.00    -0.039 A 
ATOM     11  C   UNL A   1      40.404  25.761  26.444  1.00  0.00     0.005 A 
ATOM     12  C   UNL A   1      40.697  25.426  28.823  1.00  0.00     0.005 A 
ATOM     13  C   UNL A   1      40.588  27.131  26.610  1.00  0.00     0.016 A 
ATOM     14  C   UNL A   1      40.935  26.795  28.984  1.00  0.00     0.016 A 
BRANCH  10  15
ATOM     15  C   UNL A   1      39.786  23.501  27.441  1.00  0.00     0.074 C 
ATOM     16  N   UNL A   1      38.121  22.292  25.940  1.00  0.00    -0.329 N 
ATOM     17  C   UNL A   1      39.121  21.253  25.665  1.00  0.00     0.262 C 
ATOM     18  C   UNL A   1      38.757  23.561  26.288  1.00  0.00     0.270 C 
ATOM     19  H   UNL A   1      37.583  21.979  26.749  1.00  0.00     0.348 HD
ATOM     20  C   UNL A   1      40.092  21.082  26.840  1.00  0.00     0.062 C 
ATOM     21  C   UNL A   1      40.810  22.391  27.181  1.00  0.00     0.020 C 
BRANCH  16  22
ATOM     22  C   UNL A   1      37.147  22.453  24.832  1.00  0.00     0.317 C 
BRANCH  22  23
ATOM     23  C   UNL A   1      35.662  22.470  25.203  1.00  0.00     0.074 A 
ATOM     24  C   UNL A   1      32.847  22.211  25.640  1.00  0.00     0.182 A 
ATOM     25  C   UNL A   1      33.382  22.368  24.422  1.00  0.00     0.133 A 
ATOM     26  C   UNL A   1      33.805  22.293  26.800  1.00  0.00     0.223 A 
ATOM     27  N   UNL A   1      34.716  22.577  24.198  1.00  0.00    -0.357 N 
ATOM     28  C   UNL A   1      35.263  22.375  26.485  1.00  0.00     0.083 A 
ATOM     29  O   UNL A   1      33.444  22.266  27.972  1.00  0.00    -0.286 OA
ATOM     30  H   UNL A   1      35.013  22.812  23.290  1.00  0.00     0.166 HD
BRANCH  24  31
ATOM     31  O   UNL A   1      31.508  21.902  25.784  1.00  0.00    -0.491 OA
ATOM     32  C   UNL A   1      30.651  23.019  25.581  1.00  0.00     0.278 C 
ENDBRANCH  24  31
ENDBRANCH  22  23
ENDBRANCH  16  22
ENDBRANCH  10  15
ENDBRANCH   7   9
ENDBRANCH   6   7
ENDBRANCH   5   6
ENDBRANCH   4   5
ENDBRANCH   3   4
ENDBRANCH   2   3
ENDBRANCH   1   2
BRANCH   1  33
ATOM     33  O   UNL A   1      34.918  33.208  28.584  1.00  0.00    -0.377 OA
BRANCH  33  34
ATOM     34  C   UNL A   1      34.934  33.622  29.949  1.00  0.00     0.188 C 
BRANCH  34  35
ATOM     35  C   UNL A   1      34.711  32.628  31.116  1.00  0.00     0.188 C 
BRANCH  35  36
ATOM     36  O   UNL A   1      35.403  32.945  32.311  1.00  0.00    -0.376 OA
BRANCH  36  37
ATOM     37  C   UNL A   1      34.668  33.547  33.360  1.00  0.00     0.202 C 
BRANCH  37  38
ATOM     38  C   UNL A   1      35.463  33.994  34.595  1.00  0.00     0.261 C 
BRANCH  38  39
ATOM     39  O   UNL A   1      36.892  33.874  34.501  1.00  0.00    -0.460 OA
BRANCH  39  40
ATOM     40  C   UNL A   1      37.472  32.868  35.187  1.00  0.00     0.338 C 
ATOM     41  O   UNL A   1      37.062  32.335  36.207  1.00  0.00    -0.246 OA
BRANCH  40  42
ATOM     42  C   UNL A   1      38.611  32.374  34.387  1.00  0.00     0.060 A 
ATOM     43  C   UNL A   1      38.367  31.489  33.329  1.00  0.00     0.016 A 
ATOM     44  C   UNL A   1      39.913  32.792  34.674  1.00  0.00     0.016 A 
ATOM     45  C   UNL A   1      39.431  30.992  32.576  1.00  0.00     0.010 A 
ATOM     46  C   UNL A   1      40.979  32.279  33.930  1.00  0.00     0.010 A 
ATOM     47  C   UNL A   1      40.746  31.352  32.899  1.00  0.00    -0.014 A 
BRANCH  47  48
ATOM     48  C   UNL A   1      41.875  30.631  32.265  1.00  0.00     0.031 A 
ATOM     49  C   UNL A   1      42.523  31.226  31.045  1.00  0.00     0.074 A 
ATOM     50  C   UNL A   1      42.349  29.485  32.788  1.00  0.00     0.049 A 
ATOM     51  N   UNL A   1      43.530  30.781  30.338  1.00  0.00    -0.248 NA
ATOM     52  C   UNL A   1      41.957  32.494  30.558  1.00  0.00     0.031 C 
ATOM     53  C   UNL A   1      41.837  28.825  33.987  1.00  0.00     0.029 A 
ATOM     54  N   UNL A   1      43.376  28.676  32.370  1.00  0.00    -0.354 N 
ATOM     55  C   UNL A   1      43.716  31.711  29.322  1.00  0.00     0.074 A 
ATOM     56  C   UNL A   1      42.696  32.725  29.483  1.00  0.00     0.031 C 
ATOM     57  C   UNL A   1      42.556  27.710  34.210  1.00  0.00     0.029 A 
ATOM     58  C   UNL A   1      43.553  27.562  33.152  1.00  0.00     0.049 A 
ATOM     59  H   UNL A   1      43.933  28.876  31.583  1.00  0.00     0.167 HD
ATOM     60  C   UNL A   1      44.654  31.725  28.346  1.00  0.00     0.031 A 
ATOM     61  C   UNL A   1      44.413  26.533  33.022  1.00  0.00     0.031 A 
ATOM     62  C   UNL A   1      45.655  30.706  28.170  1.00  0.00     0.049 A 
ATOM     63  C   UNL A   1      45.397  26.532  31.880  1.00  0.00     0.074 A 
ATOM     64  C   UNL A   1      46.659  30.637  27.220  1.00  0.00     0.029 A 
ATOM     65  N   UNL A   1      45.771  29.569  28.956  1.00  0.00    -0.354 N 
ATOM     66  N   UNL A   1      45.585  27.433  30.946  1.00  0.00    -0.248 NA
ATOM     67  C   UNL A   1      46.298  25.375  31.787  1.00  0.00     0.031 C 
ATOM     68  C   UNL A   1      47.338  29.426  27.387  1.00  0.00     0.029 A 
ATOM     69  C   UNL A   1      46.808  28.777  28.491  1.00  0.00     0.049 A 
ATOM     70  H   UNL A   1      45.200  29.356  29.729  1.00  0.00     0.167 HD
ATOM     71  C   UNL A   1      46.645  26.968  30.176  1.00  0.00     0.074 A 
ATOM     72  C   UNL A   1      47.070  25.716  30.766  1.00  0.00     0.031 C 
ATOM     73  C   UNL A   1      47.217  27.527  29.081  1.00  0.00     0.031 A 
BRANCH  60  74
ATOM     74  C   UNL A   1      44.612  32.864  27.362  1.00  0.00    -0.014 A 
ATOM     75  C   UNL A   1      45.223  34.098  27.640  1.00  0.00     0.009 A 
ATOM     76  C   UNL A   1      43.974  32.687  26.125  1.00  0.00     0.009 A 
ATOM     77  C   UNL A   1      45.162  35.142  26.713  1.00  0.00     0.001 A 
ATOM     78  C   UNL A   1      43.943  33.722  25.188  1.00  0.00     0.001 A 
ATOM     79  C   UNL A   1      44.528  34.950  25.487  1.00  0.00     0.000 A 
ENDBRANCH  60  74
BRANCH  61  80
ATOM     80  C   UNL A   1      44.379  25.403  33.989  1.00  0.00    -0.014 A 
ATOM     81  C   UNL A   1      43.558  24.287  33.765  1.00  0.00     0.009 A 
ATOM     82  C   UNL A   1      45.150  25.451  35.161  1.00  0.00     0.009 A 
ATOM     83  C   UNL A   1      43.489  23.257  34.707  1.00  0.00     0.001 A 
ATOM     84  C   UNL A   1      45.106  24.404  36.084  1.00  0.00     0.001 A 
ATOM     85  C   UNL A   1      44.267  23.314  35.862  1.00  0.00     0.000 A 
ENDBRANCH  61  80
BRANCH  73  86
ATOM     86  C   UNL A   1      48.395  26.810  28.478  1.00  0.00    -0.014 A 
ATOM     87  C   UNL A   1      49.706  27.036  28.927  1.00  0.00     0.009 A 
ATOM     88  C   UNL A   1      48.186  25.875  27.450  1.00  0.00     0.009 A 
ATOM     89  C   UNL A   1      50.785  26.383  28.325  1.00  0.00     0.001 A 
ATOM     90  C   UNL A   1      49.261  25.195  26.875  1.00  0.00     0.001 A 
ATOM     91  C   UNL A   1      50.560  25.461  27.303  1.00  0.00     0.000 A 
ENDBRANCH  73  86
ENDBRANCH  47  48
ENDBRANCH  40  42
ENDBRANCH  39  40
ENDBRANCH  38  39
ENDBRANCH  37  38
ENDBRANCH  36  37
ENDBRANCH  35  36
ENDBRANCH  34  35
ENDBRANCH  33  34
ENDBRANCH   1  33
TORSDOF 24
ENDMDL
MODEL 3
REMARK VINA RESULT:      -7.5      5.964      9.780
REMARK SMILES COc1c[nH]c(C[N@H+]2CCC[C@@H](c3ccc(C(=O)OCCOCCOCCOCCOC(=O)c4ccc(-c5c6nc(c(-c7ccccc7)c7ccc([nH]7)c(-c7ccccc7)c7nc(c(-c8ccccc8)c8ccc5[nH]8)C=C7)C=C6)cc4)cc3)C2)cc1=O
REMARK SMILES IDX 24 1 23 2 22 3 21 4 20 5 19 6 17 7 18 8 16 9 13 10 14 11
REMARK SMILES IDX 83 12 15 13 82 14 12 15 8 16 9 17 84 18 10 20 11 21 7 22
REMARK SMILES IDX 6 23 3 24 4 25 86 26 5 27 85 28 87 29 2 31 1 32 25 33 26 34
REMARK SMILES IDX 27 35 28 36 29 37 30 38 31 39 32 40 33 41 34 42 35 43 81 44
REMARK SMILES IDX 36 45 80 46 37 47 38 48 39 49 74 50 40 51 79 52 73 53 75 54
REMARK SMILES IDX 41 55 78 56 72 57 71 58 42 60 64 61 49 62 63 63 50 64 53 65
REMARK SMILES IDX 62 66 76 67 51 68 52 69 61 71 77 72 54 73 43 74 44 75 48 76
REMARK SMILES IDX 45 77 47 78 46 79 65 80 66 81 70 82 67 83 69 84 68 85 55 86
REMARK SMILES IDX 56 87 60 88 57 89 59 90 58 91
REMARK H PARENT 8 19 5 30 75 59 53 70
REMARK Flexibility Score: inf
ROOT
ATOM      1  C   UNL A   1      33.870  30.270  27.494  1.00  0.00     0.188 C 
ENDROOT
BRANCH   1   2
ATOM      2  C   UNL A   1      33.180  30.144  26.118  1.00  0.00     0.188 C 
BRANCH   2   3
ATOM      3  O   UNL A   1      33.305  28.860  25.534  1.00  0.00    -0.376 OA
BRANCH   3   4
ATOM      4  C   UNL A   1      33.237  28.729  24.127  1.00  0.00     0.202 C 
BRANCH   4   5
ATOM      5  C   UNL A   1      31.868  28.754  23.428  1.00  0.00     0.261 C 
BRANCH   5   6
ATOM      6  O   UNL A   1      30.726  28.553  24.266  1.00  0.00    -0.460 OA
BRANCH   6   7
ATOM      7  C   UNL A   1      29.842  27.614  23.869  1.00  0.00     0.338 C 
ATOM      8  O   UNL A   1      28.890  27.776  23.126  1.00  0.00    -0.246 OA
BRANCH   7   9
ATOM      9  C   UNL A   1      30.348  26.292  24.302  1.00  0.00     0.060 A 
ATOM     10  C   UNL A   1      31.382  23.851  25.214  1.00  0.00    -0.039 A 
ATOM     11  C   UNL A   1      31.052  24.873  26.123  1.00  0.00     0.005 A 
ATOM     12  C   UNL A   1      31.078  24.029  23.856  1.00  0.00     0.005 A 
ATOM     13  C   UNL A   1      30.575  26.099  25.666  1.00  0.00     0.016 A 
ATOM     14  C   UNL A   1      30.549  25.241  23.401  1.00  0.00     0.016 A 
BRANCH  10  15
ATOM     15  C   UNL A   1      32.267  22.686  25.653  1.00  0.00     0.074 C 
ATOM     16  N   UNL A   1      34.617  21.831  25.167  1.00  0.00    -0.329 N 
ATOM     17  C   UNL A   1      34.916  21.829  26.604  1.00  0.00     0.262 C 
ATOM     18  C   UNL A   1      33.578  22.807  24.842  1.00  0.00     0.270 C 
ATOM     19  H   UNL A   1      34.257  20.904  24.938  1.00  0.00     0.348 HD
ATOM     20  C   UNL A   1      33.651  21.594  27.441  1.00  0.00     0.062 C 
ATOM     21  C   UNL A   1      32.574  22.643  27.154  1.00  0.00     0.020 C 
BRANCH  16  22
ATOM     22  C   UNL A   1      35.829  22.022  24.333  1.00  0.00     0.317 C 
BRANCH  22  23
ATOM     23  C   UNL A   1      37.127  22.386  25.058  1.00  0.00     0.074 A 
ATOM     24  C   UNL A   1      39.323  23.224  26.690  1.00  0.00     0.182 A 
ATOM     25  C   UNL A   1      38.349  24.056  26.298  1.00  0.00     0.133 A 
ATOM     26  C   UNL A   1      39.266  21.827  26.126  1.00  0.00     0.223 A 
ATOM     27  N   UNL A   1      37.336  23.697  25.451  1.00  0.00    -0.357 N 
ATOM     28  C   UNL A   1      38.060  21.454  25.327  1.00  0.00     0.083 A 
ATOM     29  O   UNL A   1      40.142  20.990  26.318  1.00  0.00    -0.286 OA
ATOM     30  H   UNL A   1      36.735  24.397  25.108  1.00  0.00     0.166 HD
BRANCH  24  31
ATOM     31  O   UNL A   1      40.255  23.625  27.626  1.00  0.00    -0.491 OA
ATOM     32  C   UNL A   1      40.343  25.038  27.759  1.00  0.00     0.278 C 
ENDBRANCH  24  31
ENDBRANCH  22  23
ENDBRANCH  16  22
ENDBRANCH  10  15
ENDBRANCH   7   9
ENDBRANCH   6   7
ENDBRANCH   5   6
ENDBRANCH   4   5
ENDBRANCH   3   4
ENDBRANCH   2   3
ENDBRANCH   1   2
BRANCH   1  33
ATOM     33  O   UNL A   1      35.223  30.705  27.535  1.00  0.00    -0.377 OA
BRANCH  33  34
ATOM     34  C   UNL A   1      35.534  32.016  28.002  1.00  0.00     0.188 C 
BRANCH  34  35
ATOM     35  C   UNL A   1      35.071  32.532  29.387  1.00  0.00     0.188 C 
BRANCH  35  36
ATOM     36  O   UNL A   1      35.774  31.990  30.491  1.00  0.00    -0.376 OA
BRANCH  36  37
ATOM     37  C   UNL A   1      35.155  32.051  31.763  1.00  0.00     0.202 C 
BRANCH  37  38
ATOM     38  C   UNL A   1      34.144  33.184  31.987  1.00  0.00     0.261 C 
BRANCH  38  39
ATOM     39  O   UNL A   1      34.212  33.847  33.259  1.00  0.00    -0.460 OA
BRANCH  39  40
ATOM     40  C   UNL A   1      35.043  34.905  33.360  1.00  0.00     0.338 C 
ATOM     41  O   UNL A   1      34.778  36.077  33.141  1.00  0.00    -0.246 OA
BRANCH  40  42
ATOM     42  C   UNL A   1      36.303  34.433  33.969  1.00  0.00     0.060 A 
ATOM     43  C   UNL A   1      36.263  33.828  35.232  1.00  0.00     0.016 A 
ATOM     44  C   UNL A   1      37.516  34.578  33.292  1.00  0.00     0.016 A 
ATOM     45  C   UNL A   1      37.444  33.396  35.836  1.00  0.00     0.010 A 
ATOM     46  C   UNL A   1      38.701  34.162  33.907  1.00  0.00     0.010 A 
ATOM     47  C   UNL A   1      38.673  33.599  35.195  1.00  0.00    -0.014 A 
BRANCH  47  48
ATOM     48  C   UNL A   1      39.932  33.373  35.945  1.00  0.00     0.031 A 
ATOM     49  C   UNL A   1      40.570  32.012  35.897  1.00  0.00     0.074 A 
ATOM     50  C   UNL A   1      40.525  34.371  36.626  1.00  0.00     0.049 A 
ATOM     51  N   UNL A   1      41.675  31.590  36.458  1.00  0.00    -0.248 NA
ATOM     52  C   UNL A   1      39.867  30.988  35.106  1.00  0.00     0.031 C 
ATOM     53  C   UNL A   1      40.031  35.743  36.720  1.00  0.00     0.029 A 
ATOM     54  N   UNL A   1      41.680  34.376  37.367  1.00  0.00    -0.354 N 
ATOM     55  C   UNL A   1      41.796  30.255  36.094  1.00  0.00     0.074 A 
ATOM     56  C   UNL A   1      40.636  29.926  35.294  1.00  0.00     0.031 C 
ATOM     57  C   UNL A   1      40.881  36.460  37.476  1.00  0.00     0.029 A 
ATOM     58  C   UNL A   1      41.958  35.590  37.944  1.00  0.00     0.049 A 
ATOM     59  H   UNL A   1      42.255  33.584  37.474  1.00  0.00     0.167 HD
ATOM     60  C   UNL A   1      42.787  29.381  36.393  1.00  0.00     0.031 A 
ATOM     61  C   UNL A   1      42.960  35.954  38.769  1.00  0.00     0.031 A 
ATOM     62  C   UNL A   1      43.929  29.700  37.208  1.00  0.00     0.049 A 
ATOM     63  C   UNL A   1      44.008  34.941  39.151  1.00  0.00     0.074 A 
ATOM     64  C   UNL A   1      44.994  28.887  37.556  1.00  0.00     0.029 A 
ATOM     65  N   UNL A   1      44.150  30.928  37.813  1.00  0.00    -0.354 N 
ATOM     66  N   UNL A   1      44.131  33.691  38.773  1.00  0.00    -0.248 NA
ATOM     67  C   UNL A   1      45.065  35.399  40.063  1.00  0.00     0.031 C 
ATOM     68  C   UNL A   1      45.822  29.602  38.428  1.00  0.00     0.029 A 
ATOM     69  C   UNL A   1      45.316  30.884  38.560  1.00  0.00     0.049 A 
ATOM     70  H   UNL A   1      43.564  31.714  37.726  1.00  0.00     0.167 HD
ATOM     71  C   UNL A   1      45.294  33.224  39.374  1.00  0.00     0.074 A 
ATOM     72  C   UNL A   1      45.849  34.332  40.123  1.00  0.00     0.031 C 
ATOM     73  C   UNL A   1      45.854  31.991  39.310  1.00  0.00     0.031 A 
BRANCH  60  74
ATOM     74  C   UNL A   1      42.652  27.977  35.867  1.00  0.00    -0.014 A 
ATOM     75  C   UNL A   1      43.220  27.595  34.640  1.00  0.00     0.009 A 
ATOM     76  C   UNL A   1      41.970  27.015  36.626  1.00  0.00     0.009 A 
ATOM     77  C   UNL A   1      43.073  26.287  34.169  1.00  0.00     0.001 A 
ATOM     78  C   UNL A   1      41.853  25.701  36.169  1.00  0.00     0.001 A 
ATOM     79  C   UNL A   1      42.396  25.341  34.938  1.00  0.00     0.000 A 
ENDBRANCH  60  74
BRANCH  61  80
ATOM     80  C   UNL A   1      43.018  37.340  39.307  1.00  0.00    -0.014 A 
ATOM     81  C   UNL A   1      42.290  37.701  40.451  1.00  0.00     0.009 A 
ATOM     82  C   UNL A   1      43.786  38.320  38.657  1.00  0.00     0.009 A 
ATOM     83  C   UNL A   1      42.306  39.019  40.916  1.00  0.00     0.001 A 
ATOM     84  C   UNL A   1      43.828  39.628  39.143  1.00  0.00     0.001 A 
ATOM     85  C   UNL A   1      43.079  39.979  40.265  1.00  0.00     0.000 A 
ENDBRANCH  61  80
BRANCH  73  86
ATOM     86  C   UNL A   1      47.159  31.789  40.034  1.00  0.00    -0.014 A 
ATOM     87  C   UNL A   1      48.392  32.075  39.427  1.00  0.00     0.009 A 
ATOM     88  C   UNL A   1      47.151  31.318  41.358  1.00  0.00     0.009 A 
ATOM     89  C   UNL A   1      49.589  31.845  40.110  1.00  0.00     0.001 A 
ATOM     90  C   UNL A   1      48.346  31.125  42.052  1.00  0.00     0.001 A 
ATOM     91  C   UNL A   1      49.564  31.373  41.422  1.00  0.00     0.000 A 
ENDBRANCH  73  86
ENDBRANCH  47  48
ENDBRANCH  40  42
ENDBRANCH  39  40
ENDBRANCH  38  39
ENDBRANCH  37  38
ENDBRANCH  36  37
ENDBRANCH  35  36
ENDBRANCH  34  35
ENDBRANCH  33  34
ENDBRANCH   1  33
TORSDOF 24
ENDMDL
