MODEL 1
REMARK VINA RESULT:      -8.6      0.000      0.000
REMARK SMILES O=C(OCCOCCOCCOCCOC(=O)[C@H]1CCC[N@@H+]1CCn1ccnc1)c1ccc(-c2c3nc(c(-c4ccccc4)c4ccc([nH]4)c(-c4ccccc4)c4nc(c(-c5ccccc5)c5ccc2[nH]5)C=C4)C=C3)cc1
REMARK SMILES IDX 10 1 9 2 8 3 7 4 6 5 5 6 4 7 3 8 2 9 1 10 30 11 31 12 77 13
REMARK SMILES IDX 32 14 76 15 33 16 34 17 35 18 70 19 36 20 75 21 69 22 71 23
REMARK SMILES IDX 37 24 74 25 68 26 67 27 38 29 60 30 45 31 59 32 46 33 49 34
REMARK SMILES IDX 58 35 72 36 47 37 48 38 57 40 73 41 50 42 39 43 40 44 44 45
REMARK SMILES IDX 41 46 43 47 42 48 61 49 62 50 66 51 63 52 65 53 64 54 51 55
REMARK SMILES IDX 52 56 56 57 53 58 55 59 54 60 11 61 12 62 13 63 14 64 15 65
REMARK SMILES IDX 16 66 17 67 18 68 19 69 22 70 20 71 21 72 23 74 24 75 25 76
REMARK SMILES IDX 26 77 29 78 27 79 28 80
REMARK H PARENT 71 28 49 39 22 73
REMARK Flexibility Score: inf
ROOT
ATOM      1  C   UNL A   1      31.164  27.480  22.427  1.00  0.00     0.188 C 
ENDROOT
BRANCH   1   2
ATOM      2  O   UNL A   1      31.824  28.646  22.881  1.00  0.00    -0.377 OA
BRANCH   2   3
ATOM      3  C   UNL A   1      31.827  28.815  24.295  1.00  0.00     0.188 C 
BRANCH   3   4
ATOM      4  C   UNL A   1      31.039  30.028  24.831  1.00  0.00     0.188 C 
BRANCH   4   5
ATOM      5  O   UNL A   1      31.638  30.718  25.911  1.00  0.00    -0.376 OA
BRANCH   5   6
ATOM      6  C   UNL A   1      32.891  30.424  26.490  1.00  0.00     0.202 C 
BRANCH   6   7
ATOM      7  C   UNL A   1      33.590  31.252  27.582  1.00  0.00     0.261 C 
BRANCH   7   8
ATOM      8  O   UNL A   1      34.992  31.504  27.495  1.00  0.00    -0.460 OA
BRANCH   8   9
ATOM      9  C   UNL A   1      36.059  30.796  27.914  1.00  0.00     0.338 C 
ATOM     10  O   UNL A   1      36.417  29.810  27.282  1.00  0.00    -0.246 OA
BRANCH   9  11
ATOM     11  C   UNL A   1      36.702  31.057  29.217  1.00  0.00     0.060 A 
ATOM     12  C   UNL A   1      37.694  32.010  29.431  1.00  0.00     0.016 A 
ATOM     13  C   UNL A   1      36.281  30.231  30.280  1.00  0.00     0.016 A 
ATOM     14  C   UNL A   1      38.321  32.083  30.659  1.00  0.00     0.010 A 
ATOM     15  C   UNL A   1      36.915  30.291  31.508  1.00  0.00     0.010 A 
ATOM     16  C   UNL A   1      37.983  31.169  31.655  1.00  0.00    -0.014 A 
BRANCH  16  17
ATOM     17  C   UNL A   1      38.906  31.087  32.771  1.00  0.00     0.031 A 
ATOM     18  C   UNL A   1      38.733  32.085  33.852  1.00  0.00     0.074 A 
ATOM     19  C   UNL A   1      39.897  30.178  32.764  1.00  0.00     0.049 A 
ATOM     20  N   UNL A   1      39.569  32.995  34.235  1.00  0.00    -0.248 NA
ATOM     21  C   UNL A   1      37.432  32.131  34.531  1.00  0.00     0.031 C 
ATOM     22  C   UNL A   1      40.050  29.017  31.879  1.00  0.00     0.029 A 
ATOM     23  N   UNL A   1      40.936  30.047  33.632  1.00  0.00    -0.354 N 
ATOM     24  C   UNL A   1      38.975  33.622  35.327  1.00  0.00     0.074 A 
ATOM     25  C   UNL A   1      37.619  33.134  35.388  1.00  0.00     0.031 C 
ATOM     26  C   UNL A   1      40.959  28.175  32.413  1.00  0.00     0.029 A 
ATOM     27  C   UNL A   1      41.544  28.804  33.584  1.00  0.00     0.049 A 
ATOM     28  H   UNL A   1      41.227  30.768  34.237  1.00  0.00     0.167 HD
ATOM     29  C   UNL A   1      39.701  34.327  36.236  1.00  0.00     0.031 A 
ATOM     30  C   UNL A   1      42.399  28.292  34.497  1.00  0.00     0.031 A 
ATOM     31  C   UNL A   1      40.965  34.762  35.708  1.00  0.00     0.049 A 
ATOM     32  C   UNL A   1      42.963  29.414  35.277  1.00  0.00     0.074 A 
ATOM     33  C   UNL A   1      41.361  35.576  34.664  1.00  0.00     0.029 A 
ATOM     34  N   UNL A   1      42.092  34.079  36.093  1.00  0.00    -0.354 N 
ATOM     35  N   UNL A   1      43.790  30.290  34.782  1.00  0.00    -0.248 NA
ATOM     36  C   UNL A   1      42.287  29.821  36.500  1.00  0.00     0.031 C 
ATOM     37  C   UNL A   1      42.568  34.993  34.176  1.00  0.00     0.029 A 
ATOM     38  C   UNL A   1      42.853  33.882  34.972  1.00  0.00     0.049 A 
ATOM     39  H   UNL A   1      42.313  33.784  37.007  1.00  0.00     0.167 HD
ATOM     40  C   UNL A   1      43.426  31.495  35.367  1.00  0.00     0.074 A 
ATOM     41  C   UNL A   1      42.580  31.125  36.498  1.00  0.00     0.031 C 
ATOM     42  C   UNL A   1      43.614  32.682  34.715  1.00  0.00     0.031 A 
BRANCH  29  43
ATOM     43  C   UNL A   1      39.437  34.245  37.722  1.00  0.00    -0.014 A 
ATOM     44  C   UNL A   1      39.296  35.440  38.454  1.00  0.00     0.009 A 
ATOM     45  C   UNL A   1      39.624  33.067  38.471  1.00  0.00     0.009 A 
ATOM     46  C   UNL A   1      39.438  35.462  39.847  1.00  0.00     0.001 A 
ATOM     47  C   UNL A   1      39.723  33.079  39.864  1.00  0.00     0.001 A 
ATOM     48  C   UNL A   1      39.665  34.283  40.550  1.00  0.00     0.000 A 
ENDBRANCH  29  43
BRANCH  30  49
ATOM     49  C   UNL A   1      42.495  26.881  34.917  1.00  0.00    -0.014 A 
ATOM     50  C   UNL A   1      41.488  26.287  35.689  1.00  0.00     0.009 A 
ATOM     51  C   UNL A   1      43.475  26.040  34.354  1.00  0.00     0.009 A 
ATOM     52  C   UNL A   1      41.452  24.898  35.868  1.00  0.00     0.001 A 
ATOM     53  C   UNL A   1      43.444  24.657  34.539  1.00  0.00     0.001 A 
ATOM     54  C   UNL A   1      42.423  24.083  35.286  1.00  0.00     0.000 A 
ENDBRANCH  30  49
BRANCH  42  55
ATOM     55  C   UNL A   1      44.442  32.670  33.455  1.00  0.00    -0.014 A 
ATOM     56  C   UNL A   1      43.983  32.094  32.256  1.00  0.00     0.009 A 
ATOM     57  C   UNL A   1      45.644  33.392  33.429  1.00  0.00     0.009 A 
ATOM     58  C   UNL A   1      44.726  32.206  31.077  1.00  0.00     0.001 A 
ATOM     59  C   UNL A   1      46.374  33.522  32.245  1.00  0.00     0.001 A 
ATOM     60  C   UNL A   1      45.919  32.924  31.071  1.00  0.00     0.000 A 
ENDBRANCH  42  55
ENDBRANCH  16  17
ENDBRANCH   9  11
ENDBRANCH   8   9
ENDBRANCH   7   8
ENDBRANCH   6   7
ENDBRANCH   5   6
ENDBRANCH   4   5
ENDBRANCH   3   4
ENDBRANCH   2   3
ENDBRANCH   1   2
BRANCH   1  61
ATOM     61  C   UNL A   1      29.901  27.105  23.230  1.00  0.00     0.188 C 
BRANCH  61  62
ATOM     62  O   UNL A   1      29.759  25.812  23.811  1.00  0.00    -0.376 OA
BRANCH  62  63
ATOM     63  C   UNL A   1      30.000  25.608  25.201  1.00  0.00     0.202 C 
BRANCH  63  64
ATOM     64  C   UNL A   1      31.295  24.921  25.649  1.00  0.00     0.261 C 
BRANCH  64  65
ATOM     65  O   UNL A   1      31.131  24.135  26.833  1.00  0.00    -0.459 OA
BRANCH  65  66
ATOM     66  C   UNL A   1      32.111  23.237  27.124  1.00  0.00     0.364 C 
ATOM     67  O   UNL A   1      32.315  22.774  28.236  1.00  0.00    -0.245 OA
BRANCH  66  68
ATOM     68  C   UNL A   1      32.832  22.759  25.834  1.00  0.00     0.295 C 
ATOM     69  C   UNL A   1      34.067  23.570  25.459  1.00  0.00     0.083 C 
ATOM     70  N   UNL A   1      33.355  21.403  26.054  1.00  0.00    -0.322 N 
ATOM     71  C   UNL A   1      35.173  22.956  26.292  1.00  0.00     0.068 C 
ATOM     72  C   UNL A   1      34.661  21.576  26.686  1.00  0.00     0.263 C 
ATOM     73  H   UNL A   1      32.749  20.874  26.683  1.00  0.00     0.348 HD
BRANCH  70  74
ATOM     74  C   UNL A   1      33.268  20.491  24.909  1.00  0.00     0.285 C 
BRANCH  74  75
ATOM     75  C   UNL A   1      34.341  19.419  24.617  1.00  0.00     0.184 C 
BRANCH  75  76
ATOM     76  N   UNL A   1      33.854  18.070  24.444  1.00  0.00    -0.332 N 
ATOM     77  C   UNL A   1      33.099  17.352  25.331  1.00  0.00     0.107 A 
ATOM     78  C   UNL A   1      34.084  17.268  23.362  1.00  0.00     0.199 A 
ATOM     79  C   UNL A   1      33.039  16.086  24.798  1.00  0.00     0.130 A 
ATOM     80  N   UNL A   1      33.636  16.050  23.566  1.00  0.00    -0.245 NA
ENDBRANCH  75  76
ENDBRANCH  74  75
ENDBRANCH  70  74
ENDBRANCH  66  68
ENDBRANCH  65  66
ENDBRANCH  64  65
ENDBRANCH  63  64
ENDBRANCH  62  63
ENDBRANCH  61  62
ENDBRANCH   1  61
TORSDOF 23
ENDMDL
MODEL 2
REMARK VINA RESULT:      -8.3      6.381     13.023
REMARK SMILES O=C(OCCOCCOCCOCCOC(=O)[C@H]1CCC[N@@H+]1CCn1ccnc1)c1ccc(-c2c3nc(c(-c4ccccc4)c4ccc([nH]4)c(-c4ccccc4)c4nc(c(-c5ccccc5)c5ccc2[nH]5)C=C4)C=C3)cc1
REMARK SMILES IDX 10 1 9 2 8 3 7 4 6 5 5 6 4 7 3 8 2 9 1 10 30 11 31 12 77 13
REMARK SMILES IDX 32 14 76 15 33 16 34 17 35 18 70 19 36 20 75 21 69 22 71 23
REMARK SMILES IDX 37 24 74 25 68 26 67 27 38 29 60 30 45 31 59 32 46 33 49 34
REMARK SMILES IDX 58 35 72 36 47 37 48 38 57 40 73 41 50 42 39 43 40 44 44 45
REMARK SMILES IDX 41 46 43 47 42 48 61 49 62 50 66 51 63 52 65 53 64 54 51 55
REMARK SMILES IDX 52 56 56 57 53 58 55 59 54 60 11 61 12 62 13 63 14 64 15 65
REMARK SMILES IDX 16 66 17 67 18 68 19 69 22 70 20 71 21 72 23 74 24 75 25 76
REMARK SMILES IDX 26 77 29 78 27 79 28 80
REMARK H PARENT 71 28 49 39 22 73
REMARK Flexibility Score: inf
ROOT
ATOM      1  C   UNL A   1      40.997  29.309  34.776  1.00  0.00     0.188 C 
ENDROOT
BRANCH   1   2
ATOM      2  O   UNL A   1      42.387  29.333  35.036  1.00  0.00    -0.377 OA
BRANCH   2   3
ATOM      3  C   UNL A   1      42.772  28.734  36.269  1.00  0.00     0.188 C 
BRANCH   3   4
ATOM      4  C   UNL A   1      42.058  27.415  36.631  1.00  0.00     0.188 C 
BRANCH   4   5
ATOM      5  O   UNL A   1      42.538  26.258  35.975  1.00  0.00    -0.376 OA
BRANCH   5   6
ATOM      6  C   UNL A   1      43.013  25.087  36.603  1.00  0.00     0.202 C 
BRANCH   6   7
ATOM      7  C   UNL A   1      44.338  24.957  37.374  1.00  0.00     0.261 C 
BRANCH   7   8
ATOM      8  O   UNL A   1      45.553  25.417  36.783  1.00  0.00    -0.460 OA
BRANCH   8   9
ATOM      9  C   UNL A   1      46.284  24.948  35.754  1.00  0.00     0.338 C 
ATOM     10  O   UNL A   1      47.470  24.692  35.920  1.00  0.00    -0.246 OA
BRANCH   9  11
ATOM     11  C   UNL A   1      45.751  24.909  34.377  1.00  0.00     0.060 A 
ATOM     12  C   UNL A   1      45.598  23.749  33.623  1.00  0.00     0.016 A 
ATOM     13  C   UNL A   1      45.431  26.161  33.812  1.00  0.00     0.016 A 
ATOM     14  C   UNL A   1      45.214  23.837  32.300  1.00  0.00     0.010 A 
ATOM     15  C   UNL A   1      45.059  26.256  32.483  1.00  0.00     0.010 A 
ATOM     16  C   UNL A   1      45.031  25.092  31.723  1.00  0.00    -0.014 A 
BRANCH  16  17
ATOM     17  C   UNL A   1      44.970  25.115  30.273  1.00  0.00     0.031 A 
ATOM     18  C   UNL A   1      45.943  25.990  29.580  1.00  0.00     0.074 A 
ATOM     19  C   UNL A   1      44.024  24.411  29.625  1.00  0.00     0.049 A 
ATOM     20  N   UNL A   1      45.696  27.015  28.830  1.00  0.00    -0.248 NA
ATOM     21  C   UNL A   1      47.370  25.745  29.825  1.00  0.00     0.031 C 
ATOM     22  C   UNL A   1      43.153  23.359  30.164  1.00  0.00     0.029 A 
ATOM     23  N   UNL A   1      43.715  24.423  28.302  1.00  0.00    -0.354 N 
ATOM     24  C   UNL A   1      46.933  27.447  28.358  1.00  0.00     0.074 A 
ATOM     25  C   UNL A   1      47.930  26.708  29.094  1.00  0.00     0.031 C 
ATOM     26  C   UNL A   1      42.610  22.672  29.139  1.00  0.00     0.029 A 
ATOM     27  C   UNL A   1      42.979  23.323  27.895  1.00  0.00     0.049 A 
ATOM     28  H   UNL A   1      43.989  25.146  27.690  1.00  0.00     0.167 HD
ATOM     29  C   UNL A   1      47.050  28.216  27.242  1.00  0.00     0.031 A 
ATOM     30  C   UNL A   1      42.767  22.924  26.621  1.00  0.00     0.031 A 
ATOM     31  C   UNL A   1      45.833  28.915  26.930  1.00  0.00     0.049 A 
ATOM     32  C   UNL A   1      43.011  24.080  25.731  1.00  0.00     0.074 A 
ATOM     33  C   UNL A   1      45.052  29.854  27.575  1.00  0.00     0.029 A 
ATOM     34  N   UNL A   1      45.060  28.434  25.902  1.00  0.00    -0.354 N 
ATOM     35  N   UNL A   1      42.237  25.126  25.684  1.00  0.00    -0.248 NA
ATOM     36  C   UNL A   1      44.348  24.272  25.190  1.00  0.00     0.031 C 
ATOM     37  C   UNL A   1      43.711  29.543  27.201  1.00  0.00     0.029 A 
ATOM     38  C   UNL A   1      43.759  28.457  26.324  1.00  0.00     0.049 A 
ATOM     39  H   UNL A   1      45.383  28.128  25.023  1.00  0.00     0.167 HD
ATOM     40  C   UNL A   1      43.099  26.201  25.514  1.00  0.00     0.074 A 
ATOM     41  C   UNL A   1      44.366  25.605  25.098  1.00  0.00     0.031 C 
ATOM     42  C   UNL A   1      42.786  27.441  25.995  1.00  0.00     0.031 A 
BRANCH  29  43
ATOM     43  C   UNL A   1      48.133  27.990  26.212  1.00  0.00    -0.014 A 
ATOM     44  C   UNL A   1      47.962  26.970  25.258  1.00  0.00     0.009 A 
ATOM     45  C   UNL A   1      49.429  28.528  26.332  1.00  0.00     0.009 A 
ATOM     46  C   UNL A   1      49.048  26.452  24.542  1.00  0.00     0.001 A 
ATOM     47  C   UNL A   1      50.507  28.044  25.588  1.00  0.00     0.001 A 
ATOM     48  C   UNL A   1      50.323  26.980  24.717  1.00  0.00     0.000 A 
ENDBRANCH  29  43
BRANCH  30  49
ATOM     49  C   UNL A   1      42.679  21.532  26.139  1.00  0.00    -0.014 A 
ATOM     50  C   UNL A   1      43.821  20.839  25.719  1.00  0.00     0.009 A 
ATOM     51  C   UNL A   1      41.490  20.797  26.315  1.00  0.00     0.009 A 
ATOM     52  C   UNL A   1      43.778  19.454  25.509  1.00  0.00     0.001 A 
ATOM     53  C   UNL A   1      41.445  19.419  26.098  1.00  0.00     0.001 A 
ATOM     54  C   UNL A   1      42.595  18.744  25.707  1.00  0.00     0.000 A 
ENDBRANCH  30  49
BRANCH  42  55
ATOM     55  C   UNL A   1      41.383  27.667  26.501  1.00  0.00    -0.014 A 
ATOM     56  C   UNL A   1      40.698  26.715  27.277  1.00  0.00     0.009 A 
ATOM     57  C   UNL A   1      40.797  28.929  26.324  1.00  0.00     0.009 A 
ATOM     58  C   UNL A   1      39.446  27.006  27.828  1.00  0.00     0.001 A 
ATOM     59  C   UNL A   1      39.556  29.227  26.894  1.00  0.00     0.001 A 
ATOM     60  C   UNL A   1      38.879  28.264  27.640  1.00  0.00     0.000 A 
ENDBRANCH  42  55
ENDBRANCH  16  17
ENDBRANCH   9  11
ENDBRANCH   8   9
ENDBRANCH   7   8
ENDBRANCH   6   7
ENDBRANCH   5   6
ENDBRANCH   4   5
ENDBRANCH   3   4
ENDBRANCH   2   3
ENDBRANCH   1   2
BRANCH   1  61
ATOM     61  C   UNL A   1      40.602  28.591  33.469  1.00  0.00     0.188 C 
BRANCH  61  62
ATOM     62  O   UNL A   1      39.267  28.146  33.251  1.00  0.00    -0.376 OA
BRANCH  62  63
ATOM     63  C   UNL A   1      38.518  28.610  32.130  1.00  0.00     0.202 C 
BRANCH  63  64
ATOM     64  C   UNL A   1      39.185  29.542  31.112  1.00  0.00     0.261 C 
BRANCH  64  65
ATOM     65  O   UNL A   1      38.275  30.030  30.121  1.00  0.00    -0.459 OA
BRANCH  65  66
ATOM     66  C   UNL A   1      36.981  30.214  30.503  1.00  0.00     0.364 C 
ATOM     67  O   UNL A   1      36.228  29.315  30.843  1.00  0.00    -0.245 OA
BRANCH  66  68
ATOM     68  C   UNL A   1      36.637  31.725  30.599  1.00  0.00     0.295 C 
ATOM     69  C   UNL A   1      37.214  32.582  29.477  1.00  0.00     0.083 C 
ATOM     70  N   UNL A   1      35.184  31.893  30.458  1.00  0.00    -0.322 N 
ATOM     71  C   UNL A   1      36.210  32.436  28.353  1.00  0.00     0.068 C 
ATOM     72  C   UNL A   1      34.926  31.956  29.021  1.00  0.00     0.263 C 
ATOM     73  H   UNL A   1      34.682  31.096  30.850  1.00  0.00     0.348 HD
BRANCH  70  74
ATOM     74  C   UNL A   1      34.574  32.924  31.304  1.00  0.00     0.285 C 
BRANCH  74  75
ATOM     75  C   UNL A   1      35.055  34.392  31.304  1.00  0.00     0.184 C 
BRANCH  75  76
ATOM     76  N   UNL A   1      34.076  35.377  31.701  1.00  0.00    -0.332 N 
ATOM     77  C   UNL A   1      34.148  36.216  32.778  1.00  0.00     0.107 A 
ATOM     78  C   UNL A   1      32.889  35.625  31.071  1.00  0.00     0.199 A 
ATOM     79  C   UNL A   1      32.919  36.829  32.831  1.00  0.00     0.130 A 
ATOM     80  N   UNL A   1      32.152  36.471  31.754  1.00  0.00    -0.245 NA
ENDBRANCH  75  76
ENDBRANCH  74  75
ENDBRANCH  70  74
ENDBRANCH  66  68
ENDBRANCH  65  66
ENDBRANCH  64  65
ENDBRANCH  63  64
ENDBRANCH  62  63
ENDBRANCH  61  62
ENDBRANCH   1  61
TORSDOF 23
ENDMDL
MODEL 3
REMARK VINA RESULT:      -8.0      1.364      2.431
REMARK SMILES O=C(OCCOCCOCCOCCOC(=O)[C@H]1CCC[N@@H+]1CCn1ccnc1)c1ccc(-c2c3nc(c(-c4ccccc4)c4ccc([nH]4)c(-c4ccccc4)c4nc(c(-c5ccccc5)c5ccc2[nH]5)C=C4)C=C3)cc1
REMARK SMILES IDX 10 1 9 2 8 3 7 4 6 5 5 6 4 7 3 8 2 9 1 10 30 11 31 12 77 13
REMARK SMILES IDX 32 14 76 15 33 16 34 17 35 18 70 19 36 20 75 21 69 22 71 23
REMARK SMILES IDX 37 24 74 25 68 26 67 27 38 29 60 30 45 31 59 32 46 33 49 34
REMARK SMILES IDX 58 35 72 36 47 37 48 38 57 40 73 41 50 42 39 43 40 44 44 45
REMARK SMILES IDX 41 46 43 47 42 48 61 49 62 50 66 51 63 52 65 53 64 54 51 55
REMARK SMILES IDX 52 56 56 57 53 58 55 59 54 60 11 61 12 62 13 63 14 64 15 65
REMARK SMILES IDX 16 66 17 67 18 68 19 69 22 70 20 71 21 72 23 74 24 75 25 76
REMARK SMILES IDX 26 77 29 78 27 79 28 80
REMARK H PARENT 71 28 49 39 22 73
REMARK Flexibility Score: inf
ROOT
ATOM      1  C   UNL A   1      30.696  28.560  22.586  1.00  0.00     0.188 C 
ENDROOT
BRANCH   1   2
ATOM      2  O   UNL A   1      30.901  29.797  23.240  1.00  0.00    -0.377 OA
BRANCH   2   3
ATOM      3  C   UNL A   1      31.180  29.696  24.632  1.00  0.00     0.188 C 
BRANCH   3   4
ATOM      4  C   UNL A   1      30.680  30.863  25.507  1.00  0.00     0.188 C 
BRANCH   4   5
ATOM      5  O   UNL A   1      31.662  31.494  26.306  1.00  0.00    -0.376 OA
BRANCH   5   6
ATOM      6  C   UNL A   1      32.777  30.864  26.901  1.00  0.00     0.202 C 
BRANCH   6   7
ATOM      7  C   UNL A   1      33.884  31.570  27.701  1.00  0.00     0.261 C 
BRANCH   7   8
ATOM      8  O   UNL A   1      35.251  31.215  27.491  1.00  0.00    -0.460 OA
BRANCH   8   9
ATOM      9  C   UNL A   1      36.058  30.342  28.121  1.00  0.00     0.338 C 
ATOM     10  O   UNL A   1      36.119  29.182  27.730  1.00  0.00    -0.246 OA
BRANCH   9  11
ATOM     11  C   UNL A   1      36.735  30.684  29.388  1.00  0.00     0.060 A 
ATOM     12  C   UNL A   1      37.752  31.628  29.510  1.00  0.00     0.016 A 
ATOM     13  C   UNL A   1      36.321  29.948  30.518  1.00  0.00     0.016 A 
ATOM     14  C   UNL A   1      38.407  31.777  30.715  1.00  0.00     0.010 A 
ATOM     15  C   UNL A   1      36.984  30.085  31.725  1.00  0.00     0.010 A 
ATOM     16  C   UNL A   1      38.073  30.947  31.784  1.00  0.00    -0.014 A 
BRANCH  16  17
ATOM     17  C   UNL A   1      39.019  30.927  32.884  1.00  0.00     0.031 A 
ATOM     18  C   UNL A   1      38.832  31.949  33.940  1.00  0.00     0.074 A 
ATOM     19  C   UNL A   1      40.039  30.051  32.883  1.00  0.00     0.049 A 
ATOM     20  N   UNL A   1      39.645  32.897  34.281  1.00  0.00    -0.248 NA
ATOM     21  C   UNL A   1      37.543  31.972  34.642  1.00  0.00     0.031 C 
ATOM     22  C   UNL A   1      40.214  28.871  32.027  1.00  0.00     0.029 A 
ATOM     23  N   UNL A   1      41.097  29.979  33.733  1.00  0.00    -0.354 N 
ATOM     24  C   UNL A   1      39.050  33.534  35.366  1.00  0.00     0.074 A 
ATOM     25  C   UNL A   1      37.712  33.004  35.467  1.00  0.00     0.031 C 
ATOM     26  C   UNL A   1      41.160  28.075  32.567  1.00  0.00     0.029 A 
ATOM     27  C   UNL A   1      41.745  28.756  33.708  1.00  0.00     0.049 A 
ATOM     28  H   UNL A   1      41.375  30.726  34.312  1.00  0.00     0.167 HD
ATOM     29  C   UNL A   1      39.768  34.288  36.241  1.00  0.00     0.031 A 
ATOM     30  C   UNL A   1      42.634  28.298  34.618  1.00  0.00     0.031 A 
ATOM     31  C   UNL A   1      41.008  34.750  35.676  1.00  0.00     0.049 A 
ATOM     32  C   UNL A   1      43.175  29.460  35.356  1.00  0.00     0.074 A 
ATOM     33  C   UNL A   1      41.357  35.546  34.603  1.00  0.00     0.029 A 
ATOM     34  N   UNL A   1      42.164  34.115  36.059  1.00  0.00    -0.354 N 
ATOM     35  N   UNL A   1      43.963  30.348  34.821  1.00  0.00    -0.248 NA
ATOM     36  C   UNL A   1      42.508  29.879  36.580  1.00  0.00     0.031 C 
ATOM     37  C   UNL A   1      42.573  34.990  34.108  1.00  0.00     0.029 A 
ATOM     38  C   UNL A   1      42.910  33.911  34.929  1.00  0.00     0.049 A 
ATOM     39  H   UNL A   1      42.411  33.854  36.976  1.00  0.00     0.167 HD
ATOM     40  C   UNL A   1      43.570  31.557  35.379  1.00  0.00     0.074 A 
ATOM     41  C   UNL A   1      42.757  31.191  36.536  1.00  0.00     0.031 C 
ATOM     42  C   UNL A   1      43.706  32.730  34.691  1.00  0.00     0.031 A 
BRANCH  29  43
ATOM     43  C   UNL A   1      39.535  34.241  37.734  1.00  0.00    -0.014 A 
ATOM     44  C   UNL A   1      39.423  35.451  38.443  1.00  0.00     0.009 A 
ATOM     45  C   UNL A   1      39.725  33.076  38.503  1.00  0.00     0.009 A 
ATOM     46  C   UNL A   1      39.595  35.500  39.832  1.00  0.00     0.001 A 
ATOM     47  C   UNL A   1      39.853  33.115  39.893  1.00  0.00     0.001 A 
ATOM     48  C   UNL A   1      39.823  34.334  40.555  1.00  0.00     0.000 A 
ENDBRANCH  29  43
BRANCH  30  49
ATOM     49  C   UNL A   1      42.784  26.903  35.076  1.00  0.00    -0.014 A 
ATOM     50  C   UNL A   1      41.684  26.173  35.541  1.00  0.00     0.009 A 
ATOM     51  C   UNL A   1      43.983  26.204  34.831  1.00  0.00     0.009 A 
ATOM     52  C   UNL A   1      41.775  24.787  35.729  1.00  0.00     0.001 A 
ATOM     53  C   UNL A   1      44.076  24.825  35.027  1.00  0.00     0.001 A 
ATOM     54  C   UNL A   1      42.967  24.114  35.463  1.00  0.00     0.000 A 
ENDBRANCH  30  49
BRANCH  42  55
ATOM     55  C   UNL A   1      44.510  32.709  33.415  1.00  0.00    -0.014 A 
ATOM     56  C   UNL A   1      45.914  32.797  33.405  1.00  0.00     0.009 A 
ATOM     57  C   UNL A   1      43.851  32.439  32.207  1.00  0.00     0.009 A 
ATOM     58  C   UNL A   1      46.632  32.655  32.214  1.00  0.00     0.001 A 
ATOM     59  C   UNL A   1      44.572  32.276  31.021  1.00  0.00     0.001 A 
ATOM     60  C   UNL A   1      45.960  32.390  31.024  1.00  0.00     0.000 A 
ENDBRANCH  42  55
ENDBRANCH  16  17
ENDBRANCH   9  11
ENDBRANCH   8   9
ENDBRANCH   7   8
ENDBRANCH   6   7
ENDBRANCH   5   6
ENDBRANCH   4   5
ENDBRANCH   3   4
ENDBRANCH   2   3
ENDBRANCH   1   2
BRANCH   1  61
ATOM     61  C   UNL A   1      29.633  27.656  23.245  1.00  0.00     0.188 C 
BRANCH  61  62
ATOM     62  O   UNL A   1      29.947  26.328  23.649  1.00  0.00    -0.376 OA
BRANCH  62  63
ATOM     63  C   UNL A   1      30.128  26.009  25.026  1.00  0.00     0.202 C 
BRANCH  63  64
ATOM     64  C   UNL A   1      31.322  25.145  25.449  1.00  0.00     0.261 C 
BRANCH  64  65
ATOM     65  O   UNL A   1      31.048  24.337  26.598  1.00  0.00    -0.459 OA
BRANCH  65  66
ATOM     66  C   UNL A   1      32.021  23.472  26.996  1.00  0.00     0.364 C 
ATOM     67  O   UNL A   1      31.973  22.802  28.017  1.00  0.00    -0.245 OA
BRANCH  66  68
ATOM     68  C   UNL A   1      33.122  23.332  25.911  1.00  0.00     0.295 C 
ATOM     69  C   UNL A   1      34.543  23.241  26.454  1.00  0.00     0.083 C 
ATOM     70  N   UNL A   1      32.934  22.056  25.203  1.00  0.00    -0.322 N 
ATOM     71  C   UNL A   1      34.709  21.775  26.798  1.00  0.00     0.068 C 
ATOM     72  C   UNL A   1      33.631  21.050  26.000  1.00  0.00     0.263 C 
ATOM     73  H   UNL A   1      31.945  21.809  25.148  1.00  0.00     0.348 HD
BRANCH  70  74
ATOM     74  C   UNL A   1      33.194  22.082  23.760  1.00  0.00     0.285 C 
BRANCH  74  75
ATOM     75  C   UNL A   1      34.240  23.021  23.120  1.00  0.00     0.184 C 
BRANCH  75  76
ATOM     76  N   UNL A   1      33.745  24.303  22.674  1.00  0.00    -0.332 N 
ATOM     77  C   UNL A   1      32.840  24.529  21.674  1.00  0.00     0.107 A 
ATOM     78  C   UNL A   1      34.118  25.521  23.169  1.00  0.00     0.199 A 
ATOM     79  C   UNL A   1      32.826  25.895  21.513  1.00  0.00     0.130 A 
ATOM     80  N   UNL A   1      33.607  26.502  22.460  1.00  0.00    -0.245 NA
ENDBRANCH  75  76
ENDBRANCH  74  75
ENDBRANCH  70  74
ENDBRANCH  66  68
ENDBRANCH  65  66
ENDBRANCH  64  65
ENDBRANCH  63  64
ENDBRANCH  62  63
ENDBRANCH  61  62
ENDBRANCH   1  61
TORSDOF 23
ENDMDL
