MODEL 1
REMARK VINA RESULT:     -13.3      0.000      0.000
REMARK SMILES Cc1ccc(-c2cc(C(=O)OCCOCCOCCOCCOC(=O)c3ccc(-c4c5nc(c(-c6ccccc6)c6ccc([nH]6)c(-c6ccccc6)c6nc(c(-c7ccccc7)c7ccc4[nH]7)C=C6)C=C5)cc3)c3c(-c4cccc([N+](=O)[O-])c4)[nH]nc3n2)cc1
REMARK SMILES IDX 17 1 16 2 15 3 14 4 13 5 12 6 11 7 9 8 10 9 8 10 6 11 7 12
REMARK SMILES IDX 88 13 87 14 74 15 86 16 75 17 85 18 5 20 1 21 2 22 3 23
REMARK SMILES IDX 90 24 4 25 89 26 76 27 77 28 84 29 78 30 80 31 79 32 81 33
REMARK SMILES IDX 82 34 83 35 18 36 19 37 20 38 21 39 22 40 23 41 24 42 25 43
REMARK SMILES IDX 26 44 27 45 73 46 28 47 72 48 29 49 30 50 31 51 66 52 32 53
REMARK SMILES IDX 71 54 65 55 67 56 33 57 70 58 64 59 63 60 34 62 56 63 41 64
REMARK SMILES IDX 55 65 42 66 45 67 54 68 68 69 43 70 44 71 53 73 69 74 46 75
REMARK SMILES IDX 35 76 36 77 40 78 37 79 39 80 38 81 57 82 58 83 62 84 59 85
REMARK SMILES IDX 61 86 60 87 47 88 48 89 52 90 49 91 51 92 50 93
REMARK H PARENT 85 19 67 61 45 72
REMARK Flexibility Score: inf
ROOT
ATOM      1  O   UNL A   1      33.026  34.345  28.551  1.00  0.00    -0.377 OA
ENDROOT
BRANCH   1   2
ATOM      2  C   UNL A   1      33.876  33.228  28.290  1.00  0.00     0.188 C 
BRANCH   2   3
ATOM      3  C   UNL A   1      33.617  31.741  27.564  1.00  0.00     0.188 C 
BRANCH   3   4
ATOM      4  O   UNL A   1      34.035  30.005  27.840  1.00  0.00    -0.376 OA
BRANCH   4   5
ATOM      5  C   UNL A   1      33.951  28.504  26.934  1.00  0.00     0.202 C 
BRANCH   5   6
ATOM      6  C   UNL A   1      34.758  28.088  25.290  1.00  0.00     0.261 C 
BRANCH   6   7
ATOM      7  O   UNL A   1      33.915  27.289  23.877  1.00  0.00    -0.460 OA
BRANCH   7   8
ATOM      8  C   UNL A   1      33.378  26.040  23.246  1.00  0.00     0.339 C 
ATOM      9  O   UNL A   1      33.487  25.785  22.054  1.00  0.00    -0.246 OA
BRANCH   8  10
ATOM     10  C   UNL A   1      32.596  24.832  23.911  1.00  0.00     0.075 A 
ATOM     11  C   UNL A   1      32.184  22.375  24.586  1.00  0.00     0.074 A 
ATOM     12  C   UNL A   1      32.727  23.421  23.790  1.00  0.00     0.045 A 
ATOM     13  N   UNL A   1      31.348  22.584  25.606  1.00  0.00    -0.226 NA
ATOM     14  C   UNL A   1      31.008  23.892  25.718  1.00  0.00     0.182 A 
ATOM     15  C   UNL A   1      31.565  24.972  24.894  1.00  0.00     0.061 A 
ATOM     16  N   UNL A   1      30.092  24.328  26.575  1.00  0.00    -0.154 NA
ATOM     17  C   UNL A   1      30.742  26.051  25.219  1.00  0.00     0.076 A 
ATOM     18  N   UNL A   1      29.969  25.616  26.268  1.00  0.00    -0.275 N 
ATOM     19  H   UNL A   1      29.364  26.217  26.760  1.00  0.00     0.190 HD
BRANCH  11  20
ATOM     20  C   UNL A   1      32.570  20.974  24.266  1.00  0.00     0.000 A 
ATOM     21  C   UNL A   1      33.401  16.787  23.401  1.00  0.00     0.044 C 
ATOM     22  C   UNL A   1      33.092  18.226  23.703  1.00  0.00    -0.051 A 
ATOM     23  C   UNL A   1      33.516  18.809  24.904  1.00  0.00     0.004 A 
ATOM     24  C   UNL A   1      32.415  19.022  22.778  1.00  0.00     0.004 A 
ATOM     25  C   UNL A   1      33.258  20.164  25.180  1.00  0.00     0.010 A 
ATOM     26  C   UNL A   1      32.155  20.372  23.060  1.00  0.00     0.010 A 
ENDBRANCH  11  20
BRANCH  17  27
ATOM     27  C   UNL A   1      30.468  27.383  24.689  1.00  0.00     0.007 A 
ATOM     28  C   UNL A   1      31.303  28.455  25.023  1.00  0.00     0.011 A 
ATOM     29  C   UNL A   1      29.333  27.619  23.902  1.00  0.00     0.096 A 
ATOM     30  C   UNL A   1      31.054  29.735  24.527  1.00  0.00     0.008 A 
ATOM     31  C   UNL A   1      29.094  28.909  23.400  1.00  0.00     0.270 A 
ATOM     32  C   UNL A   1      29.954  29.969  23.703  1.00  0.00     0.085 A 
BRANCH  31  33
ATOM     33  N   UNL A   1      28.007  29.122  22.435  1.00  0.00     0.062 N 
ATOM     34  O   UNL A   1      26.855  28.831  22.788  1.00  0.00    -0.258 OA
ATOM     35  O   UNL A   1      28.297  29.640  21.347  1.00  0.00    -0.258 OA
ENDBRANCH  31  33
ENDBRANCH  17  27
ENDBRANCH   8  10
ENDBRANCH   7   8
ENDBRANCH   6   7
ENDBRANCH   5   6
ENDBRANCH   4   5
ENDBRANCH   3   4
ENDBRANCH   2   3
ENDBRANCH   1   2
BRANCH   1  36
ATOM     36  C   UNL A   1      33.193  35.318  29.561  1.00  0.00     0.188 C 
BRANCH  36  37
ATOM     37  C   UNL A   1      34.064  35.058  30.765  1.00  0.00     0.188 C 
BRANCH  37  38
ATOM     38  O   UNL A   1      33.596  33.931  31.478  1.00  0.00    -0.376 OA
BRANCH  38  39
ATOM     39  C   UNL A   1      34.459  33.538  32.536  1.00  0.00     0.202 C 
BRANCH  39  40
ATOM     40  C   UNL A   1      35.768  32.914  32.023  1.00  0.00     0.261 C 
BRANCH  40  41
ATOM     41  O   UNL A   1      35.477  31.811  31.136  1.00  0.00    -0.460 OA
BRANCH  41  42
ATOM     42  C   UNL A   1      36.186  30.662  31.307  1.00  0.00     0.338 C 
ATOM     43  O   UNL A   1      36.398  30.102  32.395  1.00  0.00    -0.246 OA
BRANCH  42  44
ATOM     44  C   UNL A   1      36.950  30.372  30.071  1.00  0.00     0.060 A 
ATOM     45  C   UNL A   1      37.052  29.110  29.487  1.00  0.00     0.016 A 
ATOM     46  C   UNL A   1      37.868  31.282  29.669  1.00  0.00     0.016 A 
ATOM     47  C   UNL A   1      38.284  28.653  28.892  1.00  0.00     0.010 A 
ATOM     48  C   UNL A   1      39.046  30.775  29.129  1.00  0.00     0.010 A 
ATOM     49  C   UNL A   1      39.482  29.372  28.967  1.00  0.00    -0.014 A 
BRANCH  49  50
ATOM     50  C   UNL A   1      41.204  28.628  28.915  1.00  0.00     0.031 A 
ATOM     51  C   UNL A   1      41.649  26.905  27.966  1.00  0.00     0.074 A 
ATOM     52  C   UNL A   1      42.024  29.397  29.827  1.00  0.00     0.049 A 
ATOM     53  N   UNL A   1      42.135  25.780  28.578  1.00  0.00    -0.248 NA
ATOM     54  C   UNL A   1      40.996  26.017  26.744  1.00  0.00     0.031 C 
ATOM     55  C   UNL A   1      43.436  29.354  30.281  1.00  0.00     0.029 A 
ATOM     56  N   UNL A   1      41.639  30.382  30.774  1.00  0.00    -0.354 N 
ATOM     57  C   UNL A   1      42.197  24.575  27.952  1.00  0.00     0.074 A 
ATOM     58  C   UNL A   1      41.284  24.721  26.896  1.00  0.00     0.031 C 
ATOM     59  C   UNL A   1      43.803  30.147  31.281  1.00  0.00     0.029 A 
ATOM     60  C   UNL A   1      42.577  30.497  31.829  1.00  0.00     0.049 A 
ATOM     61  H   UNL A   1      40.816  30.920  30.706  1.00  0.00     0.167 HD
ATOM     62  C   UNL A   1      43.059  23.589  28.345  1.00  0.00     0.031 A 
ATOM     63  C   UNL A   1      42.349  30.113  33.108  1.00  0.00     0.031 A 
ATOM     64  C   UNL A   1      44.003  24.027  29.397  1.00  0.00     0.049 A 
ATOM     65  C   UNL A   1      43.022  28.753  33.478  1.00  0.00     0.074 A 
ATOM     66  C   UNL A   1      45.297  24.521  29.316  1.00  0.00     0.029 A 
ATOM     67  N   UNL A   1      43.587  24.316  30.701  1.00  0.00    -0.354 N 
ATOM     68  N   UNL A   1      43.219  27.718  32.670  1.00  0.00    -0.248 NA
ATOM     69  C   UNL A   1      43.739  28.570  34.739  1.00  0.00     0.031 C 
ATOM     70  C   UNL A   1      45.554  25.305  30.481  1.00  0.00     0.029 A 
ATOM     71  C   UNL A   1      44.470  25.197  31.349  1.00  0.00     0.049 A 
ATOM     72  H   UNL A   1      42.774  23.947  31.115  1.00  0.00     0.167 HD
ATOM     73  C   UNL A   1      43.996  26.741  33.284  1.00  0.00     0.074 A 
ATOM     74  C   UNL A   1      44.321  27.368  34.565  1.00  0.00     0.031 C 
ATOM     75  C   UNL A   1      44.381  25.500  32.793  1.00  0.00     0.031 A 
BRANCH  62  76
ATOM     76  C   UNL A   1      43.267  22.419  27.392  1.00  0.00    -0.014 A 
ATOM     77  C   UNL A   1      44.266  22.466  26.406  1.00  0.00     0.009 A 
ATOM     78  C   UNL A   1      42.402  21.305  27.340  1.00  0.00     0.009 A 
ATOM     79  C   UNL A   1      44.299  21.548  25.343  1.00  0.00     0.001 A 
ATOM     80  C   UNL A   1      42.390  20.419  26.249  1.00  0.00     0.001 A 
ATOM     81  C   UNL A   1      43.329  20.556  25.237  1.00  0.00     0.000 A 
ENDBRANCH  62  76
BRANCH  63  82
ATOM     82  C   UNL A   1      41.214  30.950  33.580  1.00  0.00    -0.014 A 
ATOM     83  C   UNL A   1      40.073  30.201  34.021  1.00  0.00     0.009 A 
ATOM     84  C   UNL A   1      41.433  32.200  34.154  1.00  0.00     0.009 A 
ATOM     85  C   UNL A   1      39.357  30.568  35.162  1.00  0.00     0.001 A 
ATOM     86  C   UNL A   1      40.647  32.604  35.251  1.00  0.00     0.001 A 
ATOM     87  C   UNL A   1      39.661  31.766  35.788  1.00  0.00     0.000 A 
ENDBRANCH  63  82
BRANCH  75  88
ATOM     88  C   UNL A   1      44.844  24.332  33.679  1.00  0.00    -0.014 A 
ATOM     89  C   UNL A   1      44.048  23.234  34.015  1.00  0.00     0.009 A 
ATOM     90  C   UNL A   1      46.218  24.223  34.026  1.00  0.00     0.009 A 
ATOM     91  C   UNL A   1      44.586  22.108  34.658  1.00  0.00     0.001 A 
ATOM     92  C   UNL A   1      46.771  23.081  34.604  1.00  0.00     0.001 A 
ATOM     93  C   UNL A   1      45.949  22.019  34.926  1.00  0.00     0.000 A 
ENDBRANCH  75  88
ENDBRANCH  49  50
ENDBRANCH  42  44
ENDBRANCH  41  42
ENDBRANCH  40  41
ENDBRANCH  39  40
ENDBRANCH  38  39
ENDBRANCH  37  38
ENDBRANCH  36  37
ENDBRANCH   1  36
TORSDOF 23
ENDMDL
MODEL 2
REMARK VINA RESULT:     -12.7      3.377      8.088
REMARK SMILES Cc1ccc(-c2cc(C(=O)OCCOCCOCCOCCOC(=O)c3ccc(-c4c5nc(c(-c6ccccc6)c6ccc([nH]6)c(-c6ccccc6)c6nc(c(-c7ccccc7)c7ccc4[nH]7)C=C6)C=C5)cc3)c3c(-c4cccc([N+](=O)[O-])c4)[nH]nc3n2)cc1
REMARK SMILES IDX 17 1 16 2 15 3 14 4 13 5 12 6 11 7 9 8 10 9 8 10 6 11 7 12
REMARK SMILES IDX 88 13 87 14 74 15 86 16 75 17 85 18 5 20 1 21 2 22 3 23
REMARK SMILES IDX 90 24 4 25 89 26 76 27 77 28 84 29 78 30 80 31 79 32 81 33
REMARK SMILES IDX 82 34 83 35 18 36 19 37 20 38 21 39 22 40 23 41 24 42 25 43
REMARK SMILES IDX 26 44 27 45 73 46 28 47 72 48 29 49 30 50 31 51 66 52 32 53
REMARK SMILES IDX 71 54 65 55 67 56 33 57 70 58 64 59 63 60 34 62 56 63 41 64
REMARK SMILES IDX 55 65 42 66 45 67 54 68 68 69 43 70 44 71 53 73 69 74 46 75
REMARK SMILES IDX 35 76 36 77 40 78 37 79 39 80 38 81 57 82 58 83 62 84 59 85
REMARK SMILES IDX 61 86 60 87 47 88 48 89 52 90 49 91 51 92 50 93
REMARK H PARENT 85 19 67 61 45 72
REMARK Flexibility Score: inf
ROOT
ATOM      1  O   UNL A   1      36.830  24.127  25.214  1.00  0.00    -0.377 OA
ENDROOT
BRANCH   1   2
ATOM      2  C   UNL A   1      35.775  23.366  24.625  1.00  0.00     0.188 C 
BRANCH   2   3
ATOM      3  C   UNL A   1      35.281  23.135  23.041  1.00  0.00     0.188 C 
BRANCH   3   4
ATOM      4  O   UNL A   1      33.902  23.597  21.968  1.00  0.00    -0.376 OA
BRANCH   4   5
ATOM      5  C   UNL A   1      32.878  25.001  21.725  1.00  0.00     0.202 C 
BRANCH   5   6
ATOM      6  C   UNL A   1      33.297  26.811  22.001  1.00  0.00     0.261 C 
BRANCH   6   7
ATOM      7  O   UNL A   1      34.000  27.506  23.539  1.00  0.00    -0.460 OA
BRANCH   7   8
ATOM      8  C   UNL A   1      34.105  27.461  25.033  1.00  0.00     0.339 C 
ATOM      9  O   UNL A   1      34.230  26.423  25.670  1.00  0.00    -0.246 OA
BRANCH   8  10
ATOM     10  C   UNL A   1      34.079  28.650  26.081  1.00  0.00     0.075 A 
ATOM     11  C   UNL A   1      35.031  30.204  27.909  1.00  0.00     0.074 A 
ATOM     12  C   UNL A   1      34.942  29.001  27.156  1.00  0.00     0.045 A 
ATOM     13  N   UNL A   1      34.203  31.238  27.745  1.00  0.00    -0.226 NA
ATOM     14  C   UNL A   1      33.219  30.959  26.856  1.00  0.00     0.182 A 
ATOM     15  C   UNL A   1      33.123  29.715  26.081  1.00  0.00     0.061 A 
ATOM     16  N   UNL A   1      32.204  31.783  26.622  1.00  0.00    -0.154 NA
ATOM     17  C   UNL A   1      31.850  29.810  25.519  1.00  0.00     0.076 A 
ATOM     18  N   UNL A   1      31.417  31.082  25.810  1.00  0.00    -0.275 N 
ATOM     19  H   UNL A   1      30.581  31.449  25.443  1.00  0.00     0.190 HD
BRANCH  11  20
ATOM     20  C   UNL A   1      36.106  30.316  28.932  1.00  0.00     0.000 A 
ATOM     21  C   UNL A   1      39.029  30.728  32.135  1.00  0.00     0.044 C 
ATOM     22  C   UNL A   1      38.004  30.590  31.045  1.00  0.00    -0.051 A 
ATOM     23  C   UNL A   1      37.867  31.582  30.066  1.00  0.00     0.004 A 
ATOM     24  C   UNL A   1      37.198  29.454  30.960  1.00  0.00     0.004 A 
ATOM     25  C   UNL A   1      36.930  31.446  29.025  1.00  0.00     0.010 A 
ATOM     26  C   UNL A   1      36.262  29.324  29.923  1.00  0.00     0.010 A 
ENDBRANCH  11  20
BRANCH  17  27
ATOM     27  C   UNL A   1      30.913  28.922  24.838  1.00  0.00     0.007 A 
ATOM     28  C   UNL A   1      30.946  27.545  25.088  1.00  0.00     0.011 A 
ATOM     29  C   UNL A   1      30.021  29.423  23.880  1.00  0.00     0.096 A 
ATOM     30  C   UNL A   1      30.058  26.682  24.445  1.00  0.00     0.008 A 
ATOM     31  C   UNL A   1      29.125  28.549  23.244  1.00  0.00     0.270 A 
ATOM     32  C   UNL A   1      29.135  27.179  23.526  1.00  0.00     0.085 A 
BRANCH  31  33
ATOM     33  N   UNL A   1      28.075  29.093  22.373  1.00  0.00     0.062 N 
ATOM     34  O   UNL A   1      26.899  28.996  22.754  1.00  0.00    -0.258 OA
ATOM     35  O   UNL A   1      28.430  29.675  21.338  1.00  0.00    -0.258 OA
ENDBRANCH  31  33
ENDBRANCH  17  27
ENDBRANCH   8  10
ENDBRANCH   7   8
ENDBRANCH   6   7
ENDBRANCH   5   6
ENDBRANCH   4   5
ENDBRANCH   3   4
ENDBRANCH   2   3
ENDBRANCH   1   2
BRANCH   1  36
ATOM     36  C   UNL A   1      37.681  23.720  26.266  1.00  0.00     0.188 C 
BRANCH  36  37
ATOM     37  C   UNL A   1      38.634  22.563  26.101  1.00  0.00     0.188 C 
BRANCH  37  38
ATOM     38  O   UNL A   1      39.936  22.935  26.508  1.00  0.00    -0.376 OA
BRANCH  38  39
ATOM     39  C   UNL A   1      40.702  21.845  27.005  1.00  0.00     0.202 C 
BRANCH  39  40
ATOM     40  C   UNL A   1      41.944  21.562  26.145  1.00  0.00     0.261 C 
BRANCH  40  41
ATOM     41  O   UNL A   1      42.833  22.702  26.169  1.00  0.00    -0.460 OA
BRANCH  41  42
ATOM     42  C   UNL A   1      43.216  23.227  24.972  1.00  0.00     0.338 C 
ATOM     43  O   UNL A   1      43.539  22.571  23.968  1.00  0.00    -0.246 OA
BRANCH  42  44
ATOM     44  C   UNL A   1      43.524  24.666  25.149  1.00  0.00     0.060 A 
ATOM     45  C   UNL A   1      44.765  25.242  24.879  1.00  0.00     0.016 A 
ATOM     46  C   UNL A   1      42.690  25.399  25.921  1.00  0.00     0.016 A 
ATOM     47  C   UNL A   1      45.312  26.280  25.719  1.00  0.00     0.010 A 
ATOM     48  C   UNL A   1      43.283  26.365  26.729  1.00  0.00     0.010 A 
ATOM     49  C   UNL A   1      44.714  26.689  26.916  1.00  0.00    -0.014 A 
BRANCH  49  50
ATOM     50  C   UNL A   1      45.615  27.424  28.390  1.00  0.00     0.031 A 
ATOM     51  C   UNL A   1      47.396  26.754  29.057  1.00  0.00     0.074 A 
ATOM     52  C   UNL A   1      44.705  28.358  29.018  1.00  0.00     0.049 A 
ATOM     53  N   UNL A   1      47.614  26.226  30.302  1.00  0.00    -0.248 NA
ATOM     54  C   UNL A   1      48.664  25.916  28.426  1.00  0.00     0.031 C 
ATOM     55  C   UNL A   1      44.749  29.250  30.202  1.00  0.00     0.029 A 
ATOM     56  N   UNL A   1      43.323  28.572  28.776  1.00  0.00    -0.354 N 
ATOM     57  C   UNL A   1      48.760  25.573  30.629  1.00  0.00     0.074 A 
ATOM     58  C   UNL A   1      49.289  25.218  29.378  1.00  0.00     0.031 C 
ATOM     59  C   UNL A   1      43.631  29.861  30.576  1.00  0.00     0.029 A 
ATOM     60  C   UNL A   1      42.667  29.121  29.905  1.00  0.00     0.049 A 
ATOM     61  H   UNL A   1      42.874  28.362  27.925  1.00  0.00     0.167 HD
ATOM     62  C   UNL A   1      49.188  25.448  31.922  1.00  0.00     0.031 A 
ATOM     63  C   UNL A   1      41.765  28.460  30.669  1.00  0.00     0.031 A 
ATOM     64  C   UNL A   1      48.370  26.219  32.883  1.00  0.00     0.049 A 
ATOM     65  C   UNL A   1      42.352  27.952  32.025  1.00  0.00     0.074 A 
ATOM     66  C   UNL A   1      48.539  27.491  33.412  1.00  0.00     0.029 A 
ATOM     67  N   UNL A   1      47.048  25.874  33.186  1.00  0.00    -0.354 N 
ATOM     68  N   UNL A   1      43.595  27.544  32.248  1.00  0.00    -0.248 NA
ATOM     69  C   UNL A   1      41.622  28.103  33.282  1.00  0.00     0.031 C 
ATOM     70  C   UNL A   1      47.260  27.987  33.811  1.00  0.00     0.029 A 
ATOM     71  C   UNL A   1      46.313  26.978  33.651  1.00  0.00     0.049 A 
ATOM     72  H   UNL A   1      46.679  24.968  33.085  1.00  0.00     0.167 HD
ATOM     73  C   UNL A   1      43.816  27.323  33.604  1.00  0.00     0.074 A 
ATOM     74  C   UNL A   1      42.544  27.738  34.193  1.00  0.00     0.031 C 
ATOM     75  C   UNL A   1      44.961  26.850  34.234  1.00  0.00     0.031 A 
BRANCH  62  76
ATOM     76  C   UNL A   1      50.622  24.983  32.143  1.00  0.00    -0.014 A 
ATOM     77  C   UNL A   1      50.888  23.758  32.776  1.00  0.00     0.009 A 
ATOM     78  C   UNL A   1      51.746  25.791  31.870  1.00  0.00     0.009 A 
ATOM     79  C   UNL A   1      52.171  23.434  33.250  1.00  0.00     0.001 A 
ATOM     80  C   UNL A   1      53.018  25.504  32.392  1.00  0.00     0.001 A 
ATOM     81  C   UNL A   1      53.225  24.330  33.103  1.00  0.00     0.000 A 
ENDBRANCH  62  76
BRANCH  63  82
ATOM     82  C   UNL A   1      40.636  28.129  29.759  1.00  0.00    -0.014 A 
ATOM     83  C   UNL A   1      40.269  29.190  28.867  1.00  0.00     0.009 A 
ATOM     84  C   UNL A   1      40.409  26.820  29.342  1.00  0.00     0.009 A 
ATOM     85  C   UNL A   1      39.950  28.940  27.530  1.00  0.00     0.001 A 
ATOM     86  C   UNL A   1      40.001  26.577  28.017  1.00  0.00     0.001 A 
ATOM     87  C   UNL A   1      39.834  27.627  27.102  1.00  0.00     0.000 A 
ENDBRANCH  63  82
BRANCH  75  88
ATOM     88  C   UNL A   1      44.972  26.225  35.638  1.00  0.00    -0.014 A 
ATOM     89  C   UNL A   1      44.723  26.932  36.818  1.00  0.00     0.009 A 
ATOM     90  C   UNL A   1      45.029  24.811  35.770  1.00  0.00     0.009 A 
ATOM     91  C   UNL A   1      44.551  26.272  38.045  1.00  0.00     0.001 A 
ATOM     92  C   UNL A   1      44.793  24.146  36.973  1.00  0.00     0.001 A 
ATOM     93  C   UNL A   1      44.556  24.881  38.118  1.00  0.00     0.000 A 
ENDBRANCH  75  88
ENDBRANCH  49  50
ENDBRANCH  42  44
ENDBRANCH  41  42
ENDBRANCH  40  41
ENDBRANCH  39  40
ENDBRANCH  38  39
ENDBRANCH  37  38
ENDBRANCH  36  37
ENDBRANCH   1  36
TORSDOF 23
ENDMDL
MODEL 3
REMARK VINA RESULT:     -12.2      4.871      9.918
REMARK SMILES Cc1ccc(-c2cc(C(=O)OCCOCCOCCOCCOC(=O)c3ccc(-c4c5nc(c(-c6ccccc6)c6ccc([nH]6)c(-c6ccccc6)c6nc(c(-c7ccccc7)c7ccc4[nH]7)C=C6)C=C5)cc3)c3c(-c4cccc([N+](=O)[O-])c4)[nH]nc3n2)cc1
REMARK SMILES IDX 17 1 16 2 15 3 14 4 13 5 12 6 11 7 9 8 10 9 8 10 6 11 7 12
REMARK SMILES IDX 88 13 87 14 74 15 86 16 75 17 85 18 5 20 1 21 2 22 3 23
REMARK SMILES IDX 90 24 4 25 89 26 76 27 77 28 84 29 78 30 80 31 79 32 81 33
REMARK SMILES IDX 82 34 83 35 18 36 19 37 20 38 21 39 22 40 23 41 24 42 25 43
REMARK SMILES IDX 26 44 27 45 73 46 28 47 72 48 29 49 30 50 31 51 66 52 32 53
REMARK SMILES IDX 71 54 65 55 67 56 33 57 70 58 64 59 63 60 34 62 56 63 41 64
REMARK SMILES IDX 55 65 42 66 45 67 54 68 68 69 43 70 44 71 53 73 69 74 46 75
REMARK SMILES IDX 35 76 36 77 40 78 37 79 39 80 38 81 57 82 58 83 62 84 59 85
REMARK SMILES IDX 61 86 60 87 47 88 48 89 52 90 49 91 51 92 50 93
REMARK H PARENT 85 19 67 61 45 72
REMARK Flexibility Score: inf
ROOT
ATOM      1  O   UNL A   1      33.146  34.773  28.976  1.00  0.00    -0.377 OA
ENDROOT
BRANCH   1   2
ATOM      2  C   UNL A   1      34.131  34.237  28.093  1.00  0.00     0.188 C 
BRANCH   2   3
ATOM      3  C   UNL A   1      35.148  32.909  28.188  1.00  0.00     0.188 C 
BRANCH   3   4
ATOM      4  O   UNL A   1      35.031  31.124  28.442  1.00  0.00    -0.376 OA
BRANCH   4   5
ATOM      5  C   UNL A   1      35.186  29.675  27.464  1.00  0.00     0.202 C 
BRANCH   5   6
ATOM      6  C   UNL A   1      33.943  28.939  26.264  1.00  0.00     0.261 C 
BRANCH   6   7
ATOM      7  O   UNL A   1      32.838  27.528  26.626  1.00  0.00    -0.460 OA
BRANCH   7   8
ATOM      8  C   UNL A   1      32.480  26.091  26.396  1.00  0.00     0.339 C 
ATOM      9  O   UNL A   1      31.515  25.544  26.914  1.00  0.00    -0.246 OA
BRANCH   8  10
ATOM     10  C   UNL A   1      33.204  25.003  25.499  1.00  0.00     0.075 A 
ATOM     11  C   UNL A   1      35.021  23.271  24.899  1.00  0.00     0.074 A 
ATOM     12  C   UNL A   1      34.499  24.417  25.558  1.00  0.00     0.045 A 
ATOM     13  N   UNL A   1      34.333  22.560  24.002  1.00  0.00    -0.226 NA
ATOM     14  C   UNL A   1      33.130  23.123  23.730  1.00  0.00     0.182 A 
ATOM     15  C   UNL A   1      32.592  24.309  24.407  1.00  0.00     0.061 A 
ATOM     16  N   UNL A   1      32.321  22.670  22.778  1.00  0.00    -0.154 NA
ATOM     17  C   UNL A   1      31.479  24.621  23.625  1.00  0.00     0.076 A 
ATOM     18  N   UNL A   1      31.341  23.568  22.753  1.00  0.00    -0.275 N 
ATOM     19  H   UNL A   1      30.569  23.485  22.148  1.00  0.00     0.190 HD
BRANCH  11  20
ATOM     20  C   UNL A   1      36.407  22.840  25.227  1.00  0.00     0.000 A 
ATOM     21  C   UNL A   1      40.355  21.485  26.470  1.00  0.00     0.044 C 
ATOM     22  C   UNL A   1      38.985  21.944  26.060  1.00  0.00    -0.051 A 
ATOM     23  C   UNL A   1      38.657  23.306  26.070  1.00  0.00     0.004 A 
ATOM     24  C   UNL A   1      38.025  21.031  25.622  1.00  0.00     0.004 A 
ATOM     25  C   UNL A   1      37.386  23.746  25.659  1.00  0.00     0.010 A 
ATOM     26  C   UNL A   1      36.756  21.474  25.218  1.00  0.00     0.010 A 
ENDBRANCH  11  20
BRANCH  17  27
ATOM     27  C   UNL A   1      30.566  25.749  23.467  1.00  0.00     0.007 A 
ATOM     28  C   UNL A   1      29.249  25.653  23.931  1.00  0.00     0.011 A 
ATOM     29  C   UNL A   1      30.972  26.907  22.791  1.00  0.00     0.096 A 
ATOM     30  C   UNL A   1      28.363  26.722  23.787  1.00  0.00     0.008 A 
ATOM     31  C   UNL A   1      30.076  27.981  22.658  1.00  0.00     0.270 A 
ATOM     32  C   UNL A   1      28.773  27.896  23.159  1.00  0.00     0.085 A 
BRANCH  31  33
ATOM     33  N   UNL A   1      30.551  29.258  22.108  1.00  0.00     0.062 N 
ATOM     34  O   UNL A   1      31.749  29.542  22.256  1.00  0.00    -0.258 OA
ATOM     35  O   UNL A   1      29.741  29.947  21.472  1.00  0.00    -0.258 OA
ENDBRANCH  31  33
ENDBRANCH  17  27
ENDBRANCH   8  10
ENDBRANCH   7   8
ENDBRANCH   6   7
ENDBRANCH   5   6
ENDBRANCH   4   5
ENDBRANCH   3   4
ENDBRANCH   2   3
ENDBRANCH   1   2
BRANCH   1  36
ATOM     36  C   UNL A   1      33.290  35.892  29.826  1.00  0.00     0.188 C 
BRANCH  36  37
ATOM     37  C   UNL A   1      32.339  36.135  30.972  1.00  0.00     0.188 C 
BRANCH  37  38
ATOM     38  O   UNL A   1      32.907  37.037  31.901  1.00  0.00    -0.376 OA
BRANCH  38  39
ATOM     39  C   UNL A   1      34.146  36.588  32.433  1.00  0.00     0.202 C 
BRANCH  39  40
ATOM     40  C   UNL A   1      34.030  35.209  33.104  1.00  0.00     0.261 C 
BRANCH  40  41
ATOM     41  O   UNL A   1      35.264  34.474  32.942  1.00  0.00    -0.460 OA
BRANCH  41  42
ATOM     42  C   UNL A   1      35.314  33.536  31.957  1.00  0.00     0.338 C 
ATOM     43  O   UNL A   1      34.370  32.805  31.611  1.00  0.00    -0.246 OA
BRANCH  42  44
ATOM     44  C   UNL A   1      36.728  33.273  31.605  1.00  0.00     0.060 A 
ATOM     45  C   UNL A   1      37.438  32.138  31.994  1.00  0.00     0.016 A 
ATOM     46  C   UNL A   1      37.477  34.318  31.181  1.00  0.00     0.016 A 
ATOM     47  C   UNL A   1      38.826  32.213  32.380  1.00  0.00     0.010 A 
ATOM     48  C   UNL A   1      38.801  34.345  31.611  1.00  0.00     0.010 A 
ATOM     49  C   UNL A   1      39.518  33.421  32.514  1.00  0.00    -0.014 A 
BRANCH  49  50
ATOM     50  C   UNL A   1      40.983  33.718  33.650  1.00  0.00     0.031 A 
ATOM     51  C   UNL A   1      40.806  34.292  35.574  1.00  0.00     0.074 A 
ATOM     52  C   UNL A   1      42.173  33.660  32.827  1.00  0.00     0.049 A 
ATOM     53  N   UNL A   1      41.293  35.466  36.087  1.00  0.00    -0.248 NA
ATOM     54  C   UNL A   1      39.646  34.208  36.739  1.00  0.00     0.031 C 
ATOM     55  C   UNL A   1      43.631  33.819  33.055  1.00  0.00     0.029 A 
ATOM     56  N   UNL A   1      42.292  33.619  31.414  1.00  0.00    -0.354 N 
ATOM     57  C   UNL A   1      40.951  35.923  37.320  1.00  0.00     0.074 A 
ATOM     58  C   UNL A   1      39.765  35.224  37.598  1.00  0.00     0.031 C 
ATOM     59  C   UNL A   1      44.435  33.860  32.000  1.00  0.00     0.029 A 
ATOM     60  C   UNL A   1      43.540  34.122  30.972  1.00  0.00     0.049 A 
ATOM     61  H   UNL A   1      41.589  33.281  30.812  1.00  0.00     0.167 HD
ATOM     62  C   UNL A   1      41.732  36.801  38.018  1.00  0.00     0.031 A 
ATOM     63  C   UNL A   1      43.707  35.286  30.300  1.00  0.00     0.031 A 
ATOM     64  C   UNL A   1      43.034  37.066  37.367  1.00  0.00     0.049 A 
ATOM     65  C   UNL A   1      44.248  36.448  31.194  1.00  0.00     0.074 A 
ATOM     66  C   UNL A   1      44.282  36.488  37.551  1.00  0.00     0.029 A 
ATOM     67  N   UNL A   1      43.139  37.777  36.166  1.00  0.00    -0.354 N 
ATOM     68  N   UNL A   1      43.995  36.642  32.483  1.00  0.00    -0.248 NA
ATOM     69  C   UNL A   1      45.315  37.335  30.735  1.00  0.00     0.031 C 
ATOM     70  C   UNL A   1      45.040  36.659  36.352  1.00  0.00     0.029 A 
ATOM     71  C   UNL A   1      44.315  37.454  35.468  1.00  0.00     0.049 A 
ATOM     72  H   UNL A   1      42.470  38.426  35.850  1.00  0.00     0.167 HD
ATOM     73  C   UNL A   1      44.775  37.672  32.999  1.00  0.00     0.074 A 
ATOM     74  C   UNL A   1      45.610  38.027  31.852  1.00  0.00     0.031 C 
ATOM     75  C   UNL A   1      44.773  38.206  34.281  1.00  0.00     0.031 A 
BRANCH  62  76
ATOM     76  C   UNL A   1      41.419  36.997  39.495  1.00  0.00    -0.014 A 
ATOM     77  C   UNL A   1      41.756  36.011  40.437  1.00  0.00     0.009 A 
ATOM     78  C   UNL A   1      40.661  38.082  39.986  1.00  0.00     0.009 A 
ATOM     79  C   UNL A   1      41.234  36.025  41.741  1.00  0.00     0.001 A 
ATOM     80  C   UNL A   1      40.087  38.073  41.268  1.00  0.00     0.001 A 
ATOM     81  C   UNL A   1      40.358  37.030  42.140  1.00  0.00     0.000 A 
ENDBRANCH  62  76
BRANCH  63  82
ATOM     82  C   UNL A   1      42.945  35.129  29.033  1.00  0.00    -0.014 A 
ATOM     83  C   UNL A   1      42.292  36.326  28.586  1.00  0.00     0.009 A 
ATOM     84  C   UNL A   1      43.335  34.203  28.069  1.00  0.00     0.009 A 
ATOM     85  C   UNL A   1      42.283  36.691  27.238  1.00  0.00     0.001 A 
ATOM     86  C   UNL A   1      43.241  34.541  26.706  1.00  0.00     0.001 A 
ATOM     87  C   UNL A   1      42.777  35.800  26.298  1.00  0.00     0.000 A 
ENDBRANCH  63  82
BRANCH  75  88
ATOM     88  C   UNL A   1      45.325  39.598  34.632  1.00  0.00    -0.014 A 
ATOM     89  C   UNL A   1      46.428  39.822  35.461  1.00  0.00     0.009 A 
ATOM     90  C   UNL A   1      44.845  40.736  33.928  1.00  0.00     0.009 A 
ATOM     91  C   UNL A   1      47.005  41.096  35.584  1.00  0.00     0.001 A 
ATOM     92  C   UNL A   1      45.454  41.988  33.994  1.00  0.00     0.001 A 
ATOM     93  C   UNL A   1      46.538  42.170  34.831  1.00  0.00     0.000 A 
ENDBRANCH  75  88
ENDBRANCH  49  50
ENDBRANCH  42  44
ENDBRANCH  41  42
ENDBRANCH  40  41
ENDBRANCH  39  40
ENDBRANCH  38  39
ENDBRANCH  37  38
ENDBRANCH  36  37
ENDBRANCH   1  36
TORSDOF 23
ENDMDL
