MODEL 1
REMARK VINA RESULT:      -9.6      0.000      0.000
REMARK SMILES COc1c(Cl)cc(C(=O)OCCOCCOCCOCCOC(=O)c2ccc(-c3c4nc(c(-c5ccccc5)c5ccc([nH]5)c(-c5ccccc5)c5nc(c(-c6ccccc6)c6ccc3[nH]6)C=C5)C=C4)cc2)cc1NC(=S)NC(=O)c1ccccc1F
REMARK SMILES IDX 15 1 14 2 13 3 12 4 11 5 10 6 8 7 9 8 7 9 3 10 4 11 74 12
REMARK SMILES IDX 5 13 6 14 73 15 2 16 1 17 75 18 76 20 77 21 78 22 79 23
REMARK SMILES IDX 80 25 81 26 82 27 86 28 83 29 85 30 87 31 84 32 16 33 17 34
REMARK SMILES IDX 18 35 19 36 20 37 21 38 22 39 23 40 24 41 25 42 26 43 72 44
REMARK SMILES IDX 27 45 71 46 28 47 29 48 30 49 65 50 31 51 70 52 64 53 66 54
REMARK SMILES IDX 32 55 69 56 63 57 62 58 33 60 55 61 40 62 54 63 41 64 44 65
REMARK SMILES IDX 53 66 67 67 42 68 43 69 52 71 68 72 45 73 34 74 35 75 39 76
REMARK SMILES IDX 36 77 38 78 37 79 56 80 57 81 61 82 58 83 60 84 59 85 46 86
REMARK SMILES IDX 47 87 51 88 48 89 50 90 49 91
REMARK H PARENT 75 19 78 24 66 59 44 70
REMARK Flexibility Score: inf
ROOT
ATOM      1  C   UNL A   1      41.738  21.633  26.260  1.00  0.00     0.188 C 
ENDROOT
BRANCH   1   2
ATOM      2  C   UNL A   1      40.686  21.786  27.363  1.00  0.00     0.188 C 
BRANCH   2   3
ATOM      3  O   UNL A   1      40.251  23.088  27.706  1.00  0.00    -0.376 OA
BRANCH   3   4
ATOM      4  C   UNL A   1      39.521  23.850  26.746  1.00  0.00     0.202 C 
BRANCH   4   5
ATOM      5  C   UNL A   1      38.016  23.643  26.439  1.00  0.00     0.261 C 
BRANCH   5   6
ATOM      6  O   UNL A   1      37.676  22.473  25.650  1.00  0.00    -0.460 OA
BRANCH   6   7
ATOM      7  C   UNL A   1      36.256  22.124  25.259  1.00  0.00     0.338 C 
ATOM      8  O   UNL A   1      36.448  21.037  24.652  1.00  0.00    -0.246 OA
BRANCH   7   9
ATOM      9  C   UNL A   1      34.482  23.268  25.686  1.00  0.00     0.063 A 
ATOM     10  C   UNL A   1      32.079  25.183  26.211  1.00  0.00     0.160 A 
ATOM     11  C   UNL A   1      31.994  23.812  26.454  1.00  0.00     0.086 A 
ATOM     12  C   UNL A   1      33.317  25.609  25.785  1.00  0.00     0.085 A 
ATOM     13  Cl  UNL A   1      30.694  23.016  27.288  1.00  0.00    -0.080 Cl
ATOM     14  C   UNL A   1      33.080  22.925  26.096  1.00  0.00     0.040 A 
ATOM     15  C   UNL A   1      34.351  24.718  25.872  1.00  0.00     0.045 A 
BRANCH  10  16
ATOM     16  O   UNL A   1      31.170  26.179  26.392  1.00  0.00    -0.493 OA
ATOM     17  C   UNL A   1      31.396  27.147  27.406  1.00  0.00     0.278 C 
ENDBRANCH  10  16
BRANCH  12  18
ATOM     18  N   UNL A   1      33.703  26.902  25.398  1.00  0.00    -0.329 N 
ATOM     19  H   UNL A   1      34.333  27.335  26.018  1.00  0.00     0.169 HD
BRANCH  18  20
ATOM     20  C   UNL A   1      33.366  27.671  24.320  1.00  0.00     0.177 C 
ATOM     21  S   UNL A   1      33.623  29.326  24.470  1.00  0.00    -0.040 S 
BRANCH  20  22
ATOM     22  N   UNL A   1      32.866  27.249  23.072  1.00  0.00    -0.299 N 
ATOM     23  C   UNL A   1      31.779  26.946  22.171  1.00  0.00     0.260 C 
ATOM     24  H   UNL A   1      33.674  27.068  22.541  1.00  0.00     0.172 HD
ATOM     25  O   UNL A   1      32.006  26.271  21.168  1.00  0.00    -0.269 OA
BRANCH  23  26
ATOM     26  C   UNL A   1      30.374  27.317  22.433  1.00  0.00     0.075 A 
ATOM     27  C   UNL A   1      29.313  26.195  23.443  1.00  0.00     0.017 A 
ATOM     28  C   UNL A   1      29.849  29.016  22.184  1.00  0.00     0.135 A 
ATOM     29  C   UNL A   1      27.645  26.764  23.978  1.00  0.00     0.001 A 
ATOM     30  C   UNL A   1      28.252  29.610  22.786  1.00  0.00     0.040 A 
ATOM     31  F   UNL A   1      30.667  29.871  21.558  1.00  0.00    -0.206 F 
ATOM     32  C   UNL A   1      27.084  28.450  23.572  1.00  0.00     0.003 A 
ENDBRANCH  23  26
ENDBRANCH  20  22
ENDBRANCH  18  20
ENDBRANCH  12  18
ENDBRANCH   7   9
ENDBRANCH   6   7
ENDBRANCH   5   6
ENDBRANCH   4   5
ENDBRANCH   3   4
ENDBRANCH   2   3
ENDBRANCH   1   2
BRANCH   1  33
ATOM     33  O   UNL A   1      41.787  20.366  25.652  1.00  0.00    -0.377 OA
BRANCH  33  34
ATOM     34  C   UNL A   1      42.699  19.436  26.216  1.00  0.00     0.188 C 
BRANCH  34  35
ATOM     35  C   UNL A   1      43.856  18.853  25.364  1.00  0.00     0.188 C 
BRANCH  35  36
ATOM     36  O   UNL A   1      45.005  19.658  25.157  1.00  0.00    -0.376 OA
BRANCH  36  37
ATOM     37  C   UNL A   1      45.001  20.796  24.303  1.00  0.00     0.202 C 
BRANCH  37  38
ATOM     38  C   UNL A   1      45.528  22.172  24.760  1.00  0.00     0.261 C 
BRANCH  38  39
ATOM     39  O   UNL A   1      45.036  22.676  26.003  1.00  0.00    -0.460 OA
BRANCH  39  40
ATOM     40  C   UNL A   1      45.788  23.613  26.616  1.00  0.00     0.338 C 
ATOM     41  O   UNL A   1      46.984  23.796  26.492  1.00  0.00    -0.246 OA
BRANCH  40  42
ATOM     42  C   UNL A   1      44.871  24.518  27.337  1.00  0.00     0.060 A 
ATOM     43  C   UNL A   1      45.066  25.900  27.229  1.00  0.00     0.016 A 
ATOM     44  C   UNL A   1      43.823  24.005  28.105  1.00  0.00     0.016 A 
ATOM     45  C   UNL A   1      44.236  26.779  27.916  1.00  0.00     0.010 A 
ATOM     46  C   UNL A   1      43.016  24.886  28.828  1.00  0.00     0.010 A 
ATOM     47  C   UNL A   1      43.246  26.272  28.764  1.00  0.00    -0.014 A 
BRANCH  47  48
ATOM     48  C   UNL A   1      42.621  27.178  29.750  1.00  0.00     0.031 A 
ATOM     49  C   UNL A   1      43.300  27.353  31.080  1.00  0.00     0.074 A 
ATOM     50  C   UNL A   1      41.507  27.868  29.458  1.00  0.00     0.049 A 
ATOM     51  N   UNL A   1      42.930  28.057  32.116  1.00  0.00    -0.248 NA
ATOM     52  C   UNL A   1      44.572  26.632  31.262  1.00  0.00     0.031 C 
ATOM     53  C   UNL A   1      40.801  27.838  28.179  1.00  0.00     0.029 A 
ATOM     54  N   UNL A   1      40.775  28.732  30.231  1.00  0.00    -0.354 N 
ATOM     55  C   UNL A   1      43.912  27.852  33.078  1.00  0.00     0.074 A 
ATOM     56  C   UNL A   1      44.877  26.936  32.513  1.00  0.00     0.031 C 
ATOM     57  C   UNL A   1      39.724  28.640  28.260  1.00  0.00     0.029 A 
ATOM     58  C   UNL A   1      39.648  29.204  29.607  1.00  0.00     0.049 A 
ATOM     59  H   UNL A   1      41.033  28.988  31.146  1.00  0.00     0.167 HD
ATOM     60  C   UNL A   1      44.001  28.381  34.320  1.00  0.00     0.031 A 
ATOM     61  C   UNL A   1      38.655  29.981  30.081  1.00  0.00     0.031 A 
ATOM     62  C   UNL A   1      43.025  29.274  34.884  1.00  0.00     0.049 A 
ATOM     63  C   UNL A   1      38.724  30.476  31.503  1.00  0.00     0.074 A 
ATOM     64  C   UNL A   1      43.024  29.873  36.131  1.00  0.00     0.029 A 
ATOM     65  N   UNL A   1      41.868  29.687  34.239  1.00  0.00    -0.354 N 
ATOM     66  N   UNL A   1      39.661  30.291  32.402  1.00  0.00    -0.248 NA
ATOM     67  C   UNL A   1      37.597  31.296  31.972  1.00  0.00     0.031 C 
ATOM     68  C   UNL A   1      41.829  30.587  36.270  1.00  0.00     0.029 A 
ATOM     69  C   UNL A   1      41.128  30.504  35.077  1.00  0.00     0.049 A 
ATOM     70  H   UNL A   1      41.613  29.438  33.322  1.00  0.00     0.167 HD
ATOM     71  C   UNL A   1      39.255  30.998  33.528  1.00  0.00     0.074 A 
ATOM     72  C   UNL A   1      37.994  31.627  33.193  1.00  0.00     0.031 C 
ATOM     73  C   UNL A   1      39.873  31.120  34.730  1.00  0.00     0.031 A 
BRANCH  60  74
ATOM     74  C   UNL A   1      45.168  27.958  35.168  1.00  0.00    -0.014 A 
ATOM     75  C   UNL A   1      45.068  26.897  36.084  1.00  0.00     0.009 A 
ATOM     76  C   UNL A   1      46.396  28.627  35.040  1.00  0.00     0.009 A 
ATOM     77  C   UNL A   1      46.161  26.543  36.880  1.00  0.00     0.001 A 
ATOM     78  C   UNL A   1      47.495  28.248  35.810  1.00  0.00     0.001 A 
ATOM     79  C   UNL A   1      47.375  27.215  36.737  1.00  0.00     0.000 A 
ENDBRANCH  60  74
BRANCH  61  80
ATOM     80  C   UNL A   1      37.494  30.316  29.215  1.00  0.00    -0.014 A 
ATOM     81  C   UNL A   1      37.314  31.620  28.728  1.00  0.00     0.009 A 
ATOM     82  C   UNL A   1      36.548  29.333  28.884  1.00  0.00     0.009 A 
ATOM     83  C   UNL A   1      36.197  31.937  27.950  1.00  0.00     0.001 A 
ATOM     84  C   UNL A   1      35.451  29.644  28.077  1.00  0.00     0.001 A 
ATOM     85  C   UNL A   1      35.272  30.948  27.620  1.00  0.00     0.000 A 
ENDBRANCH  61  80
BRANCH  73  86
ATOM     86  C   UNL A   1      39.219  32.005  35.759  1.00  0.00    -0.014 A 
ATOM     87  C   UNL A   1      38.345  31.489  36.728  1.00  0.00     0.009 A 
ATOM     88  C   UNL A   1      39.526  33.376  35.784  1.00  0.00     0.009 A 
ATOM     89  C   UNL A   1      37.762  32.334  37.675  1.00  0.00     0.001 A 
ATOM     90  C   UNL A   1      38.971  34.211  36.755  1.00  0.00     0.001 A 
ATOM     91  C   UNL A   1      38.081  33.692  37.692  1.00  0.00     0.000 A 
ENDBRANCH  73  86
ENDBRANCH  47  48
ENDBRANCH  40  42
ENDBRANCH  39  40
ENDBRANCH  38  39
ENDBRANCH  37  38
ENDBRANCH  36  37
ENDBRANCH  35  36
ENDBRANCH  34  35
ENDBRANCH  33  34
ENDBRANCH   1  33
TORSDOF 25
ENDMDL
MODEL 2
REMARK VINA RESULT:      -9.4      1.621      2.459
REMARK SMILES COc1c(Cl)cc(C(=O)OCCOCCOCCOCCOC(=O)c2ccc(-c3c4nc(c(-c5ccccc5)c5ccc([nH]5)c(-c5ccccc5)c5nc(c(-c6ccccc6)c6ccc3[nH]6)C=C5)C=C4)cc2)cc1NC(=S)NC(=O)c1ccccc1F
REMARK SMILES IDX 15 1 14 2 13 3 12 4 11 5 10 6 8 7 9 8 7 9 3 10 4 11 74 12
REMARK SMILES IDX 5 13 6 14 73 15 2 16 1 17 75 18 76 20 77 21 78 22 79 23
REMARK SMILES IDX 80 25 81 26 82 27 86 28 83 29 85 30 87 31 84 32 16 33 17 34
REMARK SMILES IDX 18 35 19 36 20 37 21 38 22 39 23 40 24 41 25 42 26 43 72 44
REMARK SMILES IDX 27 45 71 46 28 47 29 48 30 49 65 50 31 51 70 52 64 53 66 54
REMARK SMILES IDX 32 55 69 56 63 57 62 58 33 60 55 61 40 62 54 63 41 64 44 65
REMARK SMILES IDX 53 66 67 67 42 68 43 69 52 71 68 72 45 73 34 74 35 75 39 76
REMARK SMILES IDX 36 77 38 78 37 79 56 80 57 81 61 82 58 83 60 84 59 85 46 86
REMARK SMILES IDX 47 87 51 88 48 89 50 90 49 91
REMARK H PARENT 75 19 78 24 66 59 44 70
REMARK Flexibility Score: inf
ROOT
ATOM      1  C   UNL A   1      43.467  18.810  25.937  1.00  0.00     0.188 C 
ENDROOT
BRANCH   1   2
ATOM      2  C   UNL A   1      41.968  18.981  26.205  1.00  0.00     0.188 C 
BRANCH   2   3
ATOM      3  O   UNL A   1      41.564  19.782  27.299  1.00  0.00    -0.376 OA
BRANCH   3   4
ATOM      4  C   UNL A   1      41.371  21.182  27.097  1.00  0.00     0.202 C 
BRANCH   4   5
ATOM      5  C   UNL A   1      40.081  21.801  26.503  1.00  0.00     0.261 C 
BRANCH   5   6
ATOM      6  O   UNL A   1      39.631  23.046  27.101  1.00  0.00    -0.460 OA
BRANCH   6   7
ATOM      7  C   UNL A   1      38.545  23.910  26.495  1.00  0.00     0.338 C 
ATOM      8  O   UNL A   1      38.984  25.056  26.775  1.00  0.00    -0.246 OA
BRANCH   7   9
ATOM      9  C   UNL A   1      36.781  23.229  25.465  1.00  0.00     0.063 A 
ATOM     10  C   UNL A   1      34.185  22.546  23.880  1.00  0.00     0.160 A 
ATOM     11  C   UNL A   1      34.894  21.573  24.584  1.00  0.00     0.086 A 
ATOM     12  C   UNL A   1      34.696  23.819  23.998  1.00  0.00     0.085 A 
ATOM     13  Cl  UNL A   1      34.343  19.956  24.897  1.00  0.00    -0.080 Cl
ATOM     14  C   UNL A   1      36.157  21.887  25.217  1.00  0.00     0.040 A 
ATOM     15  C   UNL A   1      35.660  24.022  24.947  1.00  0.00     0.045 A 
BRANCH  10  16
ATOM     16  O   UNL A   1      33.037  22.463  23.154  1.00  0.00    -0.493 OA
ATOM     17  C   UNL A   1      31.807  22.248  23.830  1.00  0.00     0.278 C 
ENDBRANCH  10  16
BRANCH  12  18
ATOM     18  N   UNL A   1      34.256  24.992  23.366  1.00  0.00    -0.329 N 
ATOM     19  H   UNL A   1      34.950  25.446  22.834  1.00  0.00     0.169 HD
BRANCH  18  20
ATOM     20  C   UNL A   1      33.043  25.622  23.351  1.00  0.00     0.177 C 
ATOM     21  S   UNL A   1      32.398  25.972  21.838  1.00  0.00    -0.040 S 
BRANCH  20  22
ATOM     22  N   UNL A   1      32.237  25.983  24.449  1.00  0.00    -0.299 N 
ATOM     23  C   UNL A   1      31.208  26.787  25.066  1.00  0.00     0.260 C 
ATOM     24  H   UNL A   1      32.522  25.370  25.165  1.00  0.00     0.172 HD
ATOM     25  O   UNL A   1      31.126  26.813  26.293  1.00  0.00    -0.269 OA
BRANCH  23  26
ATOM     26  C   UNL A   1      30.299  27.670  24.308  1.00  0.00     0.075 A 
ATOM     27  C   UNL A   1      28.611  27.068  23.865  1.00  0.00     0.017 A 
ATOM     28  C   UNL A   1      30.639  29.431  24.232  1.00  0.00     0.135 A 
ATOM     29  C   UNL A   1      27.392  28.242  23.141  1.00  0.00     0.001 A 
ATOM     30  C   UNL A   1      29.415  30.604  23.608  1.00  0.00     0.040 A 
ATOM     31  F   UNL A   1      31.819  29.891  24.667  1.00  0.00    -0.206 F 
ATOM     32  C   UNL A   1      27.831  29.999  22.935  1.00  0.00     0.003 A 
ENDBRANCH  23  26
ENDBRANCH  20  22
ENDBRANCH  18  20
ENDBRANCH  12  18
ENDBRANCH   7   9
ENDBRANCH   6   7
ENDBRANCH   5   6
ENDBRANCH   4   5
ENDBRANCH   3   4
ENDBRANCH   2   3
ENDBRANCH   1   2
BRANCH   1  33
ATOM     33  O   UNL A   1      43.940  19.431  24.767  1.00  0.00    -0.377 OA
BRANCH  33  34
ATOM     34  C   UNL A   1      44.778  20.562  24.955  1.00  0.00     0.188 C 
BRANCH  34  35
ATOM     35  C   UNL A   1      44.798  21.709  23.912  1.00  0.00     0.188 C 
BRANCH  35  36
ATOM     36  O   UNL A   1      43.675  22.574  23.847  1.00  0.00    -0.376 OA
BRANCH  36  37
ATOM     37  C   UNL A   1      43.296  23.420  24.926  1.00  0.00     0.202 C 
BRANCH  37  38
ATOM     38  C   UNL A   1      43.722  24.901  25.001  1.00  0.00     0.261 C 
BRANCH  38  39
ATOM     39  O   UNL A   1      45.088  25.169  25.322  1.00  0.00    -0.460 OA
BRANCH  39  40
ATOM     40  C   UNL A   1      45.575  24.579  26.433  1.00  0.00     0.338 C 
ATOM     41  O   UNL A   1      46.363  23.654  26.492  1.00  0.00    -0.246 OA
BRANCH  40  42
ATOM     42  C   UNL A   1      45.130  25.378  27.592  1.00  0.00     0.060 A 
ATOM     43  C   UNL A   1      44.250  24.795  28.513  1.00  0.00     0.016 A 
ATOM     44  C   UNL A   1      45.582  26.687  27.770  1.00  0.00     0.016 A 
ATOM     45  C   UNL A   1      43.791  25.529  29.601  1.00  0.00     0.010 A 
ATOM     46  C   UNL A   1      45.087  27.437  28.839  1.00  0.00     0.010 A 
ATOM     47  C   UNL A   1      44.162  26.871  29.733  1.00  0.00    -0.014 A 
BRANCH  47  48
ATOM     48  C   UNL A   1      43.400  27.731  30.663  1.00  0.00     0.031 A 
ATOM     49  C   UNL A   1      43.982  27.990  32.024  1.00  0.00     0.074 A 
ATOM     50  C   UNL A   1      42.246  28.310  30.294  1.00  0.00     0.049 A 
ATOM     51  N   UNL A   1      43.490  28.674  33.023  1.00  0.00    -0.248 NA
ATOM     52  C   UNL A   1      45.303  27.395  32.293  1.00  0.00     0.031 C 
ATOM     53  C   UNL A   1      41.620  28.192  28.979  1.00  0.00     0.029 A 
ATOM     54  N   UNL A   1      41.394  29.114  31.006  1.00  0.00    -0.354 N 
ATOM     55  C   UNL A   1      44.429  28.577  34.042  1.00  0.00     0.074 A 
ATOM     56  C   UNL A   1      45.506  27.746  33.553  1.00  0.00     0.031 C 
ATOM     57  C   UNL A   1      40.472  28.891  28.983  1.00  0.00     0.029 A 
ATOM     58  C   UNL A   1      40.266  29.469  30.310  1.00  0.00     0.049 A 
ATOM     59  H   UNL A   1      41.574  29.408  31.929  1.00  0.00     0.167 HD
ATOM     60  C   UNL A   1      44.398  29.133  35.275  1.00  0.00     0.031 A 
ATOM     61  C   UNL A   1      39.181  30.157  30.712  1.00  0.00     0.031 A 
ATOM     62  C   UNL A   1      43.313  29.941  35.765  1.00  0.00     0.049 A 
ATOM     63  C   UNL A   1      39.121  30.680  32.124  1.00  0.00     0.074 A 
ATOM     64  C   UNL A   1      43.185  30.557  36.997  1.00  0.00     0.029 A 
ATOM     65  N   UNL A   1      42.162  30.233  35.047  1.00  0.00    -0.354 N 
ATOM     66  N   UNL A   1      40.018  30.598  33.078  1.00  0.00    -0.248 NA
ATOM     67  C   UNL A   1      37.899  31.398  32.511  1.00  0.00     0.031 C 
ATOM     68  C   UNL A   1      41.924  31.158  37.053  1.00  0.00     0.029 A 
ATOM     69  C   UNL A   1      41.303  30.991  35.825  1.00  0.00     0.049 A 
ATOM     70  H   UNL A   1      41.984  29.946  34.123  1.00  0.00     0.167 HD
ATOM     71  C   UNL A   1      39.485  31.282  34.163  1.00  0.00     0.074 A 
ATOM     72  C   UNL A   1      38.192  31.785  33.745  1.00  0.00     0.031 C 
ATOM     73  C   UNL A   1      40.018  31.482  35.395  1.00  0.00     0.031 A 
BRANCH  60  74
ATOM     74  C   UNL A   1      45.548  28.834  36.197  1.00  0.00    -0.014 A 
ATOM     75  C   UNL A   1      45.830  27.526  36.626  1.00  0.00     0.009 A 
ATOM     76  C   UNL A   1      46.374  29.882  36.634  1.00  0.00     0.009 A 
ATOM     77  C   UNL A   1      46.888  27.282  37.505  1.00  0.00     0.001 A 
ATOM     78  C   UNL A   1      47.452  29.630  37.483  1.00  0.00     0.001 A 
ATOM     79  C   UNL A   1      47.702  28.333  37.927  1.00  0.00     0.000 A 
ENDBRANCH  60  74
BRANCH  61  80
ATOM     80  C   UNL A   1      38.045  30.368  29.775  1.00  0.00    -0.014 A 
ATOM     81  C   UNL A   1      37.886  31.589  29.102  1.00  0.00     0.009 A 
ATOM     82  C   UNL A   1      37.102  29.350  29.561  1.00  0.00     0.009 A 
ATOM     83  C   UNL A   1      36.793  31.794  28.256  1.00  0.00     0.001 A 
ATOM     84  C   UNL A   1      36.029  29.546  28.689  1.00  0.00     0.001 A 
ATOM     85  C   UNL A   1      35.870  30.772  28.046  1.00  0.00     0.000 A 
ENDBRANCH  61  80
BRANCH  73  86
ATOM     86  C   UNL A   1      39.228  32.319  36.366  1.00  0.00    -0.014 A 
ATOM     87  C   UNL A   1      39.390  33.711  36.442  1.00  0.00     0.009 A 
ATOM     88  C   UNL A   1      38.269  31.702  37.186  1.00  0.00     0.009 A 
ATOM     89  C   UNL A   1      38.635  34.461  37.348  1.00  0.00     0.001 A 
ATOM     90  C   UNL A   1      37.490  32.459  38.063  1.00  0.00     0.001 A 
ATOM     91  C   UNL A   1      37.681  33.836  38.152  1.00  0.00     0.000 A 
ENDBRANCH  73  86
ENDBRANCH  47  48
ENDBRANCH  40  42
ENDBRANCH  39  40
ENDBRANCH  38  39
ENDBRANCH  37  38
ENDBRANCH  36  37
ENDBRANCH  35  36
ENDBRANCH  34  35
ENDBRANCH  33  34
ENDBRANCH   1  33
TORSDOF 25
ENDMDL
MODEL 3
REMARK VINA RESULT:      -8.7      6.277      9.522
REMARK SMILES COc1c(Cl)cc(C(=O)OCCOCCOCCOCCOC(=O)c2ccc(-c3c4nc(c(-c5ccccc5)c5ccc([nH]5)c(-c5ccccc5)c5nc(c(-c6ccccc6)c6ccc3[nH]6)C=C5)C=C4)cc2)cc1NC(=S)NC(=O)c1ccccc1F
REMARK SMILES IDX 15 1 14 2 13 3 12 4 11 5 10 6 8 7 9 8 7 9 3 10 4 11 74 12
REMARK SMILES IDX 5 13 6 14 73 15 2 16 1 17 75 18 76 20 77 21 78 22 79 23
REMARK SMILES IDX 80 25 81 26 82 27 86 28 83 29 85 30 87 31 84 32 16 33 17 34
REMARK SMILES IDX 18 35 19 36 20 37 21 38 22 39 23 40 24 41 25 42 26 43 72 44
REMARK SMILES IDX 27 45 71 46 28 47 29 48 30 49 65 50 31 51 70 52 64 53 66 54
REMARK SMILES IDX 32 55 69 56 63 57 62 58 33 60 55 61 40 62 54 63 41 64 44 65
REMARK SMILES IDX 53 66 67 67 42 68 43 69 52 71 68 72 45 73 34 74 35 75 39 76
REMARK SMILES IDX 36 77 38 78 37 79 56 80 57 81 61 82 58 83 60 84 59 85 46 86
REMARK SMILES IDX 47 87 51 88 48 89 50 90 49 91
REMARK H PARENT 75 19 78 24 66 59 44 70
REMARK Flexibility Score: inf
ROOT
ATOM      1  C   UNL A   1      43.446  18.504  26.398  1.00  0.00     0.188 C 
ENDROOT
BRANCH   1   2
ATOM      2  C   UNL A   1      41.953  18.734  26.653  1.00  0.00     0.188 C 
BRANCH   2   3
ATOM      3  O   UNL A   1      41.573  19.633  27.677  1.00  0.00    -0.376 OA
BRANCH   3   4
ATOM      4  C   UNL A   1      41.381  21.010  27.354  1.00  0.00     0.202 C 
BRANCH   4   5
ATOM      5  C   UNL A   1      40.052  21.596  26.814  1.00  0.00     0.261 C 
BRANCH   5   6
ATOM      6  O   UNL A   1      39.702  22.927  27.279  1.00  0.00    -0.460 OA
BRANCH   6   7
ATOM      7  C   UNL A   1      38.716  23.821  26.557  1.00  0.00     0.338 C 
ATOM      8  O   UNL A   1      39.252  24.946  26.742  1.00  0.00    -0.246 OA
BRANCH   7   9
ATOM      9  C   UNL A   1      36.923  23.204  25.537  1.00  0.00     0.063 A 
ATOM     10  C   UNL A   1      34.292  22.617  23.971  1.00  0.00     0.160 A 
ATOM     11  C   UNL A   1      34.980  21.615  24.657  1.00  0.00     0.086 A 
ATOM     12  C   UNL A   1      34.841  23.872  24.099  1.00  0.00     0.085 A 
ATOM     13  Cl  UNL A   1      34.385  20.011  24.956  1.00  0.00    -0.080 Cl
ATOM     14  C   UNL A   1      36.257  21.884  25.281  1.00  0.00     0.040 A 
ATOM     15  C   UNL A   1      35.820  24.036  25.040  1.00  0.00     0.045 A 
BRANCH  10  16
ATOM     16  O   UNL A   1      33.135  22.575  23.256  1.00  0.00    -0.493 OA
ATOM     17  C   UNL A   1      31.919  22.280  23.927  1.00  0.00     0.278 C 
ENDBRANCH  10  16
BRANCH  12  18
ATOM     18  N   UNL A   1      34.430  25.066  23.485  1.00  0.00    -0.329 N 
ATOM     19  H   UNL A   1      35.159  25.567  23.053  1.00  0.00     0.169 HD
BRANCH  18  20
ATOM     20  C   UNL A   1      33.204  25.661  23.375  1.00  0.00     0.177 C 
ATOM     21  S   UNL A   1      32.841  26.363  21.890  1.00  0.00    -0.040 S 
BRANCH  20  22
ATOM     22  N   UNL A   1      32.180  25.727  24.340  1.00  0.00    -0.299 N 
ATOM     23  C   UNL A   1      30.997  26.333  24.904  1.00  0.00     0.260 C 
ATOM     24  H   UNL A   1      32.368  24.969  24.939  1.00  0.00     0.172 HD
ATOM     25  O   UNL A   1      30.681  26.063  26.062  1.00  0.00    -0.269 OA
BRANCH  23  26
ATOM     26  C   UNL A   1      30.186  27.348  24.201  1.00  0.00     0.075 A 
ATOM     27  C   UNL A   1      28.429  26.973  23.780  1.00  0.00     0.017 A 
ATOM     28  C   UNL A   1      30.737  29.056  24.177  1.00  0.00     0.135 A 
ATOM     29  C   UNL A   1      27.347  28.313  23.129  1.00  0.00     0.001 A 
ATOM     30  C   UNL A   1      29.653  30.393  23.627  1.00  0.00     0.040 A 
ATOM     31  F   UNL A   1      31.973  29.353  24.599  1.00  0.00    -0.206 F 
ATOM     32  C   UNL A   1      27.993  30.010  22.975  1.00  0.00     0.003 A 
ENDBRANCH  23  26
ENDBRANCH  20  22
ENDBRANCH  18  20
ENDBRANCH  12  18
ENDBRANCH   7   9
ENDBRANCH   6   7
ENDBRANCH   5   6
ENDBRANCH   4   5
ENDBRANCH   3   4
ENDBRANCH   2   3
ENDBRANCH   1   2
BRANCH   1  33
ATOM     33  O   UNL A   1      43.886  18.809  25.098  1.00  0.00    -0.377 OA
BRANCH  33  34
ATOM     34  C   UNL A   1      45.110  19.522  25.003  1.00  0.00     0.188 C 
BRANCH  34  35
ATOM     35  C   UNL A   1      45.425  20.383  23.752  1.00  0.00     0.188 C 
BRANCH  35  36
ATOM     36  O   UNL A   1      45.121  21.768  23.800  1.00  0.00    -0.376 OA
BRANCH  36  37
ATOM     37  C   UNL A   1      45.868  22.690  24.584  1.00  0.00     0.202 C 
BRANCH  37  38
ATOM     38  C   UNL A   1      45.842  22.670  26.127  1.00  0.00     0.261 C 
BRANCH  38  39
ATOM     39  O   UNL A   1      44.638  23.102  26.763  1.00  0.00    -0.460 OA
BRANCH  39  40
ATOM     40  C   UNL A   1      43.870  23.973  26.077  1.00  0.00     0.338 C 
ATOM     41  O   UNL A   1      42.813  23.744  25.521  1.00  0.00    -0.246 OA
BRANCH  40  42
ATOM     42  C   UNL A   1      44.441  25.320  26.272  1.00  0.00     0.060 A 
ATOM     43  C   UNL A   1      44.499  26.192  25.179  1.00  0.00     0.016 A 
ATOM     44  C   UNL A   1      44.910  25.719  27.526  1.00  0.00     0.016 A 
ATOM     45  C   UNL A   1      45.055  27.458  25.323  1.00  0.00     0.010 A 
ATOM     46  C   UNL A   1      45.507  26.974  27.661  1.00  0.00     0.010 A 
ATOM     47  C   UNL A   1      45.614  27.830  26.550  1.00  0.00    -0.014 A 
BRANCH  47  48
ATOM     48  C   UNL A   1      46.510  29.005  26.597  1.00  0.00     0.031 A 
ATOM     49  C   UNL A   1      45.889  30.359  26.799  1.00  0.00     0.074 A 
ATOM     50  C   UNL A   1      47.843  28.873  26.514  1.00  0.00     0.049 A 
ATOM     51  N   UNL A   1      46.454  31.536  26.836  1.00  0.00    -0.248 NA
ATOM     52  C   UNL A   1      44.427  30.385  26.984  1.00  0.00     0.031 C 
ATOM     53  C   UNL A   1      48.564  27.608  26.391  1.00  0.00     0.029 A 
ATOM     54  N   UNL A   1      48.827  29.827  26.519  1.00  0.00    -0.354 N 
ATOM     55  C   UNL A   1      45.420  32.443  27.031  1.00  0.00     0.074 A 
ATOM     56  C   UNL A   1      44.190  31.684  27.075  1.00  0.00     0.031 C 
ATOM     57  C   UNL A   1      49.881  27.866  26.318  1.00  0.00     0.029 A 
ATOM     58  C   UNL A   1      50.089  29.313  26.349  1.00  0.00     0.049 A 
ATOM     59  H   UNL A   1      48.647  30.788  26.632  1.00  0.00     0.167 HD
ATOM     60  C   UNL A   1      45.489  33.787  27.164  1.00  0.00     0.031 A 
ATOM     61  C   UNL A   1      51.269  29.945  26.208  1.00  0.00     0.031 A 
ATOM     62  C   UNL A   1      46.714  34.539  27.096  1.00  0.00     0.049 A 
ATOM     63  C   UNL A   1      51.310  31.451  26.256  1.00  0.00     0.074 A 
ATOM     64  C   UNL A   1      46.895  35.905  27.224  1.00  0.00     0.029 A 
ATOM     65  N   UNL A   1      47.965  33.987  26.870  1.00  0.00    -0.354 N 
ATOM     66  N   UNL A   1      50.331  32.301  26.455  1.00  0.00    -0.248 NA
ATOM     67  C   UNL A   1      52.623  32.082  26.066  1.00  0.00     0.031 C 
ATOM     68  C   UNL A   1      48.246  36.187  26.999  1.00  0.00     0.029 A 
ATOM     69  C   UNL A   1      48.919  34.989  26.818  1.00  0.00     0.049 A 
ATOM     70  H   UNL A   1      48.149  33.026  26.763  1.00  0.00     0.167 HD
ATOM     71  C   UNL A   1      50.914  33.562  26.449  1.00  0.00     0.074 A 
ATOM     72  C   UNL A   1      52.335  33.364  26.242  1.00  0.00     0.031 C 
ATOM     73  C   UNL A   1      50.329  34.776  26.607  1.00  0.00     0.031 A 
BRANCH  60  74
ATOM     74  C   UNL A   1      44.194  34.532  27.337  1.00  0.00    -0.014 A 
ATOM     75  C   UNL A   1      43.632  34.749  28.606  1.00  0.00     0.009 A 
ATOM     76  C   UNL A   1      43.529  35.036  26.207  1.00  0.00     0.009 A 
ATOM     77  C   UNL A   1      42.412  35.419  28.735  1.00  0.00     0.001 A 
ATOM     78  C   UNL A   1      42.330  35.736  26.342  1.00  0.00     0.001 A 
ATOM     79  C   UNL A   1      41.766  35.917  27.603  1.00  0.00     0.000 A 
ENDBRANCH  60  74
BRANCH  61  80
ATOM     80  C   UNL A   1      52.510  29.158  25.977  1.00  0.00    -0.014 A 
ATOM     81  C   UNL A   1      53.305  28.736  27.054  1.00  0.00     0.009 A 
ATOM     82  C   UNL A   1      52.916  28.839  24.671  1.00  0.00     0.009 A 
ATOM     83  C   UNL A   1      54.492  28.035  26.827  1.00  0.00     0.001 A 
ATOM     84  C   UNL A   1      54.085  28.107  24.448  1.00  0.00     0.001 A 
ATOM     85  C   UNL A   1      54.876  27.716  25.526  1.00  0.00     0.000 A 
ENDBRANCH  61  80
BRANCH  73  86
ATOM     86  C   UNL A   1      51.228  35.985  26.610  1.00  0.00    -0.014 A 
ATOM     87  C   UNL A   1      51.640  36.595  27.806  1.00  0.00     0.009 A 
ATOM     88  C   UNL A   1      51.707  36.491  25.391  1.00  0.00     0.009 A 
ATOM     89  C   UNL A   1      52.482  37.710  27.776  1.00  0.00     0.001 A 
ATOM     90  C   UNL A   1      52.578  37.581  25.366  1.00  0.00     0.001 A 
ATOM     91  C   UNL A   1      52.955  38.197  26.557  1.00  0.00     0.000 A 
ENDBRANCH  73  86
ENDBRANCH  47  48
ENDBRANCH  40  42
ENDBRANCH  39  40
ENDBRANCH  38  39
ENDBRANCH  37  38
ENDBRANCH  36  37
ENDBRANCH  35  36
ENDBRANCH  34  35
ENDBRANCH  33  34
ENDBRANCH   1  33
TORSDOF 25
ENDMDL
