MODEL 1
REMARK VINA RESULT:      -8.1      0.000      0.000
REMARK SMILES [NH3+][C@H](CC[S@@](=O)[O-])C(=O)OCCOCCOCCOCCOC(=O)c1ccc(-c2c3nc(c(-c4ccccc4)c4ccc([nH]4)c(-c4ccccc4)c4nc(c(-c5ccccc5)c5ccc2[nH]5)C=C4)C=C3)cc1
REMARK SMILES IDX 15 1 14 2 13 3 12 4 11 5 10 6 8 7 9 8 2 9 1 10 3 14 4 15
REMARK SMILES IDX 5 16 6 17 7 18 16 19 17 20 18 21 19 22 20 23 21 24 22 25
REMARK SMILES IDX 23 26 24 27 25 28 26 29 72 30 27 31 71 32 28 33 29 34 30 35
REMARK SMILES IDX 65 36 31 37 70 38 64 39 66 40 32 41 69 42 63 43 62 44 33 46
REMARK SMILES IDX 55 47 40 48 54 49 41 50 44 51 53 52 67 53 42 54 43 55 52 57
REMARK SMILES IDX 68 58 45 59 34 60 35 61 39 62 36 63 38 64 37 65 56 66 57 67
REMARK SMILES IDX 61 68 58 69 60 70 59 71 46 72 47 73 51 74 48 75 50 76 49 77
REMARK H PARENT 1 11 1 12 1 13 66 45 44 56
REMARK Flexibility Score: inf
ROOT
ATOM      1  C   UNL A   1      40.449  19.607  26.346  1.00  0.00     0.188 C 
ENDROOT
BRANCH   1   2
ATOM      2  C   UNL A   1      40.141  21.036  25.867  1.00  0.00     0.188 C 
BRANCH   2   3
ATOM      3  O   UNL A   1      38.786  21.202  25.516  1.00  0.00    -0.376 OA
BRANCH   3   4
ATOM      4  C   UNL A   1      38.016  22.199  26.161  1.00  0.00     0.202 C 
BRANCH   4   5
ATOM      5  C   UNL A   1      37.777  23.589  25.545  1.00  0.00     0.261 C 
BRANCH   5   6
ATOM      6  O   UNL A   1      36.911  23.654  24.406  1.00  0.00    -0.459 OA
BRANCH   6   7
ATOM      7  C   UNL A   1      35.634  23.232  24.595  1.00  0.00     0.364 C 
ATOM      8  O   UNL A   1      35.228  22.136  24.215  1.00  0.00    -0.245 OA
BRANCH   7   9
ATOM      9  C   UNL A   1      34.755  24.228  25.402  1.00  0.00     0.292 C 
BRANCH   9  10
ATOM     10  N   UNL A   1      34.303  23.565  26.647  1.00  0.00    -0.346 N 
ATOM     11  H   UNL A   1      33.897  24.258  27.274  1.00  0.00     0.345 HD
ATOM     12  H   UNL A   1      35.100  23.119  27.103  1.00  0.00     0.345 HD
ATOM     13  H   UNL A   1      33.603  22.859  26.421  1.00  0.00     0.345 HD
ENDBRANCH   9  10
BRANCH   9  14
ATOM     14  C   UNL A   1      33.585  24.990  24.741  1.00  0.00     0.090 C 
BRANCH  14  15
ATOM     15  C   UNL A   1      32.540  25.717  25.579  1.00  0.00     0.096 C 
BRANCH  15  16
ATOM     16  S   UNL A   1      30.966  24.834  25.772  1.00  0.00    -0.055 S 
ATOM     17  O   UNL A   1      31.049  23.589  24.943  1.00  0.00    -0.275 OA
ATOM     18  O   UNL A   1      31.282  24.337  27.262  1.00  0.00    -0.772 OA
ENDBRANCH  15  16
ENDBRANCH  14  15
ENDBRANCH   9  14
ENDBRANCH   7   9
ENDBRANCH   6   7
ENDBRANCH   5   6
ENDBRANCH   4   5
ENDBRANCH   3   4
ENDBRANCH   2   3
ENDBRANCH   1   2
BRANCH   1  19
ATOM     19  O   UNL A   1      41.397  18.832  25.621  1.00  0.00    -0.377 OA
BRANCH  19  20
ATOM     20  C   UNL A   1      42.664  18.525  26.210  1.00  0.00     0.188 C 
BRANCH  20  21
ATOM     21  C   UNL A   1      43.973  18.764  25.427  1.00  0.00     0.188 C 
BRANCH  21  22
ATOM     22  O   UNL A   1      44.188  20.110  25.040  1.00  0.00    -0.376 OA
BRANCH  22  23
ATOM     23  C   UNL A   1      45.529  20.578  25.069  1.00  0.00     0.202 C 
BRANCH  23  24
ATOM     24  C   UNL A   1      45.698  22.055  25.443  1.00  0.00     0.261 C 
BRANCH  24  25
ATOM     25  O   UNL A   1      44.615  22.624  26.205  1.00  0.00    -0.460 OA
BRANCH  25  26
ATOM     26  C   UNL A   1      43.660  23.311  25.543  1.00  0.00     0.338 C 
ATOM     27  O   UNL A   1      43.182  23.071  24.450  1.00  0.00    -0.246 OA
BRANCH  26  28
ATOM     28  C   UNL A   1      43.169  24.356  26.456  1.00  0.00     0.060 A 
ATOM     29  C   UNL A   1      43.642  25.667  26.324  1.00  0.00     0.016 A 
ATOM     30  C   UNL A   1      42.236  24.028  27.440  1.00  0.00     0.016 A 
ATOM     31  C   UNL A   1      43.182  26.660  27.189  1.00  0.00     0.010 A 
ATOM     32  C   UNL A   1      41.792  25.018  28.314  1.00  0.00     0.010 A 
ATOM     33  C   UNL A   1      42.272  26.335  28.203  1.00  0.00    -0.014 A 
BRANCH  33  34
ATOM     34  C   UNL A   1      41.893  27.331  29.231  1.00  0.00     0.031 A 
ATOM     35  C   UNL A   1      42.620  27.327  30.546  1.00  0.00     0.074 A 
ATOM     36  C   UNL A   1      40.881  28.190  29.013  1.00  0.00     0.049 A 
ATOM     37  N   UNL A   1      42.367  28.010  31.633  1.00  0.00    -0.248 NA
ATOM     38  C   UNL A   1      43.783  26.430  30.652  1.00  0.00     0.031 C 
ATOM     39  C   UNL A   1      40.123  28.307  27.769  1.00  0.00     0.029 A 
ATOM     40  N   UNL A   1      40.302  29.110  29.852  1.00  0.00    -0.354 N 
ATOM     41  C   UNL A   1      43.324  27.612  32.556  1.00  0.00     0.074 A 
ATOM     42  C   UNL A   1      44.158  26.623  31.909  1.00  0.00     0.031 C 
ATOM     43  C   UNL A   1      39.157  29.229  27.934  1.00  0.00     0.029 A 
ATOM     44  C   UNL A   1      39.204  29.731  29.306  1.00  0.00     0.049 A 
ATOM     45  H   UNL A   1      40.639  29.306  30.755  1.00  0.00     0.167 HD
ATOM     46  C   UNL A   1      43.487  28.031  33.833  1.00  0.00     0.031 A 
ATOM     47  C   UNL A   1      38.314  30.574  29.866  1.00  0.00     0.031 A 
ATOM     48  C   UNL A   1      42.651  29.007  34.477  1.00  0.00     0.049 A 
ATOM     49  C   UNL A   1      38.472  30.956  31.315  1.00  0.00     0.074 A 
ATOM     50  C   UNL A   1      42.763  29.526  35.755  1.00  0.00     0.029 A 
ATOM     51  N   UNL A   1      41.541  29.599  33.897  1.00  0.00    -0.354 N 
ATOM     52  N   UNL A   1      39.412  30.616  32.165  1.00  0.00    -0.248 NA
ATOM     53  C   UNL A   1      37.441  31.837  31.885  1.00  0.00     0.031 C 
ATOM     54  C   UNL A   1      41.681  30.383  35.973  1.00  0.00     0.029 A 
ATOM     55  C   UNL A   1      40.932  30.444  34.809  1.00  0.00     0.049 A 
ATOM     56  H   UNL A   1      41.233  29.442  32.976  1.00  0.00     0.167 HD
ATOM     57  C   UNL A   1      39.095  31.253  33.359  1.00  0.00     0.074 A 
ATOM     58  C   UNL A   1      37.892  32.022  33.117  1.00  0.00     0.031 C 
ATOM     59  C   UNL A   1      39.737  31.203  34.551  1.00  0.00     0.031 A 
BRANCH  46  60
ATOM     60  C   UNL A   1      44.590  27.409  34.640  1.00  0.00    -0.014 A 
ATOM     61  C   UNL A   1      44.340  26.350  35.525  1.00  0.00     0.009 A 
ATOM     62  C   UNL A   1      45.913  27.843  34.452  1.00  0.00     0.009 A 
ATOM     63  C   UNL A   1      45.392  25.747  36.218  1.00  0.00     0.001 A 
ATOM     64  C   UNL A   1      46.964  27.223  35.128  1.00  0.00     0.001 A 
ATOM     65  C   UNL A   1      46.703  26.179  36.013  1.00  0.00     0.000 A 
ENDBRANCH  46  60
BRANCH  47  66
ATOM     66  C   UNL A   1      37.148  31.071  29.084  1.00  0.00    -0.014 A 
ATOM     67  C   UNL A   1      37.082  32.409  28.666  1.00  0.00     0.009 A 
ATOM     68  C   UNL A   1      36.068  30.220  28.803  1.00  0.00     0.009 A 
ATOM     69  C   UNL A   1      35.942  32.892  28.018  1.00  0.00     0.001 A 
ATOM     70  C   UNL A   1      34.944  30.697  28.125  1.00  0.00     0.001 A 
ATOM     71  C   UNL A   1      34.876  32.036  27.746  1.00  0.00     0.000 A 
ENDBRANCH  47  66
BRANCH  59  72
ATOM     72  C   UNL A   1      39.168  32.018  35.678  1.00  0.00    -0.014 A 
ATOM     73  C   UNL A   1      39.533  33.361  35.859  1.00  0.00     0.009 A 
ATOM     74  C   UNL A   1      38.215  31.450  36.539  1.00  0.00     0.009 A 
ATOM     75  C   UNL A   1      38.973  34.110  36.896  1.00  0.00     0.001 A 
ATOM     76  C   UNL A   1      37.636  32.209  37.555  1.00  0.00     0.001 A 
ATOM     77  C   UNL A   1      38.022  33.536  37.738  1.00  0.00     0.000 A 
ENDBRANCH  59  72
ENDBRANCH  33  34
ENDBRANCH  26  28
ENDBRANCH  25  26
ENDBRANCH  24  25
ENDBRANCH  23  24
ENDBRANCH  22  23
ENDBRANCH  21  22
ENDBRANCH  20  21
ENDBRANCH  19  20
ENDBRANCH   1  19
TORSDOF 24
ENDMDL
MODEL 2
REMARK VINA RESULT:      -8.1      4.212      9.654
REMARK SMILES [NH3+][C@H](CC[S@@](=O)[O-])C(=O)OCCOCCOCCOCCOC(=O)c1ccc(-c2c3nc(c(-c4ccccc4)c4ccc([nH]4)c(-c4ccccc4)c4nc(c(-c5ccccc5)c5ccc2[nH]5)C=C4)C=C3)cc1
REMARK SMILES IDX 15 1 14 2 13 3 12 4 11 5 10 6 8 7 9 8 2 9 1 10 3 14 4 15
REMARK SMILES IDX 5 16 6 17 7 18 16 19 17 20 18 21 19 22 20 23 21 24 22 25
REMARK SMILES IDX 23 26 24 27 25 28 26 29 72 30 27 31 71 32 28 33 29 34 30 35
REMARK SMILES IDX 65 36 31 37 70 38 64 39 66 40 32 41 69 42 63 43 62 44 33 46
REMARK SMILES IDX 55 47 40 48 54 49 41 50 44 51 53 52 67 53 42 54 43 55 52 57
REMARK SMILES IDX 68 58 45 59 34 60 35 61 39 62 36 63 38 64 37 65 56 66 57 67
REMARK SMILES IDX 61 68 58 69 60 70 59 71 46 72 47 73 51 74 48 75 50 76 49 77
REMARK H PARENT 1 11 1 12 1 13 66 45 44 56
REMARK Flexibility Score: inf
ROOT
ATOM      1  C   UNL A   1      34.288  30.203  27.517  1.00  0.00     0.188 C 
ENDROOT
BRANCH   1   2
ATOM      2  C   UNL A   1      33.257  29.901  26.418  1.00  0.00     0.188 C 
BRANCH   2   3
ATOM      3  O   UNL A   1      33.757  29.011  25.445  1.00  0.00    -0.376 OA
BRANCH   3   4
ATOM      4  C   UNL A   1      32.856  28.214  24.701  1.00  0.00     0.202 C 
BRANCH   4   5
ATOM      5  C   UNL A   1      33.266  27.487  23.407  1.00  0.00     0.261 C 
BRANCH   5   6
ATOM      6  O   UNL A   1      33.222  26.055  23.425  1.00  0.00    -0.459 OA
BRANCH   6   7
ATOM      7  C   UNL A   1      33.198  25.438  22.216  1.00  0.00     0.364 C 
ATOM      8  O   UNL A   1      33.486  26.009  21.167  1.00  0.00    -0.245 OA
BRANCH   7   9
ATOM      9  C   UNL A   1      32.848  23.925  22.288  1.00  0.00     0.292 C 
BRANCH   9  10
ATOM     10  N   UNL A   1      31.421  23.783  22.659  1.00  0.00    -0.346 N 
ATOM     11  H   UNL A   1      30.840  24.256  21.967  1.00  0.00     0.345 HD
ATOM     12  H   UNL A   1      31.265  24.201  23.577  1.00  0.00     0.345 HD
ATOM     13  H   UNL A   1      31.175  22.793  22.690  1.00  0.00     0.345 HD
ENDBRANCH   9  10
BRANCH   9  14
ATOM     14  C   UNL A   1      33.716  22.933  23.093  1.00  0.00     0.090 C 
BRANCH  14  15
ATOM     15  C   UNL A   1      33.163  22.209  24.315  1.00  0.00     0.096 C 
BRANCH  15  16
ATOM     16  S   UNL A   1      32.590  20.515  24.004  1.00  0.00    -0.055 S 
ATOM     17  O   UNL A   1      33.762  19.605  24.209  1.00  0.00    -0.275 OA
ATOM     18  O   UNL A   1      31.765  20.409  25.373  1.00  0.00    -0.772 OA
ENDBRANCH  15  16
ENDBRANCH  14  15
ENDBRANCH   9  14
ENDBRANCH   7   9
ENDBRANCH   6   7
ENDBRANCH   5   6
ENDBRANCH   4   5
ENDBRANCH   3   4
ENDBRANCH   2   3
ENDBRANCH   1   2
BRANCH   1  19
ATOM     19  O   UNL A   1      34.690  31.552  27.727  1.00  0.00    -0.377 OA
BRANCH  19  20
ATOM     20  C   UNL A   1      34.740  32.081  29.056  1.00  0.00     0.188 C 
BRANCH  20  21
ATOM     21  C   UNL A   1      34.812  33.604  29.292  1.00  0.00     0.188 C 
BRANCH  21  22
ATOM     22  O   UNL A   1      33.747  34.339  28.713  1.00  0.00    -0.376 OA
BRANCH  22  23
ATOM     23  C   UNL A   1      33.773  35.749  28.887  1.00  0.00     0.202 C 
BRANCH  23  24
ATOM     24  C   UNL A   1      32.741  36.305  29.874  1.00  0.00     0.261 C 
BRANCH  24  25
ATOM     25  O   UNL A   1      32.435  35.447  30.991  1.00  0.00    -0.460 OA
BRANCH  25  26
ATOM     26  C   UNL A   1      32.763  35.868  32.231  1.00  0.00     0.338 C 
ATOM     27  O   UNL A   1      32.161  36.651  32.942  1.00  0.00    -0.246 OA
BRANCH  26  28
ATOM     28  C   UNL A   1      33.936  35.088  32.656  1.00  0.00     0.060 A 
ATOM     29  C   UNL A   1      35.217  35.634  32.515  1.00  0.00     0.016 A 
ATOM     30  C   UNL A   1      33.756  33.815  33.197  1.00  0.00     0.016 A 
ATOM     31  C   UNL A   1      36.333  34.896  32.914  1.00  0.00     0.010 A 
ATOM     32  C   UNL A   1      34.873  33.073  33.578  1.00  0.00     0.010 A 
ATOM     33  C   UNL A   1      36.166  33.603  33.426  1.00  0.00    -0.014 A 
BRANCH  33  34
ATOM     34  C   UNL A   1      37.337  32.741  33.705  1.00  0.00     0.031 A 
ATOM     35  C   UNL A   1      38.124  32.973  34.964  1.00  0.00     0.074 A 
ATOM     36  C   UNL A   1      37.721  31.801  32.824  1.00  0.00     0.049 A 
ATOM     37  N   UNL A   1      39.255  32.436  35.343  1.00  0.00    -0.248 NA
ATOM     38  C   UNL A   1      37.565  33.944  35.919  1.00  0.00     0.031 C 
ATOM     39  C   UNL A   1      37.022  31.464  31.585  1.00  0.00     0.029 A 
ATOM     40  N   UNL A   1      38.818  30.975  32.829  1.00  0.00    -0.354 N 
ATOM     41  C   UNL A   1      39.553  33.017  36.569  1.00  0.00     0.074 A 
ATOM     42  C   UNL A   1      38.491  33.953  36.867  1.00  0.00     0.031 C 
ATOM     43  C   UNL A   1      37.723  30.519  30.934  1.00  0.00     0.029 A 
ATOM     44  C   UNL A   1      38.938  30.218  31.688  1.00  0.00     0.049 A 
ATOM     45  H   UNL A   1      39.457  30.929  33.577  1.00  0.00     0.167 HD
ATOM     46  C   UNL A   1      40.621  32.792  37.369  1.00  0.00     0.031 A 
ATOM     47  C   UNL A   1      39.937  29.411  31.280  1.00  0.00     0.031 A 
ATOM     48  C   UNL A   1      41.680  31.868  37.065  1.00  0.00     0.049 A 
ATOM     49  C   UNL A   1      41.154  29.247  32.154  1.00  0.00     0.074 A 
ATOM     50  C   UNL A   1      42.783  31.543  37.833  1.00  0.00     0.029 A 
ATOM     51  N   UNL A   1      41.773  31.135  35.893  1.00  0.00    -0.354 N 
ATOM     52  N   UNL A   1      41.402  29.759  33.336  1.00  0.00    -0.248 NA
ATOM     53  C   UNL A   1      42.235  28.395  31.634  1.00  0.00     0.031 C 
ATOM     54  C   UNL A   1      43.580  30.662  37.097  1.00  0.00     0.029 A 
ATOM     55  C   UNL A   1      42.941  30.392  35.898  1.00  0.00     0.049 A 
ATOM     56  H   UNL A   1      41.109  31.142  35.167  1.00  0.00     0.167 HD
ATOM     57  C   UNL A   1      42.653  29.278  33.705  1.00  0.00     0.074 A 
ATOM     58  C   UNL A   1      43.102  28.412  32.636  1.00  0.00     0.031 C 
ATOM     59  C   UNL A   1      43.371  29.534  34.826  1.00  0.00     0.031 A 
BRANCH  46  60
ATOM     60  C   UNL A   1      40.726  33.587  38.639  1.00  0.00    -0.014 A 
ATOM     61  C   UNL A   1      40.198  33.106  39.847  1.00  0.00     0.009 A 
ATOM     62  C   UNL A   1      41.430  34.801  38.637  1.00  0.00     0.009 A 
ATOM     63  C   UNL A   1      40.363  33.835  41.027  1.00  0.00     0.001 A 
ATOM     64  C   UNL A   1      41.612  35.515  39.822  1.00  0.00     0.001 A 
ATOM     65  C   UNL A   1      41.076  35.034  41.015  1.00  0.00     0.000 A 
ENDBRANCH  46  60
BRANCH  47  66
ATOM     66  C   UNL A   1      39.874  28.740  29.953  1.00  0.00    -0.014 A 
ATOM     67  C   UNL A   1      39.356  27.441  29.829  1.00  0.00     0.009 A 
ATOM     68  C   UNL A   1      40.385  29.377  28.811  1.00  0.00     0.009 A 
ATOM     69  C   UNL A   1      39.389  26.781  28.597  1.00  0.00     0.001 A 
ATOM     70  C   UNL A   1      40.386  28.727  27.575  1.00  0.00     0.001 A 
ATOM     71  C   UNL A   1      39.901  27.425  27.472  1.00  0.00     0.000 A 
ENDBRANCH  47  66
BRANCH  59  72
ATOM     72  C   UNL A   1      44.703  28.854  34.965  1.00  0.00    -0.014 A 
ATOM     73  C   UNL A   1      45.883  29.469  34.518  1.00  0.00     0.009 A 
ATOM     74  C   UNL A   1      44.787  27.605  35.600  1.00  0.00     0.009 A 
ATOM     75  C   UNL A   1      47.115  28.834  34.680  1.00  0.00     0.001 A 
ATOM     76  C   UNL A   1      46.023  26.986  35.788  1.00  0.00     0.001 A 
ATOM     77  C   UNL A   1      47.185  27.597  35.320  1.00  0.00     0.000 A 
ENDBRANCH  59  72
ENDBRANCH  33  34
ENDBRANCH  26  28
ENDBRANCH  25  26
ENDBRANCH  24  25
ENDBRANCH  23  24
ENDBRANCH  22  23
ENDBRANCH  21  22
ENDBRANCH  20  21
ENDBRANCH  19  20
ENDBRANCH   1  19
TORSDOF 24
ENDMDL
MODEL 3
REMARK VINA RESULT:      -7.7      6.998      9.447
REMARK SMILES [NH3+][C@H](CC[S@@](=O)[O-])C(=O)OCCOCCOCCOCCOC(=O)c1ccc(-c2c3nc(c(-c4ccccc4)c4ccc([nH]4)c(-c4ccccc4)c4nc(c(-c5ccccc5)c5ccc2[nH]5)C=C4)C=C3)cc1
REMARK SMILES IDX 15 1 14 2 13 3 12 4 11 5 10 6 8 7 9 8 2 9 1 10 3 14 4 15
REMARK SMILES IDX 5 16 6 17 7 18 16 19 17 20 18 21 19 22 20 23 21 24 22 25
REMARK SMILES IDX 23 26 24 27 25 28 26 29 72 30 27 31 71 32 28 33 29 34 30 35
REMARK SMILES IDX 65 36 31 37 70 38 64 39 66 40 32 41 69 42 63 43 62 44 33 46
REMARK SMILES IDX 55 47 40 48 54 49 41 50 44 51 53 52 67 53 42 54 43 55 52 57
REMARK SMILES IDX 68 58 45 59 34 60 35 61 39 62 36 63 38 64 37 65 56 66 57 67
REMARK SMILES IDX 61 68 58 69 60 70 59 71 46 72 47 73 51 74 48 75 50 76 49 77
REMARK H PARENT 1 11 1 12 1 13 66 45 44 56
REMARK Flexibility Score: inf
ROOT
ATOM      1  C   UNL A   1      37.437  22.252  25.162  1.00  0.00     0.188 C 
ENDROOT
BRANCH   1   2
ATOM      2  C   UNL A   1      36.063  22.732  25.657  1.00  0.00     0.188 C 
BRANCH   2   3
ATOM      3  O   UNL A   1      35.403  21.757  26.433  1.00  0.00    -0.376 OA
BRANCH   3   4
ATOM      4  C   UNL A   1      34.181  21.211  25.975  1.00  0.00     0.202 C 
BRANCH   4   5
ATOM      5  C   UNL A   1      33.617  21.503  24.572  1.00  0.00     0.261 C 
BRANCH   5   6
ATOM      6  O   UNL A   1      32.321  20.971  24.270  1.00  0.00    -0.459 OA
BRANCH   6   7
ATOM      7  C   UNL A   1      32.177  20.391  23.051  1.00  0.00     0.364 C 
ATOM      8  O   UNL A   1      31.822  21.012  22.052  1.00  0.00    -0.245 OA
BRANCH   7   9
ATOM      9  C   UNL A   1      32.576  18.889  23.017  1.00  0.00     0.292 C 
BRANCH   9  10
ATOM     10  N   UNL A   1      32.043  18.282  21.776  1.00  0.00    -0.346 N 
ATOM     11  H   UNL A   1      32.425  18.771  20.967  1.00  0.00     0.345 HD
ATOM     12  H   UNL A   1      31.025  18.357  21.770  1.00  0.00     0.345 HD
ATOM     13  H   UNL A   1      32.311  17.299  21.736  1.00  0.00     0.345 HD
ENDBRANCH   9  10
BRANCH   9  14
ATOM     14  C   UNL A   1      32.321  17.960  24.224  1.00  0.00     0.090 C 
BRANCH  14  15
ATOM     15  C   UNL A   1      33.442  17.588  25.187  1.00  0.00     0.096 C 
BRANCH  15  16
ATOM     16  S   UNL A   1      34.328  16.058  24.776  1.00  0.00    -0.055 S 
ATOM     17  O   UNL A   1      33.472  14.914  25.227  1.00  0.00    -0.275 OA
ATOM     18  O   UNL A   1      34.043  16.167  23.204  1.00  0.00    -0.772 OA
ENDBRANCH  15  16
ENDBRANCH  14  15
ENDBRANCH   9  14
ENDBRANCH   7   9
ENDBRANCH   6   7
ENDBRANCH   5   6
ENDBRANCH   4   5
ENDBRANCH   3   4
ENDBRANCH   2   3
ENDBRANCH   1   2
BRANCH   1  19
ATOM     19  O   UNL A   1      38.159  21.314  25.952  1.00  0.00    -0.377 OA
BRANCH  19  20
ATOM     20  C   UNL A   1      39.590  21.318  25.931  1.00  0.00     0.188 C 
BRANCH  20  21
ATOM     21  C   UNL A   1      40.385  20.048  26.302  1.00  0.00     0.188 C 
BRANCH  21  22
ATOM     22  O   UNL A   1      41.505  19.793  25.472  1.00  0.00    -0.376 OA
BRANCH  22  23
ATOM     23  C   UNL A   1      42.788  20.002  26.045  1.00  0.00     0.202 C 
BRANCH  23  24
ATOM     24  C   UNL A   1      43.424  21.365  25.745  1.00  0.00     0.261 C 
BRANCH  24  25
ATOM     25  O   UNL A   1      43.773  22.148  26.903  1.00  0.00    -0.460 OA
BRANCH  25  26
ATOM     26  C   UNL A   1      42.961  23.169  27.252  1.00  0.00     0.338 C 
ATOM     27  O   UNL A   1      41.858  23.111  27.763  1.00  0.00    -0.246 OA
BRANCH  26  28
ATOM     28  C   UNL A   1      43.716  24.414  27.039  1.00  0.00     0.060 A 
ATOM     29  C   UNL A   1      43.803  24.958  25.752  1.00  0.00     0.016 A 
ATOM     30  C   UNL A   1      44.335  25.038  28.123  1.00  0.00     0.016 A 
ATOM     31  C   UNL A   1      44.521  26.137  25.546  1.00  0.00     0.010 A 
ATOM     32  C   UNL A   1      45.067  26.205  27.910  1.00  0.00     0.010 A 
ATOM     33  C   UNL A   1      45.176  26.753  26.620  1.00  0.00    -0.014 A 
BRANCH  33  34
ATOM     34  C   UNL A   1      46.074  27.909  26.400  1.00  0.00     0.031 A 
ATOM     35  C   UNL A   1      47.540  27.658  26.190  1.00  0.00     0.074 A 
ATOM     36  C   UNL A   1      45.595  29.165  26.439  1.00  0.00     0.049 A 
ATOM     37  N   UNL A   1      48.524  28.517  26.117  1.00  0.00    -0.248 NA
ATOM     38  C   UNL A   1      47.953  26.251  26.051  1.00  0.00     0.031 C 
ATOM     39  C   UNL A   1      44.190  29.533  26.606  1.00  0.00     0.029 A 
ATOM     40  N   UNL A   1      46.254  30.368  26.368  1.00  0.00    -0.354 N 
ATOM     41  C   UNL A   1      49.673  27.756  25.942  1.00  0.00     0.074 A 
ATOM     42  C   UNL A   1      49.268  26.367  25.930  1.00  0.00     0.031 C 
ATOM     43  C   UNL A   1      44.094  30.873  26.652  1.00  0.00     0.029 A 
ATOM     44  C   UNL A   1      45.432  31.453  26.562  1.00  0.00     0.049 A 
ATOM     45  H   UNL A   1      47.220  30.447  26.195  1.00  0.00     0.167 HD
ATOM     46  C   UNL A   1      50.951  28.180  25.811  1.00  0.00     0.031 A 
ATOM     47  C   UNL A   1      45.734  32.759  26.697  1.00  0.00     0.031 A 
ATOM     48  C   UNL A   1      51.352  29.561  25.834  1.00  0.00     0.049 A 
ATOM     49  C   UNL A   1      47.176  33.193  26.631  1.00  0.00     0.074 A 
ATOM     50  C   UNL A   1      52.619  30.091  25.668  1.00  0.00     0.029 A 
ATOM     51  N   UNL A   1      50.493  30.627  26.049  1.00  0.00    -0.354 N 
ATOM     52  N   UNL A   1      48.250  32.472  26.414  1.00  0.00    -0.248 NA
ATOM     53  C   UNL A   1      47.449  34.623  26.838  1.00  0.00     0.031 C 
ATOM     54  C   UNL A   1      52.538  31.474  25.850  1.00  0.00     0.029 A 
ATOM     55  C   UNL A   1      51.212  31.810  26.066  1.00  0.00     0.049 A 
ATOM     56  H   UNL A   1      49.520  30.553  26.172  1.00  0.00     0.167 HD
ATOM     57  C   UNL A   1      49.318  33.361  26.438  1.00  0.00     0.074 A 
ATOM     58  C   UNL A   1      48.762  34.678  26.665  1.00  0.00     0.031 C 
ATOM     59  C   UNL A   1      50.642  33.112  26.292  1.00  0.00     0.031 A 
BRANCH  46  60
ATOM     60  C   UNL A   1      52.025  27.140  25.670  1.00  0.00    -0.014 A 
ATOM     61  C   UNL A   1      52.433  26.678  24.410  1.00  0.00     0.009 A 
ATOM     62  C   UNL A   1      52.688  26.672  26.816  1.00  0.00     0.009 A 
ATOM     63  C   UNL A   1      53.476  25.755  24.302  1.00  0.00     0.001 A 
ATOM     64  C   UNL A   1      53.745  25.769  26.703  1.00  0.00     0.001 A 
ATOM     65  C   UNL A   1      54.136  25.308  25.447  1.00  0.00     0.000 A 
ENDBRANCH  46  60
BRANCH  47  66
ATOM     66  C   UNL A   1      44.665  33.758  26.974  1.00  0.00    -0.014 A 
ATOM     67  C   UNL A   1      44.262  34.033  28.290  1.00  0.00     0.009 A 
ATOM     68  C   UNL A   1      44.002  34.399  25.915  1.00  0.00     0.009 A 
ATOM     69  C   UNL A   1      43.194  34.899  28.537  1.00  0.00     0.001 A 
ATOM     70  C   UNL A   1      42.956  35.289  26.166  1.00  0.00     0.001 A 
ATOM     71  C   UNL A   1      42.543  35.528  27.476  1.00  0.00     0.000 A 
ENDBRANCH  47  66
BRANCH  59  72
ATOM     72  C   UNL A   1      51.578  34.285  26.350  1.00  0.00    -0.014 A 
ATOM     73  C   UNL A   1      52.174  34.680  27.557  1.00  0.00     0.009 A 
ATOM     74  C   UNL A   1      51.910  34.972  25.171  1.00  0.00     0.009 A 
ATOM     75  C   UNL A   1      53.063  35.756  27.587  1.00  0.00     0.001 A 
ATOM     76  C   UNL A   1      52.821  36.029  25.199  1.00  0.00     0.001 A 
ATOM     77  C   UNL A   1      53.390  36.425  26.407  1.00  0.00     0.000 A 
ENDBRANCH  59  72
ENDBRANCH  33  34
ENDBRANCH  26  28
ENDBRANCH  25  26
ENDBRANCH  24  25
ENDBRANCH  23  24
ENDBRANCH  22  23
ENDBRANCH  21  22
ENDBRANCH  20  21
ENDBRANCH  19  20
ENDBRANCH   1  19
TORSDOF 24
ENDMDL
