MODEL 1
REMARK VINA RESULT:      -7.7      0.000      0.000
REMARK SMILES Cc1ccc(S(=O)(=O)N2C[C@@H](CC(=O)OCCOCCOCCOCCOC(=O)c3ccc(-c4c5nc(c(-c6ccccc6)c6ccc([nH]6)c(-c6ccccc6)c6nc(c(-c7ccccc7)c7ccc4[nH]7)C=C6)C=C5)cc3)c3ccccc32)c(C)c1
REMARK SMILES IDX 20 1 19 2 18 3 17 4 16 5 15 6 13 7 14 8 12 9 11 10 9 11
REMARK SMILES IDX 10 12 83 13 78 14 82 15 79 16 81 17 80 18 6 19 7 20 8 21
REMARK SMILES IDX 5 22 1 23 2 24 3 25 86 26 4 27 84 28 85 29 21 30 22 31 23 32
REMARK SMILES IDX 24 33 25 34 26 35 27 36 28 37 29 38 30 39 31 40 77 41 32 42
REMARK SMILES IDX 76 43 33 44 34 45 35 46 70 47 36 48 75 49 69 50 71 51 37 52
REMARK SMILES IDX 74 53 68 54 67 55 38 57 60 58 45 59 59 60 46 61 49 62 58 63
REMARK SMILES IDX 72 64 47 65 48 66 57 68 73 69 50 70 39 71 40 72 44 73 41 74
REMARK SMILES IDX 43 75 42 76 61 77 62 78 66 79 63 80 65 81 64 82 51 83 52 84
REMARK SMILES IDX 56 85 53 86 55 87 54 88
REMARK H PARENT 71 56 49 67
REMARK Flexibility Score: inf
ROOT
ATOM      1  C   UNL A   1      35.917  33.454  28.648  1.00  0.00     0.188 C 
ENDROOT
BRANCH   1   2
ATOM      2  C   UNL A   1      36.470  32.060  28.328  1.00  0.00     0.188 C 
BRANCH   2   3
ATOM      3  O   UNL A   1      35.862  30.936  28.931  1.00  0.00    -0.376 OA
BRANCH   3   4
ATOM      4  C   UNL A   1      36.596  29.731  29.109  1.00  0.00     0.202 C 
BRANCH   4   5
ATOM      5  C   UNL A   1      37.285  29.354  30.430  1.00  0.00     0.261 C 
BRANCH   5   6
ATOM      6  O   UNL A   1      37.749  27.996  30.541  1.00  0.00    -0.463 OA
BRANCH   6   7
ATOM      7  C   UNL A   1      39.024  27.836  30.960  1.00  0.00     0.306 C 
ATOM      8  O   UNL A   1      39.342  27.644  32.130  1.00  0.00    -0.252 OA
BRANCH   7   9
ATOM      9  C   UNL A   1      40.088  27.944  29.890  1.00  0.00     0.133 C 
BRANCH   9  10
ATOM     10  C   UNL A   1      39.976  27.233  28.547  1.00  0.00     0.053 C 
ATOM     11  N   UNL A   1      40.818  25.283  27.425  1.00  0.00    -0.265 N 
ATOM     12  C   UNL A   1      40.323  25.725  28.741  1.00  0.00     0.144 C 
ATOM     13  C   UNL A   1      41.287  26.424  26.719  1.00  0.00     0.055 A 
ATOM     14  C   UNL A   1      40.877  27.586  27.387  1.00  0.00    -0.018 A 
ATOM     15  C   UNL A   1      41.986  26.476  25.525  1.00  0.00     0.027 A 
ATOM     16  C   UNL A   1      41.183  28.830  26.858  1.00  0.00     0.006 A 
ATOM     17  C   UNL A   1      42.314  27.728  25.007  1.00  0.00     0.002 A 
ATOM     18  C   UNL A   1      41.913  28.897  25.667  1.00  0.00     0.000 A 
BRANCH  11  19
ATOM     19  S   UNL A   1      41.384  23.723  27.209  1.00  0.00     0.264 S 
ATOM     20  O   UNL A   1      40.451  23.040  26.332  1.00  0.00    -0.201 OA
ATOM     21  O   UNL A   1      41.697  23.192  28.522  1.00  0.00    -0.201 OA
BRANCH  19  22
ATOM     22  C   UNL A   1      42.937  23.797  26.319  1.00  0.00     0.090 A 
ATOM     23  C   UNL A   1      46.778  23.496  24.372  1.00  0.00     0.044 C 
ATOM     24  C   UNL A   1      45.434  23.625  25.027  1.00  0.00    -0.051 A 
ATOM     25  C   UNL A   1      44.273  23.211  24.374  1.00  0.00     0.005 A 
ATOM     26  C   UNL A   1      45.331  24.176  26.309  1.00  0.00     0.008 A 
ATOM     27  C   UNL A   1      43.034  23.304  25.011  1.00  0.00     0.023 A 
ATOM     28  C   UNL A   1      44.092  24.275  26.972  1.00  0.00    -0.030 A 
ATOM     29  C   UNL A   1      44.106  24.911  28.338  1.00  0.00     0.046 C 
ENDBRANCH  19  22
ENDBRANCH  11  19
ENDBRANCH   9  10
ENDBRANCH   7   9
ENDBRANCH   6   7
ENDBRANCH   5   6
ENDBRANCH   4   5
ENDBRANCH   3   4
ENDBRANCH   2   3
ENDBRANCH   1   2
BRANCH   1  30
ATOM     30  O   UNL A   1      34.587  33.501  29.122  1.00  0.00    -0.377 OA
BRANCH  30  31
ATOM     31  C   UNL A   1      34.320  33.890  30.466  1.00  0.00     0.188 C 
BRANCH  31  32
ATOM     32  C   UNL A   1      35.204  33.411  31.634  1.00  0.00     0.188 C 
BRANCH  32  33
ATOM     33  O   UNL A   1      34.713  33.718  32.928  1.00  0.00    -0.376 OA
BRANCH  33  34
ATOM     34  C   UNL A   1      35.414  34.679  33.705  1.00  0.00     0.202 C 
BRANCH  34  35
ATOM     35  C   UNL A   1      36.626  34.171  34.500  1.00  0.00     0.261 C 
BRANCH  35  36
ATOM     36  O   UNL A   1      36.589  32.782  34.869  1.00  0.00    -0.460 OA
BRANCH  36  37
ATOM     37  C   UNL A   1      37.628  32.294  35.582  1.00  0.00     0.338 C 
ATOM     38  O   UNL A   1      37.648  31.988  36.751  1.00  0.00    -0.246 OA
BRANCH  37  39
ATOM     39  C   UNL A   1      38.728  32.026  34.635  1.00  0.00     0.060 A 
ATOM     40  C   UNL A   1      38.442  31.335  33.451  1.00  0.00     0.016 A 
ATOM     41  C   UNL A   1      40.034  32.411  34.939  1.00  0.00     0.016 A 
ATOM     42  C   UNL A   1      39.478  30.983  32.587  1.00  0.00     0.010 A 
ATOM     43  C   UNL A   1      41.072  32.044  34.081  1.00  0.00     0.010 A 
ATOM     44  C   UNL A   1      40.803  31.293  32.923  1.00  0.00    -0.014 A 
BRANCH  44  45
ATOM     45  C   UNL A   1      41.915  30.662  32.174  1.00  0.00     0.031 A 
ATOM     46  C   UNL A   1      42.495  29.378  32.702  1.00  0.00     0.074 A 
ATOM     47  C   UNL A   1      42.384  31.198  31.034  1.00  0.00     0.049 A 
ATOM     48  N   UNL A   1      43.484  28.660  32.235  1.00  0.00    -0.248 NA
ATOM     49  C   UNL A   1      41.876  28.833  33.922  1.00  0.00     0.031 C 
ATOM     50  C   UNL A   1      41.873  32.407  30.392  1.00  0.00     0.029 A 
ATOM     51  N   UNL A   1      43.405  30.784  30.216  1.00  0.00    -0.354 N 
ATOM     52  C   UNL A   1      43.609  27.584  33.106  1.00  0.00     0.074 A 
ATOM     53  C   UNL A   1      42.618  27.759  34.145  1.00  0.00     0.031 C 
ATOM     54  C   UNL A   1      42.589  32.641  29.278  1.00  0.00     0.029 A 
ATOM     55  C   UNL A   1      43.628  31.619  29.150  1.00  0.00     0.049 A 
ATOM     56  H   UNL A   1      43.928  29.965  30.378  1.00  0.00     0.167 HD
ATOM     57  C   UNL A   1      44.469  26.539  33.045  1.00  0.00     0.031 A 
ATOM     58  C   UNL A   1      44.576  31.574  28.194  1.00  0.00     0.031 A 
ATOM     59  C   UNL A   1      45.469  26.375  32.026  1.00  0.00     0.049 A 
ATOM     60  C   UNL A   1      45.580  30.451  28.199  1.00  0.00     0.074 A 
ATOM     61  C   UNL A   1      46.383  25.346  31.873  1.00  0.00     0.029 A 
ATOM     62  N   UNL A   1      45.694  27.269  30.991  1.00  0.00    -0.354 N 
ATOM     63  N   UNL A   1      45.674  29.425  29.012  1.00  0.00    -0.248 NA
ATOM     64  C   UNL A   1      46.608  30.476  27.146  1.00  0.00     0.031 C 
ATOM     65  C   UNL A   1      47.202  25.651  30.781  1.00  0.00     0.029 A 
ATOM     66  C   UNL A   1      46.753  26.832  30.212  1.00  0.00     0.049 A 
ATOM     67  H   UNL A   1      45.178  28.091  30.833  1.00  0.00     0.167 HD
ATOM     68  C   UNL A   1      46.745  28.670  28.551  1.00  0.00     0.074 A 
ATOM     69  C   UNL A   1      47.261  29.346  27.379  1.00  0.00     0.031 C 
ATOM     70  C   UNL A   1      47.255  27.517  29.049  1.00  0.00     0.031 A 
BRANCH  57  71
ATOM     71  C   UNL A   1      44.390  25.515  34.143  1.00  0.00    -0.014 A 
ATOM     72  C   UNL A   1      43.431  24.489  34.120  1.00  0.00     0.009 A 
ATOM     73  C   UNL A   1      45.305  25.566  35.207  1.00  0.00     0.009 A 
ATOM     74  C   UNL A   1      43.370  23.557  35.158  1.00  0.00     0.001 A 
ATOM     75  C   UNL A   1      45.261  24.614  36.226  1.00  0.00     0.001 A 
ATOM     76  C   UNL A   1      44.288  23.616  36.206  1.00  0.00     0.000 A 
ENDBRANCH  57  71
BRANCH  58  77
ATOM     77  C   UNL A   1      44.643  32.638  27.157  1.00  0.00    -0.014 A 
ATOM     78  C   UNL A   1      43.845  32.570  26.005  1.00  0.00     0.009 A 
ATOM     79  C   UNL A   1      45.531  33.716  27.301  1.00  0.00     0.009 A 
ATOM     80  C   UNL A   1      43.956  33.543  25.007  1.00  0.00     0.001 A 
ATOM     81  C   UNL A   1      45.618  34.703  26.318  1.00  0.00     0.001 A 
ATOM     82  C   UNL A   1      44.838  34.610  25.167  1.00  0.00     0.000 A 
ENDBRANCH  58  77
BRANCH  70  83
ATOM     83  C   UNL A   1      48.404  26.888  28.308  1.00  0.00    -0.014 A 
ATOM     84  C   UNL A   1      49.732  27.275  28.546  1.00  0.00     0.009 A 
ATOM     85  C   UNL A   1      48.151  25.857  27.387  1.00  0.00     0.009 A 
ATOM     86  C   UNL A   1      50.779  26.667  27.851  1.00  0.00     0.001 A 
ATOM     87  C   UNL A   1      49.203  25.230  26.718  1.00  0.00     0.001 A 
ATOM     88  C   UNL A   1      50.515  25.642  26.942  1.00  0.00     0.000 A 
ENDBRANCH  70  83
ENDBRANCH  44  45
ENDBRANCH  37  39
ENDBRANCH  36  37
ENDBRANCH  35  36
ENDBRANCH  34  35
ENDBRANCH  33  34
ENDBRANCH  32  33
ENDBRANCH  31  32
ENDBRANCH  30  31
ENDBRANCH   1  30
TORSDOF 23
ENDMDL
MODEL 2
REMARK VINA RESULT:      -7.6      9.308     14.641
REMARK SMILES Cc1ccc(S(=O)(=O)N2C[C@@H](CC(=O)OCCOCCOCCOCCOC(=O)c3ccc(-c4c5nc(c(-c6ccccc6)c6ccc([nH]6)c(-c6ccccc6)c6nc(c(-c7ccccc7)c7ccc4[nH]7)C=C6)C=C5)cc3)c3ccccc32)c(C)c1
REMARK SMILES IDX 20 1 19 2 18 3 17 4 16 5 15 6 13 7 14 8 12 9 11 10 9 11
REMARK SMILES IDX 10 12 83 13 78 14 82 15 79 16 81 17 80 18 6 19 7 20 8 21
REMARK SMILES IDX 5 22 1 23 2 24 3 25 86 26 4 27 84 28 85 29 21 30 22 31 23 32
REMARK SMILES IDX 24 33 25 34 26 35 27 36 28 37 29 38 30 39 31 40 77 41 32 42
REMARK SMILES IDX 76 43 33 44 34 45 35 46 70 47 36 48 75 49 69 50 71 51 37 52
REMARK SMILES IDX 74 53 68 54 67 55 38 57 60 58 45 59 59 60 46 61 49 62 58 63
REMARK SMILES IDX 72 64 47 65 48 66 57 68 73 69 50 70 39 71 40 72 44 73 41 74
REMARK SMILES IDX 43 75 42 76 61 77 62 78 66 79 63 80 65 81 64 82 51 83 52 84
REMARK SMILES IDX 56 85 53 86 55 87 54 88
REMARK H PARENT 71 56 49 67
REMARK Flexibility Score: inf
ROOT
ATOM      1  C   UNL A   1      42.810  42.452  23.900  1.00  0.00     0.188 C 
ENDROOT
BRANCH   1   2
ATOM      2  C   UNL A   1      41.899  42.115  22.714  1.00  0.00     0.188 C 
BRANCH   2   3
ATOM      3  O   UNL A   1      42.488  41.636  21.522  1.00  0.00    -0.376 OA
BRANCH   3   4
ATOM      4  C   UNL A   1      42.748  42.524  20.442  1.00  0.00     0.202 C 
BRANCH   4   5
ATOM      5  C   UNL A   1      41.753  43.601  19.982  1.00  0.00     0.261 C 
BRANCH   5   6
ATOM      6  O   UNL A   1      42.270  44.607  19.091  1.00  0.00    -0.463 OA
BRANCH   6   7
ATOM      7  C   UNL A   1      41.735  44.632  17.851  1.00  0.00     0.306 C 
ATOM      8  O   UNL A   1      40.544  44.454  17.614  1.00  0.00    -0.252 OA
BRANCH   7   9
ATOM      9  C   UNL A   1      42.709  44.864  16.717  1.00  0.00     0.133 C 
BRANCH   9  10
ATOM     10  C   UNL A   1      43.839  45.882  16.801  1.00  0.00     0.053 C 
ATOM     11  N   UNL A   1      45.773  46.374  18.139  1.00  0.00    -0.265 N 
ATOM     12  C   UNL A   1      45.050  45.236  17.542  1.00  0.00     0.144 C 
ATOM     13  C   UNL A   1      44.862  47.455  18.283  1.00  0.00     0.055 A 
ATOM     14  C   UNL A   1      43.686  47.171  17.575  1.00  0.00    -0.018 A 
ATOM     15  C   UNL A   1      45.045  48.658  18.943  1.00  0.00     0.027 A 
ATOM     16  C   UNL A   1      42.663  48.105  17.534  1.00  0.00     0.006 A 
ATOM     17  C   UNL A   1      44.004  49.587  18.921  1.00  0.00     0.002 A 
ATOM     18  C   UNL A   1      42.824  49.313  18.220  1.00  0.00     0.000 A 
BRANCH  11  19
ATOM     19  S   UNL A   1      47.115  46.116  19.104  1.00  0.00     0.264 S 
ATOM     20  O   UNL A   1      47.794  47.390  19.254  1.00  0.00    -0.201 OA
ATOM     21  O   UNL A   1      47.812  44.959  18.576  1.00  0.00    -0.201 OA
BRANCH  19  22
ATOM     22  C   UNL A   1      46.559  45.656  20.744  1.00  0.00     0.090 A 
ATOM     23  C   UNL A   1      45.167  45.066  24.787  1.00  0.00     0.044 C 
ATOM     24  C   UNL A   1      45.642  45.240  23.375  1.00  0.00    -0.051 A 
ATOM     25  C   UNL A   1      44.743  45.251  22.309  1.00  0.00     0.005 A 
ATOM     26  C   UNL A   1      47.009  45.383  23.110  1.00  0.00     0.008 A 
ATOM     27  C   UNL A   1      45.197  45.449  21.003  1.00  0.00     0.023 A 
ATOM     28  C   UNL A   1      47.490  45.589  21.802  1.00  0.00    -0.030 A 
ATOM     29  C   UNL A   1      48.983  45.703  21.641  1.00  0.00     0.046 C 
ENDBRANCH  19  22
ENDBRANCH  11  19
ENDBRANCH   9  10
ENDBRANCH   7   9
ENDBRANCH   6   7
ENDBRANCH   5   6
ENDBRANCH   4   5
ENDBRANCH   3   4
ENDBRANCH   2   3
ENDBRANCH   1   2
BRANCH   1  30
ATOM     30  O   UNL A   1      43.269  41.354  24.662  1.00  0.00    -0.377 OA
BRANCH  30  31
ATOM     31  C   UNL A   1      42.988  41.285  26.056  1.00  0.00     0.188 C 
BRANCH  31  32
ATOM     32  C   UNL A   1      44.104  41.422  27.111  1.00  0.00     0.188 C 
BRANCH  32  33
ATOM     33  O   UNL A   1      43.681  41.290  28.458  1.00  0.00    -0.376 OA
BRANCH  33  34
ATOM     34  C   UNL A   1      43.700  39.997  29.047  1.00  0.00     0.202 C 
BRANCH  34  35
ATOM     35  C   UNL A   1      42.454  39.125  28.832  1.00  0.00     0.261 C 
BRANCH  35  36
ATOM     36  O   UNL A   1      42.706  37.729  28.597  1.00  0.00    -0.460 OA
BRANCH  36  37
ATOM     37  C   UNL A   1      42.363  37.223  27.392  1.00  0.00     0.338 C 
ATOM     38  O   UNL A   1      41.724  37.758  26.516  1.00  0.00    -0.246 OA
BRANCH  37  39
ATOM     39  C   UNL A   1      43.060  35.931  27.239  1.00  0.00     0.060 A 
ATOM     40  C   UNL A   1      43.595  35.317  28.379  1.00  0.00     0.016 A 
ATOM     41  C   UNL A   1      43.224  35.360  25.977  1.00  0.00     0.016 A 
ATOM     42  C   UNL A   1      44.342  34.147  28.250  1.00  0.00     0.010 A 
ATOM     43  C   UNL A   1      43.987  34.197  25.847  1.00  0.00     0.010 A 
ATOM     44  C   UNL A   1      44.582  33.610  26.978  1.00  0.00    -0.014 A 
BRANCH  44  45
ATOM     45  C   UNL A   1      45.614  32.560  26.810  1.00  0.00     0.031 A 
ATOM     46  C   UNL A   1      47.051  32.984  26.676  1.00  0.00     0.074 A 
ATOM     47  C   UNL A   1      45.291  31.256  26.804  1.00  0.00     0.049 A 
ATOM     48  N   UNL A   1      48.120  32.252  26.495  1.00  0.00    -0.248 NA
ATOM     49  C   UNL A   1      47.317  34.431  26.757  1.00  0.00     0.031 C 
ATOM     50  C   UNL A   1      43.944  30.714  26.977  1.00  0.00     0.029 A 
ATOM     51  N   UNL A   1      46.085  30.148  26.643  1.00  0.00    -0.354 N 
ATOM     52  C   UNL A   1      49.182  33.146  26.434  1.00  0.00     0.074 A 
ATOM     53  C   UNL A   1      48.627  34.476  26.566  1.00  0.00     0.031 C 
ATOM     54  C   UNL A   1      44.005  29.372  26.907  1.00  0.00     0.029 A 
ATOM     55  C   UNL A   1      45.386  28.966  26.650  1.00  0.00     0.049 A 
ATOM     56  H   UNL A   1      47.062  30.196  26.533  1.00  0.00     0.167 HD
ATOM     57  C   UNL A   1      50.503  32.887  26.286  1.00  0.00     0.031 A 
ATOM     58  C   UNL A   1      45.812  27.703  26.452  1.00  0.00     0.031 A 
ATOM     59  C   UNL A   1      51.054  31.568  26.133  1.00  0.00     0.049 A 
ATOM     60  C   UNL A   1      47.276  27.446  26.199  1.00  0.00     0.074 A 
ATOM     61  C   UNL A   1      52.380  31.201  25.984  1.00  0.00     0.029 A 
ATOM     62  N   UNL A   1      50.307  30.401  26.098  1.00  0.00    -0.354 N 
ATOM     63  N   UNL A   1      48.274  28.297  26.168  1.00  0.00    -0.248 NA
ATOM     64  C   UNL A   1      47.671  26.050  25.959  1.00  0.00     0.031 C 
ATOM     65  C   UNL A   1      52.429  29.815  25.796  1.00  0.00     0.029 A 
ATOM     66  C   UNL A   1      51.141  29.313  25.899  1.00  0.00     0.049 A 
ATOM     67  H   UNL A   1      49.330  30.353  26.199  1.00  0.00     0.167 HD
ATOM     68  C   UNL A   1      49.415  27.537  25.939  1.00  0.00     0.074 A 
ATOM     69  C   UNL A   1      48.988  26.157  25.852  1.00  0.00     0.031 C 
ATOM     70  C   UNL A   1      50.702  27.944  25.815  1.00  0.00     0.031 A 
BRANCH  57  71
ATOM     71  C   UNL A   1      51.437  34.064  26.238  1.00  0.00    -0.014 A 
ATOM     72  C   UNL A   1      52.052  34.559  27.400  1.00  0.00     0.009 A 
ATOM     73  C   UNL A   1      51.723  34.673  25.006  1.00  0.00     0.009 A 
ATOM     74  C   UNL A   1      52.906  35.661  27.331  1.00  0.00     0.001 A 
ATOM     75  C   UNL A   1      52.602  35.755  24.937  1.00  0.00     0.001 A 
ATOM     76  C   UNL A   1      53.186  36.254  26.100  1.00  0.00     0.000 A 
ENDBRANCH  57  71
BRANCH  58  77
ATOM     77  C   UNL A   1      44.841  26.577  26.461  1.00  0.00    -0.014 A 
ATOM     78  C   UNL A   1      44.495  25.935  27.659  1.00  0.00     0.009 A 
ATOM     79  C   UNL A   1      44.278  26.116  25.260  1.00  0.00     0.009 A 
ATOM     80  C   UNL A   1      43.627  24.840  27.652  1.00  0.00     0.001 A 
ATOM     81  C   UNL A   1      43.387  25.041  25.258  1.00  0.00     0.001 A 
ATOM     82  C   UNL A   1      43.071  24.397  26.453  1.00  0.00     0.000 A 
ENDBRANCH  58  77
BRANCH  70  83
ATOM     83  C   UNL A   1      51.750  26.883  25.615  1.00  0.00    -0.014 A 
ATOM     84  C   UNL A   1      52.289  26.170  26.697  1.00  0.00     0.009 A 
ATOM     85  C   UNL A   1      52.170  26.563  24.313  1.00  0.00     0.009 A 
ATOM     86  C   UNL A   1      53.253  25.183  26.481  1.00  0.00     0.001 A 
ATOM     87  C   UNL A   1      53.110  25.553  24.099  1.00  0.00     0.001 A 
ATOM     88  C   UNL A   1      53.658  24.872  25.183  1.00  0.00     0.000 A 
ENDBRANCH  70  83
ENDBRANCH  44  45
ENDBRANCH  37  39
ENDBRANCH  36  37
ENDBRANCH  35  36
ENDBRANCH  34  35
ENDBRANCH  33  34
ENDBRANCH  32  33
ENDBRANCH  31  32
ENDBRANCH  30  31
ENDBRANCH   1  30
TORSDOF 23
ENDMDL
MODEL 3
REMARK VINA RESULT:      -7.5      5.277      9.053
REMARK SMILES Cc1ccc(S(=O)(=O)N2C[C@@H](CC(=O)OCCOCCOCCOCCOC(=O)c3ccc(-c4c5nc(c(-c6ccccc6)c6ccc([nH]6)c(-c6ccccc6)c6nc(c(-c7ccccc7)c7ccc4[nH]7)C=C6)C=C5)cc3)c3ccccc32)c(C)c1
REMARK SMILES IDX 20 1 19 2 18 3 17 4 16 5 15 6 13 7 14 8 12 9 11 10 9 11
REMARK SMILES IDX 10 12 83 13 78 14 82 15 79 16 81 17 80 18 6 19 7 20 8 21
REMARK SMILES IDX 5 22 1 23 2 24 3 25 86 26 4 27 84 28 85 29 21 30 22 31 23 32
REMARK SMILES IDX 24 33 25 34 26 35 27 36 28 37 29 38 30 39 31 40 77 41 32 42
REMARK SMILES IDX 76 43 33 44 34 45 35 46 70 47 36 48 75 49 69 50 71 51 37 52
REMARK SMILES IDX 74 53 68 54 67 55 38 57 60 58 45 59 59 60 46 61 49 62 58 63
REMARK SMILES IDX 72 64 47 65 48 66 57 68 73 69 50 70 39 71 40 72 44 73 41 74
REMARK SMILES IDX 43 75 42 76 61 77 62 78 66 79 63 80 65 81 64 82 51 83 52 84
REMARK SMILES IDX 56 85 53 86 55 87 54 88
REMARK H PARENT 71 56 49 67
REMARK Flexibility Score: inf
ROOT
ATOM      1  C   UNL A   1      36.487  30.597  29.553  1.00  0.00     0.188 C 
ENDROOT
BRANCH   1   2
ATOM      2  C   UNL A   1      35.787  30.708  28.194  1.00  0.00     0.188 C 
BRANCH   2   3
ATOM      3  O   UNL A   1      34.459  31.190  28.153  1.00  0.00    -0.376 OA
BRANCH   3   4
ATOM      4  C   UNL A   1      33.478  30.526  27.367  1.00  0.00     0.202 C 
BRANCH   4   5
ATOM      5  C   UNL A   1      33.640  29.083  26.863  1.00  0.00     0.261 C 
BRANCH   5   6
ATOM      6  O   UNL A   1      33.302  28.848  25.484  1.00  0.00    -0.463 OA
BRANCH   6   7
ATOM      7  C   UNL A   1      31.988  28.687  25.214  1.00  0.00     0.306 C 
ATOM      8  O   UNL A   1      31.318  29.485  24.565  1.00  0.00    -0.252 OA
BRANCH   7   9
ATOM      9  C   UNL A   1      31.341  27.450  25.799  1.00  0.00     0.133 C 
BRANCH   9  10
ATOM     10  C   UNL A   1      31.493  26.070  25.172  1.00  0.00     0.053 C 
ATOM     11  N   UNL A   1      33.146  24.348  24.900  1.00  0.00    -0.265 N 
ATOM     12  C   UNL A   1      32.640  25.306  25.900  1.00  0.00     0.144 C 
ATOM     13  C   UNL A   1      32.817  24.838  23.608  1.00  0.00     0.055 A 
ATOM     14  C   UNL A   1      31.907  25.899  23.729  1.00  0.00    -0.018 A 
ATOM     15  C   UNL A   1      33.229  24.367  22.373  1.00  0.00     0.027 A 
ATOM     16  C   UNL A   1      31.407  26.511  22.591  1.00  0.00     0.006 A 
ATOM     17  C   UNL A   1      32.742  25.000  21.230  1.00  0.00     0.002 A 
ATOM     18  C   UNL A   1      31.836  26.063  21.338  1.00  0.00     0.000 A 
BRANCH  11  19
ATOM     19  S   UNL A   1      34.456  23.367  25.249  1.00  0.00     0.264 S 
ATOM     20  O   UNL A   1      34.615  23.352  26.691  1.00  0.00    -0.201 OA
ATOM     21  O   UNL A   1      35.545  23.777  24.384  1.00  0.00    -0.201 OA
BRANCH  19  22
ATOM     22  C   UNL A   1      34.051  21.686  24.777  1.00  0.00     0.090 A 
ATOM     23  C   UNL A   1      32.937  17.565  24.146  1.00  0.00     0.044 C 
ATOM     24  C   UNL A   1      33.322  19.002  24.332  1.00  0.00    -0.051 A 
ATOM     25  C   UNL A   1      32.397  20.027  24.132  1.00  0.00     0.005 A 
ATOM     26  C   UNL A   1      34.630  19.334  24.703  1.00  0.00     0.008 A 
ATOM     27  C   UNL A   1      32.760  21.358  24.344  1.00  0.00     0.023 A 
ATOM     28  C   UNL A   1      35.018  20.670  24.927  1.00  0.00    -0.030 A 
ATOM     29  C   UNL A   1      36.460  20.902  25.297  1.00  0.00     0.046 C 
ENDBRANCH  19  22
ENDBRANCH  11  19
ENDBRANCH   9  10
ENDBRANCH   7   9
ENDBRANCH   6   7
ENDBRANCH   5   6
ENDBRANCH   4   5
ENDBRANCH   3   4
ENDBRANCH   2   3
ENDBRANCH   1   2
BRANCH   1  30
ATOM     30  O   UNL A   1      37.793  30.058  29.538  1.00  0.00    -0.377 OA
BRANCH  30  31
ATOM     31  C   UNL A   1      38.030  28.744  30.033  1.00  0.00     0.188 C 
BRANCH  31  32
ATOM     32  C   UNL A   1      39.135  27.847  29.440  1.00  0.00     0.188 C 
BRANCH  32  33
ATOM     33  O   UNL A   1      38.926  27.441  28.097  1.00  0.00    -0.376 OA
BRANCH  33  34
ATOM     34  C   UNL A   1      39.639  26.310  27.616  1.00  0.00     0.202 C 
BRANCH  34  35
ATOM     35  C   UNL A   1      41.098  26.170  28.076  1.00  0.00     0.261 C 
BRANCH  35  36
ATOM     36  O   UNL A   1      41.473  24.871  28.566  1.00  0.00    -0.460 OA
BRANCH  36  37
ATOM     37  C   UNL A   1      42.397  24.179  27.864  1.00  0.00     0.338 C 
ATOM     38  O   UNL A   1      42.311  23.054  27.430  1.00  0.00    -0.246 OA
BRANCH  37  39
ATOM     39  C   UNL A   1      43.504  25.105  27.556  1.00  0.00     0.060 A 
ATOM     40  C   UNL A   1      44.260  25.625  28.614  1.00  0.00     0.016 A 
ATOM     41  C   UNL A   1      43.759  25.490  26.239  1.00  0.00     0.016 A 
ATOM     42  C   UNL A   1      45.247  26.576  28.358  1.00  0.00     0.010 A 
ATOM     43  C   UNL A   1      44.736  26.456  25.987  1.00  0.00     0.010 A 
ATOM     44  C   UNL A   1      45.455  27.032  27.049  1.00  0.00    -0.014 A 
BRANCH  44  45
ATOM     45  C   UNL A   1      46.274  28.244  26.817  1.00  0.00     0.031 A 
ATOM     46  C   UNL A   1      47.748  28.074  26.563  1.00  0.00     0.074 A 
ATOM     47  C   UNL A   1      45.722  29.469  26.803  1.00  0.00     0.049 A 
ATOM     48  N   UNL A   1      48.666  28.984  26.360  1.00  0.00    -0.248 NA
ATOM     49  C   UNL A   1      48.252  26.691  26.535  1.00  0.00     0.031 C 
ATOM     50  C   UNL A   1      44.302  29.762  26.983  1.00  0.00     0.029 A 
ATOM     51  N   UNL A   1      46.304  30.700  26.629  1.00  0.00    -0.354 N 
ATOM     52  C   UNL A   1      49.855  28.286  26.187  1.00  0.00     0.074 A 
ATOM     53  C   UNL A   1      49.548  26.880  26.339  1.00  0.00     0.031 C 
ATOM     54  C   UNL A   1      44.123  31.093  26.915  1.00  0.00     0.029 A 
ATOM     55  C   UNL A   1      45.418  31.744  26.723  1.00  0.00     0.049 A 
ATOM     56  H   UNL A   1      47.265  30.823  26.453  1.00  0.00     0.167 HD
ATOM     57  C   UNL A   1      51.091  28.768  25.921  1.00  0.00     0.031 A 
ATOM     58  C   UNL A   1      45.633  33.074  26.678  1.00  0.00     0.031 A 
ATOM     59  C   UNL A   1      51.402  30.166  25.791  1.00  0.00     0.049 A 
ATOM     60  C   UNL A   1      47.034  33.591  26.471  1.00  0.00     0.074 A 
ATOM     61  C   UNL A   1      52.623  30.755  25.514  1.00  0.00     0.029 A 
ATOM     62  N   UNL A   1      50.484  31.194  25.940  1.00  0.00    -0.354 N 
ATOM     63  N   UNL A   1      48.146  32.921  26.283  1.00  0.00    -0.248 NA
ATOM     64  C   UNL A   1      47.206  35.052  26.462  1.00  0.00     0.031 C 
ATOM     65  C   UNL A   1      52.457  32.143  25.559  1.00  0.00     0.029 A 
ATOM     66  C   UNL A   1      51.118  32.416  25.793  1.00  0.00     0.049 A 
ATOM     67  H   UNL A   1      49.526  31.073  26.124  1.00  0.00     0.167 HD
ATOM     68  C   UNL A   1      49.140  33.875  26.103  1.00  0.00     0.074 A 
ATOM     69  C   UNL A   1      48.498  35.170  26.189  1.00  0.00     0.031 C 
ATOM     70  C   UNL A   1      50.466  33.697  25.881  1.00  0.00     0.031 A 
BRANCH  57  71
ATOM     71  C   UNL A   1      52.210  27.771  25.797  1.00  0.00    -0.014 A 
ATOM     72  C   UNL A   1      52.533  27.182  24.564  1.00  0.00     0.009 A 
ATOM     73  C   UNL A   1      52.967  27.433  26.929  1.00  0.00     0.009 A 
ATOM     74  C   UNL A   1      53.568  26.250  24.476  1.00  0.00     0.001 A 
ATOM     75  C   UNL A   1      54.022  26.525  26.832  1.00  0.00     0.001 A 
ATOM     76  C   UNL A   1      54.316  25.926  25.608  1.00  0.00     0.000 A 
ENDBRANCH  57  71
BRANCH  58  77
ATOM     77  C   UNL A   1      44.500  34.021  26.854  1.00  0.00    -0.014 A 
ATOM     78  C   UNL A   1      44.052  34.375  28.135  1.00  0.00     0.009 A 
ATOM     79  C   UNL A   1      43.840  34.553  25.735  1.00  0.00     0.009 A 
ATOM     80  C   UNL A   1      42.950  35.220  28.292  1.00  0.00     0.001 A 
ATOM     81  C   UNL A   1      42.758  35.421  25.894  1.00  0.00     0.001 A 
ATOM     82  C   UNL A   1      42.307  35.745  27.173  1.00  0.00     0.000 A 
ENDBRANCH  58  77
BRANCH  70  83
ATOM     83  C   UNL A   1      51.306  34.928  25.674  1.00  0.00    -0.014 A 
ATOM     84  C   UNL A   1      51.867  35.625  26.756  1.00  0.00     0.009 A 
ATOM     85  C   UNL A   1      51.577  35.369  24.368  1.00  0.00     0.009 A 
ATOM     86  C   UNL A   1      52.652  36.758  26.534  1.00  0.00     0.001 A 
ATOM     87  C   UNL A   1      52.389  36.483  24.149  1.00  0.00     0.001 A 
ATOM     88  C   UNL A   1      52.917  37.183  25.232  1.00  0.00     0.000 A 
ENDBRANCH  70  83
ENDBRANCH  44  45
ENDBRANCH  37  39
ENDBRANCH  36  37
ENDBRANCH  35  36
ENDBRANCH  34  35
ENDBRANCH  33  34
ENDBRANCH  32  33
ENDBRANCH  31  32
ENDBRANCH  30  31
ENDBRANCH   1  30
TORSDOF 23
ENDMDL
