MODEL 1
REMARK VINA RESULT:      -7.6      0.000      0.000
REMARK SMILES COc1cc(-c2ccc(F)c(C(F)(F)F)c2)ccc1C(=O)OCCOCCOCCOCCOC(=O)c1ccc(-c2c3nc(c(-c4ccccc4)c4ccc([nH]4)c(-c4ccccc4)c4nc(c(-c5ccccc5)c5ccc2[nH]5)C=C4)C=C3)cc1
REMARK SMILES IDX 28 1 27 2 26 3 25 4 24 5 23 6 22 7 20 8 21 9 19 10 3 11 4 12
REMARK SMILES IDX 5 13 18 14 17 15 2 16 1 17 6 18 7 19 16 20 8 21 11 22 9 23
REMARK SMILES IDX 10 24 12 25 13 26 14 27 15 28 29 29 30 30 31 31 32 32 33 33
REMARK SMILES IDX 34 34 35 35 36 36 37 37 38 38 84 39 39 40 83 41 40 42 41 43
REMARK SMILES IDX 42 44 77 45 43 46 82 47 76 48 78 49 44 50 81 51 75 52 74 53
REMARK SMILES IDX 45 55 67 56 52 57 66 58 53 59 56 60 65 61 79 62 54 63 55 64
REMARK SMILES IDX 64 66 80 67 57 68 46 69 47 70 51 71 48 72 50 73 49 74 68 75
REMARK SMILES IDX 69 76 73 77 70 78 72 79 71 80 58 81 59 82 63 83 60 84 62 85
REMARK SMILES IDX 61 86
REMARK H PARENT 78 54 56 65
REMARK Flexibility Score: inf
ROOT
ATOM      1  O   UNL A   1      46.137  24.888  24.506  1.00  0.00    -0.377 OA
ENDROOT
BRANCH   1   2
ATOM      2  C   UNL A   1      45.386  25.657  25.433  1.00  0.00     0.188 C 
BRANCH   2   3
ATOM      3  C   UNL A   1      45.216  27.181  25.260  1.00  0.00     0.188 C 
BRANCH   3   4
ATOM      4  O   UNL A   1      46.114  27.991  26.012  1.00  0.00    -0.376 OA
BRANCH   4   5
ATOM      5  C   UNL A   1      45.586  29.225  26.479  1.00  0.00     0.202 C 
BRANCH   5   6
ATOM      6  C   UNL A   1      46.526  29.933  27.453  1.00  0.00     0.261 C 
BRANCH   6   7
ATOM      7  O   UNL A   1      46.090  31.258  27.779  1.00  0.00    -0.460 OA
BRANCH   7   8
ATOM      8  C   UNL A   1      46.617  32.268  27.058  1.00  0.00     0.342 C 
ATOM      9  O   UNL A   1      47.455  32.166  26.176  1.00  0.00    -0.246 OA
BRANCH   8  10
ATOM     10  C   UNL A   1      45.916  33.531  27.385  1.00  0.00     0.102 A 
ATOM     11  C   UNL A   1      44.623  33.851  26.950  1.00  0.00     0.134 A 
ATOM     12  C   UNL A   1      44.083  35.109  27.252  1.00  0.00     0.056 A 
ATOM     13  C   UNL A   1      44.803  36.055  28.002  1.00  0.00    -0.015 A 
ATOM     14  C   UNL A   1      46.649  34.475  28.121  1.00  0.00     0.020 A 
ATOM     15  C   UNL A   1      46.101  35.727  28.417  1.00  0.00     0.010 A 
BRANCH  11  16
ATOM     16  O   UNL A   1      43.858  33.069  26.126  1.00  0.00    -0.496 OA
ATOM     17  C   UNL A   1      43.907  33.464  24.758  1.00  0.00     0.278 C 
ENDBRANCH  11  16
BRANCH  13  18
ATOM     18  C   UNL A   1      44.192  37.333  28.388  1.00  0.00    -0.017 A 
ATOM     19  C   UNL A   1      43.439  38.056  27.448  1.00  0.00     0.012 A 
ATOM     20  C   UNL A   1      44.321  37.854  29.688  1.00  0.00     0.025 A 
ATOM     21  C   UNL A   1      42.827  39.260  27.795  1.00  0.00     0.040 A 
ATOM     22  C   UNL A   1      43.709  39.071  30.045  1.00  0.00     0.092 A 
ATOM     23  C   UNL A   1      42.967  39.754  29.086  1.00  0.00     0.135 A 
ATOM     24  F   UNL A   1      42.370  40.911  29.400  1.00  0.00    -0.206 F 
BRANCH  22  25
ATOM     25  C   UNL A   1      43.830  39.659  31.418  1.00  0.00     0.419 C 
ATOM     26  F   UNL A   1      44.204  38.745  32.356  1.00  0.00    -0.166 F 
ATOM     27  F   UNL A   1      44.741  40.668  31.485  1.00  0.00    -0.166 F 
ATOM     28  F   UNL A   1      42.661  40.194  31.875  1.00  0.00    -0.166 F 
ENDBRANCH  22  25
ENDBRANCH  13  18
ENDBRANCH   8  10
ENDBRANCH   7   8
ENDBRANCH   6   7
ENDBRANCH   5   6
ENDBRANCH   4   5
ENDBRANCH   3   4
ENDBRANCH   2   3
ENDBRANCH   1   2
BRANCH   1  29
ATOM     29  C   UNL A   1      46.627  23.609  24.876  1.00  0.00     0.188 C 
BRANCH  29  30
ATOM     30  C   UNL A   1      45.694  22.615  25.592  1.00  0.00     0.188 C 
BRANCH  30  31
ATOM     31  O   UNL A   1      45.962  21.246  25.315  1.00  0.00    -0.376 OA
BRANCH  31  32
ATOM     32  C   UNL A   1      45.192  20.662  24.273  1.00  0.00     0.202 C 
BRANCH  32  33
ATOM     33  C   UNL A   1      44.351  19.457  24.712  1.00  0.00     0.261 C 
BRANCH  33  34
ATOM     34  O   UNL A   1      43.689  19.608  25.979  1.00  0.00    -0.460 OA
BRANCH  34  35
ATOM     35  C   UNL A   1      42.377  19.920  25.946  1.00  0.00     0.338 C 
ATOM     36  O   UNL A   1      41.450  19.205  25.608  1.00  0.00    -0.246 OA
BRANCH  35  37
ATOM     37  C   UNL A   1      42.207  21.254  26.547  1.00  0.00     0.060 A 
ATOM     38  C   UNL A   1      42.248  22.377  25.711  1.00  0.00     0.016 A 
ATOM     39  C   UNL A   1      42.064  21.393  27.929  1.00  0.00     0.016 A 
ATOM     40  C   UNL A   1      42.215  23.653  26.269  1.00  0.00     0.010 A 
ATOM     41  C   UNL A   1      42.051  22.672  28.489  1.00  0.00     0.010 A 
ATOM     42  C   UNL A   1      42.181  23.802  27.662  1.00  0.00    -0.014 A 
BRANCH  42  43
ATOM     43  C   UNL A   1      42.571  25.104  28.252  1.00  0.00     0.031 A 
ATOM     44  C   UNL A   1      41.505  26.162  28.374  1.00  0.00     0.074 A 
ATOM     45  C   UNL A   1      43.811  25.330  28.716  1.00  0.00     0.049 A 
ATOM     46  N   UNL A   1      41.582  27.367  28.876  1.00  0.00    -0.248 NA
ATOM     47  C   UNL A   1      40.168  25.806  27.866  1.00  0.00     0.031 C 
ATOM     48  C   UNL A   1      44.917  24.375  28.698  1.00  0.00     0.029 A 
ATOM     49  N   UNL A   1      44.341  26.451  29.305  1.00  0.00    -0.354 N 
ATOM     50  C   UNL A   1      40.306  27.903  28.759  1.00  0.00     0.074 A 
ATOM     51  C   UNL A   1      39.482  26.914  28.101  1.00  0.00     0.031 C 
ATOM     52  C   UNL A   1      45.999  24.952  29.252  1.00  0.00     0.029 A 
ATOM     53  C   UNL A   1      45.664  26.319  29.646  1.00  0.00     0.049 A 
ATOM     54  H   UNL A   1      43.821  27.270  29.469  1.00  0.00     0.167 HD
ATOM     55  C   UNL A   1      39.850  29.107  29.175  1.00  0.00     0.031 A 
ATOM     56  C   UNL A   1      46.504  27.210  30.208  1.00  0.00     0.031 A 
ATOM     57  C   UNL A   1      40.667  30.108  29.797  1.00  0.00     0.049 A 
ATOM     58  C   UNL A   1      45.991  28.578  30.583  1.00  0.00     0.074 A 
ATOM     59  C   UNL A   1      40.310  31.379  30.215  1.00  0.00     0.029 A 
ATOM     60  N   UNL A   1      42.011  29.948  30.093  1.00  0.00    -0.354 N 
ATOM     61  N   UNL A   1      44.779  29.068  30.473  1.00  0.00    -0.248 NA
ATOM     62  C   UNL A   1      46.962  29.506  31.179  1.00  0.00     0.031 C 
ATOM     63  C   UNL A   1      41.450  32.000  30.737  1.00  0.00     0.029 A 
ATOM     64  C   UNL A   1      42.500  31.097  30.688  1.00  0.00     0.049 A 
ATOM     65  H   UNL A   1      42.538  29.138  29.908  1.00  0.00     0.167 HD
ATOM     66  C   UNL A   1      44.836  30.343  31.025  1.00  0.00     0.074 A 
ATOM     67  C   UNL A   1      46.197  30.545  31.478  1.00  0.00     0.031 C 
ATOM     68  C   UNL A   1      43.851  31.266  31.150  1.00  0.00     0.031 A 
BRANCH  55  69
ATOM     69  C   UNL A   1      38.395  29.401  28.950  1.00  0.00    -0.014 A 
ATOM     70  C   UNL A   1      37.946  29.904  27.718  1.00  0.00     0.009 A 
ATOM     71  C   UNL A   1      37.462  29.160  29.969  1.00  0.00     0.009 A 
ATOM     72  C   UNL A   1      36.593  30.184  27.520  1.00  0.00     0.001 A 
ATOM     73  C   UNL A   1      36.106  29.418  29.759  1.00  0.00     0.001 A 
ATOM     74  C   UNL A   1      35.673  29.937  28.540  1.00  0.00     0.000 A 
ENDBRANCH  55  69
BRANCH  56  75
ATOM     75  C   UNL A   1      47.928  26.859  30.455  1.00  0.00    -0.014 A 
ATOM     76  C   UNL A   1      48.314  26.222  31.645  1.00  0.00     0.009 A 
ATOM     77  C   UNL A   1      48.919  27.227  29.531  1.00  0.00     0.009 A 
ATOM     78  C   UNL A   1      49.664  26.000  31.925  1.00  0.00     0.001 A 
ATOM     79  C   UNL A   1      50.266  26.978  29.802  1.00  0.00     0.001 A 
ATOM     80  C   UNL A   1      50.639  26.379  31.003  1.00  0.00     0.000 A 
ENDBRANCH  56  75
BRANCH  68  81
ATOM     81  C   UNL A   1      44.193  32.544  31.864  1.00  0.00    -0.014 A 
ATOM     82  C   UNL A   1      43.994  32.690  33.245  1.00  0.00     0.009 A 
ATOM     83  C   UNL A   1      44.748  33.611  31.139  1.00  0.00     0.009 A 
ATOM     84  C   UNL A   1      44.305  33.895  33.878  1.00  0.00     0.001 A 
ATOM     85  C   UNL A   1      45.084  34.802  31.779  1.00  0.00     0.001 A 
ATOM     86  C   UNL A   1      44.852  34.949  33.145  1.00  0.00     0.000 A 
ENDBRANCH  68  81
ENDBRANCH  42  43
ENDBRANCH  35  37
ENDBRANCH  34  35
ENDBRANCH  33  34
ENDBRANCH  32  33
ENDBRANCH  31  32
ENDBRANCH  30  31
ENDBRANCH  29  30
ENDBRANCH   1  29
TORSDOF 23
ENDMDL
MODEL 2
REMARK VINA RESULT:      -7.6      5.684      9.658
REMARK SMILES COc1cc(-c2ccc(F)c(C(F)(F)F)c2)ccc1C(=O)OCCOCCOCCOCCOC(=O)c1ccc(-c2c3nc(c(-c4ccccc4)c4ccc([nH]4)c(-c4ccccc4)c4nc(c(-c5ccccc5)c5ccc2[nH]5)C=C4)C=C3)cc1
REMARK SMILES IDX 28 1 27 2 26 3 25 4 24 5 23 6 22 7 20 8 21 9 19 10 3 11 4 12
REMARK SMILES IDX 5 13 18 14 17 15 2 16 1 17 6 18 7 19 16 20 8 21 11 22 9 23
REMARK SMILES IDX 10 24 12 25 13 26 14 27 15 28 29 29 30 30 31 31 32 32 33 33
REMARK SMILES IDX 34 34 35 35 36 36 37 37 38 38 84 39 39 40 83 41 40 42 41 43
REMARK SMILES IDX 42 44 77 45 43 46 82 47 76 48 78 49 44 50 81 51 75 52 74 53
REMARK SMILES IDX 45 55 67 56 52 57 66 58 53 59 56 60 65 61 79 62 54 63 55 64
REMARK SMILES IDX 64 66 80 67 57 68 46 69 47 70 51 71 48 72 50 73 49 74 68 75
REMARK SMILES IDX 69 76 73 77 70 78 72 79 71 80 58 81 59 82 63 83 60 84 62 85
REMARK SMILES IDX 61 86
REMARK H PARENT 78 54 56 65
REMARK Flexibility Score: inf
ROOT
ATOM      1  O   UNL A   1      39.381  28.759  30.139  1.00  0.00    -0.377 OA
ENDROOT
BRANCH   1   2
ATOM      2  C   UNL A   1      38.353  28.217  30.953  1.00  0.00     0.188 C 
BRANCH   2   3
ATOM      3  C   UNL A   1      37.956  28.877  32.290  1.00  0.00     0.188 C 
BRANCH   3   4
ATOM      4  O   UNL A   1      38.730  30.009  32.673  1.00  0.00    -0.376 OA
BRANCH   4   5
ATOM      5  C   UNL A   1      38.016  31.234  32.784  1.00  0.00     0.202 C 
BRANCH   5   6
ATOM      6  C   UNL A   1      38.232  32.150  31.581  1.00  0.00     0.261 C 
BRANCH   6   7
ATOM      7  O   UNL A   1      37.045  32.325  30.799  1.00  0.00    -0.460 OA
BRANCH   7   8
ATOM      8  C   UNL A   1      37.210  32.505  29.473  1.00  0.00     0.342 C 
ATOM      9  O   UNL A   1      38.090  33.158  28.936  1.00  0.00    -0.246 OA
BRANCH   8  10
ATOM     10  C   UNL A   1      36.243  31.661  28.733  1.00  0.00     0.102 A 
ATOM     11  C   UNL A   1      34.907  32.014  28.498  1.00  0.00     0.134 A 
ATOM     12  C   UNL A   1      34.054  31.106  27.855  1.00  0.00     0.056 A 
ATOM     13  C   UNL A   1      34.514  29.851  27.419  1.00  0.00    -0.015 A 
ATOM     14  C   UNL A   1      36.706  30.404  28.316  1.00  0.00     0.020 A 
ATOM     15  C   UNL A   1      35.848  29.506  27.675  1.00  0.00     0.010 A 
BRANCH  11  16
ATOM     16  O   UNL A   1      34.305  33.153  28.962  1.00  0.00    -0.496 OA
ATOM     17  C   UNL A   1      34.236  34.197  27.994  1.00  0.00     0.278 C 
ENDBRANCH  11  16
BRANCH  13  18
ATOM     18  C   UNL A   1      33.635  28.947  26.667  1.00  0.00    -0.017 A 
ATOM     19  C   UNL A   1      32.520  28.376  27.301  1.00  0.00     0.012 A 
ATOM     20  C   UNL A   1      33.865  28.646  25.313  1.00  0.00     0.025 A 
ATOM     21  C   UNL A   1      31.655  27.533  26.604  1.00  0.00     0.040 A 
ATOM     22  C   UNL A   1      32.998  27.793  24.603  1.00  0.00     0.092 A 
ATOM     23  C   UNL A   1      31.901  27.251  25.266  1.00  0.00     0.135 A 
ATOM     24  F   UNL A   1      31.057  26.441  24.613  1.00  0.00    -0.206 F 
BRANCH  22  25
ATOM     25  C   UNL A   1      33.215  27.446  23.162  1.00  0.00     0.419 C 
ATOM     26  F   UNL A   1      32.161  27.784  22.369  1.00  0.00    -0.166 F 
ATOM     27  F   UNL A   1      34.307  28.059  22.627  1.00  0.00    -0.166 F 
ATOM     28  F   UNL A   1      33.411  26.111  22.958  1.00  0.00    -0.166 F 
ENDBRANCH  22  25
ENDBRANCH  13  18
ENDBRANCH   8  10
ENDBRANCH   7   8
ENDBRANCH   6   7
ENDBRANCH   5   6
ENDBRANCH   4   5
ENDBRANCH   3   4
ENDBRANCH   2   3
ENDBRANCH   1   2
BRANCH   1  29
ATOM     29  C   UNL A   1      40.090  27.921  29.239  1.00  0.00     0.188 C 
BRANCH  29  30
ATOM     30  C   UNL A   1      39.311  26.968  28.312  1.00  0.00     0.188 C 
BRANCH  30  31
ATOM     31  O   UNL A   1      39.739  25.612  28.362  1.00  0.00    -0.376 OA
BRANCH  31  32
ATOM     32  C   UNL A   1      39.526  24.851  27.181  1.00  0.00     0.202 C 
BRANCH  32  33
ATOM     33  C   UNL A   1      40.207  23.477  27.187  1.00  0.00     0.261 C 
BRANCH  33  34
ATOM     34  O   UNL A   1      41.346  23.360  26.318  1.00  0.00    -0.460 OA
BRANCH  34  35
ATOM     35  C   UNL A   1      42.554  23.250  26.909  1.00  0.00     0.338 C 
ATOM     36  O   UNL A   1      43.104  22.235  27.296  1.00  0.00    -0.246 OA
BRANCH  35  37
ATOM     37  C   UNL A   1      43.200  24.574  26.880  1.00  0.00     0.060 A 
ATOM     38  C   UNL A   1      43.379  25.206  25.643  1.00  0.00     0.016 A 
ATOM     39  C   UNL A   1      43.671  25.156  28.059  1.00  0.00     0.016 A 
ATOM     40  C   UNL A   1      44.098  26.398  25.577  1.00  0.00     0.010 A 
ATOM     41  C   UNL A   1      44.408  26.339  27.988  1.00  0.00     0.010 A 
ATOM     42  C   UNL A   1      44.668  26.932  26.740  1.00  0.00    -0.014 A 
BRANCH  42  43
ATOM     43  C   UNL A   1      45.757  27.928  26.611  1.00  0.00     0.031 A 
ATOM     44  C   UNL A   1      45.380  29.386  26.660  1.00  0.00     0.074 A 
ATOM     45  C   UNL A   1      47.045  27.561  26.508  1.00  0.00     0.049 A 
ATOM     46  N   UNL A   1      46.144  30.445  26.597  1.00  0.00    -0.248 NA
ATOM     47  C   UNL A   1      43.945  29.686  26.807  1.00  0.00     0.031 C 
ATOM     48  C   UNL A   1      47.543  26.187  26.495  1.00  0.00     0.029 A 
ATOM     49  N   UNL A   1      48.176  28.331  26.402  1.00  0.00    -0.354 N 
ATOM     50  C   UNL A   1      45.286  31.532  26.713  1.00  0.00     0.074 A 
ATOM     51  C   UNL A   1      43.941  31.010  26.807  1.00  0.00     0.031 C 
ATOM     52  C   UNL A   1      48.884  26.211  26.387  1.00  0.00     0.029 A 
ATOM     53  C   UNL A   1      49.334  27.600  26.305  1.00  0.00     0.049 A 
ATOM     54  H   UNL A   1      48.158  29.315  26.397  1.00  0.00     0.167 HD
ATOM     55  C   UNL A   1      45.587  32.850  26.755  1.00  0.00     0.031 A 
ATOM     56  C   UNL A   1      50.608  28.013  26.161  1.00  0.00     0.031 A 
ATOM     57  C   UNL A   1      46.915  33.379  26.628  1.00  0.00     0.049 A 
ATOM     58  C   UNL A   1      50.906  29.491  26.123  1.00  0.00     0.074 A 
ATOM     59  C   UNL A   1      47.321  34.702  26.612  1.00  0.00     0.029 A 
ATOM     60  N   UNL A   1      48.056  32.604  26.496  1.00  0.00    -0.354 N 
ATOM     61  N   UNL A   1      50.086  30.508  26.242  1.00  0.00    -0.248 NA
ATOM     62  C   UNL A   1      52.315  29.875  25.950  1.00  0.00     0.031 C 
ATOM     63  C   UNL A   1      48.709  34.728  26.439  1.00  0.00     0.029 A 
ATOM     64  C   UNL A   1      49.168  33.421  26.398  1.00  0.00     0.049 A 
ATOM     65  H   UNL A   1      48.072  31.621  26.476  1.00  0.00     0.167 HD
ATOM     66  C   UNL A   1      50.884  31.645  26.201  1.00  0.00     0.074 A 
ATOM     67  C   UNL A   1      52.252  31.193  26.058  1.00  0.00     0.031 C 
ATOM     68  C   UNL A   1      50.521  32.949  26.278  1.00  0.00     0.031 A 
BRANCH  55  69
ATOM     69  C   UNL A   1      44.444  33.806  26.932  1.00  0.00    -0.014 A 
ATOM     70  C   UNL A   1      43.975  34.135  28.215  1.00  0.00     0.009 A 
ATOM     71  C   UNL A   1      43.839  34.395  25.813  1.00  0.00     0.009 A 
ATOM     72  C   UNL A   1      42.904  35.017  28.370  1.00  0.00     0.001 A 
ATOM     73  C   UNL A   1      42.784  35.296  25.973  1.00  0.00     0.001 A 
ATOM     74  C   UNL A   1      42.313  35.601  27.250  1.00  0.00     0.000 A 
ENDBRANCH  55  69
BRANCH  56  75
ATOM     75  C   UNL A   1      51.715  27.029  26.035  1.00  0.00    -0.014 A 
ATOM     76  C   UNL A   1      52.015  26.443  24.795  1.00  0.00     0.009 A 
ATOM     77  C   UNL A   1      52.431  26.618  27.170  1.00  0.00     0.009 A 
ATOM     78  C   UNL A   1      52.977  25.433  24.703  1.00  0.00     0.001 A 
ATOM     79  C   UNL A   1      53.411  25.629  27.069  1.00  0.00     0.001 A 
ATOM     80  C   UNL A   1      53.674  25.028  25.840  1.00  0.00     0.000 A 
ENDBRANCH  56  75
BRANCH  68  81
ATOM     81  C   UNL A   1      51.623  33.971  26.281  1.00  0.00    -0.014 A 
ATOM     82  C   UNL A   1      52.086  34.555  25.092  1.00  0.00     0.009 A 
ATOM     83  C   UNL A   1      52.187  34.373  27.502  1.00  0.00     0.009 A 
ATOM     84  C   UNL A   1      53.123  35.489  25.124  1.00  0.00     0.001 A 
ATOM     85  C   UNL A   1      53.202  35.327  27.534  1.00  0.00     0.001 A 
ATOM     86  C   UNL A   1      53.678  35.876  26.344  1.00  0.00     0.000 A 
ENDBRANCH  68  81
ENDBRANCH  42  43
ENDBRANCH  35  37
ENDBRANCH  34  35
ENDBRANCH  33  34
ENDBRANCH  32  33
ENDBRANCH  31  32
ENDBRANCH  30  31
ENDBRANCH  29  30
ENDBRANCH   1  29
TORSDOF 23
ENDMDL
MODEL 3
REMARK VINA RESULT:      -7.6      5.538     10.988
REMARK SMILES COc1cc(-c2ccc(F)c(C(F)(F)F)c2)ccc1C(=O)OCCOCCOCCOCCOC(=O)c1ccc(-c2c3nc(c(-c4ccccc4)c4ccc([nH]4)c(-c4ccccc4)c4nc(c(-c5ccccc5)c5ccc2[nH]5)C=C4)C=C3)cc1
REMARK SMILES IDX 28 1 27 2 26 3 25 4 24 5 23 6 22 7 20 8 21 9 19 10 3 11 4 12
REMARK SMILES IDX 5 13 18 14 17 15 2 16 1 17 6 18 7 19 16 20 8 21 11 22 9 23
REMARK SMILES IDX 10 24 12 25 13 26 14 27 15 28 29 29 30 30 31 31 32 32 33 33
REMARK SMILES IDX 34 34 35 35 36 36 37 37 38 38 84 39 39 40 83 41 40 42 41 43
REMARK SMILES IDX 42 44 77 45 43 46 82 47 76 48 78 49 44 50 81 51 75 52 74 53
REMARK SMILES IDX 45 55 67 56 52 57 66 58 53 59 56 60 65 61 79 62 54 63 55 64
REMARK SMILES IDX 64 66 80 67 57 68 46 69 47 70 51 71 48 72 50 73 49 74 68 75
REMARK SMILES IDX 69 76 73 77 70 78 72 79 71 80 58 81 59 82 63 83 60 84 62 85
REMARK SMILES IDX 61 86
REMARK H PARENT 78 54 56 65
REMARK Flexibility Score: inf
ROOT
ATOM      1  O   UNL A   1      33.459  35.825  32.821  1.00  0.00    -0.377 OA
ENDROOT
BRANCH   1   2
ATOM      2  C   UNL A   1      34.867  35.731  32.965  1.00  0.00     0.188 C 
BRANCH   2   3
ATOM      3  C   UNL A   1      35.544  34.413  33.395  1.00  0.00     0.188 C 
BRANCH   3   4
ATOM      4  O   UNL A   1      36.963  34.453  33.501  1.00  0.00    -0.376 OA
BRANCH   4   5
ATOM      5  C   UNL A   1      37.663  33.437  32.796  1.00  0.00     0.202 C 
BRANCH   5   6
ATOM      6  C   UNL A   1      37.950  32.212  33.663  1.00  0.00     0.261 C 
BRANCH   6   7
ATOM      7  O   UNL A   1      39.214  32.290  34.331  1.00  0.00    -0.460 OA
BRANCH   7   8
ATOM      8  C   UNL A   1      40.312  32.049  33.587  1.00  0.00     0.342 C 
ATOM      9  O   UNL A   1      40.875  32.844  32.851  1.00  0.00    -0.246 OA
BRANCH   8  10
ATOM     10  C   UNL A   1      40.842  30.703  33.904  1.00  0.00     0.102 A 
ATOM     11  C   UNL A   1      41.837  30.452  34.859  1.00  0.00     0.134 A 
ATOM     12  C   UNL A   1      42.323  29.147  35.025  1.00  0.00     0.056 A 
ATOM     13  C   UNL A   1      41.821  28.076  34.267  1.00  0.00    -0.015 A 
ATOM     14  C   UNL A   1      40.346  29.642  33.131  1.00  0.00     0.020 A 
ATOM     15  C   UNL A   1      40.838  28.344  33.304  1.00  0.00     0.010 A 
BRANCH  11  16
ATOM     16  O   UNL A   1      42.486  31.414  35.585  1.00  0.00    -0.496 OA
ATOM     17  C   UNL A   1      41.794  31.799  36.770  1.00  0.00     0.278 C 
ENDBRANCH  11  16
BRANCH  13  18
ATOM     18  C   UNL A   1      42.274  26.701  34.513  1.00  0.00    -0.017 A 
ATOM     19  C   UNL A   1      41.602  25.907  35.456  1.00  0.00     0.012 A 
ATOM     20  C   UNL A   1      43.356  26.140  33.812  1.00  0.00     0.025 A 
ATOM     21  C   UNL A   1      41.994  24.590  35.691  1.00  0.00     0.040 A 
ATOM     22  C   UNL A   1      43.761  24.812  34.047  1.00  0.00     0.092 A 
ATOM     23  C   UNL A   1      43.066  24.056  34.987  1.00  0.00     0.135 A 
ATOM     24  F   UNL A   1      43.427  22.788  35.226  1.00  0.00    -0.206 F 
BRANCH  22  25
ATOM     25  C   UNL A   1      44.913  24.184  33.324  1.00  0.00     0.419 C 
ATOM     26  F   UNL A   1      44.603  22.976  32.777  1.00  0.00    -0.166 F 
ATOM     27  F   UNL A   1      45.384  24.954  32.305  1.00  0.00    -0.166 F 
ATOM     28  F   UNL A   1      45.989  23.953  34.131  1.00  0.00    -0.166 F 
ENDBRANCH  22  25
ENDBRANCH  13  18
ENDBRANCH   8  10
ENDBRANCH   7   8
ENDBRANCH   6   7
ENDBRANCH   5   6
ENDBRANCH   4   5
ENDBRANCH   3   4
ENDBRANCH   2   3
ENDBRANCH   1   2
BRANCH   1  29
ATOM     29  C   UNL A   1      32.901  36.675  31.831  1.00  0.00     0.188 C 
BRANCH  29  30
ATOM     30  C   UNL A   1      32.858  36.207  30.364  1.00  0.00     0.188 C 
BRANCH  30  31
ATOM     31  O   UNL A   1      33.082  34.815  30.179  1.00  0.00    -0.376 OA
BRANCH  31  32
ATOM     32  C   UNL A   1      34.180  34.468  29.345  1.00  0.00     0.202 C 
BRANCH  32  33
ATOM     33  C   UNL A   1      34.040  33.105  28.656  1.00  0.00     0.261 C 
BRANCH  33  34
ATOM     34  O   UNL A   1      35.218  32.282  28.696  1.00  0.00    -0.460 OA
BRANCH  34  35
ATOM     35  C   UNL A   1      35.520  31.708  29.879  1.00  0.00     0.338 C 
ATOM     36  O   UNL A   1      34.902  31.791  30.926  1.00  0.00    -0.246 OA
BRANCH  35  37
ATOM     37  C   UNL A   1      36.669  30.810  29.673  1.00  0.00     0.060 A 
ATOM     38  C   UNL A   1      37.249  30.196  30.790  1.00  0.00     0.016 A 
ATOM     39  C   UNL A   1      37.197  30.621  28.394  1.00  0.00     0.016 A 
ATOM     40  C   UNL A   1      38.411  29.443  30.636  1.00  0.00     0.010 A 
ATOM     41  C   UNL A   1      38.372  29.883  28.244  1.00  0.00     0.010 A 
ATOM     42  C   UNL A   1      39.010  29.338  29.373  1.00  0.00    -0.014 A 
BRANCH  42  43
ATOM     43  C   UNL A   1      40.427  28.917  29.286  1.00  0.00     0.031 A 
ATOM     44  C   UNL A   1      40.708  27.492  28.882  1.00  0.00     0.074 A 
ATOM     45  C   UNL A   1      41.437  29.775  29.502  1.00  0.00     0.049 A 
ATOM     46  N   UNL A   1      41.854  26.888  28.708  1.00  0.00    -0.248 NA
ATOM     47  C   UNL A   1      39.533  26.638  28.635  1.00  0.00     0.031 C 
ATOM     48  C   UNL A   1      41.298  31.186  29.854  1.00  0.00     0.029 A 
ATOM     49  N   UNL A   1      42.794  29.573  29.447  1.00  0.00    -0.354 N 
ATOM     50  C   UNL A   1      41.539  25.593  28.317  1.00  0.00     0.074 A 
ATOM     51  C   UNL A   1      40.097  25.483  28.319  1.00  0.00     0.031 C 
ATOM     52  C   UNL A   1      42.524  31.726  29.983  1.00  0.00     0.029 A 
ATOM     53  C   UNL A   1      43.530  30.693  29.742  1.00  0.00     0.049 A 
ATOM     54  H   UNL A   1      43.200  28.706  29.217  1.00  0.00     0.167 HD
ATOM     55  C   UNL A   1      42.370  24.584  27.969  1.00  0.00     0.031 A 
ATOM     56  C   UNL A   1      44.865  30.856  29.812  1.00  0.00     0.031 A 
ATOM     57  C   UNL A   1      43.802  24.674  27.996  1.00  0.00     0.049 A 
ATOM     58  C   UNL A   1      45.770  29.689  29.504  1.00  0.00     0.074 A 
ATOM     59  C   UNL A   1      44.736  23.694  27.706  1.00  0.00     0.029 A 
ATOM     60  N   UNL A   1      44.508  25.817  28.334  1.00  0.00    -0.354 N 
ATOM     61  N   UNL A   1      45.457  28.472  29.127  1.00  0.00    -0.248 NA
ATOM     62  C   UNL A   1      47.216  29.930  29.612  1.00  0.00     0.031 C 
ATOM     63  C   UNL A   1      46.010  24.238  27.898  1.00  0.00     0.029 A 
ATOM     64  C   UNL A   1      45.867  25.568  28.260  1.00  0.00     0.049 A 
ATOM     65  H   UNL A   1      44.103  26.677  28.588  1.00  0.00     0.167 HD
ATOM     66  C   UNL A   1      46.667  27.820  28.914  1.00  0.00     0.074 A 
ATOM     67  C   UNL A   1      47.716  28.778  29.191  1.00  0.00     0.031 C 
ATOM     68  C   UNL A   1      46.892  26.542  28.520  1.00  0.00     0.031 A 
BRANCH  55  69
ATOM     69  C   UNL A   1      41.737  23.292  27.543  1.00  0.00    -0.014 A 
ATOM     70  C   UNL A   1      41.094  23.183  26.298  1.00  0.00     0.009 A 
ATOM     71  C   UNL A   1      41.792  22.171  28.382  1.00  0.00     0.009 A 
ATOM     72  C   UNL A   1      40.499  21.981  25.914  1.00  0.00     0.001 A 
ATOM     73  C   UNL A   1      41.216  20.962  27.984  1.00  0.00     0.001 A 
ATOM     74  C   UNL A   1      40.564  20.870  26.755  1.00  0.00     0.000 A 
ENDBRANCH  55  69
BRANCH  56  75
ATOM     75  C   UNL A   1      45.451  32.168  30.194  1.00  0.00    -0.014 A 
ATOM     76  C   UNL A   1      46.240  32.892  29.287  1.00  0.00     0.009 A 
ATOM     77  C   UNL A   1      45.283  32.668  31.495  1.00  0.00     0.009 A 
ATOM     78  C   UNL A   1      46.884  34.066  29.687  1.00  0.00     0.001 A 
ATOM     79  C   UNL A   1      45.905  33.856  31.883  1.00  0.00     0.001 A 
ATOM     80  C   UNL A   1      46.716  34.546  30.985  1.00  0.00     0.000 A 
ENDBRANCH  56  75
BRANCH  68  81
ATOM     81  C   UNL A   1      48.321  26.132  28.299  1.00  0.00    -0.014 A 
ATOM     82  C   UNL A   1      49.114  25.640  29.346  1.00  0.00     0.009 A 
ATOM     83  C   UNL A   1      48.871  26.219  27.010  1.00  0.00     0.009 A 
ATOM     84  C   UNL A   1      50.444  25.283  29.114  1.00  0.00     0.001 A 
ATOM     85  C   UNL A   1      50.190  25.835  26.775  1.00  0.00     0.001 A 
ATOM     86  C   UNL A   1      50.979  25.378  27.829  1.00  0.00     0.000 A 
ENDBRANCH  68  81
ENDBRANCH  42  43
ENDBRANCH  35  37
ENDBRANCH  34  35
ENDBRANCH  33  34
ENDBRANCH  32  33
ENDBRANCH  31  32
ENDBRANCH  30  31
ENDBRANCH  29  30
ENDBRANCH   1  29
TORSDOF 23
ENDMDL
