MODEL 1
REMARK VINA RESULT:      -9.3      0.000      0.000
REMARK SMILES COc1cc2c(cc1OC)[C@H](C(=O)OCCOCCOCCOCCOC(=O)c1ccc(-c3c4nc(c(-c5ccccc5)c5ccc([nH]5)c(-c5ccccc5)c5nc(c(-c6ccccc6)c6ccc3[nH]6)C=C5)C=C4)cc1)[C@@H](c1ccc(SC)cc1)N(C)C2=O
REMARK SMILES IDX 20 1 19 2 18 3 17 4 16 5 15 6 14 7 12 8 13 9 11 10 3 11 4 12
REMARK SMILES IDX 8 13 5 14 7 15 6 16 88 17 86 18 89 19 77 20 87 21 2 22 1 23
REMARK SMILES IDX 9 24 10 25 78 26 79 27 85 28 80 29 84 30 81 31 82 32 83 33
REMARK SMILES IDX 21 34 22 35 23 36 24 37 25 38 26 39 27 40 28 41 29 42 30 43
REMARK SMILES IDX 76 44 31 45 75 46 32 47 33 48 34 49 69 50 35 51 74 52 68 53
REMARK SMILES IDX 70 54 36 55 73 56 67 57 66 58 37 60 59 61 44 62 58 63 45 64
REMARK SMILES IDX 48 65 57 66 71 67 46 68 47 69 56 71 72 72 49 73 38 74 39 75
REMARK SMILES IDX 43 76 40 77 42 78 41 79 60 80 61 81 65 82 62 83 64 84 63 85
REMARK SMILES IDX 50 86 51 87 55 88 52 89 54 90 53 91
REMARK H PARENT 70 59 48 70
REMARK Flexibility Score: inf
ROOT
ATOM      1  O   UNL A   1      48.046  27.939  23.386  1.00  0.00    -0.377 OA
ENDROOT
BRANCH   1   2
ATOM      2  C   UNL A   1      46.941  27.707  24.240  1.00  0.00     0.188 C 
BRANCH   2   3
ATOM      3  C   UNL A   1      46.939  26.320  24.937  1.00  0.00     0.188 C 
BRANCH   3   4
ATOM      4  O   UNL A   1      47.086  26.215  26.349  1.00  0.00    -0.376 OA
BRANCH   4   5
ATOM      5  C   UNL A   1      46.032  25.672  27.129  1.00  0.00     0.202 C 
BRANCH   5   6
ATOM      6  C   UNL A   1      44.602  26.174  26.905  1.00  0.00     0.261 C 
BRANCH   6   7
ATOM      7  O   UNL A   1      43.731  25.989  28.028  1.00  0.00    -0.463 OA
BRANCH   7   8
ATOM      8  C   UNL A   1      43.198  24.754  28.265  1.00  0.00     0.316 C 
ATOM      9  O   UNL A   1      43.528  24.010  29.176  1.00  0.00    -0.251 OA
BRANCH   8  10
ATOM     10  C   UNL A   1      42.175  24.425  27.165  1.00  0.00     0.157 C 
ATOM     11  C   UNL A   1      43.226  20.464  25.783  1.00  0.00     0.161 A 
ATOM     12  C   UNL A   1      41.880  20.817  25.990  1.00  0.00     0.064 A 
ATOM     13  C   UNL A   1      44.217  21.438  25.879  1.00  0.00     0.161 A 
ATOM     14  C   UNL A   1      41.521  22.124  26.354  1.00  0.00     0.048 A 
ATOM     15  C   UNL A   1      43.839  22.733  26.238  1.00  0.00     0.056 A 
ATOM     16  C   UNL A   1      42.513  23.068  26.578  1.00  0.00    -0.015 A 
ATOM     17  C   UNL A   1      40.086  22.516  26.390  1.00  0.00     0.254 C 
ATOM     18  N   UNL A   1      39.773  23.799  26.849  1.00  0.00    -0.333 N 
ATOM     19  O   UNL A   1      39.249  21.730  25.958  1.00  0.00    -0.269 OA
ATOM     20  C   UNL A   1      40.723  24.522  27.732  1.00  0.00     0.134 C 
ATOM     21  C   UNL A   1      38.372  24.198  26.778  1.00  0.00     0.147 C 
BRANCH  11  22
ATOM     22  O   UNL A   1      43.568  19.157  25.562  1.00  0.00    -0.493 OA
ATOM     23  C   UNL A   1      42.714  18.233  26.227  1.00  0.00     0.278 C 
ENDBRANCH  11  22
BRANCH  13  24
ATOM     24  O   UNL A   1      45.563  21.339  25.666  1.00  0.00    -0.493 OA
ATOM     25  C   UNL A   1      46.132  22.008  24.553  1.00  0.00     0.278 C 
ENDBRANCH  13  24
BRANCH  20  26
ATOM     26  C   UNL A   1      40.240  25.954  28.056  1.00  0.00    -0.024 A 
ATOM     27  C   UNL A   1      40.444  27.042  27.196  1.00  0.00     0.007 A 
ATOM     28  C   UNL A   1      39.483  26.196  29.220  1.00  0.00     0.007 A 
ATOM     29  C   UNL A   1      40.015  28.334  27.543  1.00  0.00     0.015 A 
ATOM     30  C   UNL A   1      39.011  27.483  29.544  1.00  0.00     0.015 A 
ATOM     31  C   UNL A   1      39.298  28.572  28.720  1.00  0.00     0.007 A 
BRANCH  31  32
ATOM     32  S   UNL A   1      38.899  30.271  29.110  1.00  0.00    -0.130 SA
ATOM     33  C   UNL A   1      37.504  30.116  30.259  1.00  0.00     0.091 C 
ENDBRANCH  31  32
ENDBRANCH  20  26
ENDBRANCH   8  10
ENDBRANCH   7   8
ENDBRANCH   6   7
ENDBRANCH   5   6
ENDBRANCH   4   5
ENDBRANCH   3   4
ENDBRANCH   2   3
ENDBRANCH   1   2
BRANCH   1  34
ATOM     34  C   UNL A   1      49.109  27.007  23.534  1.00  0.00     0.188 C 
BRANCH  34  35
ATOM     35  C   UNL A   1      50.503  27.595  23.840  1.00  0.00     0.188 C 
BRANCH  35  36
ATOM     36  O   UNL A   1      50.476  28.631  24.815  1.00  0.00    -0.376 OA
BRANCH  36  37
ATOM     37  C   UNL A   1      51.622  29.426  25.052  1.00  0.00     0.202 C 
BRANCH  37  38
ATOM     38  C   UNL A   1      52.976  28.827  24.644  1.00  0.00     0.261 C 
BRANCH  38  39
ATOM     39  O   UNL A   1      53.769  28.306  25.715  1.00  0.00    -0.460 OA
BRANCH  39  40
ATOM     40  C   UNL A   1      53.707  26.968  25.916  1.00  0.00     0.338 C 
ATOM     41  O   UNL A   1      54.386  26.113  25.397  1.00  0.00    -0.246 OA
BRANCH  40  42
ATOM     42  C   UNL A   1      52.803  26.747  27.064  1.00  0.00     0.060 A 
ATOM     43  C   UNL A   1      51.805  25.773  26.941  1.00  0.00     0.016 A 
ATOM     44  C   UNL A   1      52.970  27.452  28.259  1.00  0.00     0.016 A 
ATOM     45  C   UNL A   1      50.954  25.515  28.009  1.00  0.00     0.010 A 
ATOM     46  C   UNL A   1      52.093  27.219  29.319  1.00  0.00     0.010 A 
ATOM     47  C   UNL A   1      51.064  26.271  29.182  1.00  0.00    -0.014 A 
BRANCH  47  48
ATOM     48  C   UNL A   1      49.961  26.210  30.163  1.00  0.00     0.031 A 
ATOM     49  C   UNL A   1      48.754  27.073  29.919  1.00  0.00     0.074 A 
ATOM     50  C   UNL A   1      49.998  25.354  31.196  1.00  0.00     0.049 A 
ATOM     51  N   UNL A   1      47.640  27.151  30.597  1.00  0.00    -0.248 NA
ATOM     52  C   UNL A   1      48.811  27.960  28.745  1.00  0.00     0.031 C 
ATOM     53  C   UNL A   1      51.095  24.435  31.498  1.00  0.00     0.029 A 
ATOM     54  N   UNL A   1      49.074  25.114  32.179  1.00  0.00    -0.354 N 
ATOM     55  C   UNL A   1      46.865  28.093  29.933  1.00  0.00     0.074 A 
ATOM     56  C   UNL A   1      47.647  28.585  28.820  1.00  0.00     0.031 C 
ATOM     57  C   UNL A   1      50.775  23.724  32.594  1.00  0.00     0.029 A 
ATOM     58  C   UNL A   1      49.470  24.160  33.083  1.00  0.00     0.049 A 
ATOM     59  H   UNL A   1      48.208  25.581  32.232  1.00  0.00     0.167 HD
ATOM     60  C   UNL A   1      45.607  28.506  30.217  1.00  0.00     0.031 A 
ATOM     61  C   UNL A   1      48.846  23.703  34.186  1.00  0.00     0.031 A 
ATOM     62  C   UNL A   1      44.847  28.035  31.343  1.00  0.00     0.049 A 
ATOM     63  C   UNL A   1      47.484  24.246  34.532  1.00  0.00     0.074 A 
ATOM     64  C   UNL A   1      43.566  28.388  31.727  1.00  0.00     0.029 A 
ATOM     65  N   UNL A   1      45.307  27.117  32.275  1.00  0.00    -0.354 N 
ATOM     66  N   UNL A   1      46.747  25.116  33.883  1.00  0.00    -0.248 NA
ATOM     67  C   UNL A   1      46.864  23.730  35.760  1.00  0.00     0.031 C 
ATOM     68  C   UNL A   1      43.276  27.734  32.928  1.00  0.00     0.029 A 
ATOM     69  C   UNL A   1      44.347  26.914  33.252  1.00  0.00     0.049 A 
ATOM     70  H   UNL A   1      46.185  26.673  32.246  1.00  0.00     0.167 HD
ATOM     71  C   UNL A   1      45.566  25.231  34.607  1.00  0.00     0.074 A 
ATOM     72  C   UNL A   1      45.678  24.320  35.728  1.00  0.00     0.031 C 
ATOM     73  C   UNL A   1      44.485  26.016  34.370  1.00  0.00     0.031 A 
BRANCH  60  74
ATOM     74  C   UNL A   1      45.006  29.552  29.320  1.00  0.00    -0.014 A 
ATOM     75  C   UNL A   1      45.245  30.921  29.526  1.00  0.00     0.009 A 
ATOM     76  C   UNL A   1      44.198  29.160  28.242  1.00  0.00     0.009 A 
ATOM     77  C   UNL A   1      44.658  31.874  28.692  1.00  0.00     0.001 A 
ATOM     78  C   UNL A   1      43.639  30.114  27.391  1.00  0.00     0.001 A 
ATOM     79  C   UNL A   1      43.861  31.470  27.622  1.00  0.00     0.000 A 
ENDBRANCH  60  74
BRANCH  61  80
ATOM     80  C   UNL A   1      49.503  22.690  35.053  1.00  0.00    -0.014 A 
ATOM     81  C   UNL A   1      50.326  23.080  36.122  1.00  0.00     0.009 A 
ATOM     82  C   UNL A   1      49.334  21.320  34.796  1.00  0.00     0.009 A 
ATOM     83  C   UNL A   1      50.989  22.122  36.892  1.00  0.00     0.001 A 
ATOM     84  C   UNL A   1      49.971  20.363  35.589  1.00  0.00     0.001 A 
ATOM     85  C   UNL A   1      50.808  20.765  36.629  1.00  0.00     0.000 A 
ENDBRANCH  61  80
BRANCH  73  86
ATOM     86  C   UNL A   1      43.330  25.893  35.328  1.00  0.00    -0.014 A 
ATOM     87  C   UNL A   1      43.204  26.744  36.438  1.00  0.00     0.009 A 
ATOM     88  C   UNL A   1      42.347  24.916  35.108  1.00  0.00     0.009 A 
ATOM     89  C   UNL A   1      42.150  26.580  37.338  1.00  0.00     0.001 A 
ATOM     90  C   UNL A   1      41.271  24.780  35.987  1.00  0.00     0.001 A 
ATOM     91  C   UNL A   1      41.183  25.601  37.110  1.00  0.00     0.000 A 
ENDBRANCH  73  86
ENDBRANCH  47  48
ENDBRANCH  40  42
ENDBRANCH  39  40
ENDBRANCH  38  39
ENDBRANCH  37  38
ENDBRANCH  36  37
ENDBRANCH  35  36
ENDBRANCH  34  35
ENDBRANCH   1  34
TORSDOF 24
ENDMDL
MODEL 2
REMARK VINA RESULT:      -9.3      5.855     10.468
REMARK SMILES COc1cc2c(cc1OC)[C@H](C(=O)OCCOCCOCCOCCOC(=O)c1ccc(-c3c4nc(c(-c5ccccc5)c5ccc([nH]5)c(-c5ccccc5)c5nc(c(-c6ccccc6)c6ccc3[nH]6)C=C5)C=C4)cc1)[C@@H](c1ccc(SC)cc1)N(C)C2=O
REMARK SMILES IDX 20 1 19 2 18 3 17 4 16 5 15 6 14 7 12 8 13 9 11 10 3 11 4 12
REMARK SMILES IDX 8 13 5 14 7 15 6 16 88 17 86 18 89 19 77 20 87 21 2 22 1 23
REMARK SMILES IDX 9 24 10 25 78 26 79 27 85 28 80 29 84 30 81 31 82 32 83 33
REMARK SMILES IDX 21 34 22 35 23 36 24 37 25 38 26 39 27 40 28 41 29 42 30 43
REMARK SMILES IDX 76 44 31 45 75 46 32 47 33 48 34 49 69 50 35 51 74 52 68 53
REMARK SMILES IDX 70 54 36 55 73 56 67 57 66 58 37 60 59 61 44 62 58 63 45 64
REMARK SMILES IDX 48 65 57 66 71 67 46 68 47 69 56 71 72 72 49 73 38 74 39 75
REMARK SMILES IDX 43 76 40 77 42 78 41 79 60 80 61 81 65 82 62 83 64 84 63 85
REMARK SMILES IDX 50 86 51 87 55 88 52 89 54 90 53 91
REMARK H PARENT 70 59 48 70
REMARK Flexibility Score: inf
ROOT
ATOM      1  O   UNL A   1      38.626  21.592  26.191  1.00  0.00    -0.377 OA
ENDROOT
BRANCH   1   2
ATOM      2  C   UNL A   1      38.587  22.867  25.577  1.00  0.00     0.188 C 
BRANCH   2   3
ATOM      3  C   UNL A   1      37.374  23.746  25.985  1.00  0.00     0.188 C 
BRANCH   3   4
ATOM      4  O   UNL A   1      36.257  23.894  25.114  1.00  0.00    -0.376 OA
BRANCH   4   5
ATOM      5  C   UNL A   1      35.830  22.797  24.322  1.00  0.00     0.202 C 
BRANCH   5   6
ATOM      6  C   UNL A   1      35.449  23.036  22.857  1.00  0.00     0.261 C 
BRANCH   6   7
ATOM      7  O   UNL A   1      34.702  24.238  22.632  1.00  0.00    -0.463 OA
BRANCH   7   8
ATOM      8  C   UNL A   1      33.337  24.193  22.661  1.00  0.00     0.316 C 
ATOM      9  O   UNL A   1      32.617  24.107  21.678  1.00  0.00    -0.251 OA
BRANCH   8  10
ATOM     10  C   UNL A   1      32.858  24.338  24.115  1.00  0.00     0.157 C 
ATOM     11  C   UNL A   1      31.312  28.368  24.402  1.00  0.00     0.161 A 
ATOM     12  C   UNL A   1      30.625  27.292  24.993  1.00  0.00     0.064 A 
ATOM     13  C   UNL A   1      32.574  28.159  23.849  1.00  0.00     0.161 A 
ATOM     14  C   UNL A   1      31.160  25.995  24.982  1.00  0.00     0.048 A 
ATOM     15  C   UNL A   1      33.090  26.862  23.852  1.00  0.00     0.056 A 
ATOM     16  C   UNL A   1      32.355  25.755  24.320  1.00  0.00    -0.015 A 
ATOM     17  C   UNL A   1      30.503  24.915  25.767  1.00  0.00     0.254 C 
ATOM     18  N   UNL A   1      31.016  23.621  25.650  1.00  0.00    -0.333 N 
ATOM     19  O   UNL A   1      29.589  25.213  26.530  1.00  0.00    -0.269 OA
ATOM     20  C   UNL A   1      31.797  23.240  24.446  1.00  0.00     0.134 C 
ATOM     21  C   UNL A   1      30.425  22.599  26.507  1.00  0.00     0.147 C 
BRANCH  11  22
ATOM     22  O   UNL A   1      30.716  29.596  24.304  1.00  0.00    -0.493 OA
ATOM     23  C   UNL A   1      31.113  30.497  25.331  1.00  0.00     0.278 C 
ENDBRANCH  11  22
BRANCH  13  24
ATOM     24  O   UNL A   1      33.438  29.052  23.281  1.00  0.00    -0.493 OA
ATOM     25  C   UNL A   1      34.600  28.565  22.631  1.00  0.00     0.278 C 
ENDBRANCH  13  24
BRANCH  20  26
ATOM     26  C   UNL A   1      32.354  21.801  24.545  1.00  0.00    -0.024 A 
ATOM     27  C   UNL A   1      33.054  21.328  25.663  1.00  0.00     0.007 A 
ATOM     28  C   UNL A   1      32.090  20.871  23.519  1.00  0.00     0.007 A 
ATOM     29  C   UNL A   1      33.569  20.021  25.700  1.00  0.00     0.015 A 
ATOM     30  C   UNL A   1      32.565  19.546  23.578  1.00  0.00     0.015 A 
ATOM     31  C   UNL A   1      33.335  19.117  24.658  1.00  0.00     0.007 A 
BRANCH  31  32
ATOM     32  S   UNL A   1      34.131  17.519  24.764  1.00  0.00    -0.130 SA
ATOM     33  C   UNL A   1      32.772  16.409  25.225  1.00  0.00     0.091 C 
ENDBRANCH  31  32
ENDBRANCH  20  26
ENDBRANCH   8  10
ENDBRANCH   7   8
ENDBRANCH   6   7
ENDBRANCH   5   6
ENDBRANCH   4   5
ENDBRANCH   3   4
ENDBRANCH   2   3
ENDBRANCH   1   2
BRANCH   1  34
ATOM     34  C   UNL A   1      39.694  20.761  25.756  1.00  0.00     0.188 C 
BRANCH  34  35
ATOM     35  C   UNL A   1      41.066  21.001  26.420  1.00  0.00     0.188 C 
BRANCH  35  36
ATOM     36  O   UNL A   1      41.642  22.258  26.087  1.00  0.00    -0.376 OA
BRANCH  36  37
ATOM     37  C   UNL A   1      42.875  22.660  26.655  1.00  0.00     0.202 C 
BRANCH  37  38
ATOM     38  C   UNL A   1      43.051  24.160  26.933  1.00  0.00     0.261 C 
BRANCH  38  39
ATOM     39  O   UNL A   1      42.803  25.027  25.821  1.00  0.00    -0.460 OA
BRANCH  39  40
ATOM     40  C   UNL A   1      41.647  25.731  25.852  1.00  0.00     0.338 C 
ATOM     41  O   UNL A   1      40.709  25.640  25.095  1.00  0.00    -0.246 OA
BRANCH  40  42
ATOM     42  C   UNL A   1      41.636  26.486  27.122  1.00  0.00     0.060 A 
ATOM     43  C   UNL A   1      40.578  26.267  28.012  1.00  0.00     0.016 A 
ATOM     44  C   UNL A   1      42.678  27.357  27.451  1.00  0.00     0.016 A 
ATOM     45  C   UNL A   1      40.547  26.936  29.230  1.00  0.00     0.010 A 
ATOM     46  C   UNL A   1      42.629  28.056  28.658  1.00  0.00     0.010 A 
ATOM     47  C   UNL A   1      41.547  27.868  29.534  1.00  0.00    -0.014 A 
BRANCH  47  48
ATOM     48  C   UNL A   1      41.323  28.793  30.665  1.00  0.00     0.031 A 
ATOM     49  C   UNL A   1      40.180  29.764  30.564  1.00  0.00     0.074 A 
ATOM     50  C   UNL A   1      42.066  28.716  31.781  1.00  0.00     0.049 A 
ATOM     51  N   UNL A   1      39.747  30.630  31.443  1.00  0.00    -0.248 NA
ATOM     52  C   UNL A   1      39.419  29.750  29.303  1.00  0.00     0.031 C 
ATOM     53  C   UNL A   1      43.165  27.779  32.005  1.00  0.00     0.029 A 
ATOM     54  N   UNL A   1      41.994  29.441  32.941  1.00  0.00    -0.354 N 
ATOM     55  C   UNL A   1      38.664  31.259  30.843  1.00  0.00     0.074 A 
ATOM     56  C   UNL A   1      38.527  30.705  29.514  1.00  0.00     0.031 C 
ATOM     57  C   UNL A   1      43.662  27.983  33.238  1.00  0.00     0.029 A 
ATOM     58  C   UNL A   1      42.938  29.082  33.871  1.00  0.00     0.049 A 
ATOM     59  H   UNL A   1      41.329  30.151  33.094  1.00  0.00     0.167 HD
ATOM     60  C   UNL A   1      37.848  32.209  31.356  1.00  0.00     0.031 A 
ATOM     61  C   UNL A   1      43.188  29.594  35.091  1.00  0.00     0.031 A 
ATOM     62  C   UNL A   1      38.009  32.778  32.667  1.00  0.00     0.049 A 
ATOM     63  C   UNL A   1      42.321  30.716  35.603  1.00  0.00     0.074 A 
ATOM     64  C   UNL A   1      37.241  33.748  33.286  1.00  0.00     0.029 A 
ATOM     65  N   UNL A   1      39.017  32.436  33.555  1.00  0.00    -0.354 N 
ATOM     66  N   UNL A   1      41.282  31.286  35.040  1.00  0.00    -0.248 NA
ATOM     67  C   UNL A   1      42.658  31.253  36.929  1.00  0.00     0.031 C 
ATOM     68  C   UNL A   1      37.825  34.041  34.522  1.00  0.00     0.029 A 
ATOM     69  C   UNL A   1      38.911  33.199  34.706  1.00  0.00     0.049 A 
ATOM     70  H   UNL A   1      39.705  31.751  33.392  1.00  0.00     0.167 HD
ATOM     71  C   UNL A   1      40.825  32.229  35.953  1.00  0.00     0.074 A 
ATOM     72  C   UNL A   1      41.684  32.132  37.116  1.00  0.00     0.031 C 
ATOM     73  C   UNL A   1      39.788  33.098  35.845  1.00  0.00     0.031 A 
BRANCH  60  74
ATOM     74  C   UNL A   1      36.744  32.720  30.472  1.00  0.00    -0.014 A 
ATOM     75  C   UNL A   1      36.947  33.796  29.592  1.00  0.00     0.009 A 
ATOM     76  C   UNL A   1      35.484  32.106  30.511  1.00  0.00     0.009 A 
ATOM     77  C   UNL A   1      35.900  34.266  28.796  1.00  0.00     0.001 A 
ATOM     78  C   UNL A   1      34.448  32.557  29.691  1.00  0.00     0.001 A 
ATOM     79  C   UNL A   1      34.654  33.643  28.842  1.00  0.00     0.000 A 
ENDBRANCH  60  74
BRANCH  61  80
ATOM     80  C   UNL A   1      44.314  29.070  35.908  1.00  0.00    -0.014 A 
ATOM     81  C   UNL A   1      44.111  28.038  36.838  1.00  0.00     0.009 A 
ATOM     82  C   UNL A   1      45.598  29.623  35.782  1.00  0.00     0.009 A 
ATOM     83  C   UNL A   1      45.162  27.596  37.645  1.00  0.00     0.001 A 
ATOM     84  C   UNL A   1      46.655  29.155  36.566  1.00  0.00     0.001 A 
ATOM     85  C   UNL A   1      46.433  28.151  37.506  1.00  0.00     0.000 A 
ENDBRANCH  61  80
BRANCH  73  86
ATOM     86  C   UNL A   1      39.514  33.985  37.030  1.00  0.00    -0.014 A 
ATOM     87  C   UNL A   1      40.000  35.301  37.089  1.00  0.00     0.009 A 
ATOM     88  C   UNL A   1      38.749  33.496  38.100  1.00  0.00     0.009 A 
ATOM     89  C   UNL A   1      39.773  36.087  38.220  1.00  0.00     0.001 A 
ATOM     90  C   UNL A   1      38.489  34.298  39.213  1.00  0.00     0.001 A 
ATOM     91  C   UNL A   1      39.016  35.587  39.279  1.00  0.00     0.000 A 
ENDBRANCH  73  86
ENDBRANCH  47  48
ENDBRANCH  40  42
ENDBRANCH  39  40
ENDBRANCH  38  39
ENDBRANCH  37  38
ENDBRANCH  36  37
ENDBRANCH  35  36
ENDBRANCH  34  35
ENDBRANCH   1  34
TORSDOF 24
ENDMDL
MODEL 3
REMARK VINA RESULT:      -9.2      5.786     11.417
REMARK SMILES COc1cc2c(cc1OC)[C@H](C(=O)OCCOCCOCCOCCOC(=O)c1ccc(-c3c4nc(c(-c5ccccc5)c5ccc([nH]5)c(-c5ccccc5)c5nc(c(-c6ccccc6)c6ccc3[nH]6)C=C5)C=C4)cc1)[C@@H](c1ccc(SC)cc1)N(C)C2=O
REMARK SMILES IDX 20 1 19 2 18 3 17 4 16 5 15 6 14 7 12 8 13 9 11 10 3 11 4 12
REMARK SMILES IDX 8 13 5 14 7 15 6 16 88 17 86 18 89 19 77 20 87 21 2 22 1 23
REMARK SMILES IDX 9 24 10 25 78 26 79 27 85 28 80 29 84 30 81 31 82 32 83 33
REMARK SMILES IDX 21 34 22 35 23 36 24 37 25 38 26 39 27 40 28 41 29 42 30 43
REMARK SMILES IDX 76 44 31 45 75 46 32 47 33 48 34 49 69 50 35 51 74 52 68 53
REMARK SMILES IDX 70 54 36 55 73 56 67 57 66 58 37 60 59 61 44 62 58 63 45 64
REMARK SMILES IDX 48 65 57 66 71 67 46 68 47 69 56 71 72 72 49 73 38 74 39 75
REMARK SMILES IDX 43 76 40 77 42 78 41 79 60 80 61 81 65 82 62 83 64 84 63 85
REMARK SMILES IDX 50 86 51 87 55 88 52 89 54 90 53 91
REMARK H PARENT 70 59 48 70
REMARK Flexibility Score: inf
ROOT
ATOM      1  O   UNL A   1      38.347  21.356  26.126  1.00  0.00    -0.377 OA
ENDROOT
BRANCH   1   2
ATOM      2  C   UNL A   1      38.598  22.690  25.722  1.00  0.00     0.188 C 
BRANCH   2   3
ATOM      3  C   UNL A   1      37.519  23.715  26.165  1.00  0.00     0.188 C 
BRANCH   3   4
ATOM      4  O   UNL A   1      36.376  23.964  25.352  1.00  0.00    -0.376 OA
BRANCH   4   5
ATOM      5  C   UNL A   1      35.786  22.902  24.619  1.00  0.00     0.202 C 
BRANCH   5   6
ATOM      6  C   UNL A   1      35.549  23.074  23.115  1.00  0.00     0.261 C 
BRANCH   6   7
ATOM      7  O   UNL A   1      34.826  24.262  22.766  1.00  0.00    -0.463 OA
BRANCH   7   8
ATOM      8  C   UNL A   1      33.462  24.230  22.734  1.00  0.00     0.316 C 
ATOM      9  O   UNL A   1      32.784  24.178  21.720  1.00  0.00    -0.251 OA
BRANCH   8  10
ATOM     10  C   UNL A   1      32.921  24.341  24.170  1.00  0.00     0.157 C 
ATOM     11  C   UNL A   1      31.322  28.348  24.474  1.00  0.00     0.161 A 
ATOM     12  C   UNL A   1      30.622  27.254  25.014  1.00  0.00     0.064 A 
ATOM     13  C   UNL A   1      32.608  28.163  23.970  1.00  0.00     0.161 A 
ATOM     14  C   UNL A   1      31.171  25.963  24.999  1.00  0.00     0.048 A 
ATOM     15  C   UNL A   1      33.137  26.871  23.968  1.00  0.00     0.056 A 
ATOM     16  C   UNL A   1      32.395  25.748  24.383  1.00  0.00    -0.015 A 
ATOM     17  C   UNL A   1      30.494  24.861  25.734  1.00  0.00     0.254 C 
ATOM     18  N   UNL A   1      31.025  23.574  25.613  1.00  0.00    -0.333 N 
ATOM     19  O   UNL A   1      29.545  25.134  26.464  1.00  0.00    -0.269 OA
ATOM     20  C   UNL A   1      31.859  23.226  24.435  1.00  0.00     0.134 C 
ATOM     21  C   UNL A   1      30.410  22.529  26.423  1.00  0.00     0.147 C 
BRANCH  11  22
ATOM     22  O   UNL A   1      30.717  29.572  24.376  1.00  0.00    -0.493 OA
ATOM     23  C   UNL A   1      29.694  29.615  23.386  1.00  0.00     0.278 C 
ENDBRANCH  11  22
BRANCH  13  24
ATOM     24  O   UNL A   1      33.485  29.076  23.457  1.00  0.00    -0.493 OA
ATOM     25  C   UNL A   1      34.546  28.621  22.633  1.00  0.00     0.278 C 
ENDBRANCH  13  24
BRANCH  20  26
ATOM     26  C   UNL A   1      32.426  21.790  24.527  1.00  0.00    -0.024 A 
ATOM     27  C   UNL A   1      33.160  21.329  25.629  1.00  0.00     0.007 A 
ATOM     28  C   UNL A   1      32.140  20.852  23.515  1.00  0.00     0.007 A 
ATOM     29  C   UNL A   1      33.683  20.025  25.660  1.00  0.00     0.015 A 
ATOM     30  C   UNL A   1      32.623  19.531  23.569  1.00  0.00     0.015 A 
ATOM     31  C   UNL A   1      33.426  19.113  24.631  1.00  0.00     0.007 A 
BRANCH  31  32
ATOM     32  S   UNL A   1      34.233  17.519  24.725  1.00  0.00    -0.130 SA
ATOM     33  C   UNL A   1      32.884  16.352  24.402  1.00  0.00     0.091 C 
ENDBRANCH  31  32
ENDBRANCH  20  26
ENDBRANCH   8  10
ENDBRANCH   7   8
ENDBRANCH   6   7
ENDBRANCH   5   6
ENDBRANCH   4   5
ENDBRANCH   3   4
ENDBRANCH   2   3
ENDBRANCH   1   2
BRANCH   1  34
ATOM     34  C   UNL A   1      39.346  20.425  25.734  1.00  0.00     0.188 C 
BRANCH  34  35
ATOM     35  C   UNL A   1      40.517  20.217  26.718  1.00  0.00     0.188 C 
BRANCH  35  36
ATOM     36  O   UNL A   1      41.428  21.309  26.750  1.00  0.00    -0.376 OA
BRANCH  36  37
ATOM     37  C   UNL A   1      42.736  21.172  26.228  1.00  0.00     0.202 C 
BRANCH  37  38
ATOM     38  C   UNL A   1      43.716  22.320  26.511  1.00  0.00     0.261 C 
BRANCH  38  39
ATOM     39  O   UNL A   1      43.167  23.638  26.415  1.00  0.00    -0.460 OA
BRANCH  39  40
ATOM     40  C   UNL A   1      43.326  24.438  27.496  1.00  0.00     0.338 C 
ATOM     41  O   UNL A   1      42.840  24.298  28.595  1.00  0.00    -0.246 OA
BRANCH  40  42
ATOM     42  C   UNL A   1      44.391  25.407  27.162  1.00  0.00     0.060 A 
ATOM     43  C   UNL A   1      45.093  26.006  28.215  1.00  0.00     0.016 A 
ATOM     44  C   UNL A   1      44.724  25.680  25.833  1.00  0.00     0.016 A 
ATOM     45  C   UNL A   1      46.121  26.900  27.941  1.00  0.00     0.010 A 
ATOM     46  C   UNL A   1      45.732  26.605  25.558  1.00  0.00     0.010 A 
ATOM     47  C   UNL A   1      46.410  27.239  26.613  1.00  0.00    -0.014 A 
BRANCH  47  48
ATOM     48  C   UNL A   1      47.267  28.416  26.360  1.00  0.00     0.031 A 
ATOM     49  C   UNL A   1      46.635  29.777  26.445  1.00  0.00     0.074 A 
ATOM     50  C   UNL A   1      48.584  28.280  26.139  1.00  0.00     0.049 A 
ATOM     51  N   UNL A   1      47.185  30.956  26.324  1.00  0.00    -0.248 NA
ATOM     52  C   UNL A   1      45.187  29.810  26.712  1.00  0.00     0.031 C 
ATOM     53  C   UNL A   1      49.309  27.012  26.087  1.00  0.00     0.029 A 
ATOM     54  N   UNL A   1      49.547  29.232  25.928  1.00  0.00    -0.354 N 
ATOM     55  C   UNL A   1      46.153  31.869  26.501  1.00  0.00     0.074 A 
ATOM     56  C   UNL A   1      44.939  31.110  26.701  1.00  0.00     0.031 C 
ATOM     57  C   UNL A   1      50.611  27.267  25.864  1.00  0.00     0.029 A 
ATOM     58  C   UNL A   1      50.800  28.709  25.728  1.00  0.00     0.049 A 
ATOM     59  H   UNL A   1      49.359  30.198  25.921  1.00  0.00     0.167 HD
ATOM     60  C   UNL A   1      46.213  33.221  26.506  1.00  0.00     0.031 A 
ATOM     61  C   UNL A   1      51.963  29.331  25.455  1.00  0.00     0.031 A 
ATOM     62  C   UNL A   1      47.419  33.969  26.275  1.00  0.00     0.049 A 
ATOM     63  C   UNL A   1      51.984  30.836  25.376  1.00  0.00     0.074 A 
ATOM     64  C   UNL A   1      47.592  35.342  26.255  1.00  0.00     0.029 A 
ATOM     65  N   UNL A   1      48.657  33.405  26.009  1.00  0.00    -0.354 N 
ATOM     66  N   UNL A   1      51.009  31.692  25.571  1.00  0.00    -0.248 NA
ATOM     67  C   UNL A   1      53.275  31.457  25.049  1.00  0.00     0.031 C 
ATOM     68  C   UNL A   1      48.921  35.607  25.911  1.00  0.00     0.029 A 
ATOM     69  C   UNL A   1      49.594  34.401  25.793  1.00  0.00     0.049 A 
ATOM     70  H   UNL A   1      48.843  32.438  25.981  1.00  0.00     0.167 HD
ATOM     71  C   UNL A   1      51.574  32.953  25.420  1.00  0.00     0.074 A 
ATOM     72  C   UNL A   1      52.982  32.746  25.143  1.00  0.00     0.031 C 
ATOM     73  C   UNL A   1      50.986  34.173  25.502  1.00  0.00     0.031 A 
BRANCH  60  74
ATOM     74  C   UNL A   1      44.925  33.967  26.719  1.00  0.00    -0.014 A 
ATOM     75  C   UNL A   1      44.475  34.303  28.007  1.00  0.00     0.009 A 
ATOM     76  C   UNL A   1      44.154  34.351  25.611  1.00  0.00     0.009 A 
ATOM     77  C   UNL A   1      43.265  34.977  28.180  1.00  0.00     0.001 A 
ATOM     78  C   UNL A   1      42.961  35.053  25.786  1.00  0.00     0.001 A 
ATOM     79  C   UNL A   1      42.512  35.357  27.071  1.00  0.00     0.000 A 
ENDBRANCH  60  74
BRANCH  61  80
ATOM     80  C   UNL A   1      53.200  28.540  25.221  1.00  0.00    -0.014 A 
ATOM     81  C   UNL A   1      53.541  28.098  23.934  1.00  0.00     0.009 A 
ATOM     82  C   UNL A   1      54.034  28.195  26.297  1.00  0.00     0.009 A 
ATOM     83  C   UNL A   1      54.672  27.303  23.734  1.00  0.00     0.001 A 
ATOM     84  C   UNL A   1      55.183  27.428  26.089  1.00  0.00     0.001 A 
ATOM     85  C   UNL A   1      55.494  26.972  24.810  1.00  0.00     0.000 A 
ENDBRANCH  61  80
BRANCH  73  86
ATOM     86  C   UNL A   1      51.878  35.373  25.321  1.00  0.00    -0.014 A 
ATOM     87  C   UNL A   1      52.093  35.943  24.056  1.00  0.00     0.009 A 
ATOM     88  C   UNL A   1      52.504  35.947  26.438  1.00  0.00     0.009 A 
ATOM     89  C   UNL A   1      52.961  37.026  23.907  1.00  0.00     0.001 A 
ATOM     90  C   UNL A   1      53.340  37.055  26.292  1.00  0.00     0.001 A 
ATOM     91  C   UNL A   1      53.581  37.582  25.024  1.00  0.00     0.000 A 
ENDBRANCH  73  86
ENDBRANCH  47  48
ENDBRANCH  40  42
ENDBRANCH  39  40
ENDBRANCH  38  39
ENDBRANCH  37  38
ENDBRANCH  36  37
ENDBRANCH  35  36
ENDBRANCH  34  35
ENDBRANCH   1  34
TORSDOF 24
ENDMDL
