MODEL 1
REMARK VINA RESULT:      -9.5      0.000      0.000
REMARK SMILES O=C(CC1(NC(=O)c2ccncc2Cl)CCCCC1)OCCOCCOCCOCCOC(=O)c1ccc(-c2c3nc(c(-c4ccccc4)c4ccc([nH]4)c(-c4ccccc4)c4nc(c(-c5ccccc5)c5ccc2[nH]5)C=C4)C=C3)cc1
REMARK SMILES IDX 25 1 24 2 23 3 22 4 21 5 20 6 2 7 1 8 3 9 4 10 15 11 19 12
REMARK SMILES IDX 16 13 18 14 17 15 5 16 6 17 7 19 8 20 9 21 13 22 10 23 12 24
REMARK SMILES IDX 14 25 11 26 26 27 27 28 28 29 29 30 30 31 31 32 32 33 33 34
REMARK SMILES IDX 34 35 35 36 36 37 82 38 37 39 81 40 38 41 39 42 40 43 75 44
REMARK SMILES IDX 41 45 80 46 74 47 76 48 42 49 79 50 73 51 72 52 43 54 65 55
REMARK SMILES IDX 50 56 64 57 51 58 54 59 63 60 77 61 52 62 53 63 62 65 78 66
REMARK SMILES IDX 55 67 44 68 45 69 49 70 46 71 48 72 47 73 66 74 67 75 71 76
REMARK SMILES IDX 68 77 70 78 69 79 56 80 57 81 61 82 58 83 60 84 59 85
REMARK H PARENT 5 18 76 53 54 64
REMARK Flexibility Score: inf
ROOT
ATOM      1  C   UNL A   1      38.898  27.642  29.872  1.00  0.00     0.188 C 
ENDROOT
BRANCH   1   2
ATOM      2  C   UNL A   1      40.646  28.215  29.578  1.00  0.00     0.188 C 
BRANCH   2   3
ATOM      3  O   UNL A   1      41.285  28.654  28.157  1.00  0.00    -0.376 OA
BRANCH   3   4
ATOM      4  C   UNL A   1      42.620  29.535  27.691  1.00  0.00     0.202 C 
BRANCH   4   5
ATOM      5  C   UNL A   1      44.008  29.224  26.608  1.00  0.00     0.261 C 
BRANCH   5   6
ATOM      6  O   UNL A   1      44.594  27.904  25.803  1.00  0.00    -0.463 OA
BRANCH   6   7
ATOM      7  C   UNL A   1      44.997  26.695  25.309  1.00  0.00     0.308 C 
ATOM      8  O   UNL A   1      46.016  26.696  24.602  1.00  0.00    -0.252 OA
BRANCH   7   9
ATOM      9  C   UNL A   1      44.278  25.258  25.449  1.00  0.00     0.151 C 
BRANCH   9  10
ATOM     10  C   UNL A   1      44.137  24.669  26.829  1.00  0.00     0.051 C 
ATOM     11  C   UNL A   1      45.184  23.760  27.525  1.00  0.00     0.029 C 
ATOM     12  C   UNL A   1      43.884  25.844  27.815  1.00  0.00     0.029 C 
ATOM     13  C   UNL A   1      44.608  23.214  28.877  1.00  0.00     0.002 C 
ATOM     14  C   UNL A   1      43.368  25.439  29.194  1.00  0.00     0.002 C 
ATOM     15  C   UNL A   1      44.167  24.316  29.844  1.00  0.00     0.000 C 
BRANCH  10  16
ATOM     16  N   UNL A   1      43.027  23.825  26.673  1.00  0.00    -0.346 N 
ATOM     17  C   UNL A   1      42.720  22.564  26.309  1.00  0.00     0.253 C 
ATOM     18  H   UNL A   1      42.205  24.314  26.905  1.00  0.00     0.164 HD
ATOM     19  O   UNL A   1      41.564  22.614  26.784  1.00  0.00    -0.269 OA
BRANCH  17  20
ATOM     20  C   UNL A   1      43.576  21.301  25.258  1.00  0.00     0.061 A 
ATOM     21  C   UNL A   1      45.046  22.050  24.557  1.00  0.00     0.035 A 
ATOM     22  C   UNL A   1      43.657  19.412  25.565  1.00  0.00     0.072 A 
ATOM     23  C   UNL A   1      46.513  21.096  24.378  1.00  0.00     0.112 A 
ATOM     24  C   UNL A   1      45.256  18.600  25.357  1.00  0.00     0.132 A 
ATOM     25  Cl  UNL A   1      42.664  18.100  26.340  1.00  0.00    -0.082 Cl
ATOM     26  N   UNL A   1      46.644  19.440  24.789  1.00  0.00    -0.263 NA
ENDBRANCH  17  20
ENDBRANCH  10  16
ENDBRANCH   9  10
ENDBRANCH   7   9
ENDBRANCH   6   7
ENDBRANCH   5   6
ENDBRANCH   4   5
ENDBRANCH   3   4
ENDBRANCH   2   3
ENDBRANCH   1   2
BRANCH   1  27
ATOM     27  O   UNL A   1      37.371  28.942  29.782  1.00  0.00    -0.377 OA
BRANCH  27  28
ATOM     28  C   UNL A   1      36.634  30.125  29.154  1.00  0.00     0.188 C 
BRANCH  28  29
ATOM     29  C   UNL A   1      37.024  31.645  29.026  1.00  0.00     0.188 C 
BRANCH  29  30
ATOM     30  O   UNL A   1      36.924  32.493  30.172  1.00  0.00    -0.376 OA
BRANCH  30  31
ATOM     31  C   UNL A   1      35.694  33.198  30.346  1.00  0.00     0.202 C 
BRANCH  31  32
ATOM     32  C   UNL A   1      35.478  33.575  31.810  1.00  0.00     0.261 C 
BRANCH  32  33
ATOM     33  O   UNL A   1      35.609  32.386  32.593  1.00  0.00    -0.460 OA
BRANCH  33  34
ATOM     34  C   UNL A   1      36.292  32.550  33.750  1.00  0.00     0.338 C 
ATOM     35  O   UNL A   1      35.948  33.184  34.732  1.00  0.00    -0.246 OA
BRANCH  34  36
ATOM     36  C   UNL A   1      37.501  31.702  33.702  1.00  0.00     0.060 A 
ATOM     37  C   UNL A   1      38.618  32.124  34.434  1.00  0.00     0.016 A 
ATOM     38  C   UNL A   1      37.541  30.513  32.960  1.00  0.00     0.016 A 
ATOM     39  C   UNL A   1      39.813  31.420  34.336  1.00  0.00     0.010 A 
ATOM     40  C   UNL A   1      38.735  29.807  32.860  1.00  0.00     0.010 A 
ATOM     41  C   UNL A   1      39.886  30.311  33.484  1.00  0.00    -0.014 A 
BRANCH  41  42
ATOM     42  C   UNL A   1      41.201  29.927  32.936  1.00  0.00     0.031 A 
ATOM     43  C   UNL A   1      41.800  30.852  31.910  1.00  0.00     0.074 A 
ATOM     44  C   UNL A   1      41.830  28.810  33.327  1.00  0.00     0.049 A 
ATOM     45  N   UNL A   1      42.930  30.757  31.264  1.00  0.00    -0.248 NA
ATOM     46  C   UNL A   1      41.011  32.052  31.568  1.00  0.00     0.031 C 
ATOM     47  C   UNL A   1      41.345  27.866  34.333  1.00  0.00     0.029 A 
ATOM     48  N   UNL A   1      43.021  28.284  32.909  1.00  0.00    -0.354 N 
ATOM     49  C   UNL A   1      42.992  31.887  30.458  1.00  0.00     0.074 A 
ATOM     50  C   UNL A   1      41.778  32.639  30.665  1.00  0.00     0.031 C 
ATOM     51  C   UNL A   1      42.234  26.862  34.446  1.00  0.00     0.029 A 
ATOM     52  C   UNL A   1      43.332  27.089  33.507  1.00  0.00     0.049 A 
ATOM     53  H   UNL A   1      43.600  28.719  32.242  1.00  0.00     0.167 HD
ATOM     54  C   UNL A   1      43.977  32.270  29.615  1.00  0.00     0.031 A 
ATOM     55  C   UNL A   1      44.381  26.274  33.297  1.00  0.00     0.031 A 
ATOM     56  C   UNL A   1      45.153  31.492  29.369  1.00  0.00     0.049 A 
ATOM     57  C   UNL A   1      45.424  26.675  32.288  1.00  0.00     0.074 A 
ATOM     58  C   UNL A   1      46.209  31.761  28.519  1.00  0.00     0.029 A 
ATOM     59  N   UNL A   1      45.415  30.271  29.972  1.00  0.00    -0.354 N 
ATOM     60  N   UNL A   1      45.488  27.761  31.554  1.00  0.00    -0.248 NA
ATOM     61  C   UNL A   1      46.539  25.741  32.084  1.00  0.00     0.031 C 
ATOM     62  C   UNL A   1      47.093  30.678  28.577  1.00  0.00     0.029 A 
ATOM     63  C   UNL A   1      46.606  29.759  29.496  1.00  0.00     0.049 A 
ATOM     64  H   UNL A   1      44.837  29.834  30.639  1.00  0.00     0.167 HD
ATOM     65  C   UNL A   1      46.660  27.652  30.816  1.00  0.00     0.074 A 
ATOM     66  C   UNL A   1      47.278  26.398  31.200  1.00  0.00     0.031 C 
ATOM     67  C   UNL A   1      47.184  28.507  29.904  1.00  0.00     0.031 A 
BRANCH  54  68
ATOM     68  C   UNL A   1      43.777  33.564  28.885  1.00  0.00    -0.014 A 
ATOM     69  C   UNL A   1      43.651  33.592  27.486  1.00  0.00     0.009 A 
ATOM     70  C   UNL A   1      43.749  34.773  29.596  1.00  0.00     0.009 A 
ATOM     71  C   UNL A   1      43.532  34.808  26.812  1.00  0.00     0.001 A 
ATOM     72  C   UNL A   1      43.609  35.986  28.920  1.00  0.00     0.001 A 
ATOM     73  C   UNL A   1      43.509  36.004  27.529  1.00  0.00     0.000 A 
ENDBRANCH  54  68
BRANCH  55  74
ATOM     74  C   UNL A   1      44.492  24.997  34.046  1.00  0.00    -0.014 A 
ATOM     75  C   UNL A   1      45.093  24.959  35.312  1.00  0.00     0.009 A 
ATOM     76  C   UNL A   1      43.999  23.803  33.493  1.00  0.00     0.009 A 
ATOM     77  C   UNL A   1      45.215  23.750  36.002  1.00  0.00     0.001 A 
ATOM     78  C   UNL A   1      44.102  22.600  34.194  1.00  0.00     0.001 A 
ATOM     79  C   UNL A   1      44.716  22.574  35.445  1.00  0.00     0.000 A 
ENDBRANCH  55  74
BRANCH  67  80
ATOM     80  C   UNL A   1      48.495  28.126  29.285  1.00  0.00    -0.014 A 
ATOM     81  C   UNL A   1      48.544  27.397  28.088  1.00  0.00     0.009 A 
ATOM     82  C   UNL A   1      49.692  28.556  29.879  1.00  0.00     0.009 A 
ATOM     83  C   UNL A   1      49.773  27.086  27.508  1.00  0.00     0.001 A 
ATOM     84  C   UNL A   1      50.917  28.262  29.284  1.00  0.00     0.001 A 
ATOM     85  C   UNL A   1      50.958  27.522  28.103  1.00  0.00     0.000 A 
ENDBRANCH  67  80
ENDBRANCH  41  42
ENDBRANCH  34  36
ENDBRANCH  33  34
ENDBRANCH  32  33
ENDBRANCH  31  32
ENDBRANCH  30  31
ENDBRANCH  29  30
ENDBRANCH  28  29
ENDBRANCH  27  28
ENDBRANCH   1  27
TORSDOF 23
ENDMDL
MODEL 2
REMARK VINA RESULT:      -9.0      4.894     12.311
REMARK SMILES O=C(CC1(NC(=O)c2ccncc2Cl)CCCCC1)OCCOCCOCCOCCOC(=O)c1ccc(-c2c3nc(c(-c4ccccc4)c4ccc([nH]4)c(-c4ccccc4)c4nc(c(-c5ccccc5)c5ccc2[nH]5)C=C4)C=C3)cc1
REMARK SMILES IDX 25 1 24 2 23 3 22 4 21 5 20 6 2 7 1 8 3 9 4 10 15 11 19 12
REMARK SMILES IDX 16 13 18 14 17 15 5 16 6 17 7 19 8 20 9 21 13 22 10 23 12 24
REMARK SMILES IDX 14 25 11 26 26 27 27 28 28 29 29 30 30 31 31 32 32 33 33 34
REMARK SMILES IDX 34 35 35 36 36 37 82 38 37 39 81 40 38 41 39 42 40 43 75 44
REMARK SMILES IDX 41 45 80 46 74 47 76 48 42 49 79 50 73 51 72 52 43 54 65 55
REMARK SMILES IDX 50 56 64 57 51 58 54 59 63 60 77 61 52 62 53 63 62 65 78 66
REMARK SMILES IDX 55 67 44 68 45 69 49 70 46 71 48 72 47 73 66 74 67 75 71 76
REMARK SMILES IDX 68 77 70 78 69 79 56 80 57 81 61 82 58 83 60 84 59 85
REMARK H PARENT 5 18 76 53 54 64
REMARK Flexibility Score: inf
ROOT
ATOM      1  C   UNL A   1      45.903  30.512  26.792  1.00  0.00     0.188 C 
ENDROOT
BRANCH   1   2
ATOM      2  C   UNL A   1      45.184  32.231  26.830  1.00  0.00     0.188 C 
BRANCH   2   3
ATOM      3  O   UNL A   1      44.545  33.030  25.577  1.00  0.00    -0.376 OA
BRANCH   3   4
ATOM      4  C   UNL A   1      43.677  34.441  25.402  1.00  0.00     0.202 C 
BRANCH   4   5
ATOM      5  C   UNL A   1      42.786  35.509  26.527  1.00  0.00     0.261 C 
BRANCH   5   6
ATOM      6  O   UNL A   1      42.695  37.142  26.769  1.00  0.00    -0.463 OA
BRANCH   6   7
ATOM      7  C   UNL A   1      42.696  38.508  26.760  1.00  0.00     0.308 C 
ATOM      8  O   UNL A   1      41.612  39.066  26.984  1.00  0.00    -0.252 OA
BRANCH   7   9
ATOM      9  C   UNL A   1      43.910  39.513  26.414  1.00  0.00     0.151 C 
BRANCH   9  10
ATOM     10  C   UNL A   1      45.275  39.190  26.965  1.00  0.00     0.051 C 
ATOM     11  C   UNL A   1      46.061  37.879  26.695  1.00  0.00     0.029 C 
ATOM     12  C   UNL A   1      46.232  40.342  26.548  1.00  0.00     0.029 C 
ATOM     13  C   UNL A   1      47.361  37.843  27.571  1.00  0.00     0.002 C 
ATOM     14  C   UNL A   1      47.563  40.386  27.295  1.00  0.00     0.002 C 
ATOM     15  C   UNL A   1      48.283  39.044  27.348  1.00  0.00     0.000 C 
BRANCH  10  16
ATOM     16  N   UNL A   1      45.029  39.144  28.345  1.00  0.00    -0.346 N 
ATOM     17  C   UNL A   1      44.341  39.796  29.303  1.00  0.00     0.253 C 
ATOM     18  H   UNL A   1      45.518  38.388  28.742  1.00  0.00     0.164 HD
ATOM     19  O   UNL A   1      44.451  38.870  30.137  1.00  0.00    -0.269 OA
BRANCH  17  20
ATOM     20  C   UNL A   1      43.696  41.527  29.450  1.00  0.00     0.061 A 
ATOM     21  C   UNL A   1      42.448  41.559  30.737  1.00  0.00     0.035 A 
ATOM     22  C   UNL A   1      44.681  43.149  29.192  1.00  0.00     0.072 A 
ATOM     23  C   UNL A   1      42.326  42.952  31.802  1.00  0.00     0.112 A 
ATOM     24  C   UNL A   1      44.449  44.469  30.401  1.00  0.00     0.132 A 
ATOM     25  Cl  UNL A   1      46.106  43.757  28.237  1.00  0.00    -0.082 Cl
ATOM     26  N   UNL A   1      43.304  44.352  31.678  1.00  0.00    -0.263 NA
ENDBRANCH  17  20
ENDBRANCH  10  16
ENDBRANCH   9  10
ENDBRANCH   7   9
ENDBRANCH   6   7
ENDBRANCH   5   6
ENDBRANCH   4   5
ENDBRANCH   3   4
ENDBRANCH   2   3
ENDBRANCH   1   2
BRANCH   1  27
ATOM     27  O   UNL A   1      45.003  29.054  25.746  1.00  0.00    -0.377 OA
BRANCH  27  28
ATOM     28  C   UNL A   1      44.874  27.606  25.276  1.00  0.00     0.188 C 
BRANCH  28  29
ATOM     29  C   UNL A   1      45.949  26.468  25.103  1.00  0.00     0.188 C 
BRANCH  29  30
ATOM     30  O   UNL A   1      45.526  25.158  24.715  1.00  0.00    -0.376 OA
BRANCH  30  31
ATOM     31  C   UNL A   1      45.292  24.221  25.767  1.00  0.00     0.202 C 
BRANCH  31  32
ATOM     32  C   UNL A   1      44.433  23.055  25.283  1.00  0.00     0.261 C 
BRANCH  32  33
ATOM     33  O   UNL A   1      43.136  23.567  24.965  1.00  0.00    -0.460 OA
BRANCH  33  34
ATOM     34  C   UNL A   1      42.172  23.240  25.856  1.00  0.00     0.338 C 
ATOM     35  O   UNL A   1      41.828  22.124  26.203  1.00  0.00    -0.246 OA
BRANCH  34  36
ATOM     36  C   UNL A   1      41.672  24.484  26.478  1.00  0.00     0.060 A 
ATOM     37  C   UNL A   1      41.730  25.658  25.718  1.00  0.00     0.016 A 
ATOM     38  C   UNL A   1      41.149  24.500  27.779  1.00  0.00     0.016 A 
ATOM     39  C   UNL A   1      41.372  26.872  26.294  1.00  0.00     0.010 A 
ATOM     40  C   UNL A   1      40.790  25.713  28.358  1.00  0.00     0.010 A 
ATOM     41  C   UNL A   1      40.982  26.901  27.639  1.00  0.00    -0.014 A 
BRANCH  41  42
ATOM     42  C   UNL A   1      41.157  28.155  28.397  1.00  0.00     0.031 A 
ATOM     43  C   UNL A   1      42.518  28.394  28.997  1.00  0.00     0.074 A 
ATOM     44  C   UNL A   1      40.158  29.035  28.548  1.00  0.00     0.049 A 
ATOM     45  N   UNL A   1      42.946  29.400  29.712  1.00  0.00    -0.248 NA
ATOM     46  C   UNL A   1      43.536  27.353  28.755  1.00  0.00     0.031 C 
ATOM     47  C   UNL A   1      38.816  28.906  27.984  1.00  0.00     0.029 A 
ATOM     48  N   UNL A   1      40.128  30.216  29.238  1.00  0.00    -0.354 N 
ATOM     49  C   UNL A   1      44.278  29.118  29.987  1.00  0.00     0.074 A 
ATOM     50  C   UNL A   1      44.585  27.838  29.396  1.00  0.00     0.031 C 
ATOM     51  C   UNL A   1      38.085  29.971  28.362  1.00  0.00     0.029 A 
ATOM     52  C   UNL A   1      38.904  30.836  29.208  1.00  0.00     0.049 A 
ATOM     53  H   UNL A   1      40.908  30.586  29.710  1.00  0.00     0.167 HD
ATOM     54  C   UNL A   1      45.175  29.861  30.672  1.00  0.00     0.031 A 
ATOM     55  C   UNL A   1      38.503  31.967  29.815  1.00  0.00     0.031 A 
ATOM     56  C   UNL A   1      44.850  31.103  31.307  1.00  0.00     0.049 A 
ATOM     57  C   UNL A   1      39.493  32.736  30.649  1.00  0.00     0.074 A 
ATOM     58  C   UNL A   1      45.664  31.935  32.052  1.00  0.00     0.029 A 
ATOM     59  N   UNL A   1      43.590  31.681  31.280  1.00  0.00    -0.354 N 
ATOM     60  N   UNL A   1      40.759  32.476  30.877  1.00  0.00    -0.248 NA
ATOM     61  C   UNL A   1      38.999  33.954  31.305  1.00  0.00     0.031 C 
ATOM     62  C   UNL A   1      44.882  33.000  32.512  1.00  0.00     0.029 A 
ATOM     63  C   UNL A   1      43.595  32.850  32.015  1.00  0.00     0.049 A 
ATOM     64  H   UNL A   1      42.808  31.313  30.808  1.00  0.00     0.167 HD
ATOM     65  C   UNL A   1      41.220  33.510  31.684  1.00  0.00     0.074 A 
ATOM     66  C   UNL A   1      40.098  34.403  31.897  1.00  0.00     0.031 C 
ATOM     67  C   UNL A   1      42.456  33.708  32.203  1.00  0.00     0.031 A 
BRANCH  54  68
ATOM     68  C   UNL A   1      46.563  29.308  30.790  1.00  0.00    -0.014 A 
ATOM     69  C   UNL A   1      46.901  28.417  31.823  1.00  0.00     0.009 A 
ATOM     70  C   UNL A   1      47.556  29.708  29.883  1.00  0.00     0.009 A 
ATOM     71  C   UNL A   1      48.213  27.961  31.961  1.00  0.00     0.001 A 
ATOM     72  C   UNL A   1      48.862  29.233  30.013  1.00  0.00     0.001 A 
ATOM     73  C   UNL A   1      49.191  28.368  31.055  1.00  0.00     0.000 A 
ENDBRANCH  54  68
BRANCH  55  74
ATOM     74  C   UNL A   1      37.102  32.434  29.667  1.00  0.00    -0.014 A 
ATOM     75  C   UNL A   1      36.114  32.033  30.578  1.00  0.00     0.009 A 
ATOM     76  C   UNL A   1      36.744  33.284  28.608  1.00  0.00     0.009 A 
ATOM     77  C   UNL A   1      34.792  32.458  30.421  1.00  0.00     0.001 A 
ATOM     78  C   UNL A   1      35.426  33.725  28.466  1.00  0.00     0.001 A 
ATOM     79  C   UNL A   1      34.451  33.306  29.369  1.00  0.00     0.000 A 
ENDBRANCH  55  74
BRANCH  67  80
ATOM     80  C   UNL A   1      42.660  34.945  33.024  1.00  0.00    -0.014 A 
ATOM     81  C   UNL A   1      43.196  36.109  32.456  1.00  0.00     0.009 A 
ATOM     82  C   UNL A   1      42.254  34.959  34.368  1.00  0.00     0.009 A 
ATOM     83  C   UNL A   1      43.343  37.262  33.227  1.00  0.00     0.001 A 
ATOM     84  C   UNL A   1      42.382  36.120  35.129  1.00  0.00     0.001 A 
ATOM     85  C   UNL A   1      42.932  37.268  34.560  1.00  0.00     0.000 A 
ENDBRANCH  67  80
ENDBRANCH  41  42
ENDBRANCH  34  36
ENDBRANCH  33  34
ENDBRANCH  32  33
ENDBRANCH  31  32
ENDBRANCH  30  31
ENDBRANCH  29  30
ENDBRANCH  28  29
ENDBRANCH  27  28
ENDBRANCH   1  27
TORSDOF 23
ENDMDL
MODEL 3
REMARK VINA RESULT:      -9.0      4.492     11.347
REMARK SMILES O=C(CC1(NC(=O)c2ccncc2Cl)CCCCC1)OCCOCCOCCOCCOC(=O)c1ccc(-c2c3nc(c(-c4ccccc4)c4ccc([nH]4)c(-c4ccccc4)c4nc(c(-c5ccccc5)c5ccc2[nH]5)C=C4)C=C3)cc1
REMARK SMILES IDX 25 1 24 2 23 3 22 4 21 5 20 6 2 7 1 8 3 9 4 10 15 11 19 12
REMARK SMILES IDX 16 13 18 14 17 15 5 16 6 17 7 19 8 20 9 21 13 22 10 23 12 24
REMARK SMILES IDX 14 25 11 26 26 27 27 28 28 29 29 30 30 31 31 32 32 33 33 34
REMARK SMILES IDX 34 35 35 36 36 37 82 38 37 39 81 40 38 41 39 42 40 43 75 44
REMARK SMILES IDX 41 45 80 46 74 47 76 48 42 49 79 50 73 51 72 52 43 54 65 55
REMARK SMILES IDX 50 56 64 57 51 58 54 59 63 60 77 61 52 62 53 63 62 65 78 66
REMARK SMILES IDX 55 67 44 68 45 69 49 70 46 71 48 72 47 73 66 74 67 75 71 76
REMARK SMILES IDX 68 77 70 78 69 79 56 80 57 81 61 82 58 83 60 84 59 85
REMARK H PARENT 5 18 76 53 54 64
REMARK Flexibility Score: inf
ROOT
ATOM      1  C   UNL A   1      46.006  30.118  26.580  1.00  0.00     0.188 C 
ENDROOT
BRANCH   1   2
ATOM      2  C   UNL A   1      45.369  31.868  26.534  1.00  0.00     0.188 C 
BRANCH   2   3
ATOM      3  O   UNL A   1      44.941  32.698  25.213  1.00  0.00    -0.376 OA
BRANCH   3   4
ATOM      4  C   UNL A   1      44.174  34.151  24.934  1.00  0.00     0.202 C 
BRANCH   4   5
ATOM      5  C   UNL A   1      42.776  34.988  25.670  1.00  0.00     0.261 C 
BRANCH   5   6
ATOM      6  O   UNL A   1      42.549  36.430  26.448  1.00  0.00    -0.463 OA
BRANCH   6   7
ATOM      7  C   UNL A   1      42.574  37.598  27.156  1.00  0.00     0.308 C 
ATOM      8  O   UNL A   1      42.106  38.599  26.593  1.00  0.00    -0.252 OA
BRANCH   7   9
ATOM      9  C   UNL A   1      43.208  37.881  28.613  1.00  0.00     0.151 C 
BRANCH   9  10
ATOM     10  C   UNL A   1      43.897  39.202  28.840  1.00  0.00     0.051 C 
ATOM     11  C   UNL A   1      43.192  40.584  28.878  1.00  0.00     0.029 C 
ATOM     12  C   UNL A   1      44.681  39.097  30.178  1.00  0.00     0.029 C 
ATOM     13  C   UNL A   1      44.258  41.729  28.969  1.00  0.00     0.002 C 
ATOM     14  C   UNL A   1      45.720  40.190  30.412  1.00  0.00     0.002 C 
ATOM     15  C   UNL A   1      45.193  41.600  30.175  1.00  0.00     0.000 C 
BRANCH  10  16
ATOM     16  N   UNL A   1      44.729  39.293  27.714  1.00  0.00    -0.346 N 
ATOM     17  C   UNL A   1      45.617  38.561  27.012  1.00  0.00     0.253 C 
ATOM     18  H   UNL A   1      44.632  40.182  27.302  1.00  0.00     0.164 HD
ATOM     19  O   UNL A   1      45.590  39.318  26.017  1.00  0.00    -0.269 OA
BRANCH  17  20
ATOM     20  C   UNL A   1      46.695  37.117  27.443  1.00  0.00     0.061 A 
ATOM     21  C   UNL A   1      46.990  36.167  25.951  1.00  0.00     0.035 A 
ATOM     22  C   UNL A   1      48.085  37.069  28.760  1.00  0.00     0.072 A 
ATOM     23  C   UNL A   1      48.563  35.428  25.681  1.00  0.00     0.112 A 
ATOM     24  C   UNL A   1      49.646  36.289  28.299  1.00  0.00     0.132 A 
ATOM     25  Cl  UNL A   1      48.511  37.863  30.341  1.00  0.00    -0.082 Cl
ATOM     26  N   UNL A   1      49.868  35.503  26.787  1.00  0.00    -0.263 NA
ENDBRANCH  17  20
ENDBRANCH  10  16
ENDBRANCH   9  10
ENDBRANCH   7   9
ENDBRANCH   6   7
ENDBRANCH   5   6
ENDBRANCH   4   5
ENDBRANCH   3   4
ENDBRANCH   2   3
ENDBRANCH   1   2
BRANCH   1  27
ATOM     27  O   UNL A   1      45.002  28.644  25.661  1.00  0.00    -0.377 OA
BRANCH  27  28
ATOM     28  C   UNL A   1      44.797  27.179  25.275  1.00  0.00     0.188 C 
BRANCH  28  29
ATOM     29  C   UNL A   1      45.822  25.998  25.092  1.00  0.00     0.188 C 
BRANCH  29  30
ATOM     30  O   UNL A   1      45.338  24.697  24.749  1.00  0.00    -0.376 OA
BRANCH  30  31
ATOM     31  C   UNL A   1      45.133  23.783  25.828  1.00  0.00     0.202 C 
BRANCH  31  32
ATOM     32  C   UNL A   1      44.190  22.654  25.419  1.00  0.00     0.261 C 
BRANCH  32  33
ATOM     33  O   UNL A   1      42.930  23.236  25.074  1.00  0.00    -0.460 OA
BRANCH  33  34
ATOM     34  C   UNL A   1      41.933  22.967  25.948  1.00  0.00     0.338 C 
ATOM     35  O   UNL A   1      41.533  21.873  26.306  1.00  0.00    -0.246 OA
BRANCH  34  36
ATOM     36  C   UNL A   1      41.471  24.242  26.536  1.00  0.00     0.060 A 
ATOM     37  C   UNL A   1      41.591  25.398  25.754  1.00  0.00     0.016 A 
ATOM     38  C   UNL A   1      40.926  24.306  27.826  1.00  0.00     0.016 A 
ATOM     39  C   UNL A   1      41.272  26.637  26.300  1.00  0.00     0.010 A 
ATOM     40  C   UNL A   1      40.606  25.544  28.375  1.00  0.00     0.010 A 
ATOM     41  C   UNL A   1      40.859  26.709  27.637  1.00  0.00    -0.014 A 
BRANCH  41  42
ATOM     42  C   UNL A   1      41.071  27.969  28.373  1.00  0.00     0.031 A 
ATOM     43  C   UNL A   1      42.445  28.188  28.952  1.00  0.00     0.074 A 
ATOM     44  C   UNL A   1      40.093  28.872  28.526  1.00  0.00     0.049 A 
ATOM     45  N   UNL A   1      42.904  29.195  29.645  1.00  0.00    -0.248 NA
ATOM     46  C   UNL A   1      43.437  27.122  28.710  1.00  0.00     0.031 C 
ATOM     47  C   UNL A   1      38.740  28.763  27.982  1.00  0.00     0.029 A 
ATOM     48  N   UNL A   1      40.097  30.063  29.198  1.00  0.00    -0.354 N 
ATOM     49  C   UNL A   1      44.233  28.889  29.906  1.00  0.00     0.074 A 
ATOM     50  C   UNL A   1      44.506  27.594  29.329  1.00  0.00     0.031 C 
ATOM     51  C   UNL A   1      38.037  29.848  28.354  1.00  0.00     0.029 A 
ATOM     52  C   UNL A   1      38.886  30.708  29.176  1.00  0.00     0.049 A 
ATOM     53  H   UNL A   1      40.891  30.423  29.654  1.00  0.00     0.167 HD
ATOM     54  C   UNL A   1      45.155  29.623  30.568  1.00  0.00     0.031 A 
ATOM     55  C   UNL A   1      38.518  31.857  29.772  1.00  0.00     0.031 A 
ATOM     56  C   UNL A   1      44.865  30.881  31.189  1.00  0.00     0.049 A 
ATOM     57  C   UNL A   1      39.535  32.616  30.580  1.00  0.00     0.074 A 
ATOM     58  C   UNL A   1      45.707  31.705  31.910  1.00  0.00     0.029 A 
ATOM     59  N   UNL A   1      43.618  31.484  31.170  1.00  0.00    -0.354 N 
ATOM     60  N   UNL A   1      40.798  32.333  30.795  1.00  0.00    -0.248 NA
ATOM     61  C   UNL A   1      39.076  33.854  31.225  1.00  0.00     0.031 C 
ATOM     62  C   UNL A   1      44.954  32.793  32.365  1.00  0.00     0.029 A 
ATOM     63  C   UNL A   1      43.657  32.663  31.888  1.00  0.00     0.049 A 
ATOM     64  H   UNL A   1      42.822  31.126  30.714  1.00  0.00     0.167 HD
ATOM     65  C   UNL A   1      41.292  33.368  31.580  1.00  0.00     0.074 A 
ATOM     66  C   UNL A   1      40.192  34.288  31.795  1.00  0.00     0.031 C 
ATOM     67  C   UNL A   1      42.539  33.548  32.079  1.00  0.00     0.031 A 
BRANCH  54  68
ATOM     68  C   UNL A   1      46.533  29.043  30.674  1.00  0.00    -0.014 A 
ATOM     69  C   UNL A   1      47.520  29.346  29.721  1.00  0.00     0.009 A 
ATOM     70  C   UNL A   1      46.841  28.156  31.716  1.00  0.00     0.009 A 
ATOM     71  C   UNL A   1      48.779  28.748  29.795  1.00  0.00     0.001 A 
ATOM     72  C   UNL A   1      48.108  27.575  31.797  1.00  0.00     0.001 A 
ATOM     73  C   UNL A   1      49.073  27.864  30.833  1.00  0.00     0.000 A 
ENDBRANCH  54  68
BRANCH  55  74
ATOM     74  C   UNL A   1      37.125  32.351  29.636  1.00  0.00    -0.014 A 
ATOM     75  C   UNL A   1      36.763  33.190  28.572  1.00  0.00     0.009 A 
ATOM     76  C   UNL A   1      36.146  31.987  30.576  1.00  0.00     0.009 A 
ATOM     77  C   UNL A   1      35.455  33.669  28.462  1.00  0.00     0.001 A 
ATOM     78  C   UNL A   1      34.835  32.451  30.451  1.00  0.00     0.001 A 
ATOM     79  C   UNL A   1      34.493  33.297  29.398  1.00  0.00     0.000 A 
ENDBRANCH  55  74
BRANCH  67  80
ATOM     80  C   UNL A   1      42.781  34.792  32.879  1.00  0.00    -0.014 A 
ATOM     81  C   UNL A   1      43.274  35.956  32.273  1.00  0.00     0.009 A 
ATOM     82  C   UNL A   1      42.451  34.813  34.244  1.00  0.00     0.009 A 
ATOM     83  C   UNL A   1      43.457  37.115  33.027  1.00  0.00     0.001 A 
ATOM     84  C   UNL A   1      42.613  35.980  34.988  1.00  0.00     0.001 A 
ATOM     85  C   UNL A   1      43.122  37.128  34.381  1.00  0.00     0.000 A 
ENDBRANCH  67  80
ENDBRANCH  41  42
ENDBRANCH  34  36
ENDBRANCH  33  34
ENDBRANCH  32  33
ENDBRANCH  31  32
ENDBRANCH  30  31
ENDBRANCH  29  30
ENDBRANCH  28  29
ENDBRANCH  27  28
ENDBRANCH   1  27
TORSDOF 23
ENDMDL
