MODEL 1
REMARK VINA RESULT:     -10.0      0.000      0.000
REMARK SMILES C[C@@H]1CCCN(C(=O)c2ccc(=O)n([C@H](C)C(=O)OCCOCCOCCOCCOC(=O)c3ccc(-c4c5nc(c(-c6ccccc6)c6ccc([nH]6)c(-c6ccccc6)c6nc(c(-c7ccccc7)c7ccc4[nH]7)C=C6)C=C5)cc3)n2)C1
REMARK SMILES IDX 24 1 23 2 22 3 21 4 20 5 19 6 17 7 18 8 15 9 16 10 14 11
REMARK SMILES IDX 9 12 10 13 82 14 11 15 12 16 13 17 7 18 8 19 6 20 1 21 2 22
REMARK SMILES IDX 3 23 83 24 4 25 5 26 25 27 26 28 27 29 28 30 29 31 30 32
REMARK SMILES IDX 31 33 32 34 33 35 34 36 35 37 81 38 36 39 80 40 37 41 38 42
REMARK SMILES IDX 39 43 74 44 40 45 79 46 73 47 75 48 41 49 78 50 72 51 71 52
REMARK SMILES IDX 42 54 64 55 49 56 63 57 50 58 53 59 62 60 76 61 51 62 52 63
REMARK SMILES IDX 61 65 77 66 54 67 43 68 44 69 48 70 45 71 47 72 46 73 65 74
REMARK SMILES IDX 66 75 70 76 67 77 69 78 68 79 55 80 56 81 60 82 57 83 59 84
REMARK SMILES IDX 58 85
REMARK H PARENT 75 53 53 64
REMARK Flexibility Score: inf
ROOT
ATOM      1  C   UNL A   1      40.574  21.997  26.891  1.00  0.00     0.188 C 
ENDROOT
BRANCH   1   2
ATOM      2  C   UNL A   1      39.131  22.295  26.455  1.00  0.00     0.188 C 
BRANCH   2   3
ATOM      3  O   UNL A   1      38.388  21.365  25.679  1.00  0.00    -0.376 OA
BRANCH   3   4
ATOM      4  C   UNL A   1      37.024  21.598  25.362  1.00  0.00     0.202 C 
BRANCH   4   5
ATOM      5  C   UNL A   1      36.277  22.811  25.940  1.00  0.00     0.261 C 
BRANCH   5   6
ATOM      6  O   UNL A   1      34.897  22.945  25.556  1.00  0.00    -0.462 OA
BRANCH   6   7
ATOM      7  C   UNL A   1      33.986  22.734  26.541  1.00  0.00     0.330 C 
ATOM      8  O   UNL A   1      34.306  22.419  27.685  1.00  0.00    -0.250 OA
BRANCH   7   9
ATOM      9  C   UNL A   1      32.517  22.853  26.087  1.00  0.00     0.218 C 
ATOM     10  C   UNL A   1      31.590  23.864  26.769  1.00  0.00     0.046 C 
BRANCH   9  11
ATOM     11  N   UNL A   1      32.609  23.105  24.650  1.00  0.00    -0.215 N 
ATOM     12  C   UNL A   1      32.908  24.676  23.021  1.00  0.00     0.149 A 
ATOM     13  C   UNL A   1      32.980  23.656  21.960  1.00  0.00     0.042 A 
ATOM     14  N   UNL A   1      32.760  24.421  24.279  1.00  0.00    -0.164 NA
ATOM     15  C   UNL A   1      32.804  22.389  22.341  1.00  0.00     0.076 A 
ATOM     16  C   UNL A   1      32.548  22.044  23.756  1.00  0.00     0.267 A 
ATOM     17  O   UNL A   1      32.303  20.880  24.055  1.00  0.00    -0.268 OA
BRANCH  12  18
ATOM     18  C   UNL A   1      32.956  26.128  22.589  1.00  0.00     0.274 C 
ATOM     19  O   UNL A   1      33.839  26.429  21.791  1.00  0.00    -0.267 OA
BRANCH  18  20
ATOM     20  N   UNL A   1      32.003  27.013  23.089  1.00  0.00    -0.337 N 
ATOM     21  C   UNL A   1      32.186  29.901  25.575  1.00  0.00     0.009 C 
ATOM     22  C   UNL A   1      31.963  29.214  24.231  1.00  0.00     0.005 C 
ATOM     23  C   UNL A   1      30.521  29.407  23.746  1.00  0.00     0.007 C 
ATOM     24  C   UNL A   1      32.302  27.719  24.330  1.00  0.00     0.123 C 
ATOM     25  C   UNL A   1      30.291  28.674  22.426  1.00  0.00     0.022 C 
ATOM     26  C   UNL A   1      30.652  27.195  22.555  1.00  0.00     0.120 C 
ENDBRANCH  18  20
ENDBRANCH  12  18
ENDBRANCH   9  11
ENDBRANCH   7   9
ENDBRANCH   6   7
ENDBRANCH   5   6
ENDBRANCH   4   5
ENDBRANCH   3   4
ENDBRANCH   2   3
ENDBRANCH   1   2
BRANCH   1  27
ATOM     27  O   UNL A   1      40.767  20.751  27.525  1.00  0.00    -0.377 OA
BRANCH  27  28
ATOM     28  C   UNL A   1      41.961  20.055  27.202  1.00  0.00     0.188 C 
BRANCH  28  29
ATOM     29  C   UNL A   1      42.668  20.445  25.893  1.00  0.00     0.188 C 
BRANCH  29  30
ATOM     30  O   UNL A   1      43.788  21.303  26.093  1.00  0.00    -0.376 OA
BRANCH  30  31
ATOM     31  C   UNL A   1      44.715  21.436  25.021  1.00  0.00     0.202 C 
BRANCH  31  32
ATOM     32  C   UNL A   1      44.477  22.610  24.057  1.00  0.00     0.261 C 
BRANCH  32  33
ATOM     33  O   UNL A   1      43.907  23.807  24.616  1.00  0.00    -0.460 OA
BRANCH  33  34
ATOM     34  C   UNL A   1      44.722  24.763  25.108  1.00  0.00     0.338 C 
ATOM     35  O   UNL A   1      45.818  25.086  24.687  1.00  0.00    -0.246 OA
BRANCH  34  36
ATOM     36  C   UNL A   1      43.961  25.518  26.130  1.00  0.00     0.060 A 
ATOM     37  C   UNL A   1      42.968  24.894  26.891  1.00  0.00     0.016 A 
ATOM     38  C   UNL A   1      44.229  26.882  26.304  1.00  0.00     0.016 A 
ATOM     39  C   UNL A   1      42.273  25.629  27.855  1.00  0.00     0.010 A 
ATOM     40  C   UNL A   1      43.525  27.618  27.262  1.00  0.00     0.010 A 
ATOM     41  C   UNL A   1      42.563  26.989  28.066  1.00  0.00    -0.014 A 
BRANCH  41  42
ATOM     42  C   UNL A   1      42.024  27.676  29.265  1.00  0.00     0.031 A 
ATOM     43  C   UNL A   1      42.705  27.632  30.599  1.00  0.00     0.074 A 
ATOM     44  C   UNL A   1      40.868  28.355  29.121  1.00  0.00     0.049 A 
ATOM     45  N   UNL A   1      42.387  28.273  31.696  1.00  0.00    -0.248 NA
ATOM     46  C   UNL A   1      43.883  26.764  30.727  1.00  0.00     0.031 C 
ATOM     47  C   UNL A   1      40.105  28.444  27.876  1.00  0.00     0.029 A 
ATOM     48  N   UNL A   1      40.144  29.105  30.014  1.00  0.00    -0.354 N 
ATOM     49  C   UNL A   1      43.331  27.905  32.643  1.00  0.00     0.074 A 
ATOM     50  C   UNL A   1      44.215  26.951  32.001  1.00  0.00     0.031 C 
ATOM     51  C   UNL A   1      39.038  29.232  28.072  1.00  0.00     0.029 A 
ATOM     52  C   UNL A   1      39.026  29.680  29.461  1.00  0.00     0.049 A 
ATOM     53  H   UNL A   1      40.402  29.219  30.957  1.00  0.00     0.167 HD
ATOM     54  C   UNL A   1      43.453  28.338  33.921  1.00  0.00     0.031 A 
ATOM     55  C   UNL A   1      38.094  30.487  30.003  1.00  0.00     0.031 A 
ATOM     56  C   UNL A   1      42.556  29.272  34.556  1.00  0.00     0.049 A 
ATOM     57  C   UNL A   1      38.235  30.921  31.432  1.00  0.00     0.074 A 
ATOM     58  C   UNL A   1      42.639  29.803  35.833  1.00  0.00     0.029 A 
ATOM     59  N   UNL A   1      41.412  29.800  33.979  1.00  0.00    -0.354 N 
ATOM     60  N   UNL A   1      39.189  30.637  32.286  1.00  0.00    -0.248 NA
ATOM     61  C   UNL A   1      37.187  31.799  31.970  1.00  0.00     0.031 C 
ATOM     62  C   UNL A   1      41.510  30.595  36.053  1.00  0.00     0.029 A 
ATOM     63  C   UNL A   1      40.762  30.621  34.887  1.00  0.00     0.049 A 
ATOM     64  H   UNL A   1      41.107  29.620  33.061  1.00  0.00     0.167 HD
ATOM     65  C   UNL A   1      38.869  31.318  33.453  1.00  0.00     0.074 A 
ATOM     66  C   UNL A   1      37.642  32.044  33.192  1.00  0.00     0.031 C 
ATOM     67  C   UNL A   1      39.538  31.337  34.631  1.00  0.00     0.031 A 
BRANCH  54  68
ATOM     68  C   UNL A   1      44.607  27.830  34.742  1.00  0.00    -0.014 A 
ATOM     69  C   UNL A   1      44.396  26.843  35.718  1.00  0.00     0.009 A 
ATOM     70  C   UNL A   1      45.869  28.435  34.653  1.00  0.00     0.009 A 
ATOM     71  C   UNL A   1      45.421  26.483  36.598  1.00  0.00     0.001 A 
ATOM     72  C   UNL A   1      46.900  28.054  35.515  1.00  0.00     0.001 A 
ATOM     73  C   UNL A   1      46.673  27.086  36.493  1.00  0.00     0.000 A 
ENDBRANCH  54  68
BRANCH  55  74
ATOM     74  C   UNL A   1      36.975  30.971  29.153  1.00  0.00    -0.014 A 
ATOM     75  C   UNL A   1      36.947  32.300  28.697  1.00  0.00     0.009 A 
ATOM     76  C   UNL A   1      35.897  30.127  28.849  1.00  0.00     0.009 A 
ATOM     77  C   UNL A   1      35.850  32.781  27.979  1.00  0.00     0.001 A 
ATOM     78  C   UNL A   1      34.816  30.602  28.103  1.00  0.00     0.001 A 
ATOM     79  C   UNL A   1      34.787  31.930  27.679  1.00  0.00     0.000 A 
ENDBRANCH  55  74
BRANCH  67  80
ATOM     80  C   UNL A   1      38.976  32.173  35.749  1.00  0.00    -0.014 A 
ATOM     81  C   UNL A   1      39.387  33.508  35.898  1.00  0.00     0.009 A 
ATOM     82  C   UNL A   1      38.128  31.614  36.718  1.00  0.00     0.009 A 
ATOM     83  C   UNL A   1      38.980  34.258  37.001  1.00  0.00     0.001 A 
ATOM     84  C   UNL A   1      37.696  32.377  37.805  1.00  0.00     0.001 A 
ATOM     85  C   UNL A   1      38.132  33.695  37.953  1.00  0.00     0.000 A 
ENDBRANCH  67  80
ENDBRANCH  41  42
ENDBRANCH  34  36
ENDBRANCH  33  34
ENDBRANCH  32  33
ENDBRANCH  31  32
ENDBRANCH  30  31
ENDBRANCH  29  30
ENDBRANCH  28  29
ENDBRANCH  27  28
ENDBRANCH   1  27
TORSDOF 23
ENDMDL
MODEL 2
REMARK VINA RESULT:      -9.5      2.892      8.660
REMARK SMILES C[C@@H]1CCCN(C(=O)c2ccc(=O)n([C@H](C)C(=O)OCCOCCOCCOCCOC(=O)c3ccc(-c4c5nc(c(-c6ccccc6)c6ccc([nH]6)c(-c6ccccc6)c6nc(c(-c7ccccc7)c7ccc4[nH]7)C=C6)C=C5)cc3)n2)C1
REMARK SMILES IDX 24 1 23 2 22 3 21 4 20 5 19 6 17 7 18 8 15 9 16 10 14 11
REMARK SMILES IDX 9 12 10 13 82 14 11 15 12 16 13 17 7 18 8 19 6 20 1 21 2 22
REMARK SMILES IDX 3 23 83 24 4 25 5 26 25 27 26 28 27 29 28 30 29 31 30 32
REMARK SMILES IDX 31 33 32 34 33 35 34 36 35 37 81 38 36 39 80 40 37 41 38 42
REMARK SMILES IDX 39 43 74 44 40 45 79 46 73 47 75 48 41 49 78 50 72 51 71 52
REMARK SMILES IDX 42 54 64 55 49 56 63 57 50 58 53 59 62 60 76 61 51 62 52 63
REMARK SMILES IDX 61 65 77 66 54 67 43 68 44 69 48 70 45 71 47 72 46 73 65 74
REMARK SMILES IDX 66 75 70 76 67 77 69 78 68 79 55 80 56 81 60 82 57 83 59 84
REMARK SMILES IDX 58 85
REMARK H PARENT 75 53 53 64
REMARK Flexibility Score: inf
ROOT
ATOM      1  C   UNL A   1      31.717  27.954  27.210  1.00  0.00     0.188 C 
ENDROOT
BRANCH   1   2
ATOM      2  C   UNL A   1      31.082  26.987  26.198  1.00  0.00     0.188 C 
BRANCH   2   3
ATOM      3  O   UNL A   1      30.562  25.729  26.607  1.00  0.00    -0.376 OA
BRANCH   3   4
ATOM      4  C   UNL A   1      31.140  24.514  26.152  1.00  0.00     0.202 C 
BRANCH   4   5
ATOM      5  C   UNL A   1      31.719  23.496  27.148  1.00  0.00     0.261 C 
BRANCH   5   6
ATOM      6  O   UNL A   1      31.941  22.169  26.637  1.00  0.00    -0.462 OA
BRANCH   6   7
ATOM      7  C   UNL A   1      33.200  21.681  26.787  1.00  0.00     0.330 C 
ATOM      8  O   UNL A   1      33.946  22.036  27.696  1.00  0.00    -0.250 OA
BRANCH   7   9
ATOM      9  C   UNL A   1      33.639  20.700  25.681  1.00  0.00     0.218 C 
ATOM     10  C   UNL A   1      32.587  19.860  24.948  1.00  0.00     0.046 C 
BRANCH   9  11
ATOM     11  N   UNL A   1      34.394  21.534  24.746  1.00  0.00    -0.215 N 
ATOM     12  C   UNL A   1      34.283  23.147  23.136  1.00  0.00     0.149 A 
ATOM     13  C   UNL A   1      35.749  23.281  23.078  1.00  0.00     0.042 A 
ATOM     14  N   UNL A   1      33.647  22.350  23.930  1.00  0.00    -0.164 NA
ATOM     15  C   UNL A   1      36.452  22.460  23.859  1.00  0.00     0.076 A 
ATOM     16  C   UNL A   1      35.781  21.470  24.729  1.00  0.00     0.267 A 
ATOM     17  O   UNL A   1      36.461  20.672  25.365  1.00  0.00    -0.268 OA
BRANCH  12  18
ATOM     18  C   UNL A   1      33.473  23.964  22.149  1.00  0.00     0.274 C 
ATOM     19  O   UNL A   1      33.408  23.525  21.003  1.00  0.00    -0.267 OA
BRANCH  18  20
ATOM     20  N   UNL A   1      32.841  25.125  22.591  1.00  0.00    -0.337 N 
ATOM     21  C   UNL A   1      34.112  28.626  23.413  1.00  0.00     0.009 C 
ATOM     22  C   UNL A   1      33.317  27.557  22.669  1.00  0.00     0.005 C 
ATOM     23  C   UNL A   1      31.810  27.820  22.773  1.00  0.00     0.007 C 
ATOM     24  C   UNL A   1      33.659  26.161  23.211  1.00  0.00     0.123 C 
ATOM     25  C   UNL A   1      31.020  26.718  22.070  1.00  0.00     0.022 C 
ATOM     26  C   UNL A   1      31.393  25.343  22.622  1.00  0.00     0.120 C 
ENDBRANCH  18  20
ENDBRANCH  12  18
ENDBRANCH   9  11
ENDBRANCH   7   9
ENDBRANCH   6   7
ENDBRANCH   5   6
ENDBRANCH   4   5
ENDBRANCH   3   4
ENDBRANCH   2   3
ENDBRANCH   1   2
BRANCH   1  27
ATOM     27  O   UNL A   1      32.451  29.020  26.646  1.00  0.00    -0.377 OA
BRANCH  27  28
ATOM     28  C   UNL A   1      31.709  29.980  25.911  1.00  0.00     0.188 C 
BRANCH  28  29
ATOM     29  C   UNL A   1      31.516  31.362  26.556  1.00  0.00     0.188 C 
BRANCH  29  30
ATOM     30  O   UNL A   1      32.722  32.116  26.642  1.00  0.00    -0.376 OA
BRANCH  30  31
ATOM     31  C   UNL A   1      33.071  32.659  27.911  1.00  0.00     0.202 C 
BRANCH  31  32
ATOM     32  C   UNL A   1      32.905  34.179  28.068  1.00  0.00     0.261 C 
BRANCH  32  33
ATOM     33  O   UNL A   1      32.530  34.663  29.370  1.00  0.00    -0.460 OA
BRANCH  33  34
ATOM     34  C   UNL A   1      33.448  35.291  30.135  1.00  0.00     0.338 C 
ATOM     35  O   UNL A   1      33.324  36.359  30.707  1.00  0.00    -0.246 OA
BRANCH  34  36
ATOM     36  C   UNL A   1      34.572  34.351  30.346  1.00  0.00     0.060 A 
ATOM     37  C   UNL A   1      35.755  34.471  29.613  1.00  0.00     0.016 A 
ATOM     38  C   UNL A   1      34.421  33.312  31.275  1.00  0.00     0.016 A 
ATOM     39  C   UNL A   1      36.803  33.575  29.841  1.00  0.00     0.010 A 
ATOM     40  C   UNL A   1      35.466  32.410  31.494  1.00  0.00     0.010 A 
ATOM     41  C   UNL A   1      36.677  32.554  30.801  1.00  0.00    -0.014 A 
BRANCH  41  42
ATOM     42  C   UNL A   1      37.879  31.796  31.227  1.00  0.00     0.031 A 
ATOM     43  C   UNL A   1      38.382  30.594  30.490  1.00  0.00     0.074 A 
ATOM     44  C   UNL A   1      38.521  32.226  32.332  1.00  0.00     0.049 A 
ATOM     45  N   UNL A   1      39.477  29.907  30.704  1.00  0.00    -0.248 NA
ATOM     46  C   UNL A   1      37.562  30.092  29.378  1.00  0.00     0.031 C 
ATOM     47  C   UNL A   1      38.106  33.370  33.145  1.00  0.00     0.029 A 
ATOM     48  N   UNL A   1      39.656  31.768  32.952  1.00  0.00    -0.354 N 
ATOM     49  C   UNL A   1      39.493  28.903  29.747  1.00  0.00     0.074 A 
ATOM     50  C   UNL A   1      38.275  29.045  28.973  1.00  0.00     0.031 C 
ATOM     51  C   UNL A   1      38.991  33.547  34.136  1.00  0.00     0.029 A 
ATOM     52  C   UNL A   1      40.018  32.514  34.047  1.00  0.00     0.049 A 
ATOM     53  H   UNL A   1      40.161  30.983  32.642  1.00  0.00     0.167 HD
ATOM     54  C   UNL A   1      40.444  27.963  29.532  1.00  0.00     0.031 A 
ATOM     55  C   UNL A   1      41.065  32.394  34.886  1.00  0.00     0.031 A 
ATOM     56  C   UNL A   1      41.643  27.817  30.322  1.00  0.00     0.049 A 
ATOM     57  C   UNL A   1      42.084  31.320  34.643  1.00  0.00     0.074 A 
ATOM     58  C   UNL A   1      42.685  26.923  30.137  1.00  0.00     0.029 A 
ATOM     59  N   UNL A   1      41.954  28.564  31.447  1.00  0.00    -0.354 N 
ATOM     60  N   UNL A   1      42.132  30.437  33.676  1.00  0.00    -0.248 NA
ATOM     61  C   UNL A   1      43.203  31.234  35.593  1.00  0.00     0.031 C 
ATOM     62  C   UNL A   1      43.589  27.080  31.188  1.00  0.00     0.029 A 
ATOM     63  C   UNL A   1      43.153  28.124  31.987  1.00  0.00     0.049 A 
ATOM     64  H   UNL A   1      41.406  29.297  31.809  1.00  0.00     0.167 HD
ATOM     65  C   UNL A   1      43.294  29.706  33.885  1.00  0.00     0.074 A 
ATOM     66  C   UNL A   1      43.931  30.261  35.063  1.00  0.00     0.031 C 
ATOM     67  C   UNL A   1      43.783  28.671  33.162  1.00  0.00     0.031 A 
BRANCH  54  68
ATOM     68  C   UNL A   1      40.261  27.008  28.383  1.00  0.00    -0.014 A 
ATOM     69  C   UNL A   1      39.610  25.780  28.586  1.00  0.00     0.009 A 
ATOM     70  C   UNL A   1      40.863  27.258  27.142  1.00  0.00     0.009 A 
ATOM     71  C   UNL A   1      39.580  24.817  27.573  1.00  0.00     0.001 A 
ATOM     72  C   UNL A   1      40.807  26.306  26.122  1.00  0.00     0.001 A 
ATOM     73  C   UNL A   1      40.174  25.083  26.341  1.00  0.00     0.000 A 
ENDBRANCH  54  68
BRANCH  55  74
ATOM     74  C   UNL A   1      41.211  33.364  36.003  1.00  0.00    -0.014 A 
ATOM     75  C   UNL A   1      40.647  33.094  37.261  1.00  0.00     0.009 A 
ATOM     76  C   UNL A   1      41.856  34.592  35.798  1.00  0.00     0.009 A 
ATOM     77  C   UNL A   1      40.701  34.046  38.282  1.00  0.00     0.001 A 
ATOM     78  C   UNL A   1      41.936  35.529  36.831  1.00  0.00     0.001 A 
ATOM     79  C   UNL A   1      41.350  35.260  38.066  1.00  0.00     0.000 A 
ENDBRANCH  55  74
BRANCH  67  80
ATOM     80  C   UNL A   1      45.082  28.052  33.603  1.00  0.00    -0.014 A 
ATOM     81  C   UNL A   1      45.075  27.008  34.543  1.00  0.00     0.009 A 
ATOM     82  C   UNL A   1      46.315  28.570  33.176  1.00  0.00     0.009 A 
ATOM     83  C   UNL A   1      46.271  26.511  35.062  1.00  0.00     0.001 A 
ATOM     84  C   UNL A   1      47.511  28.049  33.673  1.00  0.00     0.001 A 
ATOM     85  C   UNL A   1      47.489  27.029  34.624  1.00  0.00     0.000 A 
ENDBRANCH  67  80
ENDBRANCH  41  42
ENDBRANCH  34  36
ENDBRANCH  33  34
ENDBRANCH  32  33
ENDBRANCH  31  32
ENDBRANCH  30  31
ENDBRANCH  29  30
ENDBRANCH  28  29
ENDBRANCH  27  28
ENDBRANCH   1  27
TORSDOF 23
ENDMDL
MODEL 3
REMARK VINA RESULT:      -9.3      0.895      5.738
REMARK SMILES C[C@@H]1CCCN(C(=O)c2ccc(=O)n([C@H](C)C(=O)OCCOCCOCCOCCOC(=O)c3ccc(-c4c5nc(c(-c6ccccc6)c6ccc([nH]6)c(-c6ccccc6)c6nc(c(-c7ccccc7)c7ccc4[nH]7)C=C6)C=C5)cc3)n2)C1
REMARK SMILES IDX 24 1 23 2 22 3 21 4 20 5 19 6 17 7 18 8 15 9 16 10 14 11
REMARK SMILES IDX 9 12 10 13 82 14 11 15 12 16 13 17 7 18 8 19 6 20 1 21 2 22
REMARK SMILES IDX 3 23 83 24 4 25 5 26 25 27 26 28 27 29 28 30 29 31 30 32
REMARK SMILES IDX 31 33 32 34 33 35 34 36 35 37 81 38 36 39 80 40 37 41 38 42
REMARK SMILES IDX 39 43 74 44 40 45 79 46 73 47 75 48 41 49 78 50 72 51 71 52
REMARK SMILES IDX 42 54 64 55 49 56 63 57 50 58 53 59 62 60 76 61 51 62 52 63
REMARK SMILES IDX 61 65 77 66 54 67 43 68 44 69 48 70 45 71 47 72 46 73 65 74
REMARK SMILES IDX 66 75 70 76 67 77 69 78 68 79 55 80 56 81 60 82 57 83 59 84
REMARK SMILES IDX 58 85
REMARK H PARENT 75 53 53 64
REMARK Flexibility Score: inf
ROOT
ATOM      1  C   UNL A   1      38.302  19.645  25.280  1.00  0.00     0.188 C 
ENDROOT
BRANCH   1   2
ATOM      2  C   UNL A   1      37.867  21.088  24.984  1.00  0.00     0.188 C 
BRANCH   2   3
ATOM      3  O   UNL A   1      38.154  22.146  25.890  1.00  0.00    -0.376 OA
BRANCH   3   4
ATOM      4  C   UNL A   1      37.455  23.380  25.822  1.00  0.00     0.202 C 
BRANCH   4   5
ATOM      5  C   UNL A   1      36.005  23.437  25.314  1.00  0.00     0.261 C 
BRANCH   5   6
ATOM      6  O   UNL A   1      34.987  23.087  26.269  1.00  0.00    -0.462 OA
BRANCH   6   7
ATOM      7  C   UNL A   1      33.868  23.857  26.248  1.00  0.00     0.330 C 
ATOM      8  O   UNL A   1      33.885  25.061  26.492  1.00  0.00    -0.250 OA
BRANCH   7   9
ATOM      9  C   UNL A   1      32.566  23.082  25.964  1.00  0.00     0.218 C 
ATOM     10  C   UNL A   1      31.232  23.609  26.505  1.00  0.00     0.046 C 
BRANCH   9  11
ATOM     11  N   UNL A   1      32.534  22.963  24.506  1.00  0.00    -0.215 N 
ATOM     12  C   UNL A   1      32.747  24.058  22.515  1.00  0.00     0.149 A 
ATOM     13  C   UNL A   1      32.676  22.805  21.744  1.00  0.00     0.042 A 
ATOM     14  N   UNL A   1      32.705  24.134  23.804  1.00  0.00    -0.164 NA
ATOM     15  C   UNL A   1      32.483  21.686  22.446  1.00  0.00     0.076 A 
ATOM     16  C   UNL A   1      32.346  21.720  23.917  1.00  0.00     0.267 A 
ATOM     17  O   UNL A   1      32.081  20.685  24.519  1.00  0.00    -0.268 OA
BRANCH  12  18
ATOM     18  C   UNL A   1      32.815  25.352  21.728  1.00  0.00     0.274 C 
ATOM     19  O   UNL A   1      33.112  25.251  20.540  1.00  0.00    -0.267 OA
BRANCH  18  20
ATOM     20  N   UNL A   1      32.519  26.551  22.372  1.00  0.00    -0.337 N 
ATOM     21  C   UNL A   1      29.243  28.336  23.172  1.00  0.00     0.009 C 
ATOM     22  C   UNL A   1      30.560  27.618  23.455  1.00  0.00     0.005 C 
ATOM     23  C   UNL A   1      31.521  28.519  24.241  1.00  0.00     0.007 C 
ATOM     24  C   UNL A   1      31.209  27.152  22.144  1.00  0.00     0.123 C 
ATOM     25  C   UNL A   1      32.854  27.813  24.476  1.00  0.00     0.022 C 
ATOM     26  C   UNL A   1      33.465  27.350  23.155  1.00  0.00     0.120 C 
ENDBRANCH  18  20
ENDBRANCH  12  18
ENDBRANCH   9  11
ENDBRANCH   7   9
ENDBRANCH   6   7
ENDBRANCH   5   6
ENDBRANCH   4   5
ENDBRANCH   3   4
ENDBRANCH   2   3
ENDBRANCH   1   2
BRANCH   1  27
ATOM     27  O   UNL A   1      39.276  19.504  26.292  1.00  0.00    -0.377 OA
BRANCH  27  28
ATOM     28  C   UNL A   1      40.617  19.788  25.924  1.00  0.00     0.188 C 
BRANCH  28  29
ATOM     29  C   UNL A   1      41.376  20.817  26.778  1.00  0.00     0.188 C 
BRANCH  29  30
ATOM     30  O   UNL A   1      42.753  20.495  26.955  1.00  0.00    -0.376 OA
BRANCH  30  31
ATOM     31  C   UNL A   1      43.538  20.292  25.784  1.00  0.00     0.202 C 
BRANCH  31  32
ATOM     32  C   UNL A   1      44.113  21.555  25.124  1.00  0.00     0.261 C 
BRANCH  32  33
ATOM     33  O   UNL A   1      44.343  22.691  25.977  1.00  0.00    -0.460 OA
BRANCH  33  34
ATOM     34  C   UNL A   1      44.376  23.928  25.439  1.00  0.00     0.338 C 
ATOM     35  O   UNL A   1      44.777  24.241  24.333  1.00  0.00    -0.246 OA
BRANCH  34  36
ATOM     36  C   UNL A   1      43.630  24.830  26.347  1.00  0.00     0.060 A 
ATOM     37  C   UNL A   1      42.633  24.334  27.192  1.00  0.00     0.016 A 
ATOM     38  C   UNL A   1      43.917  26.201  26.326  1.00  0.00     0.016 A 
ATOM     39  C   UNL A   1      41.953  25.206  28.045  1.00  0.00     0.010 A 
ATOM     40  C   UNL A   1      43.228  27.075  27.173  1.00  0.00     0.010 A 
ATOM     41  C   UNL A   1      42.263  26.579  28.061  1.00  0.00    -0.014 A 
BRANCH  41  42
ATOM     42  C   UNL A   1      41.739  27.435  29.153  1.00  0.00     0.031 A 
ATOM     43  C   UNL A   1      40.452  28.193  29.042  1.00  0.00     0.074 A 
ATOM     44  C   UNL A   1      42.476  27.521  30.279  1.00  0.00     0.049 A 
ATOM     45  N   UNL A   1      39.839  28.895  29.964  1.00  0.00    -0.248 NA
ATOM     46  C   UNL A   1      39.765  28.171  27.744  1.00  0.00     0.031 C 
ATOM     47  C   UNL A   1      43.759  26.848  30.488  1.00  0.00     0.029 A 
ATOM     48  N   UNL A   1      42.254  28.192  31.455  1.00  0.00    -0.354 N 
ATOM     49  C   UNL A   1      38.686  29.384  29.368  1.00  0.00     0.074 A 
ATOM     50  C   UNL A   1      38.703  28.931  27.991  1.00  0.00     0.031 C 
ATOM     51  C   UNL A   1      44.194  27.111  31.728  1.00  0.00     0.029 A 
ATOM     52  C   UNL A   1      43.239  27.992  32.391  1.00  0.00     0.049 A 
ATOM     53  H   UNL A   1      41.466  28.760  31.611  1.00  0.00     0.167 HD
ATOM     54  C   UNL A   1      37.702  30.128  29.929  1.00  0.00     0.031 A 
ATOM     55  C   UNL A   1      43.363  28.455  33.650  1.00  0.00     0.031 A 
ATOM     56  C   UNL A   1      37.705  30.591  31.295  1.00  0.00     0.049 A 
ATOM     57  C   UNL A   1      42.273  29.307  34.232  1.00  0.00     0.074 A 
ATOM     58  C   UNL A   1      36.720  31.306  31.957  1.00  0.00     0.029 A 
ATOM     59  N   UNL A   1      38.738  30.404  32.200  1.00  0.00    -0.354 N 
ATOM     60  N   UNL A   1      41.143  29.683  33.684  1.00  0.00    -0.248 NA
ATOM     61  C   UNL A   1      42.464  29.786  35.608  1.00  0.00     0.031 C 
ATOM     62  C   UNL A   1      37.187  31.612  33.237  1.00  0.00     0.029 A 
ATOM     63  C   UNL A   1      38.429  31.023  33.401  1.00  0.00     0.049 A 
ATOM     64  H   UNL A   1      39.567  29.906  32.017  1.00  0.00     0.167 HD
ATOM     65  C   UNL A   1      40.478  30.421  34.654  1.00  0.00     0.074 A 
ATOM     66  C   UNL A   1      41.323  30.426  35.830  1.00  0.00     0.031 C 
ATOM     67  C   UNL A   1      39.273  31.035  34.570  1.00  0.00     0.031 A 
BRANCH  54  68
ATOM     68  C   UNL A   1      36.510  30.491  29.085  1.00  0.00    -0.014 A 
ATOM     69  C   UNL A   1      35.737  29.482  28.488  1.00  0.00     0.009 A 
ATOM     70  C   UNL A   1      36.244  31.829  28.760  1.00  0.00     0.009 A 
ATOM     71  C   UNL A   1      34.732  29.806  27.572  1.00  0.00     0.001 A 
ATOM     72  C   UNL A   1      35.221  32.152  27.866  1.00  0.00     0.001 A 
ATOM     73  C   UNL A   1      34.472  31.140  27.265  1.00  0.00     0.000 A 
ENDBRANCH  54  68
BRANCH  55  74
ATOM     74  C   UNL A   1      44.553  28.065  34.450  1.00  0.00    -0.014 A 
ATOM     75  C   UNL A   1      45.658  28.927  34.552  1.00  0.00     0.009 A 
ATOM     76  C   UNL A   1      44.618  26.803  35.058  1.00  0.00     0.009 A 
ATOM     77  C   UNL A   1      46.814  28.521  35.223  1.00  0.00     0.001 A 
ATOM     78  C   UNL A   1      45.764  26.414  35.756  1.00  0.00     0.001 A 
ATOM     79  C   UNL A   1      46.863  27.267  35.828  1.00  0.00     0.000 A 
ENDBRANCH  55  74
BRANCH  67  80
ATOM     80  C   UNL A   1      38.769  31.771  35.781  1.00  0.00    -0.014 A 
ATOM     81  C   UNL A   1      38.071  31.074  36.782  1.00  0.00     0.009 A 
ATOM     82  C   UNL A   1      38.886  33.166  35.885  1.00  0.00     0.009 A 
ATOM     83  C   UNL A   1      37.484  31.758  37.847  1.00  0.00     0.001 A 
ATOM     84  C   UNL A   1      38.324  33.844  36.968  1.00  0.00     0.001 A 
ATOM     85  C   UNL A   1      37.613  33.142  37.942  1.00  0.00     0.000 A 
ENDBRANCH  67  80
ENDBRANCH  41  42
ENDBRANCH  34  36
ENDBRANCH  33  34
ENDBRANCH  32  33
ENDBRANCH  31  32
ENDBRANCH  30  31
ENDBRANCH  29  30
ENDBRANCH  28  29
ENDBRANCH  27  28
ENDBRANCH   1  27
TORSDOF 23
ENDMDL
