MODEL 1
REMARK VINA RESULT:     -10.8      0.000      0.000
REMARK SMILES Cc1ccc(C)c(-c2cc(C(=O)OCCOCCOCCOCCOC(=O)c3ccc(-c4c5nc(c(-c6ccccc6)c6ccc([nH]6)c(-c6ccccc6)c6nc(c(-c7ccccc7)c7ccc4[nH]7)C=C6)C=C5)cc3)c3cc(C)ccc3n2)c1
REMARK SMILES IDX 20 1 19 2 18 3 17 4 16 5 15 6 14 7 13 8 11 9 12 10 10 11
REMARK SMILES IDX 8 12 9 13 83 14 82 15 76 16 81 17 77 18 80 19 78 20 79 21
REMARK SMILES IDX 7 22 1 23 2 24 3 25 84 26 4 27 5 28 6 29 21 30 22 31 23 32
REMARK SMILES IDX 24 33 25 34 26 35 27 36 28 37 29 38 75 39 30 40 74 41 31 42
REMARK SMILES IDX 32 43 33 44 68 45 34 46 73 47 67 48 69 49 35 50 72 51 66 52
REMARK SMILES IDX 65 53 36 55 58 56 43 57 57 58 44 59 47 60 56 61 70 62 45 63
REMARK SMILES IDX 46 64 55 66 71 67 48 68 37 69 38 70 42 71 39 72 41 73 40 74
REMARK SMILES IDX 59 75 60 76 64 77 61 78 63 79 62 80 49 81 50 82 54 83 51 84
REMARK SMILES IDX 53 85 52 86
REMARK H PARENT 69 54 47 65
REMARK Flexibility Score: inf
ROOT
ATOM      1  C   UNL A   1      34.718  34.420  30.798  1.00  0.00     0.188 C 
ENDROOT
BRANCH   1   2
ATOM      2  O   UNL A   1      33.636  34.181  29.907  1.00  0.00    -0.377 OA
BRANCH   2   3
ATOM      3  C   UNL A   1      33.995  34.182  28.520  1.00  0.00     0.188 C 
BRANCH   3   4
ATOM      4  C   UNL A   1      34.972  33.084  28.047  1.00  0.00     0.188 C 
BRANCH   4   5
ATOM      5  O   UNL A   1      34.229  31.883  27.871  1.00  0.00    -0.376 OA
BRANCH   5   6
ATOM      6  C   UNL A   1      34.930  30.694  28.198  1.00  0.00     0.202 C 
BRANCH   6   7
ATOM      7  C   UNL A   1      34.726  29.530  27.219  1.00  0.00     0.261 C 
BRANCH   7   8
ATOM      8  O   UNL A   1      33.476  29.571  26.496  1.00  0.00    -0.460 OA
BRANCH   8   9
ATOM      9  C   UNL A   1      32.547  28.614  26.751  1.00  0.00     0.338 C 
ATOM     10  O   UNL A   1      31.986  28.395  27.812  1.00  0.00    -0.246 OA
BRANCH   9  11
ATOM     11  C   UNL A   1      32.236  27.733  25.625  1.00  0.00     0.071 A 
ATOM     12  C   UNL A   1      32.679  25.598  24.641  1.00  0.00     0.072 A 
ATOM     13  C   UNL A   1      32.821  26.470  25.693  1.00  0.00     0.045 A 
ATOM     14  N   UNL A   1      31.919  25.942  23.565  1.00  0.00    -0.248 NA
ATOM     15  C   UNL A   1      31.292  27.158  23.528  1.00  0.00     0.072 A 
ATOM     16  C   UNL A   1      31.397  28.083  24.573  1.00  0.00     0.015 A 
ATOM     17  C   UNL A   1      30.519  27.561  22.435  1.00  0.00     0.029 A 
ATOM     18  C   UNL A   1      30.661  29.290  24.552  1.00  0.00     0.014 A 
ATOM     19  C   UNL A   1      29.858  28.809  22.377  1.00  0.00     0.005 A 
ATOM     20  C   UNL A   1      29.912  29.680  23.456  1.00  0.00    -0.050 A 
ATOM     21  C   UNL A   1      29.253  31.025  23.509  1.00  0.00     0.044 C 
BRANCH  12  22
ATOM     22  C   UNL A   1      33.448  24.322  24.652  1.00  0.00     0.003 A 
ATOM     23  C   UNL A   1      36.653  22.953  22.992  1.00  0.00     0.044 C 
ATOM     24  C   UNL A   1      35.441  23.055  23.875  1.00  0.00    -0.050 A 
ATOM     25  C   UNL A   1      34.935  21.905  24.471  1.00  0.00     0.004 A 
ATOM     26  C   UNL A   1      34.723  24.256  24.017  1.00  0.00     0.014 A 
ATOM     27  C   UNL A   1      33.679  21.928  25.071  1.00  0.00     0.004 A 
ATOM     28  C   UNL A   1      32.906  23.106  25.117  1.00  0.00    -0.042 A 
ATOM     29  C   UNL A   1      31.449  22.935  25.463  1.00  0.00     0.045 C 
ENDBRANCH  12  22
ENDBRANCH   9  11
ENDBRANCH   8   9
ENDBRANCH   7   8
ENDBRANCH   6   7
ENDBRANCH   5   6
ENDBRANCH   4   5
ENDBRANCH   3   4
ENDBRANCH   2   3
ENDBRANCH   1   2
BRANCH   1  30
ATOM     30  C   UNL A   1      34.642  33.569  32.068  1.00  0.00     0.188 C 
BRANCH  30  31
ATOM     31  O   UNL A   1      35.947  33.197  32.505  1.00  0.00    -0.376 OA
BRANCH  31  32
ATOM     32  C   UNL A   1      36.852  34.269  32.712  1.00  0.00     0.202 C 
BRANCH  32  33
ATOM     33  C   UNL A   1      38.281  33.743  32.616  1.00  0.00     0.261 C 
BRANCH  33  34
ATOM     34  O   UNL A   1      38.998  34.249  31.464  1.00  0.00    -0.460 OA
BRANCH  34  35
ATOM     35  C   UNL A   1      38.755  33.649  30.268  1.00  0.00     0.338 C 
ATOM     36  O   UNL A   1      38.100  34.139  29.356  1.00  0.00    -0.246 OA
BRANCH  35  37
ATOM     37  C   UNL A   1      39.368  32.284  30.255  1.00  0.00     0.060 A 
ATOM     38  C   UNL A   1      40.700  32.086  30.629  1.00  0.00     0.016 A 
ATOM     39  C   UNL A   1      38.647  31.204  29.732  1.00  0.00     0.016 A 
ATOM     40  C   UNL A   1      41.308  30.835  30.399  1.00  0.00     0.010 A 
ATOM     41  C   UNL A   1      39.270  29.993  29.437  1.00  0.00     0.010 A 
ATOM     42  C   UNL A   1      40.613  29.784  29.750  1.00  0.00    -0.014 A 
BRANCH  42  43
ATOM     43  C   UNL A   1      40.985  28.335  29.797  1.00  0.00     0.031 A 
ATOM     44  C   UNL A   1      41.726  28.180  31.052  1.00  0.00     0.074 A 
ATOM     45  C   UNL A   1      41.401  27.399  28.899  1.00  0.00     0.049 A 
ATOM     46  N   UNL A   1      43.014  28.279  31.139  1.00  0.00    -0.248 NA
ATOM     47  C   UNL A   1      41.008  28.217  32.327  1.00  0.00     0.031 C 
ATOM     48  C   UNL A   1      42.227  27.589  27.740  1.00  0.00     0.029 A 
ATOM     49  N   UNL A   1      40.951  26.072  28.734  1.00  0.00    -0.354 N 
ATOM     50  C   UNL A   1      43.272  27.942  32.443  1.00  0.00     0.074 A 
ATOM     51  C   UNL A   1      42.041  28.175  33.173  1.00  0.00     0.031 C 
ATOM     52  C   UNL A   1      42.049  26.597  26.858  1.00  0.00     0.029 A 
ATOM     53  C   UNL A   1      41.200  25.561  27.435  1.00  0.00     0.049 A 
ATOM     54  H   UNL A   1      40.510  25.554  29.445  1.00  0.00     0.167 HD
ATOM     55  C   UNL A   1      44.195  26.961  32.614  1.00  0.00     0.031 A 
ATOM     56  C   UNL A   1      41.470  24.291  27.020  1.00  0.00     0.031 A 
ATOM     57  C   UNL A   1      45.202  26.935  31.574  1.00  0.00     0.049 A 
ATOM     58  C   UNL A   1      42.854  23.945  27.448  1.00  0.00     0.074 A 
ATOM     59  C   UNL A   1      46.255  27.742  31.190  1.00  0.00     0.029 A 
ATOM     60  N   UNL A   1      44.927  26.124  30.501  1.00  0.00    -0.354 N 
ATOM     61  N   UNL A   1      43.955  24.430  26.945  1.00  0.00    -0.248 NA
ATOM     62  C   UNL A   1      42.990  23.297  28.752  1.00  0.00     0.031 C 
ATOM     63  C   UNL A   1      46.629  27.356  29.869  1.00  0.00     0.029 A 
ATOM     64  C   UNL A   1      45.812  26.310  29.463  1.00  0.00     0.049 A 
ATOM     65  H   UNL A   1      44.182  25.481  30.477  1.00  0.00     0.167 HD
ATOM     66  C   UNL A   1      44.767  24.585  28.056  1.00  0.00     0.074 A 
ATOM     67  C   UNL A   1      44.199  23.738  29.093  1.00  0.00     0.031 C 
ATOM     68  C   UNL A   1      45.603  25.651  28.190  1.00  0.00     0.031 A 
BRANCH  55  69
ATOM     69  C   UNL A   1      43.770  25.719  33.347  1.00  0.00    -0.014 A 
ATOM     70  C   UNL A   1      43.188  25.823  34.608  1.00  0.00     0.009 A 
ATOM     71  C   UNL A   1      44.129  24.423  32.905  1.00  0.00     0.009 A 
ATOM     72  C   UNL A   1      42.927  24.673  35.363  1.00  0.00     0.001 A 
ATOM     73  C   UNL A   1      43.827  23.275  33.626  1.00  0.00     0.001 A 
ATOM     74  C   UNL A   1      43.227  23.402  34.866  1.00  0.00     0.000 A 
ENDBRANCH  55  69
BRANCH  56  75
ATOM     75  C   UNL A   1      40.492  23.248  26.670  1.00  0.00    -0.014 A 
ATOM     76  C   UNL A   1      40.945  21.934  26.439  1.00  0.00     0.009 A 
ATOM     77  C   UNL A   1      39.132  23.517  26.491  1.00  0.00     0.009 A 
ATOM     78  C   UNL A   1      40.060  20.919  26.058  1.00  0.00     0.001 A 
ATOM     79  C   UNL A   1      38.244  22.497  26.128  1.00  0.00     0.001 A 
ATOM     80  C   UNL A   1      38.706  21.201  25.909  1.00  0.00     0.000 A 
ENDBRANCH  56  75
BRANCH  68  81
ATOM     81  C   UNL A   1      46.260  26.190  26.957  1.00  0.00    -0.014 A 
ATOM     82  C   UNL A   1      47.273  25.538  26.243  1.00  0.00     0.009 A 
ATOM     83  C   UNL A   1      45.785  27.413  26.462  1.00  0.00     0.009 A 
ATOM     84  C   UNL A   1      47.809  26.097  25.077  1.00  0.00     0.001 A 
ATOM     85  C   UNL A   1      46.306  27.967  25.291  1.00  0.00     0.001 A 
ATOM     86  C   UNL A   1      47.320  27.309  24.600  1.00  0.00     0.000 A 
ENDBRANCH  68  81
ENDBRANCH  42  43
ENDBRANCH  35  37
ENDBRANCH  34  35
ENDBRANCH  33  34
ENDBRANCH  32  33
ENDBRANCH  31  32
ENDBRANCH  30  31
ENDBRANCH   1  30
TORSDOF 21
ENDMDL
MODEL 2
REMARK VINA RESULT:     -10.6      2.720      7.990
REMARK SMILES Cc1ccc(C)c(-c2cc(C(=O)OCCOCCOCCOCCOC(=O)c3ccc(-c4c5nc(c(-c6ccccc6)c6ccc([nH]6)c(-c6ccccc6)c6nc(c(-c7ccccc7)c7ccc4[nH]7)C=C6)C=C5)cc3)c3cc(C)ccc3n2)c1
REMARK SMILES IDX 20 1 19 2 18 3 17 4 16 5 15 6 14 7 13 8 11 9 12 10 10 11
REMARK SMILES IDX 8 12 9 13 83 14 82 15 76 16 81 17 77 18 80 19 78 20 79 21
REMARK SMILES IDX 7 22 1 23 2 24 3 25 84 26 4 27 5 28 6 29 21 30 22 31 23 32
REMARK SMILES IDX 24 33 25 34 26 35 27 36 28 37 29 38 75 39 30 40 74 41 31 42
REMARK SMILES IDX 32 43 33 44 68 45 34 46 73 47 67 48 69 49 35 50 72 51 66 52
REMARK SMILES IDX 65 53 36 55 58 56 43 57 57 58 44 59 47 60 56 61 70 62 45 63
REMARK SMILES IDX 46 64 55 66 71 67 48 68 37 69 38 70 42 71 39 72 41 73 40 74
REMARK SMILES IDX 59 75 60 76 64 77 61 78 63 79 62 80 49 81 50 82 54 83 51 84
REMARK SMILES IDX 53 85 52 86
REMARK H PARENT 69 54 47 65
REMARK Flexibility Score: inf
ROOT
ATOM      1  C   UNL A   1      34.812  23.070  26.677  1.00  0.00     0.188 C 
ENDROOT
BRANCH   1   2
ATOM      2  O   UNL A   1      33.935  23.876  25.901  1.00  0.00    -0.377 OA
BRANCH   2   3
ATOM      3  C   UNL A   1      34.415  25.201  25.642  1.00  0.00     0.188 C 
BRANCH   3   4
ATOM      4  C   UNL A   1      33.528  26.373  26.114  1.00  0.00     0.188 C 
BRANCH   4   5
ATOM      5  O   UNL A   1      34.125  27.584  25.664  1.00  0.00    -0.376 OA
BRANCH   5   6
ATOM      6  C   UNL A   1      34.380  28.538  26.682  1.00  0.00     0.202 C 
BRANCH   6   7
ATOM      7  C   UNL A   1      33.480  29.780  26.647  1.00  0.00     0.261 C 
BRANCH   7   8
ATOM      8  O   UNL A   1      32.072  29.493  26.501  1.00  0.00    -0.460 OA
BRANCH   8   9
ATOM      9  C   UNL A   1      31.339  30.255  25.649  1.00  0.00     0.338 C 
ATOM     10  O   UNL A   1      31.108  31.450  25.740  1.00  0.00    -0.246 OA
BRANCH   9  11
ATOM     11  C   UNL A   1      30.734  29.530  24.531  1.00  0.00     0.071 A 
ATOM     12  C   UNL A   1      30.594  27.410  23.431  1.00  0.00     0.072 A 
ATOM     13  C   UNL A   1      31.025  28.168  24.492  1.00  0.00     0.045 A 
ATOM     14  N   UNL A   1      29.831  27.974  22.453  1.00  0.00    -0.248 NA
ATOM     15  C   UNL A   1      29.492  29.298  22.526  1.00  0.00     0.072 A 
ATOM     16  C   UNL A   1      29.898  30.116  23.586  1.00  0.00     0.015 A 
ATOM     17  C   UNL A   1      28.729  29.922  21.535  1.00  0.00     0.029 A 
ATOM     18  C   UNL A   1      29.452  31.453  23.685  1.00  0.00     0.014 A 
ATOM     19  C   UNL A   1      28.361  31.286  21.591  1.00  0.00     0.005 A 
ATOM     20  C   UNL A   1      28.709  32.060  22.688  1.00  0.00    -0.050 A 
ATOM     21  C   UNL A   1      28.376  33.511  22.858  1.00  0.00     0.044 C 
BRANCH  12  22
ATOM     22  C   UNL A   1      31.056  25.999  23.316  1.00  0.00     0.003 A 
ATOM     23  C   UNL A   1      30.702  22.745  25.363  1.00  0.00     0.044 C 
ATOM     24  C   UNL A   1      31.050  23.696  24.252  1.00  0.00    -0.050 A 
ATOM     25  C   UNL A   1      31.982  23.311  23.294  1.00  0.00     0.004 A 
ATOM     26  C   UNL A   1      30.560  25.013  24.219  1.00  0.00     0.014 A 
ATOM     27  C   UNL A   1      32.509  24.255  22.418  1.00  0.00     0.004 A 
ATOM     28  C   UNL A   1      32.102  25.604  22.457  1.00  0.00    -0.042 A 
ATOM     29  C   UNL A   1      32.977  26.587  21.723  1.00  0.00     0.045 C 
ENDBRANCH  12  22
ENDBRANCH   9  11
ENDBRANCH   8   9
ENDBRANCH   7   8
ENDBRANCH   6   7
ENDBRANCH   5   6
ENDBRANCH   4   5
ENDBRANCH   3   4
ENDBRANCH   2   3
ENDBRANCH   1   2
BRANCH   1  30
ATOM     30  C   UNL A   1      34.769  21.593  26.281  1.00  0.00     0.188 C 
BRANCH  30  31
ATOM     31  O   UNL A   1      35.511  21.371  25.084  1.00  0.00    -0.376 OA
BRANCH  31  32
ATOM     32  C   UNL A   1      36.139  20.104  24.979  1.00  0.00     0.202 C 
BRANCH  32  33
ATOM     33  C   UNL A   1      37.647  20.301  24.866  1.00  0.00     0.261 C 
BRANCH  33  34
ATOM     34  O   UNL A   1      38.115  21.505  25.522  1.00  0.00    -0.460 OA
BRANCH  34  35
ATOM     35  C   UNL A   1      39.346  21.460  26.100  1.00  0.00     0.338 C 
ATOM     36  O   UNL A   1      40.019  20.446  26.238  1.00  0.00    -0.246 OA
BRANCH  35  37
ATOM     37  C   UNL A   1      39.727  22.824  26.581  1.00  0.00     0.060 A 
ATOM     38  C   UNL A   1      40.874  23.024  27.354  1.00  0.00     0.016 A 
ATOM     39  C   UNL A   1      38.856  23.901  26.377  1.00  0.00     0.016 A 
ATOM     40  C   UNL A   1      41.087  24.272  27.972  1.00  0.00     0.010 A 
ATOM     41  C   UNL A   1      39.030  25.109  27.048  1.00  0.00     0.010 A 
ATOM     42  C   UNL A   1      40.138  25.319  27.869  1.00  0.00    -0.014 A 
BRANCH  42  43
ATOM     43  C   UNL A   1      40.408  26.768  28.129  1.00  0.00     0.031 A 
ATOM     44  C   UNL A   1      41.793  26.974  27.696  1.00  0.00     0.074 A 
ATOM     45  C   UNL A   1      40.094  27.666  29.104  1.00  0.00     0.049 A 
ATOM     46  N   UNL A   1      42.812  26.876  28.488  1.00  0.00    -0.248 NA
ATOM     47  C   UNL A   1      42.111  26.991  26.267  1.00  0.00     0.031 C 
ATOM     48  C   UNL A   1      39.940  27.427  30.512  1.00  0.00     0.029 A 
ATOM     49  N   UNL A   1      39.614  28.986  28.969  1.00  0.00    -0.354 N 
ATOM     50  C   UNL A   1      43.866  27.266  27.702  1.00  0.00     0.074 A 
ATOM     51  C   UNL A   1      43.443  27.066  26.330  1.00  0.00     0.031 C 
ATOM     52  C   UNL A   1      39.193  28.382  31.080  1.00  0.00     0.029 A 
ATOM     53  C   UNL A   1      38.919  29.443  30.117  1.00  0.00     0.049 A 
ATOM     54  H   UNL A   1      39.747  29.533  28.162  1.00  0.00     0.167 HD
ATOM     55  C   UNL A   1      44.642  28.251  28.223  1.00  0.00     0.031 A 
ATOM     56  C   UNL A   1      38.810  30.693  30.646  1.00  0.00     0.031 A 
ATOM     57  C   UNL A   1      44.696  28.232  29.670  1.00  0.00     0.049 A 
ATOM     58  C   UNL A   1      40.116  31.054  31.264  1.00  0.00     0.074 A 
ATOM     59  C   UNL A   1      45.244  27.408  30.633  1.00  0.00     0.029 A 
ATOM     60  N   UNL A   1      43.754  28.999  30.310  1.00  0.00    -0.354 N 
ATOM     61  N   UNL A   1      40.613  30.547  32.358  1.00  0.00    -0.248 NA
ATOM     62  C   UNL A   1      41.071  31.755  30.407  1.00  0.00     0.031 C 
ATOM     63  C   UNL A   1      44.630  27.738  31.877  1.00  0.00     0.029 A 
ATOM     64  C   UNL A   1      43.724  28.769  31.666  1.00  0.00     0.049 A 
ATOM     65  H   UNL A   1      43.166  29.641  29.851  1.00  0.00     0.167 HD
ATOM     66  C   UNL A   1      41.963  30.436  32.069  1.00  0.00     0.074 A 
ATOM     67  C   UNL A   1      42.210  31.326  30.947  1.00  0.00     0.031 C 
ATOM     68  C   UNL A   1      42.702  29.375  32.494  1.00  0.00     0.031 A 
BRANCH  55  69
ATOM     69  C   UNL A   1      44.783  29.523  27.434  1.00  0.00    -0.014 A 
ATOM     70  C   UNL A   1      46.043  29.944  27.015  1.00  0.00     0.009 A 
ATOM     71  C   UNL A   1      43.711  30.434  27.274  1.00  0.00     0.009 A 
ATOM     72  C   UNL A   1      46.206  31.198  26.413  1.00  0.00     0.001 A 
ATOM     73  C   UNL A   1      43.856  31.658  26.633  1.00  0.00     0.001 A 
ATOM     74  C   UNL A   1      45.114  32.043  26.205  1.00  0.00     0.000 A 
ENDBRANCH  55  69
BRANCH  56  75
ATOM     75  C   UNL A   1      37.821  31.723  30.287  1.00  0.00    -0.014 A 
ATOM     76  C   UNL A   1      36.479  31.550  30.679  1.00  0.00     0.009 A 
ATOM     77  C   UNL A   1      38.142  32.842  29.514  1.00  0.00     0.009 A 
ATOM     78  C   UNL A   1      35.494  32.477  30.321  1.00  0.00     0.001 A 
ATOM     79  C   UNL A   1      37.160  33.780  29.171  1.00  0.00     0.001 A 
ATOM     80  C   UNL A   1      35.838  33.598  29.572  1.00  0.00     0.000 A 
ENDBRANCH  56  75
BRANCH  68  81
ATOM     81  C   UNL A   1      42.382  28.784  33.832  1.00  0.00    -0.014 A 
ATOM     82  C   UNL A   1      41.774  27.538  34.029  1.00  0.00     0.009 A 
ATOM     83  C   UNL A   1      42.767  29.517  34.964  1.00  0.00     0.009 A 
ATOM     84  C   UNL A   1      41.542  27.043  35.318  1.00  0.00     0.001 A 
ATOM     85  C   UNL A   1      42.551  29.021  36.251  1.00  0.00     0.001 A 
ATOM     86  C   UNL A   1      41.936  27.784  36.428  1.00  0.00     0.000 A 
ENDBRANCH  68  81
ENDBRANCH  42  43
ENDBRANCH  35  37
ENDBRANCH  34  35
ENDBRANCH  33  34
ENDBRANCH  32  33
ENDBRANCH  31  32
ENDBRANCH  30  31
ENDBRANCH   1  30
TORSDOF 21
ENDMDL
MODEL 3
REMARK VINA RESULT:     -10.5      4.534      9.486
REMARK SMILES Cc1ccc(C)c(-c2cc(C(=O)OCCOCCOCCOCCOC(=O)c3ccc(-c4c5nc(c(-c6ccccc6)c6ccc([nH]6)c(-c6ccccc6)c6nc(c(-c7ccccc7)c7ccc4[nH]7)C=C6)C=C5)cc3)c3cc(C)ccc3n2)c1
REMARK SMILES IDX 20 1 19 2 18 3 17 4 16 5 15 6 14 7 13 8 11 9 12 10 10 11
REMARK SMILES IDX 8 12 9 13 83 14 82 15 76 16 81 17 77 18 80 19 78 20 79 21
REMARK SMILES IDX 7 22 1 23 2 24 3 25 84 26 4 27 5 28 6 29 21 30 22 31 23 32
REMARK SMILES IDX 24 33 25 34 26 35 27 36 28 37 29 38 75 39 30 40 74 41 31 42
REMARK SMILES IDX 32 43 33 44 68 45 34 46 73 47 67 48 69 49 35 50 72 51 66 52
REMARK SMILES IDX 65 53 36 55 58 56 43 57 57 58 44 59 47 60 56 61 70 62 45 63
REMARK SMILES IDX 46 64 55 66 71 67 48 68 37 69 38 70 42 71 39 72 41 73 40 74
REMARK SMILES IDX 59 75 60 76 64 77 61 78 63 79 62 80 49 81 50 82 54 83 51 84
REMARK SMILES IDX 53 85 52 86
REMARK H PARENT 69 54 47 65
REMARK Flexibility Score: inf
ROOT
ATOM      1  C   UNL A   1      34.976  20.764  24.993  1.00  0.00     0.188 C 
ENDROOT
BRANCH   1   2
ATOM      2  O   UNL A   1      34.433  19.484  24.693  1.00  0.00    -0.377 OA
BRANCH   2   3
ATOM      3  C   UNL A   1      33.011  19.465  24.523  1.00  0.00     0.188 C 
BRANCH   3   4
ATOM      4  C   UNL A   1      32.316  20.822  24.279  1.00  0.00     0.188 C 
BRANCH   4   5
ATOM      5  O   UNL A   1      31.514  21.115  25.417  1.00  0.00    -0.376 OA
BRANCH   5   6
ATOM      6  C   UNL A   1      31.077  22.461  25.510  1.00  0.00     0.202 C 
BRANCH   6   7
ATOM      7  C   UNL A   1      31.138  23.067  26.919  1.00  0.00     0.261 C 
BRANCH   7   8
ATOM      8  O   UNL A   1      31.730  24.383  26.977  1.00  0.00    -0.460 OA
BRANCH   8   9
ATOM      9  C   UNL A   1      32.996  24.546  26.514  1.00  0.00     0.338 C 
ATOM     10  O   UNL A   1      33.961  23.834  26.739  1.00  0.00    -0.246 OA
BRANCH   9  11
ATOM     11  C   UNL A   1      33.209  25.739  25.694  1.00  0.00     0.071 A 
ATOM     12  C   UNL A   1      33.506  28.112  25.747  1.00  0.00     0.072 A 
ATOM     13  C   UNL A   1      33.399  26.917  26.414  1.00  0.00     0.045 A 
ATOM     14  N   UNL A   1      33.491  28.138  24.385  1.00  0.00    -0.248 NA
ATOM     15  C   UNL A   1      33.370  26.974  23.677  1.00  0.00     0.072 A 
ATOM     16  C   UNL A   1      33.262  25.727  24.304  1.00  0.00     0.015 A 
ATOM     17  C   UNL A   1      33.329  26.956  22.280  1.00  0.00     0.029 A 
ATOM     18  C   UNL A   1      33.236  24.533  23.548  1.00  0.00     0.014 A 
ATOM     19  C   UNL A   1      33.210  25.765  21.527  1.00  0.00     0.005 A 
ATOM     20  C   UNL A   1      33.182  24.534  22.166  1.00  0.00    -0.050 A 
ATOM     21  C   UNL A   1      33.058  23.210  21.476  1.00  0.00     0.044 C 
BRANCH  12  22
ATOM     22  C   UNL A   1      33.536  29.377  26.531  1.00  0.00     0.003 A 
ATOM     23  C   UNL A   1      31.476  32.638  26.694  1.00  0.00     0.044 C 
ATOM     24  C   UNL A   1      32.489  31.578  27.024  1.00  0.00    -0.050 A 
ATOM     25  C   UNL A   1      33.558  31.894  27.855  1.00  0.00     0.004 A 
ATOM     26  C   UNL A   1      32.463  30.310  26.417  1.00  0.00     0.014 A 
ATOM     27  C   UNL A   1      34.636  31.020  27.965  1.00  0.00     0.004 A 
ATOM     28  C   UNL A   1      34.665  29.794  27.267  1.00  0.00    -0.042 A 
ATOM     29  C   UNL A   1      36.003  29.109  27.178  1.00  0.00     0.045 C 
ENDBRANCH  12  22
ENDBRANCH   9  11
ENDBRANCH   8   9
ENDBRANCH   7   8
ENDBRANCH   6   7
ENDBRANCH   5   6
ENDBRANCH   4   5
ENDBRANCH   3   4
ENDBRANCH   2   3
ENDBRANCH   1   2
BRANCH   1  30
ATOM     30  C   UNL A   1      36.506  20.762  25.052  1.00  0.00     0.188 C 
BRANCH  30  31
ATOM     31  O   UNL A   1      37.017  22.083  24.888  1.00  0.00    -0.376 OA
BRANCH  31  32
ATOM     32  C   UNL A   1      38.022  22.468  25.811  1.00  0.00     0.202 C 
BRANCH  32  33
ATOM     33  C   UNL A   1      37.857  23.949  26.141  1.00  0.00     0.261 C 
BRANCH  33  34
ATOM     34  O   UNL A   1      38.730  24.396  27.207  1.00  0.00    -0.460 OA
BRANCH  34  35
ATOM     35  C   UNL A   1      39.589  25.411  26.921  1.00  0.00     0.338 C 
ATOM     36  O   UNL A   1      40.264  25.494  25.902  1.00  0.00    -0.246 OA
BRANCH  35  37
ATOM     37  C   UNL A   1      39.620  26.381  28.060  1.00  0.00     0.060 A 
ATOM     38  C   UNL A   1      39.088  26.047  29.309  1.00  0.00     0.016 A 
ATOM     39  C   UNL A   1      40.059  27.693  27.843  1.00  0.00     0.016 A 
ATOM     40  C   UNL A   1      38.934  27.048  30.289  1.00  0.00     0.010 A 
ATOM     41  C   UNL A   1      39.837  28.695  28.785  1.00  0.00     0.010 A 
ATOM     42  C   UNL A   1      39.260  28.402  30.021  1.00  0.00    -0.014 A 
BRANCH  42  43
ATOM     43  C   UNL A   1      39.513  29.457  31.051  1.00  0.00     0.031 A 
ATOM     44  C   UNL A   1      38.324  30.314  31.007  1.00  0.00     0.074 A 
ATOM     45  C   UNL A   1      40.587  30.183  31.470  1.00  0.00     0.049 A 
ATOM     46  N   UNL A   1      38.234  31.375  30.272  1.00  0.00    -0.248 NA
ATOM     47  C   UNL A   1      37.060  29.828  31.563  1.00  0.00     0.031 C 
ATOM     48  C   UNL A   1      41.693  30.660  30.688  1.00  0.00     0.029 A 
ATOM     49  N   UNL A   1      41.013  30.450  32.788  1.00  0.00    -0.354 N 
ATOM     50  C   UNL A   1      37.029  31.917  30.639  1.00  0.00     0.074 A 
ATOM     51  C   UNL A   1      36.253  30.830  31.204  1.00  0.00     0.031 C 
ATOM     52  C   UNL A   1      42.755  30.907  31.464  1.00  0.00     0.029 A 
ATOM     53  C   UNL A   1      42.391  30.772  32.869  1.00  0.00     0.049 A 
ATOM     54  H   UNL A   1      40.416  30.416  33.570  1.00  0.00     0.167 HD
ATOM     55  C   UNL A   1      37.071  33.221  31.012  1.00  0.00     0.031 A 
ATOM     56  C   UNL A   1      43.058  31.596  33.724  1.00  0.00     0.031 A 
ATOM     57  C   UNL A   1      38.107  33.976  30.337  1.00  0.00     0.049 A 
ATOM     58  C   UNL A   1      42.726  33.004  33.369  1.00  0.00     0.074 A 
ATOM     59  C   UNL A   1      38.331  34.424  29.050  1.00  0.00     0.029 A 
ATOM     60  N   UNL A   1      39.319  34.027  30.979  1.00  0.00    -0.354 N 
ATOM     61  N   UNL A   1      43.133  33.642  32.307  1.00  0.00    -0.248 NA
ATOM     62  C   UNL A   1      41.583  33.598  34.060  1.00  0.00     0.031 C 
ATOM     63  C   UNL A   1      39.708  34.786  28.958  1.00  0.00     0.029 A 
ATOM     64  C   UNL A   1      40.308  34.570  30.191  1.00  0.00     0.049 A 
ATOM     65  H   UNL A   1      39.465  33.712  31.901  1.00  0.00     0.167 HD
ATOM     66  C   UNL A   1      42.023  34.386  31.943  1.00  0.00     0.074 A 
ATOM     67  C   UNL A   1      41.174  34.448  33.121  1.00  0.00     0.031 C 
ATOM     68  C   UNL A   1      41.686  34.577  30.638  1.00  0.00     0.031 A 
BRANCH  55  69
ATOM     69  C   UNL A   1      36.601  33.571  32.396  1.00  0.00    -0.014 A 
ATOM     70  C   UNL A   1      37.353  33.183  33.503  1.00  0.00     0.009 A 
ATOM     71  C   UNL A   1      35.310  34.097  32.645  1.00  0.00     0.009 A 
ATOM     72  C   UNL A   1      36.853  33.368  34.798  1.00  0.00     0.001 A 
ATOM     73  C   UNL A   1      34.829  34.330  33.926  1.00  0.00     0.001 A 
ATOM     74  C   UNL A   1      35.605  33.958  35.010  1.00  0.00     0.000 A 
ENDBRANCH  55  69
BRANCH  56  75
ATOM     75  C   UNL A   1      43.602  31.246  35.047  1.00  0.00    -0.014 A 
ATOM     76  C   UNL A   1      42.745  31.264  36.166  1.00  0.00     0.009 A 
ATOM     77  C   UNL A   1      44.953  30.958  35.257  1.00  0.00     0.009 A 
ATOM     78  C   UNL A   1      43.225  30.985  37.451  1.00  0.00     0.001 A 
ATOM     79  C   UNL A   1      45.430  30.661  36.540  1.00  0.00     0.001 A 
ATOM     80  C   UNL A   1      44.569  30.675  37.635  1.00  0.00     0.000 A 
ENDBRANCH  56  75
BRANCH  68  81
ATOM     81  C   UNL A   1      42.791  34.725  29.639  1.00  0.00    -0.014 A 
ATOM     82  C   UNL A   1      43.305  35.949  29.192  1.00  0.00     0.009 A 
ATOM     83  C   UNL A   1      43.381  33.546  29.159  1.00  0.00     0.009 A 
ATOM     84  C   UNL A   1      44.366  35.997  28.281  1.00  0.00     0.001 A 
ATOM     85  C   UNL A   1      44.449  33.590  28.261  1.00  0.00     0.001 A 
ATOM     86  C   UNL A   1      44.940  34.816  27.820  1.00  0.00     0.000 A 
ENDBRANCH  68  81
ENDBRANCH  42  43
ENDBRANCH  35  37
ENDBRANCH  34  35
ENDBRANCH  33  34
ENDBRANCH  32  33
ENDBRANCH  31  32
ENDBRANCH  30  31
ENDBRANCH   1  30
TORSDOF 21
ENDMDL
