MODEL 1
REMARK VINA RESULT:      -9.9      0.000      0.000
REMARK SMILES C[C@@H]1[C@@H](C(=O)OCCOCCOCCOCCOC(=O)c2ccc(-c3c4nc(c(-c5ccccc5)c5ccc([nH]5)c(-c5ccccc5)c5nc(c(-c6ccccc6)c6ccc3[nH]6)C=C5)C=C4)cc2)CCN1c1nc2sccn2c1[N+](=O)[O-]
REMARK SMILES IDX 12 1 11 2 10 3 9 4 8 5 7 6 6 7 4 8 5 9 3 10 1 11 2 12 71 13
REMARK SMILES IDX 69 14 70 15 72 16 73 17 79 18 74 19 78 20 75 21 77 22 76 23
REMARK SMILES IDX 80 24 81 25 82 26 13 27 14 28 15 29 16 30 17 31 18 32 19 33
REMARK SMILES IDX 20 34 21 35 22 36 68 37 23 38 67 39 24 40 25 41 26 42 61 43
REMARK SMILES IDX 27 44 66 45 60 46 62 47 28 48 65 49 59 50 58 51 29 53 51 54
REMARK SMILES IDX 36 55 50 56 37 57 40 58 49 59 63 60 38 61 39 62 48 64 64 65
REMARK SMILES IDX 41 66 30 67 31 68 35 69 32 70 34 71 33 72 52 73 53 74 57 75
REMARK SMILES IDX 54 76 56 77 55 78 42 79 43 80 47 81 44 82 46 83 45 84
REMARK H PARENT 62 52 40 63
REMARK Flexibility Score: inf
ROOT
ATOM      1  O   UNL A   1      34.175  32.975  29.200  1.00  0.00    -0.377 OA
ENDROOT
BRANCH   1   2
ATOM      2  C   UNL A   1      34.344  32.541  27.865  1.00  0.00     0.188 C 
BRANCH   2   3
ATOM      3  C   UNL A   1      34.626  31.034  27.753  1.00  0.00     0.188 C 
BRANCH   3   4
ATOM      4  O   UNL A   1      33.502  30.175  27.719  1.00  0.00    -0.376 OA
BRANCH   4   5
ATOM      5  C   UNL A   1      32.356  30.383  26.907  1.00  0.00     0.202 C 
BRANCH   5   6
ATOM      6  C   UNL A   1      32.026  29.742  25.543  1.00  0.00     0.261 C 
BRANCH   6   7
ATOM      7  O   UNL A   1      32.834  28.658  25.105  1.00  0.00    -0.463 OA
BRANCH   7   8
ATOM      8  C   UNL A   1      32.414  28.057  23.969  1.00  0.00     0.311 C 
ATOM      9  O   UNL A   1      33.070  28.007  22.939  1.00  0.00    -0.252 OA
BRANCH   8  10
ATOM     10  C   UNL A   1      31.064  27.399  24.220  1.00  0.00     0.123 C 
ATOM     11  C   UNL A   1      30.021  25.808  25.915  1.00  0.00     0.032 C 
ATOM     12  C   UNL A   1      31.273  26.194  25.131  1.00  0.00     0.095 C 
ATOM     13  N   UNL A   1      31.652  25.136  24.172  1.00  0.00    -0.346 N 
ATOM     14  C   UNL A   1      30.481  26.802  22.959  1.00  0.00     0.039 C 
ATOM     15  C   UNL A   1      31.331  25.548  22.804  1.00  0.00     0.119 C 
BRANCH  13  16
ATOM     16  C   UNL A   1      32.643  24.285  24.535  1.00  0.00     0.229 A 
ATOM     17  N   UNL A   1      33.929  24.656  24.170  1.00  0.00    -0.173 NA
ATOM     18  C   UNL A   1      32.662  23.070  25.204  1.00  0.00     0.373 A 
ATOM     19  C   UNL A   1      34.670  23.675  24.585  1.00  0.00     0.286 A 
ATOM     20  N   UNL A   1      33.977  22.689  25.219  1.00  0.00    -0.166 N 
ATOM     21  S   UNL A   1      36.369  23.338  24.519  1.00  0.00    -0.078 S 
ATOM     22  C   UNL A   1      34.762  21.642  25.667  1.00  0.00     0.220 A 
ATOM     23  C   UNL A   1      36.062  21.830  25.385  1.00  0.00     0.114 A 
BRANCH  18  24
ATOM     24  N   UNL A   1      31.674  22.237  25.777  1.00  0.00    -0.023 N 
ATOM     25  O   UNL A   1      30.980  22.682  26.692  1.00  0.00    -0.358 OA
ATOM     26  O   UNL A   1      31.551  21.104  25.295  1.00  0.00    -0.358 OA
ENDBRANCH  18  24
ENDBRANCH  13  16
ENDBRANCH   8  10
ENDBRANCH   7   8
ENDBRANCH   6   7
ENDBRANCH   5   6
ENDBRANCH   4   5
ENDBRANCH   3   4
ENDBRANCH   2   3
ENDBRANCH   1   2
BRANCH   1  27
ATOM     27  C   UNL A   1      34.403  34.355  29.466  1.00  0.00     0.188 C 
BRANCH  27  28
ATOM     28  C   UNL A   1      33.297  35.240  30.091  1.00  0.00     0.188 C 
BRANCH  28  29
ATOM     29  O   UNL A   1      32.930  34.901  31.420  1.00  0.00    -0.376 OA
BRANCH  29  30
ATOM     30  C   UNL A   1      33.940  34.764  32.405  1.00  0.00     0.202 C 
BRANCH  30  31
ATOM     31  C   UNL A   1      34.037  33.409  33.126  1.00  0.00     0.261 C 
BRANCH  31  32
ATOM     32  O   UNL A   1      35.012  32.494  32.606  1.00  0.00    -0.460 OA
BRANCH  32  33
ATOM     33  C   UNL A   1      36.155  32.353  33.306  1.00  0.00     0.338 C 
ATOM     34  O   UNL A   1      36.345  32.642  34.477  1.00  0.00    -0.246 OA
BRANCH  33  35
ATOM     35  C   UNL A   1      37.107  31.595  32.471  1.00  0.00     0.060 A 
ATOM     36  C   UNL A   1      38.108  30.841  33.100  1.00  0.00     0.016 A 
ATOM     37  C   UNL A   1      37.005  31.614  31.077  1.00  0.00     0.016 A 
ATOM     38  C   UNL A   1      39.037  30.138  32.335  1.00  0.00     0.010 A 
ATOM     39  C   UNL A   1      37.954  30.930  30.311  1.00  0.00     0.010 A 
ATOM     40  C   UNL A   1      38.995  30.223  30.938  1.00  0.00    -0.014 A 
BRANCH  40  41
ATOM     41  C   UNL A   1      40.157  29.760  30.145  1.00  0.00     0.031 A 
ATOM     42  C   UNL A   1      41.270  30.740  29.883  1.00  0.00     0.074 A 
ATOM     43  C   UNL A   1      40.245  28.499  29.689  1.00  0.00     0.049 A 
ATOM     44  N   UNL A   1      42.366  30.587  29.185  1.00  0.00    -0.248 NA
ATOM     45  C   UNL A   1      41.124  32.073  30.492  1.00  0.00     0.031 C 
ATOM     46  C   UNL A   1      39.265  27.442  29.921  1.00  0.00     0.029 A 
ATOM     47  N   UNL A   1      41.215  27.900  28.925  1.00  0.00    -0.354 N 
ATOM     48  C   UNL A   1      43.031  31.805  29.263  1.00  0.00     0.074 A 
ATOM     49  C   UNL A   1      42.204  32.694  30.048  1.00  0.00     0.031 C 
ATOM     50  C   UNL A   1      39.681  26.321  29.305  1.00  0.00     0.029 A 
ATOM     51  C   UNL A   1      40.934  26.595  28.604  1.00  0.00     0.049 A 
ATOM     52  H   UNL A   1      42.035  28.362  28.634  1.00  0.00     0.167 HD
ATOM     53  C   UNL A   1      44.227  32.152  28.733  1.00  0.00     0.031 A 
ATOM     54  C   UNL A   1      41.602  25.731  27.815  1.00  0.00     0.031 A 
ATOM     55  C   UNL A   1      45.041  31.274  27.936  1.00  0.00     0.049 A 
ATOM     56  C   UNL A   1      42.886  26.171  27.156  1.00  0.00     0.074 A 
ATOM     57  C   UNL A   1      46.272  31.528  27.360  1.00  0.00     0.029 A 
ATOM     58  N   UNL A   1      44.698  29.975  27.595  1.00  0.00    -0.354 N 
ATOM     59  N   UNL A   1      43.518  27.316  27.254  1.00  0.00    -0.248 NA
ATOM     60  C   UNL A   1      43.550  25.193  26.282  1.00  0.00     0.031 C 
ATOM     61  C   UNL A   1      46.643  30.406  26.613  1.00  0.00     0.029 A 
ATOM     62  C   UNL A   1      45.679  29.426  26.787  1.00  0.00     0.049 A 
ATOM     63  H   UNL A   1      43.878  29.512  27.883  1.00  0.00     0.167 HD
ATOM     64  C   UNL A   1      44.668  27.183  26.486  1.00  0.00     0.074 A 
ATOM     65  C   UNL A   1      44.653  25.842  25.940  1.00  0.00     0.031 C 
ATOM     66  C   UNL A   1      45.651  28.089  26.253  1.00  0.00     0.031 A 
BRANCH  53  67
ATOM     67  C   UNL A   1      44.704  33.560  28.962  1.00  0.00    -0.014 A 
ATOM     68  C   UNL A   1      45.534  33.886  30.048  1.00  0.00     0.009 A 
ATOM     69  C   UNL A   1      44.335  34.572  28.062  1.00  0.00     0.009 A 
ATOM     70  C   UNL A   1      45.955  35.203  30.244  1.00  0.00     0.001 A 
ATOM     71  C   UNL A   1      44.784  35.880  28.243  1.00  0.00     0.001 A 
ATOM     72  C   UNL A   1      45.586  36.197  29.339  1.00  0.00     0.000 A 
ENDBRANCH  53  67
BRANCH  54  73
ATOM     73  C   UNL A   1      41.064  24.364  27.576  1.00  0.00    -0.014 A 
ATOM     74  C   UNL A   1      41.634  23.247  28.206  1.00  0.00     0.009 A 
ATOM     75  C   UNL A   1      39.997  24.166  26.687  1.00  0.00     0.009 A 
ATOM     76  C   UNL A   1      41.166  21.960  27.927  1.00  0.00     0.001 A 
ATOM     77  C   UNL A   1      39.509  22.882  26.434  1.00  0.00     0.001 A 
ATOM     78  C   UNL A   1      40.102  21.779  27.046  1.00  0.00     0.000 A 
ENDBRANCH  54  73
BRANCH  66  79
ATOM     79  C   UNL A   1      46.818  27.646  25.412  1.00  0.00    -0.014 A 
ATOM     80  C   UNL A   1      47.901  26.945  25.965  1.00  0.00     0.009 A 
ATOM     81  C   UNL A   1      46.808  27.897  24.030  1.00  0.00     0.009 A 
ATOM     82  C   UNL A   1      48.966  26.540  25.158  1.00  0.00     0.001 A 
ATOM     83  C   UNL A   1      47.858  27.460  23.221  1.00  0.00     0.001 A 
ATOM     84  C   UNL A   1      48.941  26.791  23.787  1.00  0.00     0.000 A 
ENDBRANCH  66  79
ENDBRANCH  40  41
ENDBRANCH  33  35
ENDBRANCH  32  33
ENDBRANCH  31  32
ENDBRANCH  30  31
ENDBRANCH  29  30
ENDBRANCH  28  29
ENDBRANCH  27  28
ENDBRANCH   1  27
TORSDOF 22
ENDMDL
MODEL 2
REMARK VINA RESULT:      -9.6      3.994      8.941
REMARK SMILES C[C@@H]1[C@@H](C(=O)OCCOCCOCCOCCOC(=O)c2ccc(-c3c4nc(c(-c5ccccc5)c5ccc([nH]5)c(-c5ccccc5)c5nc(c(-c6ccccc6)c6ccc3[nH]6)C=C5)C=C4)cc2)CCN1c1nc2sccn2c1[N+](=O)[O-]
REMARK SMILES IDX 12 1 11 2 10 3 9 4 8 5 7 6 6 7 4 8 5 9 3 10 1 11 2 12 71 13
REMARK SMILES IDX 69 14 70 15 72 16 73 17 79 18 74 19 78 20 75 21 77 22 76 23
REMARK SMILES IDX 80 24 81 25 82 26 13 27 14 28 15 29 16 30 17 31 18 32 19 33
REMARK SMILES IDX 20 34 21 35 22 36 68 37 23 38 67 39 24 40 25 41 26 42 61 43
REMARK SMILES IDX 27 44 66 45 60 46 62 47 28 48 65 49 59 50 58 51 29 53 51 54
REMARK SMILES IDX 36 55 50 56 37 57 40 58 49 59 63 60 38 61 39 62 48 64 64 65
REMARK SMILES IDX 41 66 30 67 31 68 35 69 32 70 34 71 33 72 52 73 53 74 57 75
REMARK SMILES IDX 54 76 56 77 55 78 42 79 43 80 47 81 44 82 46 83 45 84
REMARK H PARENT 62 52 40 63
REMARK Flexibility Score: inf
ROOT
ATOM      1  O   UNL A   1      34.223  22.286  23.852  1.00  0.00    -0.377 OA
ENDROOT
BRANCH   1   2
ATOM      2  C   UNL A   1      33.989  21.046  24.489  1.00  0.00     0.188 C 
BRANCH   2   3
ATOM      3  C   UNL A   1      33.649  21.190  25.981  1.00  0.00     0.188 C 
BRANCH   3   4
ATOM      4  O   UNL A   1      32.889  22.323  26.356  1.00  0.00    -0.376 OA
BRANCH   4   5
ATOM      5  C   UNL A   1      31.545  22.557  25.962  1.00  0.00     0.202 C 
BRANCH   5   6
ATOM      6  C   UNL A   1      30.990  23.723  25.120  1.00  0.00     0.261 C 
BRANCH   6   7
ATOM      7  O   UNL A   1      31.181  25.045  25.606  1.00  0.00    -0.463 OA
BRANCH   7   8
ATOM      8  C   UNL A   1      32.360  25.612  25.267  1.00  0.00     0.311 C 
ATOM      9  O   UNL A   1      32.981  25.345  24.249  1.00  0.00    -0.252 OA
BRANCH   8  10
ATOM     10  C   UNL A   1      32.721  26.674  26.299  1.00  0.00     0.123 C 
ATOM     11  C   UNL A   1      31.532  28.473  27.655  1.00  0.00     0.032 C 
ATOM     12  C   UNL A   1      31.608  27.716  26.331  1.00  0.00     0.095 C 
ATOM     13  N   UNL A   1      31.986  28.614  25.221  1.00  0.00    -0.346 N 
ATOM     14  C   UNL A   1      33.945  27.463  25.896  1.00  0.00     0.039 C 
ATOM     15  C   UNL A   1      33.371  28.369  24.814  1.00  0.00     0.119 C 
BRANCH  13  16
ATOM     16  C   UNL A   1      30.993  29.080  24.423  1.00  0.00     0.229 A 
ATOM     17  N   UNL A   1      30.634  30.406  24.609  1.00  0.00    -0.173 NA
ATOM     18  C   UNL A   1      30.215  28.502  23.431  1.00  0.00     0.373 A 
ATOM     19  C   UNL A   1      29.656  30.587  23.776  1.00  0.00     0.286 A 
ATOM     20  N   UNL A   1      29.353  29.488  23.032  1.00  0.00    -0.166 N 
ATOM     21  S   UNL A   1      28.641  31.939  23.386  1.00  0.00    -0.078 S 
ATOM     22  C   UNL A   1      28.314  29.677  22.138  1.00  0.00     0.220 A 
ATOM     23  C   UNL A   1      27.825  30.928  22.190  1.00  0.00     0.114 A 
BRANCH  18  24
ATOM     24  N   UNL A   1      30.140  27.215  22.851  1.00  0.00    -0.023 N 
ATOM     25  O   UNL A   1      29.341  26.401  23.314  1.00  0.00    -0.358 OA
ATOM     26  O   UNL A   1      30.876  26.997  21.881  1.00  0.00    -0.358 OA
ENDBRANCH  18  24
ENDBRANCH  13  16
ENDBRANCH   8  10
ENDBRANCH   7   8
ENDBRANCH   6   7
ENDBRANCH   5   6
ENDBRANCH   4   5
ENDBRANCH   3   4
ENDBRANCH   2   3
ENDBRANCH   1   2
BRANCH   1  27
ATOM     27  C   UNL A   1      35.422  22.973  24.195  1.00  0.00     0.188 C 
BRANCH  27  28
ATOM     28  C   UNL A   1      36.779  22.571  23.567  1.00  0.00     0.188 C 
BRANCH  28  29
ATOM     29  O   UNL A   1      37.467  21.522  24.232  1.00  0.00    -0.376 OA
BRANCH  29  30
ATOM     30  C   UNL A   1      37.823  21.681  25.595  1.00  0.00     0.202 C 
BRANCH  30  31
ATOM     31  C   UNL A   1      39.321  21.646  25.937  1.00  0.00     0.261 C 
BRANCH  31  32
ATOM     32  O   UNL A   1      39.850  20.362  26.296  1.00  0.00    -0.460 OA
BRANCH  32  33
ATOM     33  C   UNL A   1      41.174  20.174  26.124  1.00  0.00     0.338 C 
ATOM     34  O   UNL A   1      41.718  19.270  25.509  1.00  0.00    -0.246 OA
BRANCH  33  35
ATOM     35  C   UNL A   1      41.873  21.367  26.641  1.00  0.00     0.060 A 
ATOM     36  C   UNL A   1      41.905  21.586  28.025  1.00  0.00     0.016 A 
ATOM     37  C   UNL A   1      42.503  22.258  25.768  1.00  0.00     0.016 A 
ATOM     38  C   UNL A   1      42.532  22.720  28.538  1.00  0.00     0.010 A 
ATOM     39  C   UNL A   1      43.109  23.408  26.282  1.00  0.00     0.010 A 
ATOM     40  C   UNL A   1      43.091  23.661  27.665  1.00  0.00    -0.014 A 
BRANCH  40  41
ATOM     41  C   UNL A   1      43.454  25.003  28.176  1.00  0.00     0.031 A 
ATOM     42  C   UNL A   1      42.348  26.001  28.393  1.00  0.00     0.074 A 
ATOM     43  C   UNL A   1      44.725  25.328  28.470  1.00  0.00     0.049 A 
ATOM     44  N   UNL A   1      42.417  27.246  28.791  1.00  0.00    -0.248 NA
ATOM     45  C   UNL A   1      40.980  25.529  28.122  1.00  0.00     0.031 C 
ATOM     46  C   UNL A   1      45.877  24.436  28.358  1.00  0.00     0.029 A 
ATOM     47  N   UNL A   1      45.255  26.510  28.921  1.00  0.00    -0.354 N 
ATOM     48  C   UNL A   1      41.105  27.705  28.807  1.00  0.00     0.074 A 
ATOM     49  C   UNL A   1      40.266  26.619  28.350  1.00  0.00     0.031 C 
ATOM     50  C   UNL A   1      46.983  25.107  28.725  1.00  0.00     0.029 A 
ATOM     51  C   UNL A   1      46.621  26.484  29.059  1.00  0.00     0.049 A 
ATOM     52  H   UNL A   1      44.708  27.303  29.126  1.00  0.00     0.167 HD
ATOM     53  C   UNL A   1      40.639  28.921  29.174  1.00  0.00     0.031 A 
ATOM     54  C   UNL A   1      47.480  27.467  29.393  1.00  0.00     0.031 A 
ATOM     55  C   UNL A   1      41.474  30.007  29.610  1.00  0.00     0.049 A 
ATOM     56  C   UNL A   1      46.945  28.842  29.705  1.00  0.00     0.074 A 
ATOM     57  C   UNL A   1      41.098  31.276  30.011  1.00  0.00     0.029 A 
ATOM     58  N   UNL A   1      42.857  29.955  29.690  1.00  0.00    -0.354 N 
ATOM     59  N   UNL A   1      45.702  29.260  29.740  1.00  0.00    -0.248 NA
ATOM     60  C   UNL A   1      47.935  29.879  30.031  1.00  0.00     0.031 C 
ATOM     61  C   UNL A   1      42.258  32.013  30.269  1.00  0.00     0.029 A 
ATOM     62  C   UNL A   1      43.352  31.180  30.102  1.00  0.00     0.049 A 
ATOM     63  H   UNL A   1      43.406  29.163  29.483  1.00  0.00     0.167 HD
ATOM     64  C   UNL A   1      45.760  30.594  30.125  1.00  0.00     0.074 A 
ATOM     65  C   UNL A   1      47.159  30.911  30.326  1.00  0.00     0.031 C 
ATOM     66  C   UNL A   1      44.747  31.479  30.300  1.00  0.00     0.031 A 
BRANCH  53  67
ATOM     67  C   UNL A   1      39.156  29.153  29.075  1.00  0.00    -0.014 A 
ATOM     68  C   UNL A   1      38.307  28.954  30.176  1.00  0.00     0.009 A 
ATOM     69  C   UNL A   1      38.604  29.601  27.865  1.00  0.00     0.009 A 
ATOM     70  C   UNL A   1      36.932  29.167  30.056  1.00  0.00     0.001 A 
ATOM     71  C   UNL A   1      37.234  29.844  27.757  1.00  0.00     0.001 A 
ATOM     72  C   UNL A   1      36.398  29.617  28.849  1.00  0.00     0.000 A 
ENDBRANCH  53  67
BRANCH  54  73
ATOM     73  C   UNL A   1      48.944  27.203  29.428  1.00  0.00    -0.014 A 
ATOM     74  C   UNL A   1      49.689  27.126  28.241  1.00  0.00     0.009 A 
ATOM     75  C   UNL A   1      49.599  26.991  30.651  1.00  0.00     0.009 A 
ATOM     76  C   UNL A   1      51.051  26.813  28.277  1.00  0.00     0.001 A 
ATOM     77  C   UNL A   1      50.967  26.711  30.687  1.00  0.00     0.001 A 
ATOM     78  C   UNL A   1      51.688  26.610  29.499  1.00  0.00     0.000 A 
ENDBRANCH  54  73
BRANCH  66  79
ATOM     79  C   UNL A   1      45.106  32.861  30.777  1.00  0.00    -0.014 A 
ATOM     80  C   UNL A   1      45.376  33.904  29.878  1.00  0.00     0.009 A 
ATOM     81  C   UNL A   1      45.127  33.132  32.156  1.00  0.00     0.009 A 
ATOM     82  C   UNL A   1      45.698  35.178  30.351  1.00  0.00     0.001 A 
ATOM     83  C   UNL A   1      45.414  34.414  32.624  1.00  0.00     0.001 A 
ATOM     84  C   UNL A   1      45.710  35.435  31.721  1.00  0.00     0.000 A 
ENDBRANCH  66  79
ENDBRANCH  40  41
ENDBRANCH  33  35
ENDBRANCH  32  33
ENDBRANCH  31  32
ENDBRANCH  30  31
ENDBRANCH  29  30
ENDBRANCH  28  29
ENDBRANCH  27  28
ENDBRANCH   1  27
TORSDOF 22
ENDMDL
MODEL 3
REMARK VINA RESULT:      -9.5      3.861      5.864
REMARK SMILES C[C@@H]1[C@@H](C(=O)OCCOCCOCCOCCOC(=O)c2ccc(-c3c4nc(c(-c5ccccc5)c5ccc([nH]5)c(-c5ccccc5)c5nc(c(-c6ccccc6)c6ccc3[nH]6)C=C5)C=C4)cc2)CCN1c1nc2sccn2c1[N+](=O)[O-]
REMARK SMILES IDX 12 1 11 2 10 3 9 4 8 5 7 6 6 7 4 8 5 9 3 10 1 11 2 12 71 13
REMARK SMILES IDX 69 14 70 15 72 16 73 17 79 18 74 19 78 20 75 21 77 22 76 23
REMARK SMILES IDX 80 24 81 25 82 26 13 27 14 28 15 29 16 30 17 31 18 32 19 33
REMARK SMILES IDX 20 34 21 35 22 36 68 37 23 38 67 39 24 40 25 41 26 42 61 43
REMARK SMILES IDX 27 44 66 45 60 46 62 47 28 48 65 49 59 50 58 51 29 53 51 54
REMARK SMILES IDX 36 55 50 56 37 57 40 58 49 59 63 60 38 61 39 62 48 64 64 65
REMARK SMILES IDX 41 66 30 67 31 68 35 69 32 70 34 71 33 72 52 73 53 74 57 75
REMARK SMILES IDX 54 76 56 77 55 78 42 79 43 80 47 81 44 82 46 83 45 84
REMARK H PARENT 62 52 40 63
REMARK Flexibility Score: inf
ROOT
ATOM      1  O   UNL A   1      32.682  29.017  24.214  1.00  0.00    -0.377 OA
ENDROOT
BRANCH   1   2
ATOM      2  C   UNL A   1      31.323  29.286  23.930  1.00  0.00     0.188 C 
BRANCH   2   3
ATOM      3  C   UNL A   1      30.926  28.927  22.489  1.00  0.00     0.188 C 
BRANCH   3   4
ATOM      4  O   UNL A   1      30.216  27.717  22.306  1.00  0.00    -0.376 OA
BRANCH   4   5
ATOM      5  C   UNL A   1      30.374  26.561  23.116  1.00  0.00     0.202 C 
BRANCH   5   6
ATOM      6  C   UNL A   1      31.412  25.430  22.968  1.00  0.00     0.261 C 
BRANCH   6   7
ATOM      7  O   UNL A   1      32.680  25.606  23.586  1.00  0.00    -0.463 OA
BRANCH   7   8
ATOM      8  C   UNL A   1      33.653  24.783  23.134  1.00  0.00     0.311 C 
ATOM      9  O   UNL A   1      33.661  24.280  22.020  1.00  0.00    -0.252 OA
BRANCH   8  10
ATOM     10  C   UNL A   1      34.745  24.672  24.190  1.00  0.00     0.123 C 
ATOM     11  C   UNL A   1      36.729  23.159  24.706  1.00  0.00     0.032 C 
ATOM     12  C   UNL A   1      35.307  23.255  24.159  1.00  0.00     0.095 C 
ATOM     13  N   UNL A   1      34.353  22.518  25.014  1.00  0.00    -0.346 N 
ATOM     14  C   UNL A   1      34.195  24.812  25.591  1.00  0.00     0.039 C 
ATOM     15  C   UNL A   1      33.534  23.454  25.788  1.00  0.00     0.119 C 
BRANCH  13  16
ATOM     16  C   UNL A   1      33.981  21.276  24.616  1.00  0.00     0.229 A 
ATOM     17  N   UNL A   1      34.762  20.229  25.082  1.00  0.00    -0.173 NA
ATOM     18  C   UNL A   1      32.963  20.798  23.805  1.00  0.00     0.373 A 
ATOM     19  C   UNL A   1      34.236  19.177  24.535  1.00  0.00     0.286 A 
ATOM     20  N   UNL A   1      33.149  19.442  23.759  1.00  0.00    -0.166 N 
ATOM     21  S   UNL A   1      34.607  17.483  24.580  1.00  0.00    -0.078 S 
ATOM     22  C   UNL A   1      32.581  18.324  23.176  1.00  0.00     0.220 A 
ATOM     23  C   UNL A   1      33.228  17.195  23.515  1.00  0.00     0.114 A 
BRANCH  18  24
ATOM     24  N   UNL A   1      31.910  21.396  23.076  1.00  0.00    -0.023 N 
ATOM     25  O   UNL A   1      31.167  22.191  23.651  1.00  0.00    -0.358 OA
ATOM     26  O   UNL A   1      31.819  21.096  21.879  1.00  0.00    -0.358 OA
ENDBRANCH  18  24
ENDBRANCH  13  16
ENDBRANCH   8  10
ENDBRANCH   7   8
ENDBRANCH   6   7
ENDBRANCH   5   6
ENDBRANCH   4   5
ENDBRANCH   3   4
ENDBRANCH   2   3
ENDBRANCH   1   2
BRANCH   1  27
ATOM     27  C   UNL A   1      33.000  28.626  25.545  1.00  0.00     0.188 C 
BRANCH  27  28
ATOM     28  C   UNL A   1      32.073  28.998  26.728  1.00  0.00     0.188 C 
BRANCH  28  29
ATOM     29  O   UNL A   1      32.262  30.303  27.257  1.00  0.00    -0.376 OA
BRANCH  29  30
ATOM     30  C   UNL A   1      31.795  31.423  26.524  1.00  0.00     0.202 C 
BRANCH  30  31
ATOM     31  C   UNL A   1      31.768  32.776  27.252  1.00  0.00     0.261 C 
BRANCH  31  32
ATOM     32  O   UNL A   1      33.008  33.497  27.278  1.00  0.00    -0.460 OA
BRANCH  32  33
ATOM     33  C   UNL A   1      33.221  34.314  28.329  1.00  0.00     0.338 C 
ATOM     34  O   UNL A   1      32.476  35.183  28.752  1.00  0.00    -0.246 OA
BRANCH  33  35
ATOM     35  C   UNL A   1      34.437  33.848  29.025  1.00  0.00     0.060 A 
ATOM     36  C   UNL A   1      35.690  34.173  28.487  1.00  0.00     0.016 A 
ATOM     37  C   UNL A   1      34.343  33.109  30.207  1.00  0.00     0.016 A 
ATOM     38  C   UNL A   1      36.854  33.722  29.107  1.00  0.00     0.010 A 
ATOM     39  C   UNL A   1      35.510  32.636  30.813  1.00  0.00     0.010 A 
ATOM     40  C   UNL A   1      36.766  32.908  30.243  1.00  0.00    -0.014 A 
BRANCH  40  41
ATOM     41  C   UNL A   1      37.963  32.165  30.701  1.00  0.00     0.031 A 
ATOM     42  C   UNL A   1      38.739  32.720  31.865  1.00  0.00     0.074 A 
ATOM     43  C   UNL A   1      38.343  31.012  30.122  1.00  0.00     0.049 A 
ATOM     44  N   UNL A   1      39.837  32.276  32.420  1.00  0.00    -0.248 NA
ATOM     45  C   UNL A   1      38.200  33.941  32.487  1.00  0.00     0.031 C 
ATOM     46  C   UNL A   1      37.648  30.343  29.026  1.00  0.00     0.029 A 
ATOM     47  N   UNL A   1      39.422  30.205  30.383  1.00  0.00    -0.354 N 
ATOM     48  C   UNL A   1      40.125  33.170  33.446  1.00  0.00     0.074 A 
ATOM     49  C   UNL A   1      39.105  34.195  33.417  1.00  0.00     0.031 C 
ATOM     50  C   UNL A   1      38.323  29.225  28.702  1.00  0.00     0.029 A 
ATOM     51  C   UNL A   1      39.516  29.124  29.541  1.00  0.00     0.049 A 
ATOM     52  H   UNL A   1      40.067  30.383  31.106  1.00  0.00     0.167 HD
ATOM     53  C   UNL A   1      41.143  33.137  34.336  1.00  0.00     0.031 A 
ATOM     54  C   UNL A   1      40.471  28.178  29.445  1.00  0.00     0.031 A 
ATOM     55  C   UNL A   1      42.168  32.129  34.352  1.00  0.00     0.049 A 
ATOM     56  C   UNL A   1      41.649  28.218  30.386  1.00  0.00     0.074 A 
ATOM     57  C   UNL A   1      43.239  32.003  35.218  1.00  0.00     0.029 A 
ATOM     58  N   UNL A   1      42.254  31.078  33.452  1.00  0.00    -0.354 N 
ATOM     59  N   UNL A   1      41.899  29.053  31.367  1.00  0.00    -0.248 NA
ATOM     60  C   UNL A   1      42.671  27.177  30.210  1.00  0.00     0.031 C 
ATOM     61  C   UNL A   1      44.011  30.915  34.801  1.00  0.00     0.029 A 
ATOM     62  C   UNL A   1      43.379  30.318  33.721  1.00  0.00     0.049 A 
ATOM     63  H   UNL A   1      41.611  30.899  32.728  1.00  0.00     0.167 HD
ATOM     64  C   UNL A   1      43.086  28.617  31.943  1.00  0.00     0.074 A 
ATOM     65  C   UNL A   1      43.497  27.436  31.213  1.00  0.00     0.031 C 
ATOM     66  C   UNL A   1      43.774  29.144  32.986  1.00  0.00     0.031 A 
BRANCH  53  67
ATOM     67  C   UNL A   1      41.222  34.256  35.338  1.00  0.00    -0.014 A 
ATOM     68  C   UNL A   1      40.474  34.230  36.527  1.00  0.00     0.009 A 
ATOM     69  C   UNL A   1      42.079  35.341  35.099  1.00  0.00     0.009 A 
ATOM     70  C   UNL A   1      40.558  35.285  37.437  1.00  0.00     0.001 A 
ATOM     71  C   UNL A   1      42.185  36.379  36.026  1.00  0.00     0.001 A 
ATOM     72  C   UNL A   1      41.417  36.355  37.189  1.00  0.00     0.000 A 
ENDBRANCH  53  67
BRANCH  54  73
ATOM     73  C   UNL A   1      40.375  27.121  28.402  1.00  0.00    -0.014 A 
ATOM     74  C   UNL A   1      40.948  27.307  27.135  1.00  0.00     0.009 A 
ATOM     75  C   UNL A   1      39.678  25.930  28.660  1.00  0.00     0.009 A 
ATOM     76  C   UNL A   1      40.798  26.337  26.139  1.00  0.00     0.001 A 
ATOM     77  C   UNL A   1      39.557  24.948  27.674  1.00  0.00     0.001 A 
ATOM     78  C   UNL A   1      40.108  25.158  26.412  1.00  0.00     0.000 A 
ENDBRANCH  54  73
BRANCH  66  79
ATOM     79  C   UNL A   1      45.017  28.423  33.434  1.00  0.00    -0.014 A 
ATOM     80  C   UNL A   1      46.287  28.769  32.946  1.00  0.00     0.009 A 
ATOM     81  C   UNL A   1      44.917  27.408  34.400  1.00  0.00     0.009 A 
ATOM     82  C   UNL A   1      47.423  28.087  33.387  1.00  0.00     0.001 A 
ATOM     83  C   UNL A   1      46.058  26.752  34.864  1.00  0.00     0.001 A 
ATOM     84  C   UNL A   1      47.310  27.086  34.349  1.00  0.00     0.000 A 
ENDBRANCH  66  79
ENDBRANCH  40  41
ENDBRANCH  33  35
ENDBRANCH  32  33
ENDBRANCH  31  32
ENDBRANCH  30  31
ENDBRANCH  29  30
ENDBRANCH  28  29
ENDBRANCH  27  28
ENDBRANCH   1  27
TORSDOF 22
ENDMDL
