MODEL 1
REMARK VINA RESULT:     -11.7      0.000      0.000
REMARK SMILES Cc1ccc(-c2nc(NC(=O)[C@H]3[C@@H](C(=O)OCCOCCOCCOCCOC(=O)c4ccc(-c5c6nc(c(-c7ccccc7)c7ccc([nH]7)c(-c7ccccc7)c7nc(c(-c8ccccc8)c8ccc5[nH]8)C=C7)C=C6)cc4)[C@@H]4CC[C@H]3O4)sc2C)cc1
REMARK SMILES IDX 21 1 20 2 19 3 18 4 17 5 16 6 14 7 15 8 13 9 12 10 82 11
REMARK SMILES IDX 79 12 81 13 83 14 80 15 10 16 9 17 11 19 8 20 6 21 7 22
REMARK SMILES IDX 85 23 84 24 86 25 5 26 1 27 2 28 3 29 88 30 4 31 87 32 22 33
REMARK SMILES IDX 23 34 24 35 25 36 26 37 27 38 28 39 29 40 30 41 31 42 32 43
REMARK SMILES IDX 78 44 33 45 77 46 34 47 35 48 36 49 71 50 37 51 76 52 70 53
REMARK SMILES IDX 72 54 38 55 75 56 69 57 68 58 39 60 61 61 46 62 60 63 47 64
REMARK SMILES IDX 50 65 59 66 73 67 48 68 49 69 58 71 74 72 51 73 40 74 41 75
REMARK SMILES IDX 45 76 42 77 44 78 43 79 62 80 63 81 67 82 64 83 66 84 65 85
REMARK SMILES IDX 52 86 53 87 57 88 54 89 56 90 55 91
REMARK H PARENT 9 18 72 59 50 70
REMARK Flexibility Score: inf
ROOT
ATOM      1  C   UNL A   1      34.964  29.581  27.437  1.00  0.00     0.188 C 
ENDROOT
BRANCH   1   2
ATOM      2  C   UNL A   1      33.761  28.664  27.088  1.00  0.00     0.188 C 
BRANCH   2   3
ATOM      3  O   UNL A   1      32.446  29.132  27.385  1.00  0.00    -0.376 OA
BRANCH   3   4
ATOM      4  C   UNL A   1      31.453  28.154  27.409  1.00  0.00     0.202 C 
BRANCH   4   5
ATOM      5  C   UNL A   1      31.493  27.050  26.431  1.00  0.00     0.261 C 
BRANCH   5   6
ATOM      6  O   UNL A   1      31.445  25.768  27.025  1.00  0.00    -0.463 OA
BRANCH   6   7
ATOM      7  C   UNL A   1      31.623  24.588  26.430  1.00  0.00     0.312 C 
ATOM      8  O   UNL A   1      30.733  23.740  26.549  1.00  0.00    -0.252 OA
BRANCH   7   9
ATOM      9  C   UNL A   1      32.925  24.160  25.784  1.00  0.00     0.143 C 
ATOM     10  C   UNL A   1      33.119  23.298  24.538  1.00  0.00     0.124 C 
ATOM     11  C   UNL A   1      33.456  21.903  25.214  1.00  0.00     0.132 C 
ATOM     12  C   UNL A   1      33.639  23.313  26.849  1.00  0.00     0.133 C 
ATOM     13  C   UNL A   1      34.945  21.817  25.536  1.00  0.00     0.035 C 
ATOM     14  O   UNL A   1      33.000  22.053  26.581  1.00  0.00    -0.373 OA
ATOM     15  C   UNL A   1      35.098  23.026  26.464  1.00  0.00     0.036 C 
BRANCH  10  16
ATOM     16  C   UNL A   1      32.186  23.179  23.338  1.00  0.00     0.232 C 
ATOM     17  N   UNL A   1      31.811  24.127  22.431  1.00  0.00    -0.302 N 
ATOM     18  H   UNL A   1      31.361  23.738  21.646  1.00  0.00     0.172 HD
ATOM     19  O   UNL A   1      31.688  22.057  23.143  1.00  0.00    -0.274 OA
BRANCH  17  20
ATOM     20  C   UNL A   1      31.913  25.497  22.354  1.00  0.00     0.190 A 
ATOM     21  C   UNL A   1      31.207  27.687  22.821  1.00  0.00     0.086 A 
ATOM     22  N   UNL A   1      30.911  26.324  22.595  1.00  0.00    -0.220 NA
ATOM     23  C   UNL A   1      32.778  27.599  22.893  1.00  0.00     0.031 A 
ATOM     24  S   UNL A   1      33.324  26.219  21.914  1.00  0.00    -0.101 S 
ATOM     25  C   UNL A   1      34.067  28.334  23.390  1.00  0.00     0.059 C 
BRANCH  21  26
ATOM     26  C   UNL A   1      29.908  29.077  23.013  1.00  0.00     0.001 A 
ATOM     27  C   UNL A   1      28.088  33.141  22.230  1.00  0.00     0.044 C 
ATOM     28  C   UNL A   1      28.456  31.768  22.682  1.00  0.00    -0.051 A 
ATOM     29  C   UNL A   1      29.179  31.449  23.806  1.00  0.00     0.004 A 
ATOM     30  C   UNL A   1      28.134  30.693  21.915  1.00  0.00     0.004 A 
ATOM     31  C   UNL A   1      29.798  30.146  23.972  1.00  0.00     0.010 A 
ATOM     32  C   UNL A   1      28.791  29.449  22.110  1.00  0.00     0.010 A 
ENDBRANCH  21  26
ENDBRANCH  17  20
ENDBRANCH  10  16
ENDBRANCH   7   9
ENDBRANCH   6   7
ENDBRANCH   5   6
ENDBRANCH   4   5
ENDBRANCH   3   4
ENDBRANCH   2   3
ENDBRANCH   1   2
BRANCH   1  33
ATOM     33  O   UNL A   1      34.850  31.004  27.352  1.00  0.00    -0.377 OA
BRANCH  33  34
ATOM     34  C   UNL A   1      34.588  31.753  28.540  1.00  0.00     0.188 C 
BRANCH  34  35
ATOM     35  C   UNL A   1      33.962  33.106  28.255  1.00  0.00     0.188 C 
BRANCH  35  36
ATOM     36  O   UNL A   1      34.797  34.171  28.684  1.00  0.00    -0.376 OA
BRANCH  36  37
ATOM     37  C   UNL A   1      34.277  35.458  28.398  1.00  0.00     0.202 C 
BRANCH  37  38
ATOM     38  C   UNL A   1      33.148  35.700  29.398  1.00  0.00     0.261 C 
BRANCH  38  39
ATOM     39  O   UNL A   1      33.796  35.923  30.702  1.00  0.00    -0.460 OA
BRANCH  39  40
ATOM     40  C   UNL A   1      33.325  35.238  31.802  1.00  0.00     0.338 C 
ATOM     41  O   UNL A   1      32.192  35.295  32.202  1.00  0.00    -0.246 OA
BRANCH  40  42
ATOM     42  C   UNL A   1      34.449  34.594  32.621  1.00  0.00     0.060 A 
ATOM     43  C   UNL A   1      35.730  35.176  32.628  1.00  0.00     0.016 A 
ATOM     44  C   UNL A   1      34.336  33.308  33.144  1.00  0.00     0.016 A 
ATOM     45  C   UNL A   1      36.872  34.416  32.990  1.00  0.00     0.010 A 
ATOM     46  C   UNL A   1      35.478  32.548  33.466  1.00  0.00     0.010 A 
ATOM     47  C   UNL A   1      36.775  33.035  33.283  1.00  0.00    -0.014 A 
BRANCH  47  48
ATOM     48  C   UNL A   1      37.962  32.076  33.220  1.00  0.00     0.031 A 
ATOM     49  C   UNL A   1      38.381  31.318  31.710  1.00  0.00     0.074 A 
ATOM     50  C   UNL A   1      38.729  31.947  34.374  1.00  0.00     0.049 A 
ATOM     51  N   UNL A   1      39.563  31.041  31.184  1.00  0.00    -0.248 NA
ATOM     52  C   UNL A   1      37.393  30.718  30.812  1.00  0.00     0.031 C 
ATOM     53  C   UNL A   1      39.351  30.730  34.756  1.00  0.00     0.029 A 
ATOM     54  N   UNL A   1      39.204  32.781  35.453  1.00  0.00    -0.354 N 
ATOM     55  C   UNL A   1      39.583  29.846  30.304  1.00  0.00     0.074 A 
ATOM     56  C   UNL A   1      38.122  29.948  29.958  1.00  0.00     0.031 C 
ATOM     57  C   UNL A   1      40.337  30.946  35.571  1.00  0.00     0.029 A 
ATOM     58  C   UNL A   1      40.317  32.203  36.140  1.00  0.00     0.049 A 
ATOM     59  H   UNL A   1      38.807  33.651  35.689  1.00  0.00     0.167 HD
ATOM     60  C   UNL A   1      40.647  28.691  30.163  1.00  0.00     0.031 A 
ATOM     61  C   UNL A   1      41.296  32.385  37.086  1.00  0.00     0.031 A 
ATOM     62  C   UNL A   1      42.168  28.351  31.126  1.00  0.00     0.049 A 
ATOM     63  C   UNL A   1      42.474  31.133  37.093  1.00  0.00     0.074 A 
ATOM     64  C   UNL A   1      43.562  28.151  30.916  1.00  0.00     0.029 A 
ATOM     65  N   UNL A   1      42.386  28.315  32.699  1.00  0.00    -0.354 N 
ATOM     66  N   UNL A   1      42.298  29.872  36.637  1.00  0.00    -0.248 NA
ATOM     67  C   UNL A   1      43.918  31.243  37.356  1.00  0.00     0.031 C 
ATOM     68  C   UNL A   1      44.399  28.248  32.218  1.00  0.00     0.029 A 
ATOM     69  C   UNL A   1      43.605  28.463  33.343  1.00  0.00     0.049 A 
ATOM     70  H   UNL A   1      41.592  28.174  33.263  1.00  0.00     0.167 HD
ATOM     71  C   UNL A   1      43.413  29.526  35.810  1.00  0.00     0.074 A 
ATOM     72  C   UNL A   1      44.432  30.219  36.614  1.00  0.00     0.031 C 
ATOM     73  C   UNL A   1      43.564  28.400  34.958  1.00  0.00     0.031 A 
BRANCH  60  74
ATOM     74  C   UNL A   1      40.372  27.689  28.965  1.00  0.00    -0.014 A 
ATOM     75  C   UNL A   1      39.568  26.559  29.156  1.00  0.00     0.009 A 
ATOM     76  C   UNL A   1      40.923  27.757  27.666  1.00  0.00     0.009 A 
ATOM     77  C   UNL A   1      39.379  25.575  28.159  1.00  0.00     0.001 A 
ATOM     78  C   UNL A   1      40.737  26.801  26.653  1.00  0.00     0.001 A 
ATOM     79  C   UNL A   1      39.969  25.689  26.908  1.00  0.00     0.000 A 
ENDBRANCH  60  74
BRANCH  61  80
ATOM     80  C   UNL A   1      41.104  33.766  37.703  1.00  0.00    -0.014 A 
ATOM     81  C   UNL A   1      41.352  34.966  37.018  1.00  0.00     0.009 A 
ATOM     82  C   UNL A   1      40.026  33.819  38.639  1.00  0.00     0.009 A 
ATOM     83  C   UNL A   1      40.406  36.028  37.042  1.00  0.00     0.001 A 
ATOM     84  C   UNL A   1      39.045  34.828  38.593  1.00  0.00     0.001 A 
ATOM     85  C   UNL A   1      39.212  35.915  37.753  1.00  0.00     0.000 A 
ENDBRANCH  61  80
BRANCH  73  86
ATOM     86  C   UNL A   1      43.029  27.051  35.513  1.00  0.00    -0.014 A 
ATOM     87  C   UNL A   1      43.792  26.176  36.306  1.00  0.00     0.009 A 
ATOM     88  C   UNL A   1      41.759  26.566  35.120  1.00  0.00     0.009 A 
ATOM     89  C   UNL A   1      43.323  24.892  36.647  1.00  0.00     0.001 A 
ATOM     90  C   UNL A   1      41.269  25.311  35.493  1.00  0.00     0.001 A 
ATOM     91  C   UNL A   1      42.066  24.459  36.237  1.00  0.00     0.000 A 
ENDBRANCH  73  86
ENDBRANCH  47  48
ENDBRANCH  40  42
ENDBRANCH  39  40
ENDBRANCH  38  39
ENDBRANCH  37  38
ENDBRANCH  36  37
ENDBRANCH  35  36
ENDBRANCH  34  35
ENDBRANCH  33  34
ENDBRANCH   1  33
TORSDOF 23
ENDMDL
MODEL 2
REMARK VINA RESULT:     -10.8      5.166     10.906
REMARK SMILES Cc1ccc(-c2nc(NC(=O)[C@H]3[C@@H](C(=O)OCCOCCOCCOCCOC(=O)c4ccc(-c5c6nc(c(-c7ccccc7)c7ccc([nH]7)c(-c7ccccc7)c7nc(c(-c8ccccc8)c8ccc5[nH]8)C=C7)C=C6)cc4)[C@@H]4CC[C@H]3O4)sc2C)cc1
REMARK SMILES IDX 21 1 20 2 19 3 18 4 17 5 16 6 14 7 15 8 13 9 12 10 82 11
REMARK SMILES IDX 79 12 81 13 83 14 80 15 10 16 9 17 11 19 8 20 6 21 7 22
REMARK SMILES IDX 85 23 84 24 86 25 5 26 1 27 2 28 3 29 88 30 4 31 87 32 22 33
REMARK SMILES IDX 23 34 24 35 25 36 26 37 27 38 28 39 29 40 30 41 31 42 32 43
REMARK SMILES IDX 78 44 33 45 77 46 34 47 35 48 36 49 71 50 37 51 76 52 70 53
REMARK SMILES IDX 72 54 38 55 75 56 69 57 68 58 39 60 61 61 46 62 60 63 47 64
REMARK SMILES IDX 50 65 59 66 73 67 48 68 49 69 58 71 74 72 51 73 40 74 41 75
REMARK SMILES IDX 45 76 42 77 44 78 43 79 62 80 63 81 67 82 64 83 66 84 65 85
REMARK SMILES IDX 52 86 53 87 57 88 54 89 56 90 55 91
REMARK H PARENT 9 18 72 59 50 70
REMARK Flexibility Score: inf
ROOT
ATOM      1  C   UNL A   1      40.454  21.578  27.166  1.00  0.00     0.188 C 
ENDROOT
BRANCH   1   2
ATOM      2  C   UNL A   1      39.298  21.781  26.151  1.00  0.00     0.188 C 
BRANCH   2   3
ATOM      3  O   UNL A   1      38.456  22.924  26.306  1.00  0.00    -0.376 OA
BRANCH   3   4
ATOM      4  C   UNL A   1      37.340  22.963  25.472  1.00  0.00     0.202 C 
BRANCH   4   5
ATOM      5  C   UNL A   1      36.409  24.106  25.552  1.00  0.00     0.261 C 
BRANCH   5   6
ATOM      6  O   UNL A   1      35.058  23.749  25.340  1.00  0.00    -0.463 OA
BRANCH   6   7
ATOM      7  C   UNL A   1      33.975  24.492  25.571  1.00  0.00     0.312 C 
ATOM      8  O   UNL A   1      33.215  24.139  26.478  1.00  0.00    -0.252 OA
BRANCH   7   9
ATOM      9  C   UNL A   1      33.522  25.622  24.669  1.00  0.00     0.143 C 
ATOM     10  C   UNL A   1      32.322  26.549  24.853  1.00  0.00     0.124 C 
ATOM     11  C   UNL A   1      31.292  25.871  23.855  1.00  0.00     0.132 C 
ATOM     12  C   UNL A   1      33.182  24.952  23.329  1.00  0.00     0.133 C 
ATOM     13  C   UNL A   1      31.508  26.390  22.436  1.00  0.00     0.035 C 
ATOM     14  O   UNL A   1      31.835  24.547  23.630  1.00  0.00    -0.373 OA
ATOM     15  C   UNL A   1      32.969  25.986  22.213  1.00  0.00     0.036 C 
BRANCH  10  16
ATOM     16  C   UNL A   1      31.688  26.997  26.165  1.00  0.00     0.232 C 
ATOM     17  N   UNL A   1      31.944  28.103  26.920  1.00  0.00    -0.302 N 
ATOM     18  H   UNL A   1      31.258  28.254  27.610  1.00  0.00     0.172 HD
ATOM     19  O   UNL A   1      30.803  26.255  26.625  1.00  0.00    -0.274 OA
BRANCH  17  20
ATOM     20  C   UNL A   1      32.934  29.059  26.946  1.00  0.00     0.190 A 
ATOM     21  C   UNL A   1      33.961  31.001  27.774  1.00  0.00     0.086 A 
ATOM     22  N   UNL A   1      32.796  30.247  27.507  1.00  0.00    -0.220 NA
ATOM     23  C   UNL A   1      35.050  29.916  27.438  1.00  0.00     0.031 A 
ATOM     24  S   UNL A   1      34.391  28.789  26.230  1.00  0.00    -0.101 S 
ATOM     25  C   UNL A   1      36.547  29.511  27.658  1.00  0.00     0.059 C 
BRANCH  21  26
ATOM     26  C   UNL A   1      33.980  32.803  28.415  1.00  0.00     0.001 A 
ATOM     27  C   UNL A   1      32.719  36.233  31.077  1.00  0.00     0.044 C 
ATOM     28  C   UNL A   1      33.306  35.311  30.062  1.00  0.00    -0.051 A 
ATOM     29  C   UNL A   1      32.858  35.126  28.777  1.00  0.00     0.004 A 
ATOM     30  C   UNL A   1      34.343  34.500  30.403  1.00  0.00     0.004 A 
ATOM     31  C   UNL A   1      33.245  33.967  27.992  1.00  0.00     0.010 A 
ATOM     32  C   UNL A   1      34.661  33.368  29.606  1.00  0.00     0.010 A 
ENDBRANCH  21  26
ENDBRANCH  17  20
ENDBRANCH  10  16
ENDBRANCH   7   9
ENDBRANCH   6   7
ENDBRANCH   5   6
ENDBRANCH   4   5
ENDBRANCH   3   4
ENDBRANCH   2   3
ENDBRANCH   1   2
BRANCH   1  33
ATOM     33  O   UNL A   1      40.780  20.274  27.654  1.00  0.00    -0.377 OA
BRANCH  33  34
ATOM     34  C   UNL A   1      41.976  19.640  27.199  1.00  0.00     0.188 C 
BRANCH  34  35
ATOM     35  C   UNL A   1      41.739  18.722  26.013  1.00  0.00     0.188 C 
BRANCH  35  36
ATOM     36  O   UNL A   1      42.938  18.475  25.294  1.00  0.00    -0.376 OA
BRANCH  36  37
ATOM     37  C   UNL A   1      44.100  18.461  26.106  1.00  0.00     0.202 C 
BRANCH  37  38
ATOM     38  C   UNL A   1      45.271  18.809  25.189  1.00  0.00     0.261 C 
BRANCH  38  39
ATOM     39  O   UNL A   1      45.510  20.253  25.358  1.00  0.00    -0.460 OA
BRANCH  39  40
ATOM     40  C   UNL A   1      44.717  21.142  24.664  1.00  0.00     0.338 C 
ATOM     41  O   UNL A   1      44.718  21.258  23.467  1.00  0.00    -0.246 OA
BRANCH  40  42
ATOM     42  C   UNL A   1      44.019  22.150  25.582  1.00  0.00     0.060 A 
ATOM     43  C   UNL A   1      43.008  22.982  25.066  1.00  0.00     0.016 A 
ATOM     44  C   UNL A   1      44.521  22.473  26.840  1.00  0.00     0.016 A 
ATOM     45  C   UNL A   1      42.651  24.187  25.724  1.00  0.00     0.010 A 
ATOM     46  C   UNL A   1      44.189  23.689  27.469  1.00  0.00     0.010 A 
ATOM     47  C   UNL A   1      43.344  24.629  26.875  1.00  0.00    -0.014 A 
BRANCH  47  48
ATOM     48  C   UNL A   1      43.344  26.082  27.351  1.00  0.00     0.031 A 
ATOM     49  C   UNL A   1      42.129  26.624  28.473  1.00  0.00     0.074 A 
ATOM     50  C   UNL A   1      44.409  26.878  26.938  1.00  0.00     0.049 A 
ATOM     51  N   UNL A   1      42.211  27.463  29.492  1.00  0.00    -0.248 NA
ATOM     52  C   UNL A   1      40.708  26.296  28.337  1.00  0.00     0.031 C 
ATOM     53  C   UNL A   1      44.275  28.264  26.664  1.00  0.00     0.029 A 
ATOM     54  N   UNL A   1      45.827  26.746  26.701  1.00  0.00    -0.354 N 
ATOM     55  C   UNL A   1      40.963  28.214  29.776  1.00  0.00     0.074 A 
ATOM     56  C   UNL A   1      40.070  27.166  29.166  1.00  0.00     0.031 C 
ATOM     57  C   UNL A   1      45.421  28.867  26.741  1.00  0.00     0.029 A 
ATOM     58  C   UNL A   1      46.500  28.008  26.702  1.00  0.00     0.049 A 
ATOM     59  H   UNL A   1      46.280  25.884  26.555  1.00  0.00     0.167 HD
ATOM     60  C   UNL A   1      40.740  29.724  30.172  1.00  0.00     0.031 A 
ATOM     61  C   UNL A   1      47.709  28.658  26.668  1.00  0.00     0.031 A 
ATOM     62  C   UNL A   1      41.931  31.110  30.295  1.00  0.00     0.049 A 
ATOM     63  C   UNL A   1      47.584  30.340  26.995  1.00  0.00     0.074 A 
ATOM     64  C   UNL A   1      42.369  32.082  31.238  1.00  0.00     0.029 A 
ATOM     65  N   UNL A   1      43.052  31.578  29.271  1.00  0.00    -0.354 N 
ATOM     66  N   UNL A   1      46.480  31.104  26.830  1.00  0.00    -0.248 NA
ATOM     67  C   UNL A   1      48.534  31.200  27.721  1.00  0.00     0.031 C 
ATOM     68  C   UNL A   1      43.694  32.779  30.832  1.00  0.00     0.029 A 
ATOM     69  C   UNL A   1      44.162  32.344  29.593  1.00  0.00     0.049 A 
ATOM     70  H   UNL A   1      42.949  31.305  28.331  1.00  0.00     0.167 HD
ATOM     71  C   UNL A   1      46.292  31.895  28.007  1.00  0.00     0.074 A 
ATOM     72  C   UNL A   1      47.719  32.153  28.258  1.00  0.00     0.031 C 
ATOM     73  C   UNL A   1      45.167  32.680  28.372  1.00  0.00     0.031 A 
BRANCH  60  74
ATOM     74  C   UNL A   1      39.247  30.083  30.567  1.00  0.00    -0.014 A 
ATOM     75  C   UNL A   1      38.862  31.418  30.743  1.00  0.00     0.009 A 
ATOM     76  C   UNL A   1      38.206  29.170  30.849  1.00  0.00     0.009 A 
ATOM     77  C   UNL A   1      37.578  31.792  31.203  1.00  0.00     0.001 A 
ATOM     78  C   UNL A   1      36.918  29.518  31.292  1.00  0.00     0.001 A 
ATOM     79  C   UNL A   1      36.606  30.842  31.486  1.00  0.00     0.000 A 
ENDBRANCH  60  74
BRANCH  61  80
ATOM     80  C   UNL A   1      48.805  27.607  26.528  1.00  0.00    -0.014 A 
ATOM     81  C   UNL A   1      49.159  27.010  25.308  1.00  0.00     0.009 A 
ATOM     82  C   UNL A   1      49.886  27.797  27.442  1.00  0.00     0.009 A 
ATOM     83  C   UNL A   1      50.523  26.901  24.919  1.00  0.00     0.001 A 
ATOM     84  C   UNL A   1      51.231  27.776  27.024  1.00  0.00     0.001 A 
ATOM     85  C   UNL A   1      51.548  27.373  25.738  1.00  0.00     0.000 A 
ENDBRANCH  61  80
BRANCH  73  86
ATOM     86  C   UNL A   1      44.498  33.486  27.223  1.00  0.00    -0.014 A 
ATOM     87  C   UNL A   1      43.837  34.713  27.414  1.00  0.00     0.009 A 
ATOM     88  C   UNL A   1      44.405  32.939  25.922  1.00  0.00     0.009 A 
ATOM     89  C   UNL A   1      43.106  35.324  26.376  1.00  0.00     0.001 A 
ATOM     90  C   UNL A   1      43.719  33.563  24.876  1.00  0.00     0.001 A 
ATOM     91  C   UNL A   1      43.043  34.747  25.111  1.00  0.00     0.000 A 
ENDBRANCH  73  86
ENDBRANCH  47  48
ENDBRANCH  40  42
ENDBRANCH  39  40
ENDBRANCH  38  39
ENDBRANCH  37  38
ENDBRANCH  36  37
ENDBRANCH  35  36
ENDBRANCH  34  35
ENDBRANCH  33  34
ENDBRANCH   1  33
TORSDOF 23
ENDMDL
MODEL 3
REMARK VINA RESULT:     -10.7      1.387      4.476
REMARK SMILES Cc1ccc(-c2nc(NC(=O)[C@H]3[C@@H](C(=O)OCCOCCOCCOCCOC(=O)c4ccc(-c5c6nc(c(-c7ccccc7)c7ccc([nH]7)c(-c7ccccc7)c7nc(c(-c8ccccc8)c8ccc5[nH]8)C=C7)C=C6)cc4)[C@@H]4CC[C@H]3O4)sc2C)cc1
REMARK SMILES IDX 21 1 20 2 19 3 18 4 17 5 16 6 14 7 15 8 13 9 12 10 82 11
REMARK SMILES IDX 79 12 81 13 83 14 80 15 10 16 9 17 11 19 8 20 6 21 7 22
REMARK SMILES IDX 85 23 84 24 86 25 5 26 1 27 2 28 3 29 88 30 4 31 87 32 22 33
REMARK SMILES IDX 23 34 24 35 25 36 26 37 27 38 28 39 29 40 30 41 31 42 32 43
REMARK SMILES IDX 78 44 33 45 77 46 34 47 35 48 36 49 71 50 37 51 76 52 70 53
REMARK SMILES IDX 72 54 38 55 75 56 69 57 68 58 39 60 61 61 46 62 60 63 47 64
REMARK SMILES IDX 50 65 59 66 73 67 48 68 49 69 58 71 74 72 51 73 40 74 41 75
REMARK SMILES IDX 45 76 42 77 44 78 43 79 62 80 63 81 67 82 64 83 66 84 65 85
REMARK SMILES IDX 52 86 53 87 57 88 54 89 56 90 55 91
REMARK H PARENT 9 18 72 59 50 70
REMARK Flexibility Score: inf
ROOT
ATOM      1  C   UNL A   1      35.625  30.301  27.388  1.00  0.00     0.188 C 
ENDROOT
BRANCH   1   2
ATOM      2  C   UNL A   1      34.650  29.182  26.933  1.00  0.00     0.188 C 
BRANCH   2   3
ATOM      3  O   UNL A   1      33.561  28.845  27.791  1.00  0.00    -0.376 OA
BRANCH   3   4
ATOM      4  C   UNL A   1      32.323  28.711  27.163  1.00  0.00     0.202 C 
BRANCH   4   5
ATOM      5  C   UNL A   1      32.256  28.635  25.691  1.00  0.00     0.261 C 
BRANCH   5   6
ATOM      6  O   UNL A   1      31.778  27.394  25.212  1.00  0.00    -0.463 OA
BRANCH   6   7
ATOM      7  C   UNL A   1      30.544  27.103  24.799  1.00  0.00     0.312 C 
ATOM      8  O   UNL A   1      29.865  26.342  25.496  1.00  0.00    -0.252 OA
BRANCH   7   9
ATOM      9  C   UNL A   1      29.997  27.492  23.440  1.00  0.00     0.143 C 
ATOM     10  C   UNL A   1      30.663  28.355  22.370  1.00  0.00     0.124 C 
ATOM     11  C   UNL A   1      29.920  29.733  22.621  1.00  0.00     0.132 C 
ATOM     12  C   UNL A   1      28.730  28.308  23.738  1.00  0.00     0.133 C 
ATOM     13  C   UNL A   1      28.596  29.768  21.862  1.00  0.00     0.035 C 
ATOM     14  O   UNL A   1      29.347  29.591  23.945  1.00  0.00    -0.373 OA
ATOM     15  C   UNL A   1      27.897  28.549  22.470  1.00  0.00     0.036 C 
BRANCH  10  16
ATOM     16  C   UNL A   1      32.156  28.512  22.101  1.00  0.00     0.232 C 
ATOM     17  N   UNL A   1      33.128  27.559  22.010  1.00  0.00    -0.302 N 
ATOM     18  H   UNL A   1      33.966  27.913  21.633  1.00  0.00     0.172 HD
ATOM     19  O   UNL A   1      32.561  29.675  21.936  1.00  0.00    -0.274 OA
BRANCH  17  20
ATOM     20  C   UNL A   1      33.214  26.222  22.320  1.00  0.00     0.190 A 
ATOM     21  C   UNL A   1      33.889  24.411  23.655  1.00  0.00     0.086 A 
ATOM     22  N   UNL A   1      34.105  25.714  23.153  1.00  0.00    -0.220 NA
ATOM     23  C   UNL A   1      32.432  24.167  23.110  1.00  0.00     0.031 A 
ATOM     24  S   UNL A   1      32.200  25.124  21.629  1.00  0.00    -0.101 S 
ATOM     25  C   UNL A   1      31.139  23.303  23.291  1.00  0.00     0.059 C 
BRANCH  21  26
ATOM     26  C   UNL A   1      35.129  23.426  24.725  1.00  0.00     0.001 A 
ATOM     27  C   UNL A   1      39.193  21.812  25.874  1.00  0.00     0.044 C 
ATOM     28  C   UNL A   1      37.755  22.182  25.733  1.00  0.00    -0.051 A 
ATOM     29  C   UNL A   1      36.786  21.449  25.092  1.00  0.00     0.004 A 
ATOM     30  C   UNL A   1      37.315  23.380  26.203  1.00  0.00     0.004 A 
ATOM     31  C   UNL A   1      35.524  22.042  24.687  1.00  0.00     0.010 A 
ATOM     32  C   UNL A   1      36.080  23.919  25.752  1.00  0.00     0.010 A 
ENDBRANCH  21  26
ENDBRANCH  17  20
ENDBRANCH  10  16
ENDBRANCH   7   9
ENDBRANCH   6   7
ENDBRANCH   5   6
ENDBRANCH   4   5
ENDBRANCH   3   4
ENDBRANCH   2   3
ENDBRANCH   1   2
BRANCH   1  33
ATOM     33  O   UNL A   1      35.188  31.659  27.484  1.00  0.00    -0.377 OA
BRANCH  33  34
ATOM     34  C   UNL A   1      34.696  32.146  28.733  1.00  0.00     0.188 C 
BRANCH  34  35
ATOM     35  C   UNL A   1      33.861  33.405  28.586  1.00  0.00     0.188 C 
BRANCH  35  36
ATOM     36  O   UNL A   1      34.590  34.564  28.963  1.00  0.00    -0.376 OA
BRANCH  36  37
ATOM     37  C   UNL A   1      33.984  35.779  28.557  1.00  0.00     0.202 C 
BRANCH  37  38
ATOM     38  C   UNL A   1      32.989  36.153  29.654  1.00  0.00     0.261 C 
BRANCH  38  39
ATOM     39  O   UNL A   1      33.740  36.113  30.920  1.00  0.00    -0.460 OA
BRANCH  39  40
ATOM     40  C   UNL A   1      33.310  35.265  31.919  1.00  0.00     0.338 C 
ATOM     41  O   UNL A   1      32.164  35.157  32.268  1.00  0.00    -0.246 OA
BRANCH  40  42
ATOM     42  C   UNL A   1      34.468  34.659  32.718  1.00  0.00     0.060 A 
ATOM     43  C   UNL A   1      35.747  35.243  32.648  1.00  0.00     0.016 A 
ATOM     44  C   UNL A   1      34.381  33.398  33.302  1.00  0.00     0.016 A 
ATOM     45  C   UNL A   1      36.905  34.501  32.996  1.00  0.00     0.010 A 
ATOM     46  C   UNL A   1      35.537  32.654  33.610  1.00  0.00     0.010 A 
ATOM     47  C   UNL A   1      36.823  33.135  33.353  1.00  0.00    -0.014 A 
BRANCH  47  48
ATOM     48  C   UNL A   1      38.010  32.175  33.283  1.00  0.00     0.031 A 
ATOM     49  C   UNL A   1      38.443  31.444  31.764  1.00  0.00     0.074 A 
ATOM     50  C   UNL A   1      38.766  32.024  34.443  1.00  0.00     0.049 A 
ATOM     51  N   UNL A   1      39.629  31.175  31.244  1.00  0.00    -0.248 NA
ATOM     52  C   UNL A   1      37.462  30.861  30.846  1.00  0.00     0.031 C 
ATOM     53  C   UNL A   1      39.383  30.800  34.808  1.00  0.00     0.029 A 
ATOM     54  N   UNL A   1      39.232  32.838  35.541  1.00  0.00    -0.354 N 
ATOM     55  C   UNL A   1      39.656  29.996  30.343  1.00  0.00     0.074 A 
ATOM     56  C   UNL A   1      38.198  30.106  29.985  1.00  0.00     0.031 C 
ATOM     57  C   UNL A   1      40.362  31.000  35.635  1.00  0.00     0.029 A 
ATOM     58  C   UNL A   1      40.338  32.246  36.227  1.00  0.00     0.049 A 
ATOM     59  H   UNL A   1      38.834  33.704  35.789  1.00  0.00     0.167 HD
ATOM     60  C   UNL A   1      40.720  28.842  30.191  1.00  0.00     0.031 A 
ATOM     61  C   UNL A   1      41.308  32.410  37.186  1.00  0.00     0.031 A 
ATOM     62  C   UNL A   1      42.231  28.483  31.162  1.00  0.00     0.049 A 
ATOM     63  C   UNL A   1      42.484  31.156  37.181  1.00  0.00     0.074 A 
ATOM     64  C   UNL A   1      43.627  28.284  30.961  1.00  0.00     0.029 A 
ATOM     65  N   UNL A   1      42.434  28.418  32.736  1.00  0.00    -0.354 N 
ATOM     66  N   UNL A   1      42.311  29.904  36.700  1.00  0.00    -0.248 NA
ATOM     67  C   UNL A   1      43.926  31.259  37.459  1.00  0.00     0.031 C 
ATOM     68  C   UNL A   1      44.452  28.357  32.272  1.00  0.00     0.029 A 
ATOM     69  C   UNL A   1      43.648  28.553  33.394  1.00  0.00     0.049 A 
ATOM     70  H   UNL A   1      41.635  28.268  33.290  1.00  0.00     0.167 HD
ATOM     71  C   UNL A   1      43.433  29.571  35.877  1.00  0.00     0.074 A 
ATOM     72  C   UNL A   1      44.445  30.248  36.704  1.00  0.00     0.031 C 
ATOM     73  C   UNL A   1      43.591  28.461  35.007  1.00  0.00     0.031 A 
BRANCH  60  74
ATOM     74  C   UNL A   1      40.454  27.863  28.972  1.00  0.00    -0.014 A 
ATOM     75  C   UNL A   1      39.497  26.846  29.075  1.00  0.00     0.009 A 
ATOM     76  C   UNL A   1      41.151  27.839  27.743  1.00  0.00     0.009 A 
ATOM     77  C   UNL A   1      39.297  25.877  28.066  1.00  0.00     0.001 A 
ATOM     78  C   UNL A   1      40.958  26.896  26.719  1.00  0.00     0.001 A 
ATOM     79  C   UNL A   1      40.032  25.894  26.889  1.00  0.00     0.000 A 
ENDBRANCH  60  74
BRANCH  61  80
ATOM     80  C   UNL A   1      41.112  33.779  37.826  1.00  0.00    -0.014 A 
ATOM     81  C   UNL A   1      41.409  34.989  37.180  1.00  0.00     0.009 A 
ATOM     82  C   UNL A   1      39.996  33.829  38.716  1.00  0.00     0.009 A 
ATOM     83  C   UNL A   1      40.480  36.067  37.188  1.00  0.00     0.001 A 
ATOM     84  C   UNL A   1      39.034  34.856  38.651  1.00  0.00     0.001 A 
ATOM     85  C   UNL A   1      39.255  35.959  37.844  1.00  0.00     0.000 A 
ENDBRANCH  61  80
BRANCH  73  86
ATOM     86  C   UNL A   1      43.049  27.102  35.532  1.00  0.00    -0.014 A 
ATOM     87  C   UNL A   1      41.808  26.559  35.154  1.00  0.00     0.009 A 
ATOM     88  C   UNL A   1      43.740  26.397  36.546  1.00  0.00     0.009 A 
ATOM     89  C   UNL A   1      41.287  25.409  35.779  1.00  0.00     0.001 A 
ATOM     90  C   UNL A   1      43.249  25.230  37.138  1.00  0.00     0.001 A 
ATOM     91  C   UNL A   1      42.004  24.750  36.773  1.00  0.00     0.000 A 
ENDBRANCH  73  86
ENDBRANCH  47  48
ENDBRANCH  40  42
ENDBRANCH  39  40
ENDBRANCH  38  39
ENDBRANCH  37  38
ENDBRANCH  36  37
ENDBRANCH  35  36
ENDBRANCH  34  35
ENDBRANCH  33  34
ENDBRANCH   1  33
TORSDOF 23
ENDMDL
