MODEL 1
REMARK VINA RESULT:     -10.3      0.000      0.000
REMARK SMILES C=CCn1nc(C(=O)OCCOCCOCCOCCOC(=O)c2ccc(-c3c4nc(c(-c5ccccc5)c5ccc([nH]5)c(-c5ccccc5)c5nc(c(-c6ccccc6)c6ccc3[nH]6)C=C5)C=C4)cc2)c2c1CC[C@@H]([NH+]1CCC(C(C)(C)O)CC1)C2
REMARK SMILES IDX 14 1 13 2 12 3 11 4 10 5 9 6 7 7 8 8 6 9 4 10 5 11 73 12
REMARK SMILES IDX 72 13 74 14 87 15 75 16 76 17 3 18 2 19 1 20 77 21 78 22
REMARK SMILES IDX 86 23 79 25 85 26 80 27 81 28 82 29 83 30 84 31 15 33 16 34
REMARK SMILES IDX 17 35 18 36 19 37 20 38 21 39 22 40 23 41 24 42 25 43 71 44
REMARK SMILES IDX 26 45 70 46 27 47 28 48 29 49 64 50 30 51 69 52 63 53 65 54
REMARK SMILES IDX 31 55 68 56 62 57 61 58 32 60 54 61 39 62 53 63 40 64 43 65
REMARK SMILES IDX 52 66 66 67 41 68 42 69 51 71 67 72 44 73 33 74 34 75 38 76
REMARK SMILES IDX 35 77 37 78 36 79 55 80 56 81 60 82 57 83 59 84 58 85 45 86
REMARK SMILES IDX 46 87 50 88 47 89 49 90 48 91
REMARK H PARENT 77 24 84 32 65 59 43 70
REMARK Flexibility Score: inf
ROOT
ATOM      1  C   UNL A   1      42.278  19.835  26.058  1.00  0.00     0.188 C 
ENDROOT
BRANCH   1   2
ATOM      2  C   UNL A   1      41.537  19.866  27.407  1.00  0.00     0.188 C 
BRANCH   2   3
ATOM      3  O   UNL A   1      40.532  20.878  27.438  1.00  0.00    -0.376 OA
BRANCH   3   4
ATOM      4  C   UNL A   1      40.190  21.471  26.197  1.00  0.00     0.202 C 
BRANCH   4   5
ATOM      5  C   UNL A   1      38.796  21.021  25.751  1.00  0.00     0.261 C 
BRANCH   5   6
ATOM      6  O   UNL A   1      38.120  21.981  24.929  1.00  0.00    -0.458 OA
BRANCH   6   7
ATOM      7  C   UNL A   1      37.133  22.704  25.533  1.00  0.00     0.359 C 
ATOM      8  O   UNL A   1      37.346  23.665  26.264  1.00  0.00    -0.244 OA
BRANCH   7   9
ATOM      9  C   UNL A   1      35.798  22.218  25.161  1.00  0.00     0.174 A 
ATOM     10  N   UNL A   1      34.214  20.843  24.758  1.00  0.00    -0.265 N 
ATOM     11  N   UNL A   1      35.446  20.920  25.307  1.00  0.00    -0.165 NA
ATOM     12  C   UNL A   1      33.901  21.991  24.087  1.00  0.00     0.043 A 
ATOM     13  C   UNL A   1      34.709  22.962  24.628  1.00  0.00     0.014 A 
ATOM     14  C   UNL A   1      32.859  22.189  23.063  1.00  0.00     0.062 C 
ATOM     15  C   UNL A   1      34.451  24.420  24.438  1.00  0.00     0.105 C 
ATOM     16  C   UNL A   1      32.792  23.673  22.670  1.00  0.00     0.072 C 
ATOM     17  C   UNL A   1      33.034  24.696  23.811  1.00  0.00     0.189 C 
BRANCH  10  18
ATOM     18  C   UNL A   1      33.289  19.736  25.030  1.00  0.00     0.171 C 
BRANCH  18  19
ATOM     19  C   UNL A   1      33.386  18.554  24.107  1.00  0.00    -0.011 C 
ATOM     20  C   UNL A   1      32.509  18.271  23.133  1.00  0.00     0.006 C 
ENDBRANCH  18  19
ENDBRANCH  10  18
BRANCH  17  21
ATOM     21  N   UNL A   1      31.968  24.968  24.804  1.00  0.00    -0.332 N 
ATOM     22  C   UNL A   1      30.568  24.748  24.492  1.00  0.00     0.262 C 
ATOM     23  C   UNL A   1      32.113  26.181  25.600  1.00  0.00     0.262 C 
ATOM     24  H   UNL A   1      32.210  24.150  25.364  1.00  0.00     0.348 HD
ATOM     25  C   UNL A   1      29.821  25.920  23.849  1.00  0.00     0.068 C 
ATOM     26  C   UNL A   1      31.648  27.451  24.901  1.00  0.00     0.068 C 
ATOM     27  C   UNL A   1      30.277  27.362  24.188  1.00  0.00     0.031 C 
BRANCH  27  28
ATOM     28  C   UNL A   1      30.205  28.358  22.965  1.00  0.00     0.062 C 
ATOM     29  C   UNL A   1      28.810  28.955  22.735  1.00  0.00     0.042 C 
ATOM     30  C   UNL A   1      31.220  29.500  23.120  1.00  0.00     0.042 C 
BRANCH  28  31
ATOM     31  O   UNL A   1      30.550  27.664  21.762  1.00  0.00    -0.390 OA
ATOM     32  H   UNL A   1      30.082  28.066  21.012  1.00  0.00     0.211 HD
ENDBRANCH  28  31
ENDBRANCH  27  28
ENDBRANCH  17  21
ENDBRANCH   7   9
ENDBRANCH   6   7
ENDBRANCH   5   6
ENDBRANCH   4   5
ENDBRANCH   3   4
ENDBRANCH   2   3
ENDBRANCH   1   2
BRANCH   1  33
ATOM     33  O   UNL A   1      43.505  20.548  25.947  1.00  0.00    -0.377 OA
BRANCH  33  34
ATOM     34  C   UNL A   1      44.430  20.025  25.010  1.00  0.00     0.188 C 
BRANCH  34  35
ATOM     35  C   UNL A   1      45.894  20.379  25.333  1.00  0.00     0.188 C 
BRANCH  35  36
ATOM     36  O   UNL A   1      46.473  21.609  24.926  1.00  0.00    -0.376 OA
BRANCH  36  37
ATOM     37  C   UNL A   1      45.998  22.911  25.230  1.00  0.00     0.202 C 
BRANCH  37  38
ATOM     38  C   UNL A   1      45.244  23.346  26.484  1.00  0.00     0.261 C 
BRANCH  38  39
ATOM     39  O   UNL A   1      44.386  24.447  26.341  1.00  0.00    -0.460 OA
BRANCH  39  40
ATOM     40  C   UNL A   1      43.183  24.146  25.830  1.00  0.00     0.338 C 
ATOM     41  O   UNL A   1      42.939  23.502  24.830  1.00  0.00    -0.246 OA
BRANCH  40  42
ATOM     42  C   UNL A   1      42.184  24.832  26.659  1.00  0.00     0.060 A 
ATOM     43  C   UNL A   1      41.319  25.678  25.972  1.00  0.00     0.016 A 
ATOM     44  C   UNL A   1      42.351  24.894  28.054  1.00  0.00     0.016 A 
ATOM     45  C   UNL A   1      40.876  26.795  26.632  1.00  0.00     0.010 A 
ATOM     46  C   UNL A   1      41.921  26.018  28.711  1.00  0.00     0.010 A 
ATOM     47  C   UNL A   1      41.304  27.002  27.948  1.00  0.00    -0.014 A 
BRANCH  47  48
ATOM     48  C   UNL A   1      41.203  28.351  28.445  1.00  0.00     0.031 A 
ATOM     49  C   UNL A   1      42.347  29.218  28.143  1.00  0.00     0.074 A 
ATOM     50  C   UNL A   1      40.125  28.774  29.125  1.00  0.00     0.049 A 
ATOM     51  N   UNL A   1      43.183  29.737  28.975  1.00  0.00    -0.248 NA
ATOM     52  C   UNL A   1      42.642  29.457  26.726  1.00  0.00     0.031 C 
ATOM     53  C   UNL A   1      38.812  28.132  29.243  1.00  0.00     0.029 A 
ATOM     54  N   UNL A   1      39.961  29.956  29.777  1.00  0.00    -0.354 N 
ATOM     55  C   UNL A   1      44.032  30.511  28.201  1.00  0.00     0.074 A 
ATOM     56  C   UNL A   1      43.741  30.202  26.821  1.00  0.00     0.031 C 
ATOM     57  C   UNL A   1      37.928  29.034  29.724  1.00  0.00     0.029 A 
ATOM     58  C   UNL A   1      38.643  30.254  30.065  1.00  0.00     0.049 A 
ATOM     59  H   UNL A   1      40.711  30.544  30.021  1.00  0.00     0.167 HD
ATOM     60  C   UNL A   1      44.765  31.521  28.733  1.00  0.00     0.031 A 
ATOM     61  C   UNL A   1      38.170  31.457  30.467  1.00  0.00     0.031 A 
ATOM     62  C   UNL A   1      44.897  31.424  30.160  1.00  0.00     0.049 A 
ATOM     63  C   UNL A   1      39.309  32.245  30.996  1.00  0.00     0.074 A 
ATOM     64  C   UNL A   1      45.429  30.490  31.026  1.00  0.00     0.029 A 
ATOM     65  N   UNL A   1      44.120  32.254  30.933  1.00  0.00    -0.354 N 
ATOM     66  N   UNL A   1      39.932  31.966  32.105  1.00  0.00    -0.248 NA
ATOM     67  C   UNL A   1      40.024  33.134  30.092  1.00  0.00     0.031 C 
ATOM     68  C   UNL A   1      44.601  30.535  32.185  1.00  0.00     0.029 A 
ATOM     69  C   UNL A   1      43.616  31.499  31.961  1.00  0.00     0.049 A 
ATOM     70  H   UNL A   1      43.956  33.212  30.776  1.00  0.00     0.167 HD
ATOM     71  C   UNL A   1      41.260  32.295  31.866  1.00  0.00     0.074 A 
ATOM     72  C   UNL A   1      41.231  33.125  30.667  1.00  0.00     0.031 C 
ATOM     73  C   UNL A   1      42.277  31.636  32.496  1.00  0.00     0.031 A 
BRANCH  60  74
ATOM     74  C   UNL A   1      45.043  32.782  27.970  1.00  0.00    -0.014 A 
ATOM     75  C   UNL A   1      46.352  33.282  27.923  1.00  0.00     0.009 A 
ATOM     76  C   UNL A   1      44.014  33.629  27.508  1.00  0.00     0.009 A 
ATOM     77  C   UNL A   1      46.611  34.576  27.458  1.00  0.00     0.001 A 
ATOM     78  C   UNL A   1      44.274  34.900  26.999  1.00  0.00     0.001 A 
ATOM     79  C   UNL A   1      45.574  35.382  26.994  1.00  0.00     0.000 A 
ENDBRANCH  60  74
BRANCH  61  80
ATOM     80  C   UNL A   1      36.854  32.047  30.154  1.00  0.00    -0.014 A 
ATOM     81  C   UNL A   1      35.785  31.943  31.055  1.00  0.00     0.009 A 
ATOM     82  C   UNL A   1      36.707  32.920  29.060  1.00  0.00     0.009 A 
ATOM     83  C   UNL A   1      34.622  32.703  30.875  1.00  0.00     0.001 A 
ATOM     84  C   UNL A   1      35.544  33.670  28.873  1.00  0.00     0.001 A 
ATOM     85  C   UNL A   1      34.504  33.569  29.790  1.00  0.00     0.000 A 
ENDBRANCH  61  80
BRANCH  73  86
ATOM     86  C   UNL A   1      41.917  30.724  33.643  1.00  0.00    -0.014 A 
ATOM     87  C   UNL A   1      41.562  29.377  33.448  1.00  0.00     0.009 A 
ATOM     88  C   UNL A   1      42.091  31.182  34.958  1.00  0.00     0.009 A 
ATOM     89  C   UNL A   1      41.355  28.524  34.535  1.00  0.00     0.001 A 
ATOM     90  C   UNL A   1      41.903  30.323  36.045  1.00  0.00     0.001 A 
ATOM     91  C   UNL A   1      41.531  28.995  35.833  1.00  0.00     0.000 A 
ENDBRANCH  73  86
ENDBRANCH  47  48
ENDBRANCH  40  42
ENDBRANCH  39  40
ENDBRANCH  38  39
ENDBRANCH  37  38
ENDBRANCH  36  37
ENDBRANCH  35  36
ENDBRANCH  34  35
ENDBRANCH  33  34
ENDBRANCH   1  33
TORSDOF 25
ENDMDL
MODEL 2
REMARK VINA RESULT:     -10.0      2.528      5.785
REMARK SMILES C=CCn1nc(C(=O)OCCOCCOCCOCCOC(=O)c2ccc(-c3c4nc(c(-c5ccccc5)c5ccc([nH]5)c(-c5ccccc5)c5nc(c(-c6ccccc6)c6ccc3[nH]6)C=C5)C=C4)cc2)c2c1CC[C@@H]([NH+]1CCC(C(C)(C)O)CC1)C2
REMARK SMILES IDX 14 1 13 2 12 3 11 4 10 5 9 6 7 7 8 8 6 9 4 10 5 11 73 12
REMARK SMILES IDX 72 13 74 14 87 15 75 16 76 17 3 18 2 19 1 20 77 21 78 22
REMARK SMILES IDX 86 23 79 25 85 26 80 27 81 28 82 29 83 30 84 31 15 33 16 34
REMARK SMILES IDX 17 35 18 36 19 37 20 38 21 39 22 40 23 41 24 42 25 43 71 44
REMARK SMILES IDX 26 45 70 46 27 47 28 48 29 49 64 50 30 51 69 52 63 53 65 54
REMARK SMILES IDX 31 55 68 56 62 57 61 58 32 60 54 61 39 62 53 63 40 64 43 65
REMARK SMILES IDX 52 66 66 67 41 68 42 69 51 71 67 72 44 73 33 74 34 75 38 76
REMARK SMILES IDX 35 77 37 78 36 79 55 80 56 81 60 82 57 83 59 84 58 85 45 86
REMARK SMILES IDX 46 87 50 88 47 89 49 90 48 91
REMARK H PARENT 77 24 84 32 65 59 43 70
REMARK Flexibility Score: inf
ROOT
ATOM      1  C   UNL A   1      42.055  19.638  26.108  1.00  0.00     0.188 C 
ENDROOT
BRANCH   1   2
ATOM      2  C   UNL A   1      41.360  20.221  27.351  1.00  0.00     0.188 C 
BRANCH   2   3
ATOM      3  O   UNL A   1      40.021  20.628  27.070  1.00  0.00    -0.376 OA
BRANCH   3   4
ATOM      4  C   UNL A   1      39.715  20.906  25.715  1.00  0.00     0.202 C 
BRANCH   4   5
ATOM      5  C   UNL A   1      38.306  20.415  25.369  1.00  0.00     0.261 C 
BRANCH   5   6
ATOM      6  O   UNL A   1      37.528  21.374  24.641  1.00  0.00    -0.458 OA
BRANCH   6   7
ATOM      7  C   UNL A   1      36.603  22.071  25.361  1.00  0.00     0.359 C 
ATOM      8  O   UNL A   1      36.893  22.900  26.217  1.00  0.00    -0.244 OA
BRANCH   7   9
ATOM      9  C   UNL A   1      35.233  21.741  24.949  1.00  0.00     0.174 A 
ATOM     10  N   UNL A   1      33.536  20.554  24.425  1.00  0.00    -0.265 N 
ATOM     11  N   UNL A   1      34.767  20.471  24.975  1.00  0.00    -0.165 NA
ATOM     12  C   UNL A   1      33.329  21.782  23.865  1.00  0.00     0.043 A 
ATOM     13  C   UNL A   1      34.216  22.624  24.491  1.00  0.00     0.014 A 
ATOM     14  C   UNL A   1      32.313  22.165  22.867  1.00  0.00     0.062 C 
ATOM     15  C   UNL A   1      34.088  24.110  24.437  1.00  0.00     0.105 C 
ATOM     16  C   UNL A   1      32.379  23.680  22.613  1.00  0.00     0.072 C 
ATOM     17  C   UNL A   1      32.704  24.567  23.843  1.00  0.00     0.189 C 
BRANCH  10  18
ATOM     18  C   UNL A   1      32.515  19.512  24.596  1.00  0.00     0.171 C 
BRANCH  18  19
ATOM     19  C   UNL A   1      32.822  18.452  25.616  1.00  0.00    -0.011 C 
ATOM     20  C   UNL A   1      33.105  17.173  25.327  1.00  0.00     0.006 C 
ENDBRANCH  18  19
ENDBRANCH  10  18
BRANCH  17  21
ATOM     21  N   UNL A   1      31.661  24.839  24.860  1.00  0.00    -0.332 N 
ATOM     22  C   UNL A   1      30.344  25.318  24.485  1.00  0.00     0.262 C 
ATOM     23  C   UNL A   1      32.100  25.501  26.083  1.00  0.00     0.262 C 
ATOM     24  H   UNL A   1      31.502  23.846  25.037  1.00  0.00     0.348 HD
ATOM     25  C   UNL A   1      30.177  26.837  24.377  1.00  0.00     0.068 C 
ATOM     26  C   UNL A   1      32.236  27.013  25.964  1.00  0.00     0.068 C 
ATOM     27  C   UNL A   1      31.057  27.743  25.276  1.00  0.00     0.031 C 
BRANCH  27  28
ATOM     28  C   UNL A   1      31.541  29.067  24.568  1.00  0.00     0.062 C 
ATOM     29  C   UNL A   1      32.899  28.932  23.865  1.00  0.00     0.042 C 
ATOM     30  C   UNL A   1      30.500  29.566  23.555  1.00  0.00     0.042 C 
BRANCH  28  31
ATOM     31  O   UNL A   1      31.694  30.104  25.542  1.00  0.00    -0.390 OA
ATOM     32  H   UNL A   1      32.134  29.745  26.330  1.00  0.00     0.211 HD
ENDBRANCH  28  31
ENDBRANCH  27  28
ENDBRANCH  17  21
ENDBRANCH   7   9
ENDBRANCH   6   7
ENDBRANCH   5   6
ENDBRANCH   4   5
ENDBRANCH   3   4
ENDBRANCH   2   3
ENDBRANCH   1   2
BRANCH   1  33
ATOM     33  O   UNL A   1      43.467  19.776  26.000  1.00  0.00    -0.377 OA
BRANCH  33  34
ATOM     34  C   UNL A   1      44.103  18.862  25.122  1.00  0.00     0.188 C 
BRANCH  34  35
ATOM     35  C   UNL A   1      45.620  18.740  25.360  1.00  0.00     0.188 C 
BRANCH  35  36
ATOM     36  O   UNL A   1      46.554  19.542  24.656  1.00  0.00    -0.376 OA
BRANCH  36  37
ATOM     37  C   UNL A   1      46.496  20.949  24.474  1.00  0.00     0.202 C 
BRANCH  37  38
ATOM     38  C   UNL A   1      46.003  21.988  25.479  1.00  0.00     0.261 C 
BRANCH  38  39
ATOM     39  O   UNL A   1      45.502  23.182  24.941  1.00  0.00    -0.460 OA
BRANCH  39  40
ATOM     40  C   UNL A   1      44.296  23.064  24.365  1.00  0.00     0.338 C 
ATOM     41  O   UNL A   1      43.994  22.392  23.399  1.00  0.00    -0.246 OA
BRANCH  40  42
ATOM     42  C   UNL A   1      43.396  23.989  25.067  1.00  0.00     0.060 A 
ATOM     43  C   UNL A   1      43.856  25.297  25.178  1.00  0.00     0.016 A 
ATOM     44  C   UNL A   1      42.351  23.485  25.862  1.00  0.00     0.016 A 
ATOM     45  C   UNL A   1      43.499  25.996  26.302  1.00  0.00     0.010 A 
ATOM     46  C   UNL A   1      42.005  24.177  26.993  1.00  0.00     0.010 A 
ATOM     47  C   UNL A   1      42.688  25.360  27.248  1.00  0.00    -0.014 A 
BRANCH  47  48
ATOM     48  C   UNL A   1      42.700  25.921  28.576  1.00  0.00     0.031 A 
ATOM     49  C   UNL A   1      41.684  26.946  28.834  1.00  0.00     0.074 A 
ATOM     50  C   UNL A   1      43.579  25.511  29.507  1.00  0.00     0.049 A 
ATOM     51  N   UNL A   1      41.874  28.197  29.081  1.00  0.00    -0.248 NA
ATOM     52  C   UNL A   1      40.281  26.537  28.710  1.00  0.00     0.031 C 
ATOM     53  C   UNL A   1      44.432  24.319  29.492  1.00  0.00     0.029 A 
ATOM     54  N   UNL A   1      43.805  26.049  30.734  1.00  0.00    -0.354 N 
ATOM     55  C   UNL A   1      40.610  28.718  29.305  1.00  0.00     0.074 A 
ATOM     56  C   UNL A   1      39.662  27.693  28.938  1.00  0.00     0.031 C 
ATOM     57  C   UNL A   1      44.902  24.105  30.741  1.00  0.00     0.029 A 
ATOM     58  C   UNL A   1      44.491  25.211  31.592  1.00  0.00     0.049 A 
ATOM     59  H   UNL A   1      43.507  26.953  30.989  1.00  0.00     0.167 HD
ATOM     60  C   UNL A   1      40.422  29.874  29.989  1.00  0.00     0.031 A 
ATOM     61  C   UNL A   1      44.624  25.378  32.928  1.00  0.00     0.031 A 
ATOM     62  C   UNL A   1      41.612  30.677  30.066  1.00  0.00     0.049 A 
ATOM     63  C   UNL A   1      44.342  26.798  33.245  1.00  0.00     0.074 A 
ATOM     64  C   UNL A   1      42.440  31.279  29.139  1.00  0.00     0.029 A 
ATOM     65  N   UNL A   1      42.310  30.677  31.250  1.00  0.00    -0.354 N 
ATOM     66  N   UNL A   1      45.120  27.786  32.906  1.00  0.00    -0.248 NA
ATOM     67  C   UNL A   1      42.985  27.178  33.608  1.00  0.00     0.031 C 
ATOM     68  C   UNL A   1      43.748  31.206  29.699  1.00  0.00     0.029 A 
ATOM     69  C   UNL A   1      43.641  30.571  30.939  1.00  0.00     0.049 A 
ATOM     70  H   UNL A   1      41.925  30.741  32.154  1.00  0.00     0.167 HD
ATOM     71  C   UNL A   1      44.262  28.838  32.615  1.00  0.00     0.074 A 
ATOM     72  C   UNL A   1      42.980  28.447  33.188  1.00  0.00     0.031 C 
ATOM     73  C   UNL A   1      44.599  29.794  31.698  1.00  0.00     0.031 A 
BRANCH  60  74
ATOM     74  C   UNL A   1      39.241  30.078  30.889  1.00  0.00    -0.014 A 
ATOM     75  C   UNL A   1      39.128  29.314  32.059  1.00  0.00     0.009 A 
ATOM     76  C   UNL A   1      38.107  30.819  30.494  1.00  0.00     0.009 A 
ATOM     77  C   UNL A   1      37.930  29.277  32.782  1.00  0.00     0.001 A 
ATOM     78  C   UNL A   1      36.929  30.822  31.237  1.00  0.00     0.001 A 
ATOM     79  C   UNL A   1      36.834  30.032  32.373  1.00  0.00     0.000 A 
ENDBRANCH  60  74
BRANCH  61  80
ATOM     80  C   UNL A   1      44.703  24.321  33.955  1.00  0.00    -0.014 A 
ATOM     81  C   UNL A   1      43.971  23.132  33.823  1.00  0.00     0.009 A 
ATOM     82  C   UNL A   1      45.683  24.379  34.963  1.00  0.00     0.009 A 
ATOM     83  C   UNL A   1      44.229  22.037  34.659  1.00  0.00     0.001 A 
ATOM     84  C   UNL A   1      45.934  23.292  35.804  1.00  0.00     0.001 A 
ATOM     85  C   UNL A   1      45.213  22.115  35.642  1.00  0.00     0.000 A 
ENDBRANCH  61  80
BRANCH  73  86
ATOM     86  C   UNL A   1      46.024  29.820  31.204  1.00  0.00    -0.014 A 
ATOM     87  C   UNL A   1      46.468  29.002  30.149  1.00  0.00     0.009 A 
ATOM     88  C   UNL A   1      46.900  30.797  31.700  1.00  0.00     0.009 A 
ATOM     89  C   UNL A   1      47.758  29.135  29.629  1.00  0.00     0.001 A 
ATOM     90  C   UNL A   1      48.184  30.943  31.168  1.00  0.00     0.001 A 
ATOM     91  C   UNL A   1      48.615  30.110  30.136  1.00  0.00     0.000 A 
ENDBRANCH  73  86
ENDBRANCH  47  48
ENDBRANCH  40  42
ENDBRANCH  39  40
ENDBRANCH  38  39
ENDBRANCH  37  38
ENDBRANCH  36  37
ENDBRANCH  35  36
ENDBRANCH  34  35
ENDBRANCH  33  34
ENDBRANCH   1  33
TORSDOF 25
ENDMDL
MODEL 3
REMARK VINA RESULT:      -9.6      2.698      4.908
REMARK SMILES C=CCn1nc(C(=O)OCCOCCOCCOCCOC(=O)c2ccc(-c3c4nc(c(-c5ccccc5)c5ccc([nH]5)c(-c5ccccc5)c5nc(c(-c6ccccc6)c6ccc3[nH]6)C=C5)C=C4)cc2)c2c1CC[C@@H]([NH+]1CCC(C(C)(C)O)CC1)C2
REMARK SMILES IDX 14 1 13 2 12 3 11 4 10 5 9 6 7 7 8 8 6 9 4 10 5 11 73 12
REMARK SMILES IDX 72 13 74 14 87 15 75 16 76 17 3 18 2 19 1 20 77 21 78 22
REMARK SMILES IDX 86 23 79 25 85 26 80 27 81 28 82 29 83 30 84 31 15 33 16 34
REMARK SMILES IDX 17 35 18 36 19 37 20 38 21 39 22 40 23 41 24 42 25 43 71 44
REMARK SMILES IDX 26 45 70 46 27 47 28 48 29 49 64 50 30 51 69 52 63 53 65 54
REMARK SMILES IDX 31 55 68 56 62 57 61 58 32 60 54 61 39 62 53 63 40 64 43 65
REMARK SMILES IDX 52 66 66 67 41 68 42 69 51 71 67 72 44 73 33 74 34 75 38 76
REMARK SMILES IDX 35 77 37 78 36 79 55 80 56 81 60 82 57 83 59 84 58 85 45 86
REMARK SMILES IDX 46 87 50 88 47 89 49 90 48 91
REMARK H PARENT 77 24 84 32 65 59 43 70
REMARK Flexibility Score: inf
ROOT
ATOM      1  C   UNL A   1      42.006  19.786  26.425  1.00  0.00     0.188 C 
ENDROOT
BRANCH   1   2
ATOM      2  C   UNL A   1      41.562  20.622  27.640  1.00  0.00     0.188 C 
BRANCH   2   3
ATOM      3  O   UNL A   1      40.250  21.155  27.467  1.00  0.00    -0.376 OA
BRANCH   3   4
ATOM      4  C   UNL A   1      39.979  21.782  26.225  1.00  0.00     0.202 C 
BRANCH   4   5
ATOM      5  C   UNL A   1      38.660  21.269  25.640  1.00  0.00     0.261 C 
BRANCH   5   6
ATOM      6  O   UNL A   1      37.954  22.252  24.870  1.00  0.00    -0.458 OA
BRANCH   6   7
ATOM      7  C   UNL A   1      36.923  22.884  25.501  1.00  0.00     0.359 C 
ATOM      8  O   UNL A   1      37.077  23.797  26.305  1.00  0.00    -0.244 OA
BRANCH   7   9
ATOM      9  C   UNL A   1      35.620  22.370  25.061  1.00  0.00     0.174 A 
ATOM     10  N   UNL A   1      34.098  20.960  24.550  1.00  0.00    -0.265 N 
ATOM     11  N   UNL A   1      35.304  21.057  25.149  1.00  0.00    -0.165 NA
ATOM     12  C   UNL A   1      33.774  22.121  23.906  1.00  0.00     0.043 A 
ATOM     13  C   UNL A   1      34.528  23.098  24.510  1.00  0.00     0.014 A 
ATOM     14  C   UNL A   1      32.766  22.321  22.849  1.00  0.00     0.062 C 
ATOM     15  C   UNL A   1      34.231  24.552  24.358  1.00  0.00     0.105 C 
ATOM     16  C   UNL A   1      32.666  23.816  22.503  1.00  0.00     0.072 C 
ATOM     17  C   UNL A   1      32.831  24.806  23.686  1.00  0.00     0.189 C 
BRANCH  10  18
ATOM     18  C   UNL A   1      33.199  19.817  24.749  1.00  0.00     0.171 C 
BRANCH  18  19
ATOM     19  C   UNL A   1      33.801  18.459  24.520  1.00  0.00    -0.011 C 
ATOM     20  C   UNL A   1      33.640  17.729  23.407  1.00  0.00     0.006 C 
ENDBRANCH  18  19
ENDBRANCH  10  18
BRANCH  17  21
ATOM     21  N   UNL A   1      31.719  25.010  24.644  1.00  0.00    -0.332 N 
ATOM     22  C   UNL A   1      30.448  25.568  24.222  1.00  0.00     0.262 C 
ATOM     23  C   UNL A   1      32.079  25.533  25.957  1.00  0.00     0.262 C 
ATOM     24  H   UNL A   1      31.521  24.011  24.707  1.00  0.00     0.348 HD
ATOM     25  C   UNL A   1      30.330  27.095  24.256  1.00  0.00     0.068 C 
ATOM     26  C   UNL A   1      32.263  27.045  26.002  1.00  0.00     0.068 C 
ATOM     27  C   UNL A   1      31.160  27.877  25.306  1.00  0.00     0.031 C 
BRANCH  27  28
ATOM     28  C   UNL A   1      31.732  29.248  24.773  1.00  0.00     0.062 C 
ATOM     29  C   UNL A   1      31.890  30.318  25.862  1.00  0.00     0.042 C 
ATOM     30  C   UNL A   1      33.081  29.049  24.067  1.00  0.00     0.042 C 
BRANCH  28  31
ATOM     31  O   UNL A   1      30.837  29.794  23.798  1.00  0.00    -0.390 OA
ATOM     32  H   UNL A   1      31.069  29.452  22.920  1.00  0.00     0.211 HD
ENDBRANCH  28  31
ENDBRANCH  27  28
ENDBRANCH  17  21
ENDBRANCH   7   9
ENDBRANCH   6   7
ENDBRANCH   5   6
ENDBRANCH   4   5
ENDBRANCH   3   4
ENDBRANCH   2   3
ENDBRANCH   1   2
BRANCH   1  33
ATOM     33  O   UNL A   1      43.338  19.285  26.404  1.00  0.00    -0.377 OA
BRANCH  33  34
ATOM     34  C   UNL A   1      43.837  18.936  25.123  1.00  0.00     0.188 C 
BRANCH  34  35
ATOM     35  C   UNL A   1      45.340  18.600  25.123  1.00  0.00     0.188 C 
BRANCH  35  36
ATOM     36  O   UNL A   1      46.262  19.295  24.299  1.00  0.00    -0.376 OA
BRANCH  36  37
ATOM     37  C   UNL A   1      46.519  20.691  24.305  1.00  0.00     0.202 C 
BRANCH  37  38
ATOM     38  C   UNL A   1      45.875  21.742  25.207  1.00  0.00     0.261 C 
BRANCH  38  39
ATOM     39  O   UNL A   1      45.439  22.916  24.576  1.00  0.00    -0.460 OA
BRANCH  39  40
ATOM     40  C   UNL A   1      44.123  23.149  24.692  1.00  0.00     0.338 C 
ATOM     41  O   UNL A   1      43.210  22.368  24.509  1.00  0.00    -0.246 OA
BRANCH  40  42
ATOM     42  C   UNL A   1      43.967  24.577  24.994  1.00  0.00     0.060 A 
ATOM     43  C   UNL A   1      45.153  25.298  25.092  1.00  0.00     0.016 A 
ATOM     44  C   UNL A   1      42.746  25.060  25.498  1.00  0.00     0.016 A 
ATOM     45  C   UNL A   1      45.183  26.343  25.979  1.00  0.00     0.010 A 
ATOM     46  C   UNL A   1      42.777  26.095  26.396  1.00  0.00     0.010 A 
ATOM     47  C   UNL A   1      44.023  26.626  26.709  1.00  0.00    -0.014 A 
BRANCH  47  48
ATOM     48  C   UNL A   1      44.202  27.398  27.913  1.00  0.00     0.031 A 
ATOM     49  C   UNL A   1      44.121  28.852  27.744  1.00  0.00     0.074 A 
ATOM     50  C   UNL A   1      44.413  26.811  29.103  1.00  0.00     0.049 A 
ATOM     51  N   UNL A   1      45.062  29.717  27.906  1.00  0.00    -0.248 NA
ATOM     52  C   UNL A   1      42.852  29.393  27.244  1.00  0.00     0.031 C 
ATOM     53  C   UNL A   1      44.227  25.404  29.470  1.00  0.00     0.029 A 
ATOM     54  N   UNL A   1      44.747  27.406  30.279  1.00  0.00    -0.354 N 
ATOM     55  C   UNL A   1      44.467  30.948  27.682  1.00  0.00     0.074 A 
ATOM     56  C   UNL A   1      43.149  30.687  27.154  1.00  0.00     0.031 C 
ATOM     57  C   UNL A   1      44.226  25.303  30.819  1.00  0.00     0.029 A 
ATOM     58  C   UNL A   1      44.541  26.604  31.386  1.00  0.00     0.049 A 
ATOM     59  H   UNL A   1      45.101  28.322  30.337  1.00  0.00     0.167 HD
ATOM     60  C   UNL A   1      45.005  32.101  28.154  1.00  0.00     0.031 A 
ATOM     61  C   UNL A   1      44.540  27.016  32.675  1.00  0.00     0.031 A 
ATOM     62  C   UNL A   1      46.392  31.968  28.504  1.00  0.00     0.049 A 
ATOM     63  C   UNL A   1      45.245  28.318  32.743  1.00  0.00     0.074 A 
ATOM     64  C   UNL A   1      47.541  31.633  27.814  1.00  0.00     0.029 A 
ATOM     65  N   UNL A   1      46.710  31.863  29.837  1.00  0.00    -0.354 N 
ATOM     66  N   UNL A   1      46.527  28.461  32.556  1.00  0.00    -0.248 NA
ATOM     67  C   UNL A   1      44.466  29.542  32.637  1.00  0.00     0.031 C 
ATOM     68  C   UNL A   1      48.347  30.921  28.749  1.00  0.00     0.029 A 
ATOM     69  C   UNL A   1      47.647  30.869  29.956  1.00  0.00     0.049 A 
ATOM     70  H   UNL A   1      46.333  32.401  30.570  1.00  0.00     0.167 HD
ATOM     71  C   UNL A   1      46.663  29.683  31.911  1.00  0.00     0.074 A 
ATOM     72  C   UNL A   1      45.384  30.355  32.106  1.00  0.00     0.031 C 
ATOM     73  C   UNL A   1      47.695  29.916  31.046  1.00  0.00     0.031 A 
BRANCH  60  74
ATOM     74  C   UNL A   1      44.149  33.236  28.628  1.00  0.00    -0.014 A 
ATOM     75  C   UNL A   1      43.422  33.099  29.819  1.00  0.00     0.009 A 
ATOM     76  C   UNL A   1      43.838  34.342  27.809  1.00  0.00     0.009 A 
ATOM     77  C   UNL A   1      42.418  34.013  30.158  1.00  0.00     0.001 A 
ATOM     78  C   UNL A   1      42.872  35.280  28.168  1.00  0.00     0.001 A 
ATOM     79  C   UNL A   1      42.145  35.102  29.335  1.00  0.00     0.000 A 
ENDBRANCH  60  74
BRANCH  61  80
ATOM     80  C   UNL A   1      43.723  26.480  33.781  1.00  0.00    -0.014 A 
ATOM     81  C   UNL A   1      42.428  26.962  34.019  1.00  0.00     0.009 A 
ATOM     82  C   UNL A   1      44.129  25.322  34.469  1.00  0.00     0.009 A 
ATOM     83  C   UNL A   1      41.567  26.293  34.900  1.00  0.00     0.001 A 
ATOM     84  C   UNL A   1      43.276  24.661  35.356  1.00  0.00     0.001 A 
ATOM     85  C   UNL A   1      41.988  25.142  35.562  1.00  0.00     0.000 A 
ENDBRANCH  61  80
BRANCH  73  86
ATOM     86  C   UNL A   1      48.818  28.909  31.007  1.00  0.00    -0.014 A 
ATOM     87  C   UNL A   1      48.743  27.731  30.241  1.00  0.00     0.009 A 
ATOM     88  C   UNL A   1      50.038  29.224  31.624  1.00  0.00     0.009 A 
ATOM     89  C   UNL A   1      49.844  26.879  30.124  1.00  0.00     0.001 A 
ATOM     90  C   UNL A   1      51.145  28.381  31.491  1.00  0.00     0.001 A 
ATOM     91  C   UNL A   1      51.047  27.207  30.745  1.00  0.00     0.000 A 
ENDBRANCH  73  86
ENDBRANCH  47  48
ENDBRANCH  40  42
ENDBRANCH  39  40
ENDBRANCH  38  39
ENDBRANCH  37  38
ENDBRANCH  36  37
ENDBRANCH  35  36
ENDBRANCH  34  35
ENDBRANCH  33  34
ENDBRANCH   1  33
TORSDOF 25
ENDMDL
