MODEL 1
REMARK VINA RESULT:      -9.1      0.000      0.000
REMARK SMILES C[C@H]([NH2+]CCc1ccccc1)[C@@H](C)C(=O)OCCOCCOCCOCCOC(=O)c1ccc(-c2c3nc(c(-c4ccccc4)c4ccc([nH]4)c(-c4ccccc4)c4nc(c(-c5ccccc5)c5ccc2[nH]5)C=C4)C=C3)cc1
REMARK SMILES IDX 20 1 19 2 18 3 17 4 16 5 14 6 15 7 12 8 13 9 2 10 1 11 3 12
REMARK SMILES IDX 4 15 5 16 6 17 7 18 11 19 8 20 10 21 9 22 21 23 22 24 23 25
REMARK SMILES IDX 24 26 25 27 26 28 27 29 28 30 29 31 30 32 31 33 32 34 78 35
REMARK SMILES IDX 33 36 77 37 34 38 35 39 36 40 71 41 37 42 76 43 70 44 72 45
REMARK SMILES IDX 38 46 75 47 69 48 68 49 39 51 61 52 46 53 60 54 47 55 50 56
REMARK SMILES IDX 59 57 73 58 48 59 49 60 58 62 74 63 51 64 40 65 41 66 45 67
REMARK SMILES IDX 42 68 44 69 43 70 62 71 63 72 67 73 64 74 66 75 65 76 52 77
REMARK SMILES IDX 53 78 57 79 54 80 56 81 55 82
REMARK H PARENT 3 13 3 14 72 50 50 61
REMARK Flexibility Score: inf
ROOT
ATOM      1  C   UNL A   1      38.486  22.163  25.731  1.00  0.00     0.188 C 
ENDROOT
BRANCH   1   2
ATOM      2  O   UNL A   1      38.007  21.283  24.726  1.00  0.00    -0.376 OA
BRANCH   2   3
ATOM      3  C   UNL A   1      36.921  20.410  25.034  1.00  0.00     0.202 C 
BRANCH   3   4
ATOM      4  C   UNL A   1      35.477  20.950  25.172  1.00  0.00     0.261 C 
BRANCH   4   5
ATOM      5  O   UNL A   1      34.384  20.101  24.706  1.00  0.00    -0.463 OA
BRANCH   5   6
ATOM      6  C   UNL A   1      33.140  20.586  24.920  1.00  0.00     0.314 C 
ATOM      7  O   UNL A   1      32.150  19.853  24.994  1.00  0.00    -0.252 OA
BRANCH   6   8
ATOM      8  C   UNL A   1      32.936  22.109  24.977  1.00  0.00     0.154 C 
ATOM      9  C   UNL A   1      31.895  22.271  26.112  1.00  0.00     0.026 C 
BRANCH   8  10
ATOM     10  C   UNL A   1      32.533  23.009  23.769  1.00  0.00     0.193 C 
ATOM     11  C   UNL A   1      32.712  22.434  22.377  1.00  0.00     0.076 C 
BRANCH  10  12
ATOM     12  N   UNL A   1      33.142  24.363  23.842  1.00  0.00    -0.343 N 
ATOM     13  H   UNL A   1      32.511  24.936  24.401  1.00  0.00     0.346 HD
ATOM     14  H   UNL A   1      33.266  24.612  22.860  1.00  0.00     0.346 HD
BRANCH  12  15
ATOM     15  C   UNL A   1      34.489  24.549  24.401  1.00  0.00     0.265 C 
BRANCH  15  16
ATOM     16  C   UNL A   1      34.405  25.305  25.752  1.00  0.00     0.097 C 
BRANCH  16  17
ATOM     17  C   UNL A   1      33.449  26.475  25.742  1.00  0.00    -0.042 A 
ATOM     18  C   UNL A   1      33.784  27.658  25.069  1.00  0.00     0.004 A 
ATOM     19  C   UNL A   1      32.225  26.411  26.420  1.00  0.00     0.004 A 
ATOM     20  C   UNL A   1      32.944  28.771  25.137  1.00  0.00     0.000 A 
ATOM     21  C   UNL A   1      31.404  27.533  26.521  1.00  0.00     0.000 A 
ATOM     22  C   UNL A   1      31.769  28.717  25.886  1.00  0.00     0.000 A 
ENDBRANCH  16  17
ENDBRANCH  15  16
ENDBRANCH  12  15
ENDBRANCH  10  12
ENDBRANCH   8  10
ENDBRANCH   6   8
ENDBRANCH   5   6
ENDBRANCH   4   5
ENDBRANCH   3   4
ENDBRANCH   2   3
ENDBRANCH   1   2
BRANCH   1  23
ATOM     23  C   UNL A   1      39.604  21.645  26.634  1.00  0.00     0.188 C 
BRANCH  23  24
ATOM     24  O   UNL A   1      40.540  20.851  25.932  1.00  0.00    -0.377 OA
BRANCH  24  25
ATOM     25  C   UNL A   1      40.986  19.598  26.434  1.00  0.00     0.188 C 
BRANCH  25  26
ATOM     26  C   UNL A   1      42.354  19.098  25.992  1.00  0.00     0.188 C 
BRANCH  26  27
ATOM     27  O   UNL A   1      43.040  19.881  25.012  1.00  0.00    -0.376 OA
BRANCH  27  28
ATOM     28  C   UNL A   1      44.465  19.934  25.054  1.00  0.00     0.202 C 
BRANCH  28  29
ATOM     29  C   UNL A   1      45.065  21.304  25.374  1.00  0.00     0.261 C 
BRANCH  29  30
ATOM     30  O   UNL A   1      44.133  22.172  26.038  1.00  0.00    -0.460 OA
BRANCH  30  31
ATOM     31  C   UNL A   1      43.576  23.133  25.268  1.00  0.00     0.338 C 
ATOM     32  O   UNL A   1      43.422  23.128  24.055  1.00  0.00    -0.246 OA
BRANCH  31  33
ATOM     33  C   UNL A   1      43.025  24.176  26.144  1.00  0.00     0.060 A 
ATOM     34  C   UNL A   1      43.493  25.491  26.014  1.00  0.00     0.016 A 
ATOM     35  C   UNL A   1      42.091  23.844  27.126  1.00  0.00     0.016 A 
ATOM     36  C   UNL A   1      43.032  26.482  26.877  1.00  0.00     0.010 A 
ATOM     37  C   UNL A   1      41.646  24.831  28.001  1.00  0.00     0.010 A 
ATOM     38  C   UNL A   1      42.129  26.147  27.893  1.00  0.00    -0.014 A 
BRANCH  38  39
ATOM     39  C   UNL A   1      41.776  27.128  28.940  1.00  0.00     0.031 A 
ATOM     40  C   UNL A   1      42.584  27.155  30.203  1.00  0.00     0.074 A 
ATOM     41  C   UNL A   1      40.723  27.946  28.778  1.00  0.00     0.049 A 
ATOM     42  N   UNL A   1      42.368  27.814  31.311  1.00  0.00    -0.248 NA
ATOM     43  C   UNL A   1      43.796  26.320  30.219  1.00  0.00     0.031 C 
ATOM     44  C   UNL A   1      39.908  28.049  27.569  1.00  0.00     0.029 A 
ATOM     45  N   UNL A   1      40.148  28.831  29.653  1.00  0.00    -0.354 N 
ATOM     46  C   UNL A   1      43.407  27.462  32.162  1.00  0.00     0.074 A 
ATOM     47  C   UNL A   1      44.237  26.513  31.452  1.00  0.00     0.031 C 
ATOM     48  C   UNL A   1      38.923  28.938  27.784  1.00  0.00     0.029 A 
ATOM     49  C   UNL A   1      39.011  29.422  29.160  1.00  0.00     0.049 A 
ATOM     50  H   UNL A   1      40.515  29.024  30.545  1.00  0.00     0.167 HD
ATOM     51  C   UNL A   1      43.644  27.892  33.424  1.00  0.00     0.031 A 
ATOM     52  C   UNL A   1      38.123  30.230  29.769  1.00  0.00     0.031 A 
ATOM     53  C   UNL A   1      42.791  28.809  34.130  1.00  0.00     0.049 A 
ATOM     54  C   UNL A   1      38.337  30.593  31.215  1.00  0.00     0.074 A 
ATOM     55  C   UNL A   1      42.936  29.315  35.409  1.00  0.00     0.029 A 
ATOM     56  N   UNL A   1      41.619  29.347  33.617  1.00  0.00    -0.354 N 
ATOM     57  N   UNL A   1      39.329  30.273  32.011  1.00  0.00    -0.248 NA
ATOM     58  C   UNL A   1      37.304  31.426  31.847  1.00  0.00     0.031 C 
ATOM     59  C   UNL A   1      41.816  30.102  35.695  1.00  0.00     0.029 A 
ATOM     60  C   UNL A   1      41.010  30.146  34.567  1.00  0.00     0.049 A 
ATOM     61  H   UNL A   1      41.273  29.184  32.709  1.00  0.00     0.167 HD
ATOM     62  C   UNL A   1      39.054  30.884  33.228  1.00  0.00     0.074 A 
ATOM     63  C   UNL A   1      37.810  31.607  33.059  1.00  0.00     0.031 C 
ATOM     64  C   UNL A   1      39.768  30.854  34.381  1.00  0.00     0.031 A 
BRANCH  51  65
ATOM     65  C   UNL A   1      44.846  27.326  34.129  1.00  0.00    -0.014 A 
ATOM     66  C   UNL A   1      46.116  27.913  34.001  1.00  0.00     0.009 A 
ATOM     67  C   UNL A   1      44.704  26.190  34.942  1.00  0.00     0.009 A 
ATOM     68  C   UNL A   1      47.225  27.345  34.633  1.00  0.00     0.001 A 
ATOM     69  C   UNL A   1      45.808  25.644  35.599  1.00  0.00     0.001 A 
ATOM     70  C   UNL A   1      47.070  26.215  35.434  1.00  0.00     0.000 A 
ENDBRANCH  51  65
BRANCH  52  71
ATOM     71  C   UNL A   1      36.938  30.728  29.025  1.00  0.00    -0.014 A 
ATOM     72  C   UNL A   1      36.838  32.082  28.673  1.00  0.00     0.009 A 
ATOM     73  C   UNL A   1      35.897  29.857  28.665  1.00  0.00     0.009 A 
ATOM     74  C   UNL A   1      35.714  32.557  27.994  1.00  0.00     0.001 A 
ATOM     75  C   UNL A   1      34.789  30.327  27.958  1.00  0.00     0.001 A 
ATOM     76  C   UNL A   1      34.694  31.679  27.630  1.00  0.00     0.000 A 
ENDBRANCH  52  71
BRANCH  64  77
ATOM     77  C   UNL A   1      39.239  31.646  35.543  1.00  0.00    -0.014 A 
ATOM     78  C   UNL A   1      39.567  33.000  35.712  1.00  0.00     0.009 A 
ATOM     79  C   UNL A   1      38.345  31.046  36.444  1.00  0.00     0.009 A 
ATOM     80  C   UNL A   1      39.028  33.731  36.774  1.00  0.00     0.001 A 
ATOM     81  C   UNL A   1      37.782  31.787  37.485  1.00  0.00     0.001 A 
ATOM     82  C   UNL A   1      38.130  33.125  37.653  1.00  0.00     0.000 A 
ENDBRANCH  64  77
ENDBRANCH  38  39
ENDBRANCH  31  33
ENDBRANCH  30  31
ENDBRANCH  29  30
ENDBRANCH  28  29
ENDBRANCH  27  28
ENDBRANCH  26  27
ENDBRANCH  25  26
ENDBRANCH  24  25
ENDBRANCH  23  24
ENDBRANCH   1  23
TORSDOF 25
ENDMDL
MODEL 2
REMARK VINA RESULT:      -7.6      8.201     11.002
REMARK SMILES C[C@H]([NH2+]CCc1ccccc1)[C@@H](C)C(=O)OCCOCCOCCOCCOC(=O)c1ccc(-c2c3nc(c(-c4ccccc4)c4ccc([nH]4)c(-c4ccccc4)c4nc(c(-c5ccccc5)c5ccc2[nH]5)C=C4)C=C3)cc1
REMARK SMILES IDX 20 1 19 2 18 3 17 4 16 5 14 6 15 7 12 8 13 9 2 10 1 11 3 12
REMARK SMILES IDX 4 15 5 16 6 17 7 18 11 19 8 20 10 21 9 22 21 23 22 24 23 25
REMARK SMILES IDX 24 26 25 27 26 28 27 29 28 30 29 31 30 32 31 33 32 34 78 35
REMARK SMILES IDX 33 36 77 37 34 38 35 39 36 40 71 41 37 42 76 43 70 44 72 45
REMARK SMILES IDX 38 46 75 47 69 48 68 49 39 51 61 52 46 53 60 54 47 55 50 56
REMARK SMILES IDX 59 57 73 58 48 59 49 60 58 62 74 63 51 64 40 65 41 66 45 67
REMARK SMILES IDX 42 68 44 69 43 70 62 71 63 72 67 73 64 74 66 75 65 76 52 77
REMARK SMILES IDX 53 78 57 79 54 80 56 81 55 82
REMARK H PARENT 3 13 3 14 72 50 50 61
REMARK Flexibility Score: inf
ROOT
ATOM      1  C   UNL A   1      33.826  30.742  27.129  1.00  0.00     0.188 C 
ENDROOT
BRANCH   1   2
ATOM      2  O   UNL A   1      33.650  29.344  27.300  1.00  0.00    -0.376 OA
BRANCH   2   3
ATOM      3  C   UNL A   1      32.524  28.711  26.694  1.00  0.00     0.202 C 
BRANCH   3   4
ATOM      4  C   UNL A   1      31.811  29.347  25.476  1.00  0.00     0.261 C 
BRANCH   4   5
ATOM      5  O   UNL A   1      32.179  28.871  24.145  1.00  0.00    -0.463 OA
BRANCH   5   6
ATOM      6  C   UNL A   1      31.144  28.540  23.340  1.00  0.00     0.314 C 
ATOM      7  O   UNL A   1      30.473  29.387  22.745  1.00  0.00    -0.252 OA
BRANCH   6   8
ATOM      8  C   UNL A   1      30.727  27.064  23.236  1.00  0.00     0.154 C 
ATOM      9  C   UNL A   1      29.230  27.104  23.627  1.00  0.00     0.026 C 
BRANCH   8  10
ATOM     10  C   UNL A   1      31.424  25.877  23.970  1.00  0.00     0.193 C 
ATOM     11  C   UNL A   1      30.966  25.561  25.380  1.00  0.00     0.076 C 
BRANCH  10  12
ATOM     12  N   UNL A   1      32.907  25.976  23.927  1.00  0.00    -0.343 N 
ATOM     13  H   UNL A   1      33.250  25.610  24.815  1.00  0.00     0.346 HD
ATOM     14  H   UNL A   1      33.066  26.964  23.727  1.00  0.00     0.346 HD
BRANCH  12  15
ATOM     15  C   UNL A   1      33.672  25.299  22.870  1.00  0.00     0.265 C 
BRANCH  15  16
ATOM     16  C   UNL A   1      34.467  24.109  23.465  1.00  0.00     0.097 C 
BRANCH  16  17
ATOM     17  C   UNL A   1      33.695  22.810  23.499  1.00  0.00    -0.042 A 
ATOM     18  C   UNL A   1      33.995  21.833  24.457  1.00  0.00     0.004 A 
ATOM     19  C   UNL A   1      32.685  22.548  22.564  1.00  0.00     0.004 A 
ATOM     20  C   UNL A   1      33.347  20.596  24.432  1.00  0.00     0.000 A 
ATOM     21  C   UNL A   1      32.065  21.301  22.514  1.00  0.00     0.000 A 
ATOM     22  C   UNL A   1      32.404  20.321  23.443  1.00  0.00     0.000 A 
ENDBRANCH  16  17
ENDBRANCH  15  16
ENDBRANCH  12  15
ENDBRANCH  10  12
ENDBRANCH   8  10
ENDBRANCH   6   8
ENDBRANCH   5   6
ENDBRANCH   4   5
ENDBRANCH   3   4
ENDBRANCH   2   3
ENDBRANCH   1   2
BRANCH   1  23
ATOM     23  C   UNL A   1      34.367  31.526  28.324  1.00  0.00     0.188 C 
BRANCH  23  24
ATOM     24  O   UNL A   1      35.750  31.797  28.208  1.00  0.00    -0.377 OA
BRANCH  24  25
ATOM     25  C   UNL A   1      36.733  30.795  28.440  1.00  0.00     0.188 C 
BRANCH  25  26
ATOM     26  C   UNL A   1      36.432  29.726  29.480  1.00  0.00     0.188 C 
BRANCH  26  27
ATOM     27  O   UNL A   1      36.268  30.169  30.829  1.00  0.00    -0.376 OA
BRANCH  27  28
ATOM     28  C   UNL A   1      37.431  30.493  31.589  1.00  0.00     0.202 C 
BRANCH  28  29
ATOM     29  C   UNL A   1      37.268  31.642  32.585  1.00  0.00     0.261 C 
BRANCH  29  30
ATOM     30  O   UNL A   1      38.299  32.634  32.456  1.00  0.00    -0.460 OA
BRANCH  30  31
ATOM     31  C   UNL A   1      37.974  33.725  31.727  1.00  0.00     0.338 C 
ATOM     32  O   UNL A   1      36.916  34.337  31.723  1.00  0.00    -0.246 OA
BRANCH  31  33
ATOM     33  C   UNL A   1      39.171  34.183  31.008  1.00  0.00     0.060 A 
ATOM     34  C   UNL A   1      39.079  34.453  29.636  1.00  0.00     0.016 A 
ATOM     35  C   UNL A   1      40.390  34.291  31.678  1.00  0.00     0.016 A 
ATOM     36  C   UNL A   1      40.216  34.825  28.923  1.00  0.00     0.010 A 
ATOM     37  C   UNL A   1      41.530  34.645  30.960  1.00  0.00     0.010 A 
ATOM     38  C   UNL A   1      41.451  34.893  29.578  1.00  0.00    -0.014 A 
BRANCH  38  39
ATOM     39  C   UNL A   1      42.699  35.091  28.814  1.00  0.00     0.031 A 
ATOM     40  C   UNL A   1      43.616  33.922  28.617  1.00  0.00     0.074 A 
ATOM     41  C   UNL A   1      43.024  36.308  28.346  1.00  0.00     0.049 A 
ATOM     42  N   UNL A   1      44.825  33.891  28.121  1.00  0.00    -0.248 NA
ATOM     43  C   UNL A   1      43.101  32.610  29.045  1.00  0.00     0.031 C 
ATOM     44  C   UNL A   1      42.181  37.499  28.425  1.00  0.00     0.029 A 
ATOM     45  N   UNL A   1      44.169  36.741  27.729  1.00  0.00    -0.354 N 
ATOM     46  C   UNL A   1      45.222  32.561  28.190  1.00  0.00     0.074 A 
ATOM     47  C   UNL A   1      44.137  31.823  28.800  1.00  0.00     0.031 C 
ATOM     48  C   UNL A   1      42.845  38.537  27.890  1.00  0.00     0.029 A 
ATOM     49  C   UNL A   1      44.176  38.092  27.483  1.00  0.00     0.049 A 
ATOM     50  H   UNL A   1      44.912  36.143  27.487  1.00  0.00     0.167 HD
ATOM     51  C   UNL A   1      46.389  32.009  27.783  1.00  0.00     0.031 A 
ATOM     52  C   UNL A   1      45.163  38.880  27.020  1.00  0.00     0.031 A 
ATOM     53  C   UNL A   1      47.473  32.761  27.211  1.00  0.00     0.049 A 
ATOM     54  C   UNL A   1      46.499  38.265  26.694  1.00  0.00     0.074 A 
ATOM     55  C   UNL A   1      48.699  32.304  26.760  1.00  0.00     0.029 A 
ATOM     56  N   UNL A   1      47.465  34.136  27.024  1.00  0.00    -0.354 N 
ATOM     57  N   UNL A   1      46.865  37.007  26.745  1.00  0.00    -0.248 NA
ATOM     58  C   UNL A   1      47.560  39.183  26.252  1.00  0.00     0.031 C 
ATOM     59  C   UNL A   1      49.457  33.412  26.368  1.00  0.00     0.029 A 
ATOM     60  C   UNL A   1      48.677  34.551  26.505  1.00  0.00     0.049 A 
ATOM     61  H   UNL A   1      46.706  34.729  27.231  1.00  0.00     0.167 HD
ATOM     62  C   UNL A   1      48.187  36.977  26.317  1.00  0.00     0.074 A 
ATOM     63  C   UNL A   1      48.552  38.342  25.997  1.00  0.00     0.031 C 
ATOM     64  C   UNL A   1      49.023  35.916  26.198  1.00  0.00     0.031 A 
BRANCH  51  65
ATOM     65  C   UNL A   1      46.563  30.531  27.998  1.00  0.00    -0.014 A 
ATOM     66  C   UNL A   1      46.188  29.598  27.017  1.00  0.00     0.009 A 
ATOM     67  C   UNL A   1      47.117  30.063  29.200  1.00  0.00     0.009 A 
ATOM     68  C   UNL A   1      46.321  28.227  27.256  1.00  0.00     0.001 A 
ATOM     69  C   UNL A   1      47.280  28.695  29.423  1.00  0.00     0.001 A 
ATOM     70  C   UNL A   1      46.869  27.778  28.456  1.00  0.00     0.000 A 
ENDBRANCH  51  65
BRANCH  52  71
ATOM     71  C   UNL A   1      44.938  40.340  26.862  1.00  0.00    -0.014 A 
ATOM     72  C   UNL A   1      44.424  40.854  25.662  1.00  0.00     0.009 A 
ATOM     73  C   UNL A   1      45.236  41.231  27.906  1.00  0.00     0.009 A 
ATOM     74  C   UNL A   1      44.232  42.229  25.503  1.00  0.00     0.001 A 
ATOM     75  C   UNL A   1      45.014  42.601  27.756  1.00  0.00     0.001 A 
ATOM     76  C   UNL A   1      44.521  43.100  26.552  1.00  0.00     0.000 A 
ENDBRANCH  52  71
BRANCH  64  77
ATOM     77  C   UNL A   1      50.406  36.181  25.672  1.00  0.00    -0.014 A 
ATOM     78  C   UNL A   1      51.486  36.404  26.541  1.00  0.00     0.009 A 
ATOM     79  C   UNL A   1      50.645  36.138  24.289  1.00  0.00     0.009 A 
ATOM     80  C   UNL A   1      52.772  36.602  26.033  1.00  0.00     0.001 A 
ATOM     81  C   UNL A   1      51.936  36.304  23.786  1.00  0.00     0.001 A 
ATOM     82  C   UNL A   1      52.996  36.544  24.657  1.00  0.00     0.000 A 
ENDBRANCH  64  77
ENDBRANCH  38  39
ENDBRANCH  31  33
ENDBRANCH  30  31
ENDBRANCH  29  30
ENDBRANCH  28  29
ENDBRANCH  27  28
ENDBRANCH  26  27
ENDBRANCH  25  26
ENDBRANCH  24  25
ENDBRANCH  23  24
ENDBRANCH   1  23
TORSDOF 25
ENDMDL
MODEL 3
REMARK VINA RESULT:      -7.4      6.560     11.174
REMARK SMILES C[C@H]([NH2+]CCc1ccccc1)[C@@H](C)C(=O)OCCOCCOCCOCCOC(=O)c1ccc(-c2c3nc(c(-c4ccccc4)c4ccc([nH]4)c(-c4ccccc4)c4nc(c(-c5ccccc5)c5ccc2[nH]5)C=C4)C=C3)cc1
REMARK SMILES IDX 20 1 19 2 18 3 17 4 16 5 14 6 15 7 12 8 13 9 2 10 1 11 3 12
REMARK SMILES IDX 4 15 5 16 6 17 7 18 11 19 8 20 10 21 9 22 21 23 22 24 23 25
REMARK SMILES IDX 24 26 25 27 26 28 27 29 28 30 29 31 30 32 31 33 32 34 78 35
REMARK SMILES IDX 33 36 77 37 34 38 35 39 36 40 71 41 37 42 76 43 70 44 72 45
REMARK SMILES IDX 38 46 75 47 69 48 68 49 39 51 61 52 46 53 60 54 47 55 50 56
REMARK SMILES IDX 59 57 73 58 48 59 49 60 58 62 74 63 51 64 40 65 41 66 45 67
REMARK SMILES IDX 42 68 44 69 43 70 62 71 63 72 67 73 64 74 66 75 65 76 52 77
REMARK SMILES IDX 53 78 57 79 54 80 56 81 55 82
REMARK H PARENT 3 13 3 14 72 50 50 61
REMARK Flexibility Score: inf
ROOT
ATOM      1  C   UNL A   1      34.972  33.745  31.912  1.00  0.00     0.188 C 
ENDROOT
BRANCH   1   2
ATOM      2  O   UNL A   1      33.655  34.155  31.579  1.00  0.00    -0.376 OA
BRANCH   2   3
ATOM      3  C   UNL A   1      33.466  35.426  30.958  1.00  0.00     0.202 C 
BRANCH   3   4
ATOM      4  C   UNL A   1      33.343  35.552  29.420  1.00  0.00     0.261 C 
BRANCH   4   5
ATOM      5  O   UNL A   1      34.063  34.584  28.597  1.00  0.00    -0.463 OA
BRANCH   5   6
ATOM      6  C   UNL A   1      33.297  33.637  28.009  1.00  0.00     0.314 C 
ATOM      7  O   UNL A   1      32.170  33.880  27.568  1.00  0.00    -0.252 OA
BRANCH   6   8
ATOM      8  C   UNL A   1      33.805  32.187  27.972  1.00  0.00     0.154 C 
ATOM      9  C   UNL A   1      35.343  32.366  27.991  1.00  0.00     0.026 C 
BRANCH   8  10
ATOM     10  C   UNL A   1      33.418  31.124  26.899  1.00  0.00     0.193 C 
ATOM     11  C   UNL A   1      31.998  30.595  26.918  1.00  0.00     0.076 C 
BRANCH  10  12
ATOM     12  N   UNL A   1      34.382  29.993  26.847  1.00  0.00    -0.343 N 
ATOM     13  H   UNL A   1      35.161  30.245  27.454  1.00  0.00     0.346 HD
ATOM     14  H   UNL A   1      34.568  29.896  25.848  1.00  0.00     0.346 HD
BRANCH  12  15
ATOM     15  C   UNL A   1      33.967  28.637  27.237  1.00  0.00     0.265 C 
BRANCH  15  16
ATOM     16  C   UNL A   1      33.899  27.721  25.989  1.00  0.00     0.097 C 
BRANCH  16  17
ATOM     17  C   UNL A   1      32.826  26.660  26.063  1.00  0.00    -0.042 A 
ATOM     18  C   UNL A   1      33.172  25.302  26.078  1.00  0.00     0.004 A 
ATOM     19  C   UNL A   1      31.469  27.008  26.098  1.00  0.00     0.004 A 
ATOM     20  C   UNL A   1      32.180  24.320  26.053  1.00  0.00     0.000 A 
ATOM     21  C   UNL A   1      30.479  26.030  26.034  1.00  0.00     0.000 A 
ATOM     22  C   UNL A   1      30.835  24.685  26.003  1.00  0.00     0.000 A 
ENDBRANCH  16  17
ENDBRANCH  15  16
ENDBRANCH  12  15
ENDBRANCH  10  12
ENDBRANCH   8  10
ENDBRANCH   6   8
ENDBRANCH   5   6
ENDBRANCH   4   5
ENDBRANCH   3   4
ENDBRANCH   2   3
ENDBRANCH   1   2
BRANCH   1  23
ATOM     23  C   UNL A   1      35.179  33.124  33.293  1.00  0.00     0.188 C 
BRANCH  23  24
ATOM     24  O   UNL A   1      35.995  31.970  33.248  1.00  0.00    -0.377 OA
BRANCH  24  25
ATOM     25  C   UNL A   1      36.271  31.293  32.029  1.00  0.00     0.188 C 
BRANCH  25  26
ATOM     26  C   UNL A   1      36.873  29.898  32.107  1.00  0.00     0.188 C 
BRANCH  26  27
ATOM     27  O   UNL A   1      38.296  29.804  32.007  1.00  0.00    -0.376 OA
BRANCH  27  28
ATOM     28  C   UNL A   1      38.871  29.445  30.752  1.00  0.00     0.202 C 
BRANCH  28  29
ATOM     29  C   UNL A   1      38.923  30.562  29.708  1.00  0.00     0.261 C 
BRANCH  29  30
ATOM     30  O   UNL A   1      39.786  31.643  30.099  1.00  0.00    -0.460 OA
BRANCH  30  31
ATOM     31  C   UNL A   1      39.182  32.838  30.278  1.00  0.00     0.338 C 
ATOM     32  O   UNL A   1      38.500  33.463  29.478  1.00  0.00    -0.246 OA
BRANCH  31  33
ATOM     33  C   UNL A   1      39.347  33.242  31.681  1.00  0.00     0.060 A 
ATOM     34  C   UNL A   1      38.566  34.292  32.184  1.00  0.00     0.016 A 
ATOM     35  C   UNL A   1      40.308  32.622  32.479  1.00  0.00     0.016 A 
ATOM     36  C   UNL A   1      38.752  34.733  33.492  1.00  0.00     0.010 A 
ATOM     37  C   UNL A   1      40.508  33.077  33.780  1.00  0.00     0.010 A 
ATOM     38  C   UNL A   1      39.746  34.145  34.283  1.00  0.00    -0.014 A 
BRANCH  38  39
ATOM     39  C   UNL A   1      40.099  34.719  35.598  1.00  0.00     0.031 A 
ATOM     40  C   UNL A   1      41.255  35.670  35.682  1.00  0.00     0.074 A 
ATOM     41  C   UNL A   1      39.423  34.359  36.701  1.00  0.00     0.049 A 
ATOM     42  N   UNL A   1      41.840  36.172  36.737  1.00  0.00    -0.248 NA
ATOM     43  C   UNL A   1      41.835  36.105  34.400  1.00  0.00     0.031 C 
ATOM     44  C   UNL A   1      38.244  33.494  36.728  1.00  0.00     0.029 A 
ATOM     45  N   UNL A   1      39.651  34.664  38.018  1.00  0.00    -0.354 N 
ATOM     46  C   UNL A   1      42.866  36.972  36.249  1.00  0.00     0.074 A 
ATOM     47  C   UNL A   1      42.840  36.865  34.806  1.00  0.00     0.031 C 
ATOM     48  C   UNL A   1      37.861  33.323  38.005  1.00  0.00     0.029 A 
ATOM     49  C   UNL A   1      38.798  34.022  38.881  1.00  0.00     0.049 A 
ATOM     50  H   UNL A   1      40.356  35.282  38.315  1.00  0.00     0.167 HD
ATOM     51  C   UNL A   1      43.750  37.724  36.944  1.00  0.00     0.031 A 
ATOM     52  C   UNL A   1      38.804  33.975  40.226  1.00  0.00     0.031 A 
ATOM     53  C   UNL A   1      43.787  37.793  38.380  1.00  0.00     0.049 A 
ATOM     54  C   UNL A   1      39.877  34.716  40.980  1.00  0.00     0.074 A 
ATOM     55  C   UNL A   1      44.637  38.525  39.190  1.00  0.00     0.029 A 
ATOM     56  N   UNL A   1      42.940  37.087  39.223  1.00  0.00    -0.354 N 
ATOM     57  N   UNL A   1      40.833  35.483  40.516  1.00  0.00    -0.248 NA
ATOM     58  C   UNL A   1      39.872  34.578  42.443  1.00  0.00     0.031 C 
ATOM     59  C   UNL A   1      44.351  38.206  40.521  1.00  0.00     0.029 A 
ATOM     60  C   UNL A   1      43.273  37.333  40.543  1.00  0.00     0.049 A 
ATOM     61  H   UNL A   1      42.209  36.499  38.925  1.00  0.00     0.167 HD
ATOM     62  C   UNL A   1      41.528  35.941  41.629  1.00  0.00     0.074 A 
ATOM     63  C   UNL A   1      40.872  35.376  42.790  1.00  0.00     0.031 C 
ATOM     64  C   UNL A   1      42.610  36.757  41.686  1.00  0.00     0.031 A 
BRANCH  51  65
ATOM     65  C   UNL A   1      44.780  38.484  36.154  1.00  0.00    -0.014 A 
ATOM     66  C   UNL A   1      44.545  39.798  35.716  1.00  0.00     0.009 A 
ATOM     67  C   UNL A   1      46.007  37.878  35.846  1.00  0.00     0.009 A 
ATOM     68  C   UNL A   1      45.499  40.469  34.947  1.00  0.00     0.001 A 
ATOM     69  C   UNL A   1      46.973  38.562  35.106  1.00  0.00     0.001 A 
ATOM     70  C   UNL A   1      46.713  39.852  34.646  1.00  0.00     0.000 A 
ENDBRANCH  51  65
BRANCH  52  71
ATOM     71  C   UNL A   1      37.778  33.177  40.947  1.00  0.00    -0.014 A 
ATOM     72  C   UNL A   1      38.007  31.825  41.240  1.00  0.00     0.009 A 
ATOM     73  C   UNL A   1      36.563  33.760  41.344  1.00  0.00     0.009 A 
ATOM     74  C   UNL A   1      37.034  31.068  41.898  1.00  0.00     0.001 A 
ATOM     75  C   UNL A   1      35.606  33.009  42.029  1.00  0.00     0.001 A 
ATOM     76  C   UNL A   1      35.838  31.662  42.298  1.00  0.00     0.000 A 
ENDBRANCH  52  71
BRANCH  64  77
ATOM     77  C   UNL A   1      43.137  37.114  43.047  1.00  0.00    -0.014 A 
ATOM     78  C   UNL A   1      42.667  38.242  43.738  1.00  0.00     0.009 A 
ATOM     79  C   UNL A   1      44.066  36.271  43.676  1.00  0.00     0.009 A 
ATOM     80  C   UNL A   1      43.137  38.530  45.022  1.00  0.00     0.001 A 
ATOM     81  C   UNL A   1      44.509  36.543  44.971  1.00  0.00     0.001 A 
ATOM     82  C   UNL A   1      44.050  37.676  45.640  1.00  0.00     0.000 A 
ENDBRANCH  64  77
ENDBRANCH  38  39
ENDBRANCH  31  33
ENDBRANCH  30  31
ENDBRANCH  29  30
ENDBRANCH  28  29
ENDBRANCH  27  28
ENDBRANCH  26  27
ENDBRANCH  25  26
ENDBRANCH  24  25
ENDBRANCH  23  24
ENDBRANCH   1  23
TORSDOF 25
ENDMDL
