MODEL 1
REMARK VINA RESULT:      -9.9      0.000      0.000
REMARK SMILES CCCCCCNC(=O)Nc1cccc(-c2ccc([C@@H](C)C(=O)OCCOCCOCCOCCOC(=O)c3ccc(-c4c5nc(c(-c6ccccc6)c6ccc([nH]6)c(-c6ccccc6)c6nc(c(-c7ccccc7)c7ccc4[nH]7)C=C6)C=C5)cc3)cc2F)c1
REMARK SMILES IDX 27 1 26 2 25 3 24 4 22 5 23 6 20 7 21 8 19 9 16 10 17 11
REMARK SMILES IDX 88 12 18 13 87 14 89 15 15 16 11 17 12 18 90 19 13 20 14 21
REMARK SMILES IDX 10 22 7 23 8 24 9 26 6 28 5 29 4 30 3 31 2 32 1 33 28 34
REMARK SMILES IDX 29 35 30 36 31 37 32 38 33 39 34 40 35 41 36 42 37 43 38 44
REMARK SMILES IDX 39 45 40 46 86 47 41 48 85 49 42 50 43 51 44 52 79 53 45 54
REMARK SMILES IDX 84 55 78 56 80 57 46 58 83 59 77 60 76 61 47 63 69 64 54 65
REMARK SMILES IDX 68 66 55 67 58 68 67 69 81 70 56 71 57 72 66 74 82 75 59 76
REMARK SMILES IDX 48 77 49 78 53 79 50 80 52 81 51 82 70 83 71 84 75 85 72 86
REMARK SMILES IDX 74 87 73 88 60 89 61 90 65 91 62 92 64 93 63 94
REMARK H PARENT 7 25 10 27 80 62 58 73
REMARK Flexibility Score: inf
ROOT
ATOM      1  O   UNL A   1      39.251  20.883  25.743  1.00  0.00    -0.376 OA
ENDROOT
BRANCH   1   2
ATOM      2  C   UNL A   1      38.010  21.491  25.408  1.00  0.00     0.202 C 
BRANCH   2   3
ATOM      3  C   UNL A   1      36.918  20.563  24.883  1.00  0.00     0.261 C 
BRANCH   3   4
ATOM      4  O   UNL A   1      35.686  20.613  25.624  1.00  0.00    -0.463 OA
BRANCH   4   5
ATOM      5  C   UNL A   1      34.699  19.815  25.134  1.00  0.00     0.313 C 
ATOM      6  O   UNL A   1      34.893  18.780  24.503  1.00  0.00    -0.252 OA
BRANCH   5   7
ATOM      7  C   UNL A   1      33.310  20.394  25.295  1.00  0.00     0.126 C 
ATOM      8  C   UNL A   1      32.524  20.095  24.016  1.00  0.00     0.025 C 
BRANCH   7   9
ATOM      9  C   UNL A   1      33.157  21.843  25.740  1.00  0.00    -0.031 A 
ATOM     10  C   UNL A   1      32.763  24.666  26.067  1.00  0.00     0.018 A 
ATOM     11  C   UNL A   1      34.048  24.095  26.037  1.00  0.00     0.012 A 
ATOM     12  C   UNL A   1      31.686  23.774  26.015  1.00  0.00     0.131 A 
ATOM     13  C   UNL A   1      34.244  22.710  25.887  1.00  0.00     0.005 A 
ATOM     14  C   UNL A   1      31.871  22.395  25.858  1.00  0.00     0.044 A 
ATOM     15  F   UNL A   1      30.426  24.234  26.064  1.00  0.00    -0.206 F 
BRANCH  10  16
ATOM     16  C   UNL A   1      32.574  26.132  26.159  1.00  0.00    -0.013 A 
ATOM     17  C   UNL A   1      32.995  28.372  25.277  1.00  0.00     0.043 A 
ATOM     18  C   UNL A   1      32.069  28.928  26.156  1.00  0.00     0.026 A 
ATOM     19  C   UNL A   1      33.318  27.009  25.351  1.00  0.00     0.035 A 
ATOM     20  C   UNL A   1      31.335  28.081  26.983  1.00  0.00     0.003 A 
ATOM     21  C   UNL A   1      31.568  26.698  26.964  1.00  0.00     0.009 A 
BRANCH  17  22
ATOM     22  N   UNL A   1      33.415  29.148  24.188  1.00  0.00    -0.308 N 
ATOM     23  N   UNL A   1      31.958  28.334  22.491  1.00  0.00    -0.338 N 
ATOM     24  C   UNL A   1      33.078  29.012  22.872  1.00  0.00     0.319 C 
ATOM     25  H   UNL A   1      31.841  28.221  21.520  1.00  0.00     0.165 HD
ATOM     26  O   UNL A   1      33.734  29.599  22.009  1.00  0.00    -0.249 OA
ATOM     27  H   UNL A   1      34.033  29.885  24.399  1.00  0.00     0.171 HD
BRANCH  23  28
ATOM     28  C   UNL A   1      30.912  27.754  23.318  1.00  0.00     0.117 C 
BRANCH  28  29
ATOM     29  C   UNL A   1      29.601  28.505  23.407  1.00  0.00     0.021 C 
BRANCH  29  30
ATOM     30  C   UNL A   1      29.764  29.979  23.711  1.00  0.00     0.002 C 
BRANCH  30  31
ATOM     31  C   UNL A   1      28.591  30.927  23.489  1.00  0.00    -0.000 C 
BRANCH  31  32
ATOM     32  C   UNL A   1      28.573  31.623  22.132  1.00  0.00    -0.003 C 
ATOM     33  C   UNL A   1      28.113  30.714  21.009  1.00  0.00     0.004 C 
ENDBRANCH  31  32
ENDBRANCH  30  31
ENDBRANCH  29  30
ENDBRANCH  28  29
ENDBRANCH  23  28
ENDBRANCH  17  22
ENDBRANCH  10  16
ENDBRANCH   7   9
ENDBRANCH   5   7
ENDBRANCH   4   5
ENDBRANCH   3   4
ENDBRANCH   2   3
ENDBRANCH   1   2
BRANCH   1  34
ATOM     34  C   UNL A   1      40.204  21.603  26.528  1.00  0.00     0.188 C 
BRANCH  34  35
ATOM     35  C   UNL A   1      41.546  20.935  26.853  1.00  0.00     0.188 C 
BRANCH  35  36
ATOM     36  O   UNL A   1      41.602  19.539  26.571  1.00  0.00    -0.377 OA
BRANCH  36  37
ATOM     37  C   UNL A   1      42.706  19.122  25.775  1.00  0.00     0.188 C 
BRANCH  37  38
ATOM     38  C   UNL A   1      43.784  20.186  25.763  1.00  0.00     0.188 C 
BRANCH  38  39
ATOM     39  O   UNL A   1      44.717  20.025  24.699  1.00  0.00    -0.376 OA
BRANCH  39  40
ATOM     40  C   UNL A   1      45.808  20.950  24.791  1.00  0.00     0.202 C 
BRANCH  40  41
ATOM     41  C   UNL A   1      45.616  22.074  25.824  1.00  0.00     0.261 C 
BRANCH  41  42
ATOM     42  O   UNL A   1      45.283  23.397  25.341  1.00  0.00    -0.460 OA
BRANCH  42  43
ATOM     43  C   UNL A   1      44.029  23.745  24.966  1.00  0.00     0.338 C 
ATOM     44  O   UNL A   1      43.344  23.233  24.102  1.00  0.00    -0.246 OA
BRANCH  43  45
ATOM     45  C   UNL A   1      43.547  24.735  25.967  1.00  0.00     0.060 A 
ATOM     46  C   UNL A   1      43.961  26.075  25.914  1.00  0.00     0.016 A 
ATOM     47  C   UNL A   1      42.579  24.357  26.892  1.00  0.00     0.016 A 
ATOM     48  C   UNL A   1      43.397  27.038  26.777  1.00  0.00     0.010 A 
ATOM     49  C   UNL A   1      41.970  25.329  27.691  1.00  0.00     0.010 A 
ATOM     50  C   UNL A   1      42.392  26.678  27.684  1.00  0.00    -0.014 A 
BRANCH  50  51
ATOM     51  C   UNL A   1      41.865  27.588  28.759  1.00  0.00     0.031 A 
ATOM     52  C   UNL A   1      42.545  27.531  30.110  1.00  0.00     0.074 A 
ATOM     53  C   UNL A   1      40.775  28.377  28.644  1.00  0.00     0.049 A 
ATOM     54  N   UNL A   1      42.147  27.986  31.272  1.00  0.00    -0.248 NA
ATOM     55  C   UNL A   1      43.816  26.789  30.161  1.00  0.00     0.031 C 
ATOM     56  C   UNL A   1      39.975  28.584  27.441  1.00  0.00     0.029 A 
ATOM     57  N   UNL A   1      40.123  29.131  29.599  1.00  0.00    -0.354 N 
ATOM     58  C   UNL A   1      43.077  27.510  32.186  1.00  0.00     0.074 A 
ATOM     59  C   UNL A   1      43.980  26.645  31.463  1.00  0.00     0.031 C 
ATOM     60  C   UNL A   1      38.911  29.355  27.739  1.00  0.00     0.029 A 
ATOM     61  C   UNL A   1      38.960  29.717  29.153  1.00  0.00     0.049 A 
ATOM     62  H   UNL A   1      40.460  29.240  30.518  1.00  0.00     0.167 HD
ATOM     63  C   UNL A   1      43.234  27.810  33.497  1.00  0.00     0.031 A 
ATOM     64  C   UNL A   1      38.039  30.462  29.802  1.00  0.00     0.031 A 
ATOM     65  C   UNL A   1      42.443  28.767  34.211  1.00  0.00     0.049 A 
ATOM     66  C   UNL A   1      38.241  30.833  31.250  1.00  0.00     0.074 A 
ATOM     67  C   UNL A   1      42.625  29.248  35.495  1.00  0.00     0.029 A 
ATOM     68  N   UNL A   1      41.337  29.413  33.689  1.00  0.00    -0.354 N 
ATOM     69  N   UNL A   1      39.182  30.452  32.078  1.00  0.00    -0.248 NA
ATOM     70  C   UNL A   1      37.275  31.779  31.837  1.00  0.00     0.031 C 
ATOM     71  C   UNL A   1      41.613  30.179  35.758  1.00  0.00     0.029 A 
ATOM     72  C   UNL A   1      40.823  30.292  34.625  1.00  0.00     0.049 A 
ATOM     73  H   UNL A   1      40.970  29.269  32.786  1.00  0.00     0.167 HD
ATOM     74  C   UNL A   1      38.957  31.155  33.257  1.00  0.00     0.074 A 
ATOM     75  C   UNL A   1      37.784  31.974  33.046  1.00  0.00     0.031 C 
ATOM     76  C   UNL A   1      39.677  31.133  34.406  1.00  0.00     0.031 A 
BRANCH  63  77
ATOM     77  C   UNL A   1      44.355  27.110  34.211  1.00  0.00    -0.014 A 
ATOM     78  C   UNL A   1      45.585  27.752  34.433  1.00  0.00     0.009 A 
ATOM     79  C   UNL A   1      44.200  25.775  34.609  1.00  0.00     0.009 A 
ATOM     80  C   UNL A   1      46.667  27.044  34.955  1.00  0.00     0.001 A 
ATOM     81  C   UNL A   1      45.272  25.082  35.172  1.00  0.00     0.001 A 
ATOM     82  C   UNL A   1      46.509  25.710  35.323  1.00  0.00     0.000 A 
ENDBRANCH  63  77
BRANCH  64  83
ATOM     83  C   UNL A   1      36.842  30.973  29.082  1.00  0.00    -0.014 A 
ATOM     84  C   UNL A   1      35.786  30.106  28.759  1.00  0.00     0.009 A 
ATOM     85  C   UNL A   1      36.774  32.310  28.665  1.00  0.00     0.009 A 
ATOM     86  C   UNL A   1      34.700  30.560  28.006  1.00  0.00     0.001 A 
ATOM     87  C   UNL A   1      35.677  32.766  27.927  1.00  0.00     0.001 A 
ATOM     88  C   UNL A   1      34.647  31.889  27.591  1.00  0.00     0.000 A 
ENDBRANCH  64  83
BRANCH  76  89
ATOM     89  C   UNL A   1      39.280  32.072  35.508  1.00  0.00    -0.014 A 
ATOM     90  C   UNL A   1      39.778  33.381  35.573  1.00  0.00     0.009 A 
ATOM     91  C   UNL A   1      38.324  31.660  36.451  1.00  0.00     0.009 A 
ATOM     92  C   UNL A   1      39.338  34.254  36.572  1.00  0.00     0.001 A 
ATOM     93  C   UNL A   1      37.869  32.541  37.434  1.00  0.00     0.001 A 
ATOM     94  C   UNL A   1      38.379  33.836  37.495  1.00  0.00     0.000 A 
ENDBRANCH  76  89
ENDBRANCH  50  51
ENDBRANCH  43  45
ENDBRANCH  42  43
ENDBRANCH  41  42
ENDBRANCH  40  41
ENDBRANCH  39  40
ENDBRANCH  38  39
ENDBRANCH  37  38
ENDBRANCH  36  37
ENDBRANCH  35  36
ENDBRANCH  34  35
ENDBRANCH   1  34
TORSDOF 28
ENDMDL
MODEL 2
REMARK VINA RESULT:      -9.8      1.903      2.959
REMARK SMILES CCCCCCNC(=O)Nc1cccc(-c2ccc([C@@H](C)C(=O)OCCOCCOCCOCCOC(=O)c3ccc(-c4c5nc(c(-c6ccccc6)c6ccc([nH]6)c(-c6ccccc6)c6nc(c(-c7ccccc7)c7ccc4[nH]7)C=C6)C=C5)cc3)cc2F)c1
REMARK SMILES IDX 27 1 26 2 25 3 24 4 22 5 23 6 20 7 21 8 19 9 16 10 17 11
REMARK SMILES IDX 88 12 18 13 87 14 89 15 15 16 11 17 12 18 90 19 13 20 14 21
REMARK SMILES IDX 10 22 7 23 8 24 9 26 6 28 5 29 4 30 3 31 2 32 1 33 28 34
REMARK SMILES IDX 29 35 30 36 31 37 32 38 33 39 34 40 35 41 36 42 37 43 38 44
REMARK SMILES IDX 39 45 40 46 86 47 41 48 85 49 42 50 43 51 44 52 79 53 45 54
REMARK SMILES IDX 84 55 78 56 80 57 46 58 83 59 77 60 76 61 47 63 69 64 54 65
REMARK SMILES IDX 68 66 55 67 58 68 67 69 81 70 56 71 57 72 66 74 82 75 59 76
REMARK SMILES IDX 48 77 49 78 53 79 50 80 52 81 51 82 70 83 71 84 75 85 72 86
REMARK SMILES IDX 74 87 73 88 60 89 61 90 65 91 62 92 64 93 63 94
REMARK H PARENT 7 25 10 27 80 62 58 73
REMARK Flexibility Score: inf
ROOT
ATOM      1  O   UNL A   1      38.307  21.264  25.306  1.00  0.00    -0.376 OA
ENDROOT
BRANCH   1   2
ATOM      2  C   UNL A   1      36.928  21.434  25.602  1.00  0.00     0.202 C 
BRANCH   2   3
ATOM      3  C   UNL A   1      35.942  20.723  24.680  1.00  0.00     0.261 C 
BRANCH   3   4
ATOM      4  O   UNL A   1      34.844  20.086  25.356  1.00  0.00    -0.463 OA
BRANCH   4   5
ATOM      5  C   UNL A   1      34.307  19.028  24.692  1.00  0.00     0.313 C 
ATOM      6  O   UNL A   1      34.942  18.040  24.332  1.00  0.00    -0.252 OA
BRANCH   5   7
ATOM      7  C   UNL A   1      32.864  19.232  24.281  1.00  0.00     0.126 C 
ATOM      8  C   UNL A   1      32.672  18.595  22.903  1.00  0.00     0.025 C 
BRANCH   7   9
ATOM      9  C   UNL A   1      32.261  20.629  24.360  1.00  0.00    -0.031 A 
ATOM     10  C   UNL A   1      31.616  23.410  24.644  1.00  0.00     0.018 A 
ATOM     11  C   UNL A   1      31.278  22.466  25.631  1.00  0.00     0.012 A 
ATOM     12  C   UNL A   1      32.207  22.907  23.480  1.00  0.00     0.131 A 
ATOM     13  C   UNL A   1      31.584  21.099  25.489  1.00  0.00     0.005 A 
ATOM     14  C   UNL A   1      32.522  21.551  23.333  1.00  0.00     0.044 A 
ATOM     15  F   UNL A   1      32.538  23.737  22.478  1.00  0.00    -0.206 F 
BRANCH  10  16
ATOM     16  C   UNL A   1      31.346  24.853  24.837  1.00  0.00    -0.013 A 
ATOM     17  C   UNL A   1      30.652  27.010  23.920  1.00  0.00     0.043 A 
ATOM     18  C   UNL A   1      30.603  27.573  25.194  1.00  0.00     0.026 A 
ATOM     19  C   UNL A   1      31.118  25.699  23.738  1.00  0.00     0.035 A 
ATOM     20  C   UNL A   1      30.847  26.759  26.297  1.00  0.00     0.003 A 
ATOM     21  C   UNL A   1      31.188  25.410  26.120  1.00  0.00     0.009 A 
BRANCH  17  22
ATOM     22  N   UNL A   1      30.018  27.694  22.874  1.00  0.00    -0.308 N 
ATOM     23  N   UNL A   1      31.754  29.186  22.219  1.00  0.00    -0.338 N 
ATOM     24  C   UNL A   1      30.443  28.811  22.213  1.00  0.00     0.319 C 
ATOM     25  H   UNL A   1      31.950  30.046  21.783  1.00  0.00     0.165 HD
ATOM     26  O   UNL A   1      29.653  29.441  21.506  1.00  0.00    -0.249 OA
ATOM     27  H   UNL A   1      29.156  27.323  22.578  1.00  0.00     0.171 HD
BRANCH  23  28
ATOM     28  C   UNL A   1      32.903  28.493  22.781  1.00  0.00     0.117 C 
BRANCH  28  29
ATOM     29  C   UNL A   1      33.647  29.180  23.905  1.00  0.00     0.021 C 
BRANCH  29  30
ATOM     30  C   UNL A   1      33.941  28.274  25.083  1.00  0.00     0.002 C 
BRANCH  30  31
ATOM     31  C   UNL A   1      34.275  28.886  26.437  1.00  0.00    -0.000 C 
BRANCH  31  32
ATOM     32  C   UNL A   1      33.660  30.258  26.695  1.00  0.00    -0.003 C 
ATOM     33  C   UNL A   1      32.184  30.189  27.033  1.00  0.00     0.004 C 
ENDBRANCH  31  32
ENDBRANCH  30  31
ENDBRANCH  29  30
ENDBRANCH  28  29
ENDBRANCH  23  28
ENDBRANCH  17  22
ENDBRANCH  10  16
ENDBRANCH   7   9
ENDBRANCH   5   7
ENDBRANCH   4   5
ENDBRANCH   3   4
ENDBRANCH   2   3
ENDBRANCH   1   2
BRANCH   1  34
ATOM     34  C   UNL A   1      39.294  21.783  26.202  1.00  0.00     0.188 C 
BRANCH  34  35
ATOM     35  C   UNL A   1      40.723  21.232  26.124  1.00  0.00     0.188 C 
BRANCH  35  36
ATOM     36  O   UNL A   1      40.919  19.985  26.787  1.00  0.00    -0.377 OA
BRANCH  36  37
ATOM     37  C   UNL A   1      41.803  19.079  26.134  1.00  0.00     0.188 C 
BRANCH  37  38
ATOM     38  C   UNL A   1      43.072  19.790  25.712  1.00  0.00     0.188 C 
BRANCH  38  39
ATOM     39  O   UNL A   1      43.617  19.286  24.496  1.00  0.00    -0.376 OA
BRANCH  39  40
ATOM     40  C   UNL A   1      45.005  19.612  24.349  1.00  0.00     0.202 C 
BRANCH  40  41
ATOM     41  C   UNL A   1      45.505  20.740  25.267  1.00  0.00     0.261 C 
BRANCH  41  42
ATOM     42  O   UNL A   1      45.580  22.080  24.725  1.00  0.00    -0.460 OA
BRANCH  42  43
ATOM     43  C   UNL A   1      44.484  22.786  24.362  1.00  0.00     0.338 C 
ATOM     44  O   UNL A   1      43.763  22.596  23.401  1.00  0.00    -0.246 OA
BRANCH  43  45
ATOM     45  C   UNL A   1      44.182  23.709  25.490  1.00  0.00     0.060 A 
ATOM     46  C   UNL A   1      43.488  23.261  26.624  1.00  0.00     0.016 A 
ATOM     47  C   UNL A   1      44.703  25.000  25.475  1.00  0.00     0.016 A 
ATOM     48  C   UNL A   1      43.325  24.100  27.747  1.00  0.00     0.010 A 
ATOM     49  C   UNL A   1      44.603  25.798  26.618  1.00  0.00     0.010 A 
ATOM     50  C   UNL A   1      43.879  25.386  27.761  1.00  0.00    -0.014 A 
BRANCH  50  51
ATOM     51  C   UNL A   1      43.605  26.409  28.828  1.00  0.00     0.031 A 
ATOM     52  C   UNL A   1      44.572  26.475  29.991  1.00  0.00     0.074 A 
ATOM     53  C   UNL A   1      42.514  27.204  28.880  1.00  0.00     0.049 A 
ATOM     54  N   UNL A   1      44.444  27.052  31.160  1.00  0.00    -0.248 NA
ATOM     55  C   UNL A   1      45.824  25.717  29.831  1.00  0.00     0.031 C 
ATOM     56  C   UNL A   1      41.463  27.304  27.873  1.00  0.00     0.029 A 
ATOM     57  N   UNL A   1      42.091  28.062  29.875  1.00  0.00    -0.354 N 
ATOM     58  C   UNL A   1      45.557  26.652  31.886  1.00  0.00     0.074 A 
ATOM     59  C   UNL A   1      46.277  25.701  31.070  1.00  0.00     0.031 C 
ATOM     60  C   UNL A   1      40.491  28.122  28.321  1.00  0.00     0.029 A 
ATOM     61  C   UNL A   1      40.855  28.624  29.644  1.00  0.00     0.049 A 
ATOM     62  H   UNL A   1      42.625  28.256  30.679  1.00  0.00     0.167 HD
ATOM     63  C   UNL A   1      46.004  27.078  33.090  1.00  0.00     0.031 A 
ATOM     64  C   UNL A   1      40.102  29.447  30.403  1.00  0.00     0.031 A 
ATOM     65  C   UNL A   1      45.391  28.118  33.862  1.00  0.00     0.049 A 
ATOM     66  C   UNL A   1      40.623  29.958  31.723  1.00  0.00     0.074 A 
ATOM     67  C   UNL A   1      45.856  28.722  35.016  1.00  0.00     0.029 A 
ATOM     68  N   UNL A   1      44.193  28.729  33.538  1.00  0.00    -0.354 N 
ATOM     69  N   UNL A   1      41.727  29.643  32.354  1.00  0.00    -0.248 NA
ATOM     70  C   UNL A   1      39.811  30.977  32.412  1.00  0.00     0.031 C 
ATOM     71  C   UNL A   1      44.926  29.694  35.402  1.00  0.00     0.029 A 
ATOM     72  C   UNL A   1      43.900  29.708  34.471  1.00  0.00     0.049 A 
ATOM     73  H   UNL A   1      43.633  28.502  32.760  1.00  0.00     0.167 HD
ATOM     74  C   UNL A   1      41.772  30.466  33.475  1.00  0.00     0.074 A 
ATOM     75  C   UNL A   1      40.578  31.282  33.450  1.00  0.00     0.031 C 
ATOM     76  C   UNL A   1      42.731  30.545  34.429  1.00  0.00     0.031 A 
BRANCH  63  77
ATOM     77  C   UNL A   1      47.260  26.432  33.603  1.00  0.00    -0.014 A 
ATOM     78  C   UNL A   1      48.518  27.019  33.385  1.00  0.00     0.009 A 
ATOM     79  C   UNL A   1      47.188  25.192  34.252  1.00  0.00     0.009 A 
ATOM     80  C   UNL A   1      49.684  26.336  33.727  1.00  0.00     0.001 A 
ATOM     81  C   UNL A   1      48.356  24.531  34.632  1.00  0.00     0.001 A 
ATOM     82  C   UNL A   1      49.603  25.093  34.349  1.00  0.00     0.000 A 
ENDBRANCH  63  77
BRANCH  64  83
ATOM     83  C   UNL A   1      38.771  29.907  29.922  1.00  0.00    -0.014 A 
ATOM     84  C   UNL A   1      38.637  31.157  29.296  1.00  0.00     0.009 A 
ATOM     85  C   UNL A   1      37.625  29.128  30.136  1.00  0.00     0.009 A 
ATOM     86  C   UNL A   1      37.378  31.631  28.922  1.00  0.00     0.001 A 
ATOM     87  C   UNL A   1      36.367  29.598  29.745  1.00  0.00     0.001 A 
ATOM     88  C   UNL A   1      36.244  30.852  29.147  1.00  0.00     0.000 A 
ENDBRANCH  64  83
BRANCH  76  89
ATOM     89  C   UNL A   1      42.590  31.597  35.491  1.00  0.00    -0.014 A 
ATOM     90  C   UNL A   1      41.973  31.323  36.720  1.00  0.00     0.009 A 
ATOM     91  C   UNL A   1      43.162  32.863  35.284  1.00  0.00     0.009 A 
ATOM     92  C   UNL A   1      41.917  32.303  37.714  1.00  0.00     0.001 A 
ATOM     93  C   UNL A   1      43.125  33.832  36.287  1.00  0.00     0.001 A 
ATOM     94  C   UNL A   1      42.499  33.553  37.500  1.00  0.00     0.000 A 
ENDBRANCH  76  89
ENDBRANCH  50  51
ENDBRANCH  43  45
ENDBRANCH  42  43
ENDBRANCH  41  42
ENDBRANCH  40  41
ENDBRANCH  39  40
ENDBRANCH  38  39
ENDBRANCH  37  38
ENDBRANCH  36  37
ENDBRANCH  35  36
ENDBRANCH  34  35
ENDBRANCH   1  34
TORSDOF 28
ENDMDL
MODEL 3
REMARK VINA RESULT:      -9.4      3.130      4.842
REMARK SMILES CCCCCCNC(=O)Nc1cccc(-c2ccc([C@@H](C)C(=O)OCCOCCOCCOCCOC(=O)c3ccc(-c4c5nc(c(-c6ccccc6)c6ccc([nH]6)c(-c6ccccc6)c6nc(c(-c7ccccc7)c7ccc4[nH]7)C=C6)C=C5)cc3)cc2F)c1
REMARK SMILES IDX 27 1 26 2 25 3 24 4 22 5 23 6 20 7 21 8 19 9 16 10 17 11
REMARK SMILES IDX 88 12 18 13 87 14 89 15 15 16 11 17 12 18 90 19 13 20 14 21
REMARK SMILES IDX 10 22 7 23 8 24 9 26 6 28 5 29 4 30 3 31 2 32 1 33 28 34
REMARK SMILES IDX 29 35 30 36 31 37 32 38 33 39 34 40 35 41 36 42 37 43 38 44
REMARK SMILES IDX 39 45 40 46 86 47 41 48 85 49 42 50 43 51 44 52 79 53 45 54
REMARK SMILES IDX 84 55 78 56 80 57 46 58 83 59 77 60 76 61 47 63 69 64 54 65
REMARK SMILES IDX 68 66 55 67 58 68 67 69 81 70 56 71 57 72 66 74 82 75 59 76
REMARK SMILES IDX 48 77 49 78 53 79 50 80 52 81 51 82 70 83 71 84 75 85 72 86
REMARK SMILES IDX 74 87 73 88 60 89 61 90 65 91 62 92 64 93 63 94
REMARK H PARENT 7 25 10 27 80 62 58 73
REMARK Flexibility Score: inf
ROOT
ATOM      1  O   UNL A   1      38.549  21.191  25.423  1.00  0.00    -0.376 OA
ENDROOT
BRANCH   1   2
ATOM      2  C   UNL A   1      37.161  21.476  25.534  1.00  0.00     0.202 C 
BRANCH   2   3
ATOM      3  C   UNL A   1      36.230  20.692  24.614  1.00  0.00     0.261 C 
BRANCH   3   4
ATOM      4  O   UNL A   1      34.996  20.277  25.225  1.00  0.00    -0.463 OA
BRANCH   4   5
ATOM      5  C   UNL A   1      34.436  19.167  24.674  1.00  0.00     0.313 C 
ATOM      6  O   UNL A   1      35.064  18.164  24.346  1.00  0.00    -0.252 OA
BRANCH   5   7
ATOM      7  C   UNL A   1      32.967  19.322  24.345  1.00  0.00     0.126 C 
ATOM      8  C   UNL A   1      32.710  18.634  23.002  1.00  0.00     0.025 C 
BRANCH   7   9
ATOM      9  C   UNL A   1      32.333  20.706  24.414  1.00  0.00    -0.031 A 
ATOM     10  C   UNL A   1      31.632  23.477  24.657  1.00  0.00     0.018 A 
ATOM     11  C   UNL A   1      31.357  22.551  25.679  1.00  0.00     0.012 A 
ATOM     12  C   UNL A   1      32.187  22.960  23.483  1.00  0.00     0.131 A 
ATOM     13  C   UNL A   1      31.690  21.189  25.558  1.00  0.00     0.005 A 
ATOM     14  C   UNL A   1      32.529  21.608  23.356  1.00  0.00     0.044 A 
ATOM     15  F   UNL A   1      32.457  23.772  22.448  1.00  0.00    -0.206 F 
BRANCH  10  16
ATOM     16  C   UNL A   1      31.334  24.918  24.826  1.00  0.00    -0.013 A 
ATOM     17  C   UNL A   1      30.722  27.074  23.851  1.00  0.00     0.043 A 
ATOM     18  C   UNL A   1      30.541  27.632  25.114  1.00  0.00     0.026 A 
ATOM     19  C   UNL A   1      31.212  25.767  23.712  1.00  0.00     0.035 A 
ATOM     20  C   UNL A   1      30.678  26.816  26.234  1.00  0.00     0.003 A 
ATOM     21  C   UNL A   1      31.044  25.470  26.088  1.00  0.00     0.009 A 
BRANCH  17  22
ATOM     22  N   UNL A   1      30.192  27.758  22.748  1.00  0.00    -0.308 N 
ATOM     23  N   UNL A   1      31.884  29.395  22.401  1.00  0.00    -0.338 N 
ATOM     24  C   UNL A   1      30.620  28.930  22.193  1.00  0.00     0.319 C 
ATOM     25  H   UNL A   1      32.074  30.286  22.027  1.00  0.00     0.165 HD
ATOM     26  O   UNL A   1      29.892  29.534  21.402  1.00  0.00    -0.249 OA
ATOM     27  H   UNL A   1      29.411  27.341  22.319  1.00  0.00     0.171 HD
BRANCH  23  28
ATOM     28  C   UNL A   1      32.991  28.761  23.098  1.00  0.00     0.117 C 
BRANCH  28  29
ATOM     29  C   UNL A   1      33.390  29.337  24.440  1.00  0.00     0.021 C 
BRANCH  29  30
ATOM     30  C   UNL A   1      33.804  28.290  25.452  1.00  0.00     0.002 C 
BRANCH  30  31
ATOM     31  C   UNL A   1      34.115  28.710  26.884  1.00  0.00    -0.000 C 
BRANCH  31  32
ATOM     32  C   UNL A   1      34.551  30.161  27.050  1.00  0.00    -0.003 C 
ATOM     33  C   UNL A   1      35.679  30.329  28.049  1.00  0.00     0.004 C 
ENDBRANCH  31  32
ENDBRANCH  30  31
ENDBRANCH  29  30
ENDBRANCH  28  29
ENDBRANCH  23  28
ENDBRANCH  17  22
ENDBRANCH  10  16
ENDBRANCH   7   9
ENDBRANCH   5   7
ENDBRANCH   4   5
ENDBRANCH   3   4
ENDBRANCH   2   3
ENDBRANCH   1   2
BRANCH   1  34
ATOM     34  C   UNL A   1      39.476  21.830  26.303  1.00  0.00     0.188 C 
BRANCH  34  35
ATOM     35  C   UNL A   1      40.960  21.450  26.213  1.00  0.00     0.188 C 
BRANCH  35  36
ATOM     36  O   UNL A   1      41.345  20.351  27.036  1.00  0.00    -0.377 OA
BRANCH  36  37
ATOM     37  C   UNL A   1      42.084  19.327  26.378  1.00  0.00     0.188 C 
BRANCH  37  38
ATOM     38  C   UNL A   1      43.297  19.910  25.684  1.00  0.00     0.188 C 
BRANCH  38  39
ATOM     39  O   UNL A   1      43.592  19.273  24.444  1.00  0.00    -0.376 OA
BRANCH  39  40
ATOM     40  C   UNL A   1      44.993  19.299  24.143  1.00  0.00     0.202 C 
BRANCH  40  41
ATOM     41  C   UNL A   1      45.814  20.303  24.970  1.00  0.00     0.261 C 
BRANCH  41  42
ATOM     42  O   UNL A   1      46.158  21.571  24.362  1.00  0.00    -0.460 OA
BRANCH  42  43
ATOM     43  C   UNL A   1      45.226  22.465  23.957  1.00  0.00     0.338 C 
ATOM     44  O   UNL A   1      44.409  22.334  23.066  1.00  0.00    -0.246 OA
BRANCH  43  45
ATOM     45  C   UNL A   1      45.232  23.566  24.959  1.00  0.00     0.060 A 
ATOM     46  C   UNL A   1      44.040  24.200  25.341  1.00  0.00     0.016 A 
ATOM     47  C   UNL A   1      46.416  23.885  25.617  1.00  0.00     0.016 A 
ATOM     48  C   UNL A   1      44.031  25.144  26.389  1.00  0.00     0.010 A 
ATOM     49  C   UNL A   1      46.387  24.765  26.703  1.00  0.00     0.010 A 
ATOM     50  C   UNL A   1      45.208  25.445  27.086  1.00  0.00    -0.014 A 
BRANCH  50  51
ATOM     51  C   UNL A   1      45.332  26.561  28.086  1.00  0.00     0.031 A 
ATOM     52  C   UNL A   1      45.218  26.198  29.551  1.00  0.00     0.074 A 
ATOM     53  C   UNL A   1      45.439  27.872  27.777  1.00  0.00     0.049 A 
ATOM     54  N   UNL A   1      45.018  26.963  30.594  1.00  0.00    -0.248 NA
ATOM     55  C   UNL A   1      45.261  24.759  29.862  1.00  0.00     0.031 C 
ATOM     56  C   UNL A   1      45.565  28.443  26.440  1.00  0.00     0.029 A 
ATOM     57  N   UNL A   1      45.411  28.981  28.599  1.00  0.00    -0.354 N 
ATOM     58  C   UNL A   1      44.832  26.087  31.656  1.00  0.00     0.074 A 
ATOM     59  C   UNL A   1      44.828  24.750  31.108  1.00  0.00     0.031 C 
ATOM     60  C   UNL A   1      45.544  29.787  26.523  1.00  0.00     0.029 A 
ATOM     61  C   UNL A   1      45.420  30.181  27.925  1.00  0.00     0.049 A 
ATOM     62  H   UNL A   1      45.387  28.919  29.582  1.00  0.00     0.167 HD
ATOM     63  C   UNL A   1      44.747  26.342  32.982  1.00  0.00     0.031 A 
ATOM     64  C   UNL A   1      45.342  31.451  28.376  1.00  0.00     0.031 A 
ATOM     65  C   UNL A   1      44.885  27.641  33.570  1.00  0.00     0.049 A 
ATOM     66  C   UNL A   1      45.295  31.732  29.858  1.00  0.00     0.074 A 
ATOM     67  C   UNL A   1      44.966  27.975  34.910  1.00  0.00     0.029 A 
ATOM     68  N   UNL A   1      44.994  28.817  32.851  1.00  0.00    -0.354 N 
ATOM     69  N   UNL A   1      45.216  30.889  30.857  1.00  0.00    -0.248 NA
ATOM     70  C   UNL A   1      45.373  33.144  30.271  1.00  0.00     0.031 C 
ATOM     71  C   UNL A   1      45.109  29.364  35.003  1.00  0.00     0.029 A 
ATOM     72  C   UNL A   1      45.144  29.884  33.719  1.00  0.00     0.049 A 
ATOM     73  H   UNL A   1      44.970  28.885  31.869  1.00  0.00     0.167 HD
ATOM     74  C   UNL A   1      45.299  31.661  32.012  1.00  0.00     0.074 A 
ATOM     75  C   UNL A   1      45.416  33.040  31.593  1.00  0.00     0.031 C 
ATOM     76  C   UNL A   1      45.295  31.252  33.304  1.00  0.00     0.031 A 
BRANCH  63  77
ATOM     77  C   UNL A   1      44.542  25.153  33.877  1.00  0.00    -0.014 A 
ATOM     78  C   UNL A   1      45.620  24.333  34.252  1.00  0.00     0.009 A 
ATOM     79  C   UNL A   1      43.248  24.812  34.296  1.00  0.00     0.009 A 
ATOM     80  C   UNL A   1      45.397  23.148  34.951  1.00  0.00     0.001 A 
ATOM     81  C   UNL A   1      43.033  23.648  35.034  1.00  0.00     0.001 A 
ATOM     82  C   UNL A   1      44.104  22.806  35.341  1.00  0.00     0.000 A 
ENDBRANCH  63  77
BRANCH  64  83
ATOM     83  C   UNL A   1      45.358  32.591  27.421  1.00  0.00    -0.014 A 
ATOM     84  C   UNL A   1      44.165  33.039  26.833  1.00  0.00     0.009 A 
ATOM     85  C   UNL A   1      46.567  33.197  27.051  1.00  0.00     0.009 A 
ATOM     86  C   UNL A   1      44.185  34.051  25.870  1.00  0.00     0.001 A 
ATOM     87  C   UNL A   1      46.583  34.221  26.099  1.00  0.00     0.001 A 
ATOM     88  C   UNL A   1      45.394  34.641  25.503  1.00  0.00     0.000 A 
ENDBRANCH  64  83
BRANCH  76  89
ATOM     89  C   UNL A   1      45.501  32.286  34.374  1.00  0.00    -0.014 A 
ATOM     90  C   UNL A   1      44.427  33.001  34.922  1.00  0.00     0.009 A 
ATOM     91  C   UNL A   1      46.789  32.485  34.899  1.00  0.00     0.009 A 
ATOM     92  C   UNL A   1      44.641  33.907  35.964  1.00  0.00     0.001 A 
ATOM     93  C   UNL A   1      46.997  33.373  35.955  1.00  0.00     0.001 A 
ATOM     94  C   UNL A   1      45.924  34.086  36.484  1.00  0.00     0.000 A 
ENDBRANCH  76  89
ENDBRANCH  50  51
ENDBRANCH  43  45
ENDBRANCH  42  43
ENDBRANCH  41  42
ENDBRANCH  40  41
ENDBRANCH  39  40
ENDBRANCH  38  39
ENDBRANCH  37  38
ENDBRANCH  36  37
ENDBRANCH  35  36
ENDBRANCH  34  35
ENDBRANCH   1  34
TORSDOF 28
ENDMDL
