MODEL 1
REMARK VINA RESULT:      -6.8      0.000      0.000
REMARK SMILES CC[C@H](Oc1cccc(/C=C2\SC(=S)N(NC(=O)c3cccc(O)c3)C2=O)c1)C(=O)OCCOCCOCCOCCOC(=O)c1ccc(-c2c3nc(c(-c4ccccc4)c4ccc([nH]4)c(-c4ccccc4)c4nc(c(-c5ccccc5)c5ccc2[nH]5)C=C4)C=C3)cc1
REMARK SMILES IDX 35 1 34 2 33 3 32 4 31 5 29 6 30 7 3 8 2 9 1 10 4 11 5 12
REMARK SMILES IDX 6 13 28 14 7 15 9 16 8 17 10 18 11 19 12 20 26 21 13 22
REMARK SMILES IDX 15 23 27 24 14 25 16 26 17 27 18 29 19 30 20 31 25 32 21 33
REMARK SMILES IDX 23 34 22 35 24 36 36 38 37 39 38 40 39 41 40 42 41 43 42 44
REMARK SMILES IDX 43 45 44 46 45 47 46 48 47 49 93 50 48 51 92 52 49 53 50 54
REMARK SMILES IDX 51 55 86 56 52 57 91 58 85 59 87 60 53 61 90 62 84 63 83 64
REMARK SMILES IDX 54 66 76 67 61 68 75 69 62 70 65 71 74 72 88 73 63 74 64 75
REMARK SMILES IDX 73 77 89 78 66 79 55 80 56 81 60 82 57 83 59 84 58 85 77 86
REMARK SMILES IDX 78 87 82 88 79 89 81 90 80 91 67 92 68 93 72 94 69 95 71 96
REMARK SMILES IDX 70 97
REMARK H PARENT 16 28 24 37 87 65 65 76
REMARK Flexibility Score: inf
ROOT
ATOM      1  C   UNL A   1      41.905  45.989  16.715  1.00  0.00     0.188 C 
ENDROOT
BRANCH   1   2
ATOM      2  O   UNL A   1      43.076  45.262  17.062  1.00  0.00    -0.376 OA
BRANCH   2   3
ATOM      3  C   UNL A   1      43.074  44.172  17.968  1.00  0.00     0.202 C 
BRANCH   3   4
ATOM      4  C   UNL A   1      43.525  44.265  19.433  1.00  0.00     0.261 C 
BRANCH   4   5
ATOM      5  O   UNL A   1      44.811  43.748  19.766  1.00  0.00    -0.461 OA
BRANCH   5   6
ATOM      6  C   UNL A   1      45.557  44.521  20.594  1.00  0.00     0.347 C 
ATOM      7  O   UNL A   1      46.007  45.624  20.300  1.00  0.00    -0.248 OA
BRANCH   6   8
ATOM      8  C   UNL A   1      45.875  43.814  21.921  1.00  0.00     0.282 C 
BRANCH   8   9
ATOM      9  C   UNL A   1      46.081  42.338  21.503  1.00  0.00     0.054 C 
ATOM     10  C   UNL A   1      47.497  41.865  21.224  1.00  0.00     0.008 C 
ENDBRANCH   8   9
BRANCH   8  11
ATOM     11  O   UNL A   1      44.886  44.105  22.916  1.00  0.00    -0.479 OA
BRANCH  11  12
ATOM     12  C   UNL A   1      44.015  43.148  23.360  1.00  0.00     0.121 A 
ATOM     13  C   UNL A   1      42.749  42.935  22.831  1.00  0.00     0.046 A 
ATOM     14  C   UNL A   1      44.420  42.439  24.512  1.00  0.00     0.054 A 
ATOM     15  C   UNL A   1      41.814  42.201  23.551  1.00  0.00     0.004 A 
ATOM     16  C   UNL A   1      43.501  41.653  25.221  1.00  0.00    -0.021 A 
ATOM     17  C   UNL A   1      42.182  41.591  24.744  1.00  0.00     0.008 A 
BRANCH  16  18
ATOM     18  C   UNL A   1      43.756  40.850  26.431  1.00  0.00     0.029 C 
ATOM     19  C   UNL A   1      44.825  40.214  26.923  1.00  0.00     0.082 C 
ATOM     20  S   UNL A   1      46.393  39.968  26.278  1.00  0.00    -0.052 SA
ATOM     21  C   UNL A   1      44.723  39.567  28.265  1.00  0.00     0.285 C 
ATOM     22  C   UNL A   1      46.829  38.863  27.579  1.00  0.00     0.168 C 
ATOM     23  N   UNL A   1      45.736  38.640  28.387  1.00  0.00    -0.198 N 
ATOM     24  O   UNL A   1      43.918  39.908  29.118  1.00  0.00    -0.266 OA
ATOM     25  S   UNL A   1      48.353  38.243  27.820  1.00  0.00    -0.050 S 
BRANCH  23  26
ATOM     26  N   UNL A   1      45.826  37.722  29.452  1.00  0.00    -0.255 N 
ATOM     27  C   UNL A   1      45.255  36.468  29.532  1.00  0.00     0.270 C 
ATOM     28  H   UNL A   1      46.358  38.007  30.229  1.00  0.00     0.192 HD
ATOM     29  O   UNL A   1      45.620  35.679  30.400  1.00  0.00    -0.267 OA
BRANCH  27  30
ATOM     30  C   UNL A   1      44.129  36.085  28.661  1.00  0.00     0.045 A 
ATOM     31  C   UNL A   1      42.842  36.346  29.151  1.00  0.00     0.014 A 
ATOM     32  C   UNL A   1      44.317  35.563  27.378  1.00  0.00     0.060 A 
ATOM     33  C   UNL A   1      41.736  36.158  28.326  1.00  0.00     0.005 A 
ATOM     34  C   UNL A   1      43.201  35.407  26.559  1.00  0.00     0.116 A 
ATOM     35  C   UNL A   1      41.920  35.705  27.020  1.00  0.00     0.046 A 
BRANCH  34  36
ATOM     36  O   UNL A   1      43.318  34.996  25.264  1.00  0.00    -0.508 OA
ATOM     37  H   UNL A   1      43.298  35.626  24.569  1.00  0.00     0.293 HD
ENDBRANCH  34  36
ENDBRANCH  27  30
ENDBRANCH  23  26
ENDBRANCH  16  18
ENDBRANCH  11  12
ENDBRANCH   8  11
ENDBRANCH   6   8
ENDBRANCH   5   6
ENDBRANCH   4   5
ENDBRANCH   3   4
ENDBRANCH   2   3
ENDBRANCH   1   2
BRANCH   1  38
ATOM     38  C   UNL A   1      41.956  47.484  16.347  1.00  0.00     0.188 C 
BRANCH  38  39
ATOM     39  O   UNL A   1      41.940  48.357  17.459  1.00  0.00    -0.377 OA
BRANCH  39  40
ATOM     40  C   UNL A   1      43.200  48.735  17.996  1.00  0.00     0.188 C 
BRANCH  40  41
ATOM     41  C   UNL A   1      44.221  49.424  17.065  1.00  0.00     0.188 C 
BRANCH  41  42
ATOM     42  O   UNL A   1      45.537  48.894  17.159  1.00  0.00    -0.376 OA
BRANCH  42  43
ATOM     43  C   UNL A   1      45.711  47.618  17.755  1.00  0.00     0.202 C 
BRANCH  43  44
ATOM     44  C   UNL A   1      46.324  46.523  16.871  1.00  0.00     0.261 C 
BRANCH  44  45
ATOM     45  O   UNL A   1      47.455  45.828  17.420  1.00  0.00    -0.460 OA
BRANCH  45  46
ATOM     46  C   UNL A   1      48.647  46.462  17.414  1.00  0.00     0.338 C 
ATOM     47  O   UNL A   1      48.987  47.389  16.698  1.00  0.00    -0.246 OA
BRANCH  46  48
ATOM     48  C   UNL A   1      49.429  45.958  18.559  1.00  0.00     0.060 A 
ATOM     49  C   UNL A   1      49.313  44.615  18.948  1.00  0.00     0.016 A 
ATOM     50  C   UNL A   1      50.267  46.822  19.256  1.00  0.00     0.016 A 
ATOM     51  C   UNL A   1      50.026  44.137  20.053  1.00  0.00     0.010 A 
ATOM     52  C   UNL A   1      50.944  46.346  20.379  1.00  0.00     0.010 A 
ATOM     53  C   UNL A   1      50.818  45.013  20.799  1.00  0.00    -0.014 A 
BRANCH  53  54
ATOM     54  C   UNL A   1      51.357  44.633  22.128  1.00  0.00     0.031 A 
ATOM     55  C   UNL A   1      50.520  44.935  23.343  1.00  0.00     0.074 A 
ATOM     56  C   UNL A   1      52.572  44.070  22.269  1.00  0.00     0.049 A 
ATOM     57  N   UNL A   1      50.798  44.765  24.610  1.00  0.00    -0.248 NA
ATOM     58  C   UNL A   1      49.193  45.524  23.092  1.00  0.00     0.031 C 
ATOM     59  C   UNL A   1      53.479  43.718  21.180  1.00  0.00     0.029 A 
ATOM     60  N   UNL A   1      53.252  43.705  23.406  1.00  0.00    -0.354 N 
ATOM     61  C   UNL A   1      49.693  45.243  25.302  1.00  0.00     0.074 A 
ATOM     62  C   UNL A   1      48.759  45.748  24.321  1.00  0.00     0.031 C 
ATOM     63  C   UNL A   1      54.597  43.180  21.701  1.00  0.00     0.029 A 
ATOM     64  C   UNL A   1      54.500  43.187  23.160  1.00  0.00     0.049 A 
ATOM     65  H   UNL A   1      52.879  43.806  24.312  1.00  0.00     0.167 HD
ATOM     66  C   UNL A   1      49.464  45.253  26.636  1.00  0.00     0.031 A 
ATOM     67  C   UNL A   1      55.458  42.779  24.016  1.00  0.00     0.031 A 
ATOM     68  C   UNL A   1      50.393  44.760  27.616  1.00  0.00     0.049 A 
ATOM     69  C   UNL A   1      55.207  42.860  25.502  1.00  0.00     0.074 A 
ATOM     70  C   UNL A   1      50.240  44.693  28.989  1.00  0.00     0.029 A 
ATOM     71  N   UNL A   1      51.654  44.265  27.326  1.00  0.00    -0.354 N 
ATOM     72  N   UNL A   1      54.136  43.261  26.143  1.00  0.00    -0.248 NA
ATOM     73  C   UNL A   1      56.301  42.420  26.383  1.00  0.00     0.031 C 
ATOM     74  C   UNL A   1      51.435  44.215  29.536  1.00  0.00     0.029 A 
ATOM     75  C   UNL A   1      52.303  43.918  28.498  1.00  0.00     0.049 A 
ATOM     76  H   UNL A   1      52.031  44.173  26.420  1.00  0.00     0.167 HD
ATOM     77  C   UNL A   1      54.412  43.090  27.495  1.00  0.00     0.074 A 
ATOM     78  C   UNL A   1      55.747  42.535  27.582  1.00  0.00     0.031 C 
ATOM     79  C   UNL A   1      53.631  43.363  28.568  1.00  0.00     0.031 A 
BRANCH  66  80
ATOM     80  C   UNL A   1      48.166  45.845  27.109  1.00  0.00    -0.014 A 
ATOM     81  C   UNL A   1      48.092  47.164  27.588  1.00  0.00     0.009 A 
ATOM     82  C   UNL A   1      46.993  45.076  27.057  1.00  0.00     0.009 A 
ATOM     83  C   UNL A   1      46.879  47.684  28.043  1.00  0.00     0.001 A 
ATOM     84  C   UNL A   1      45.775  45.611  27.480  1.00  0.00     0.001 A 
ATOM     85  C   UNL A   1      45.721  46.910  27.983  1.00  0.00     0.000 A 
ENDBRANCH  66  80
BRANCH  67  86
ATOM     86  C   UNL A   1      56.754  42.259  23.503  1.00  0.00    -0.014 A 
ATOM     87  C   UNL A   1      56.899  40.902  23.173  1.00  0.00     0.009 A 
ATOM     88  C   UNL A   1      57.865  43.107  23.371  1.00  0.00     0.009 A 
ATOM     89  C   UNL A   1      58.134  40.401  22.751  1.00  0.00     0.001 A 
ATOM     90  C   UNL A   1      59.089  42.610  22.918  1.00  0.00     0.001 A 
ATOM     91  C   UNL A   1      59.226  41.256  22.619  1.00  0.00     0.000 A 
ENDBRANCH  67  86
BRANCH  79  92
ATOM     92  C   UNL A   1      54.174  43.022  29.930  1.00  0.00    -0.014 A 
ATOM     93  C   UNL A   1      54.886  43.960  30.694  1.00  0.00     0.009 A 
ATOM     94  C   UNL A   1      53.921  41.754  30.477  1.00  0.00     0.009 A 
ATOM     95  C   UNL A   1      55.363  43.620  31.963  1.00  0.00     0.001 A 
ATOM     96  C   UNL A   1      54.369  41.429  31.758  1.00  0.00     0.001 A 
ATOM     97  C   UNL A   1      55.100  42.359  32.496  1.00  0.00     0.000 A 
ENDBRANCH  79  92
ENDBRANCH  53  54
ENDBRANCH  46  48
ENDBRANCH  45  46
ENDBRANCH  44  45
ENDBRANCH  43  44
ENDBRANCH  42  43
ENDBRANCH  41  42
ENDBRANCH  40  41
ENDBRANCH  39  40
ENDBRANCH  38  39
ENDBRANCH   1  38
TORSDOF 27
ENDMDL
MODEL 2
REMARK VINA RESULT:      -6.7      2.367      3.412
REMARK SMILES CC[C@H](Oc1cccc(/C=C2\SC(=S)N(NC(=O)c3cccc(O)c3)C2=O)c1)C(=O)OCCOCCOCCOCCOC(=O)c1ccc(-c2c3nc(c(-c4ccccc4)c4ccc([nH]4)c(-c4ccccc4)c4nc(c(-c5ccccc5)c5ccc2[nH]5)C=C4)C=C3)cc1
REMARK SMILES IDX 35 1 34 2 33 3 32 4 31 5 29 6 30 7 3 8 2 9 1 10 4 11 5 12
REMARK SMILES IDX 6 13 28 14 7 15 9 16 8 17 10 18 11 19 12 20 26 21 13 22
REMARK SMILES IDX 15 23 27 24 14 25 16 26 17 27 18 29 19 30 20 31 25 32 21 33
REMARK SMILES IDX 23 34 22 35 24 36 36 38 37 39 38 40 39 41 40 42 41 43 42 44
REMARK SMILES IDX 43 45 44 46 45 47 46 48 47 49 93 50 48 51 92 52 49 53 50 54
REMARK SMILES IDX 51 55 86 56 52 57 91 58 85 59 87 60 53 61 90 62 84 63 83 64
REMARK SMILES IDX 54 66 76 67 61 68 75 69 62 70 65 71 74 72 88 73 63 74 64 75
REMARK SMILES IDX 73 77 89 78 66 79 55 80 56 81 60 82 57 83 59 84 58 85 77 86
REMARK SMILES IDX 78 87 82 88 79 89 81 90 80 91 67 92 68 93 72 94 69 95 71 96
REMARK SMILES IDX 70 97
REMARK H PARENT 16 28 24 37 87 65 65 76
REMARK Flexibility Score: inf
ROOT
ATOM      1  C   UNL A   1      42.199  46.338  16.899  1.00  0.00     0.188 C 
ENDROOT
BRANCH   1   2
ATOM      2  O   UNL A   1      43.313  45.563  17.323  1.00  0.00    -0.376 OA
BRANCH   2   3
ATOM      3  C   UNL A   1      43.205  44.471  18.219  1.00  0.00     0.202 C 
BRANCH   3   4
ATOM      4  C   UNL A   1      43.459  44.564  19.731  1.00  0.00     0.261 C 
BRANCH   4   5
ATOM      5  O   UNL A   1      44.555  43.827  20.267  1.00  0.00    -0.461 OA
BRANCH   5   6
ATOM      6  C   UNL A   1      45.661  44.554  20.562  1.00  0.00     0.347 C 
ATOM      7  O   UNL A   1      46.018  45.559  19.953  1.00  0.00    -0.248 OA
BRANCH   6   8
ATOM      8  C   UNL A   1      46.494  43.918  21.686  1.00  0.00     0.282 C 
BRANCH   8   9
ATOM      9  C   UNL A   1      46.260  42.400  21.493  1.00  0.00     0.054 C 
ATOM     10  C   UNL A   1      47.475  41.504  21.331  1.00  0.00     0.008 C 
ENDBRANCH   8   9
BRANCH   8  11
ATOM     11  O   UNL A   1      46.177  44.496  22.958  1.00  0.00    -0.479 OA
BRANCH  11  12
ATOM     12  C   UNL A   1      45.827  43.720  24.029  1.00  0.00     0.121 A 
ATOM     13  C   UNL A   1      44.533  43.602  24.522  1.00  0.00     0.046 A 
ATOM     14  C   UNL A   1      46.897  43.118  24.726  1.00  0.00     0.054 A 
ATOM     15  C   UNL A   1      44.324  43.090  25.796  1.00  0.00     0.004 A 
ATOM     16  C   UNL A   1      46.692  42.550  25.991  1.00  0.00    -0.021 A 
ATOM     17  C   UNL A   1      45.396  42.594  26.529  1.00  0.00     0.008 A 
BRANCH  16  18
ATOM     18  C   UNL A   1      47.691  41.883  26.846  1.00  0.00     0.029 C 
ATOM     19  C   UNL A   1      48.055  40.610  27.037  1.00  0.00     0.082 C 
ATOM     20  S   UNL A   1      47.421  39.144  26.418  1.00  0.00    -0.052 SA
ATOM     21  C   UNL A   1      49.207  40.320  27.944  1.00  0.00     0.285 C 
ATOM     22  C   UNL A   1      48.443  38.175  27.477  1.00  0.00     0.168 C 
ATOM     23  N   UNL A   1      49.142  38.999  28.331  1.00  0.00    -0.198 N 
ATOM     24  O   UNL A   1      50.089  41.128  28.191  1.00  0.00    -0.266 OA
ATOM     25  S   UNL A   1      48.583  36.521  27.399  1.00  0.00    -0.050 S 
BRANCH  23  26
ATOM     26  N   UNL A   1      49.967  38.440  29.327  1.00  0.00    -0.255 N 
ATOM     27  C   UNL A   1      51.329  38.225  29.268  1.00  0.00     0.270 C 
ATOM     28  H   UNL A   1      49.521  38.171  30.162  1.00  0.00     0.192 HD
ATOM     29  O   UNL A   1      51.957  37.969  30.293  1.00  0.00    -0.267 OA
BRANCH  27  30
ATOM     30  C   UNL A   1      52.041  38.189  27.979  1.00  0.00     0.045 A 
ATOM     31  C   UNL A   1      52.967  39.216  27.747  1.00  0.00     0.014 A 
ATOM     32  C   UNL A   1      51.876  37.150  27.059  1.00  0.00     0.060 A 
ATOM     33  C   UNL A   1      53.790  39.165  26.625  1.00  0.00     0.005 A 
ATOM     34  C   UNL A   1      52.726  37.102  25.957  1.00  0.00     0.116 A 
ATOM     35  C   UNL A   1      53.681  38.094  25.739  1.00  0.00     0.046 A 
BRANCH  34  36
ATOM     36  O   UNL A   1      52.689  36.066  25.071  1.00  0.00    -0.508 OA
ATOM     37  H   UNL A   1      53.469  35.580  24.885  1.00  0.00     0.293 HD
ENDBRANCH  34  36
ENDBRANCH  27  30
ENDBRANCH  23  26
ENDBRANCH  16  18
ENDBRANCH  11  12
ENDBRANCH   8  11
ENDBRANCH   6   8
ENDBRANCH   5   6
ENDBRANCH   4   5
ENDBRANCH   3   4
ENDBRANCH   2   3
ENDBRANCH   1   2
BRANCH   1  38
ATOM     38  C   UNL A   1      42.330  47.835  16.564  1.00  0.00     0.188 C 
BRANCH  38  39
ATOM     39  O   UNL A   1      42.432  48.677  17.694  1.00  0.00    -0.377 OA
BRANCH  39  40
ATOM     40  C   UNL A   1      43.742  49.036  18.112  1.00  0.00     0.188 C 
BRANCH  40  41
ATOM     41  C   UNL A   1      44.730  49.573  17.053  1.00  0.00     0.188 C 
BRANCH  41  42
ATOM     42  O   UNL A   1      46.021  48.981  17.117  1.00  0.00    -0.376 OA
BRANCH  42  43
ATOM     43  C   UNL A   1      46.116  47.599  17.425  1.00  0.00     0.202 C 
BRANCH  43  44
ATOM     44  C   UNL A   1      47.048  46.759  16.540  1.00  0.00     0.261 C 
BRANCH  44  45
ATOM     45  O   UNL A   1      48.136  46.103  17.212  1.00  0.00    -0.460 OA
BRANCH  45  46
ATOM     46  C   UNL A   1      49.219  46.845  17.528  1.00  0.00     0.338 C 
ATOM     47  O   UNL A   1      49.538  47.924  17.058  1.00  0.00    -0.246 OA
BRANCH  46  48
ATOM     48  C   UNL A   1      49.877  46.208  18.684  1.00  0.00     0.060 A 
ATOM     49  C   UNL A   1      49.357  45.020  19.219  1.00  0.00     0.016 A 
ATOM     50  C   UNL A   1      51.003  46.799  19.249  1.00  0.00     0.016 A 
ATOM     51  C   UNL A   1      49.955  44.428  20.337  1.00  0.00     0.010 A 
ATOM     52  C   UNL A   1      51.569  46.222  20.386  1.00  0.00     0.010 A 
ATOM     53  C   UNL A   1      51.045  45.049  20.950  1.00  0.00    -0.014 A 
BRANCH  53  54
ATOM     54  C   UNL A   1      51.529  44.626  22.287  1.00  0.00     0.031 A 
ATOM     55  C   UNL A   1      50.726  45.040  23.493  1.00  0.00     0.074 A 
ATOM     56  C   UNL A   1      52.669  43.929  22.444  1.00  0.00     0.049 A 
ATOM     57  N   UNL A   1      50.976  44.855  24.764  1.00  0.00    -0.248 NA
ATOM     58  C   UNL A   1      49.478  45.774  23.225  1.00  0.00     0.031 C 
ATOM     59  C   UNL A   1      53.536  43.460  21.366  1.00  0.00     0.029 A 
ATOM     60  N   UNL A   1      53.297  43.502  23.590  1.00  0.00    -0.354 N 
ATOM     61  C   UNL A   1      49.929  45.466  25.443  1.00  0.00     0.074 A 
ATOM     62  C   UNL A   1      49.065  46.063  24.448  1.00  0.00     0.031 C 
ATOM     63  C   UNL A   1      54.581  42.803  21.901  1.00  0.00     0.029 A 
ATOM     64  C   UNL A   1      54.478  42.840  23.358  1.00  0.00     0.049 A 
ATOM     65  H   UNL A   1      52.933  43.658  24.492  1.00  0.00     0.167 HD
ATOM     66  C   UNL A   1      49.695  45.519  26.774  1.00  0.00     0.031 A 
ATOM     67  C   UNL A   1      55.377  42.335  24.227  1.00  0.00     0.031 A 
ATOM     68  C   UNL A   1      50.556  44.935  27.767  1.00  0.00     0.049 A 
ATOM     69  C   UNL A   1      55.129  42.463  25.710  1.00  0.00     0.074 A 
ATOM     70  C   UNL A   1      50.388  44.904  29.139  1.00  0.00     0.029 A 
ATOM     71  N   UNL A   1      51.752  44.293  27.491  1.00  0.00    -0.354 N 
ATOM     72  N   UNL A   1      54.108  42.994  26.338  1.00  0.00    -0.248 NA
ATOM     73  C   UNL A   1      56.159  41.911  26.603  1.00  0.00     0.031 C 
ATOM     74  C   UNL A   1      51.517  44.298  29.700  1.00  0.00     0.029 A 
ATOM     75  C   UNL A   1      52.351  43.888  28.672  1.00  0.00     0.049 A 
ATOM     76  H   UNL A   1      52.121  44.147  26.590  1.00  0.00     0.167 HD
ATOM     77  C   UNL A   1      54.355  42.809  27.694  1.00  0.00     0.074 A 
ATOM     78  C   UNL A   1      55.616  42.104  27.797  1.00  0.00     0.031 C 
ATOM     79  C   UNL A   1      53.604  43.185  28.758  1.00  0.00     0.031 A 
BRANCH  66  80
ATOM     80  C   UNL A   1      48.472  46.264  27.231  1.00  0.00    -0.014 A 
ATOM     81  C   UNL A   1      47.209  45.650  27.268  1.00  0.00     0.009 A 
ATOM     82  C   UNL A   1      48.589  47.600  27.648  1.00  0.00     0.009 A 
ATOM     83  C   UNL A   1      46.084  46.370  27.675  1.00  0.00     0.001 A 
ATOM     84  C   UNL A   1      47.469  48.306  28.086  1.00  0.00     0.001 A 
ATOM     85  C   UNL A   1      46.216  47.695  28.089  1.00  0.00     0.000 A 
ENDBRANCH  66  80
BRANCH  67  86
ATOM     86  C   UNL A   1      56.607  41.661  23.729  1.00  0.00    -0.014 A 
ATOM     87  C   UNL A   1      57.781  42.396  23.499  1.00  0.00     0.009 A 
ATOM     88  C   UNL A   1      56.607  40.286  23.449  1.00  0.00     0.009 A 
ATOM     89  C   UNL A   1      58.917  41.775  22.972  1.00  0.00     0.001 A 
ATOM     90  C   UNL A   1      57.753  39.661  22.953  1.00  0.00     0.001 A 
ATOM     91  C   UNL A   1      58.904  40.407  22.705  1.00  0.00     0.000 A 
ENDBRANCH  67  86
BRANCH  79  92
ATOM     92  C   UNL A   1      54.097  42.801  30.128  1.00  0.00    -0.014 A 
ATOM     93  C   UNL A   1      53.843  41.533  30.674  1.00  0.00     0.009 A 
ATOM     94  C   UNL A   1      54.874  43.711  30.863  1.00  0.00     0.009 A 
ATOM     95  C   UNL A   1      54.328  41.200  31.941  1.00  0.00     0.001 A 
ATOM     96  C   UNL A   1      55.386  43.363  32.113  1.00  0.00     0.001 A 
ATOM     97  C   UNL A   1      55.103  42.111  32.656  1.00  0.00     0.000 A 
ENDBRANCH  79  92
ENDBRANCH  53  54
ENDBRANCH  46  48
ENDBRANCH  45  46
ENDBRANCH  44  45
ENDBRANCH  43  44
ENDBRANCH  42  43
ENDBRANCH  41  42
ENDBRANCH  40  41
ENDBRANCH  39  40
ENDBRANCH  38  39
ENDBRANCH   1  38
TORSDOF 27
ENDMDL
MODEL 3
REMARK VINA RESULT:      -6.6      2.384      3.230
REMARK SMILES CC[C@H](Oc1cccc(/C=C2\SC(=S)N(NC(=O)c3cccc(O)c3)C2=O)c1)C(=O)OCCOCCOCCOCCOC(=O)c1ccc(-c2c3nc(c(-c4ccccc4)c4ccc([nH]4)c(-c4ccccc4)c4nc(c(-c5ccccc5)c5ccc2[nH]5)C=C4)C=C3)cc1
REMARK SMILES IDX 35 1 34 2 33 3 32 4 31 5 29 6 30 7 3 8 2 9 1 10 4 11 5 12
REMARK SMILES IDX 6 13 28 14 7 15 9 16 8 17 10 18 11 19 12 20 26 21 13 22
REMARK SMILES IDX 15 23 27 24 14 25 16 26 17 27 18 29 19 30 20 31 25 32 21 33
REMARK SMILES IDX 23 34 22 35 24 36 36 38 37 39 38 40 39 41 40 42 41 43 42 44
REMARK SMILES IDX 43 45 44 46 45 47 46 48 47 49 93 50 48 51 92 52 49 53 50 54
REMARK SMILES IDX 51 55 86 56 52 57 91 58 85 59 87 60 53 61 90 62 84 63 83 64
REMARK SMILES IDX 54 66 76 67 61 68 75 69 62 70 65 71 74 72 88 73 63 74 64 75
REMARK SMILES IDX 73 77 89 78 66 79 55 80 56 81 60 82 57 83 59 84 58 85 77 86
REMARK SMILES IDX 78 87 82 88 79 89 81 90 80 91 67 92 68 93 72 94 69 95 71 96
REMARK SMILES IDX 70 97
REMARK H PARENT 16 28 24 37 87 65 65 76
REMARK Flexibility Score: inf
ROOT
ATOM      1  C   UNL A   1      42.049  46.276  16.770  1.00  0.00     0.188 C 
ENDROOT
BRANCH   1   2
ATOM      2  O   UNL A   1      43.148  45.479  17.190  1.00  0.00    -0.376 OA
BRANCH   2   3
ATOM      3  C   UNL A   1      43.007  44.320  17.994  1.00  0.00     0.202 C 
BRANCH   3   4
ATOM      4  C   UNL A   1      43.137  44.309  19.524  1.00  0.00     0.261 C 
BRANCH   4   5
ATOM      5  O   UNL A   1      44.273  43.657  20.089  1.00  0.00    -0.461 OA
BRANCH   5   6
ATOM      6  C   UNL A   1      45.259  44.477  20.530  1.00  0.00     0.347 C 
ATOM      7  O   UNL A   1      45.529  45.569  20.040  1.00  0.00    -0.248 OA
BRANCH   6   8
ATOM      8  C   UNL A   1      46.085  43.839  21.658  1.00  0.00     0.282 C 
BRANCH   8   9
ATOM      9  C   UNL A   1      45.927  42.320  21.405  1.00  0.00     0.054 C 
ATOM     10  C   UNL A   1      47.177  41.457  21.433  1.00  0.00     0.008 C 
ENDBRANCH   8   9
BRANCH   8  11
ATOM     11  O   UNL A   1      45.704  44.356  22.939  1.00  0.00    -0.479 OA
BRANCH  11  12
ATOM     12  C   UNL A   1      45.518  43.533  24.016  1.00  0.00     0.121 A 
ATOM     13  C   UNL A   1      44.275  43.128  24.486  1.00  0.00     0.046 A 
ATOM     14  C   UNL A   1      46.682  43.199  24.741  1.00  0.00     0.054 A 
ATOM     15  C   UNL A   1      44.160  42.596  25.765  1.00  0.00     0.004 A 
ATOM     16  C   UNL A   1      46.585  42.614  26.011  1.00  0.00    -0.021 A 
ATOM     17  C   UNL A   1      45.302  42.367  26.524  1.00  0.00     0.008 A 
BRANCH  16  18
ATOM     18  C   UNL A   1      47.691  42.202  26.894  1.00  0.00     0.029 C 
ATOM     19  C   UNL A   1      48.115  41.027  27.374  1.00  0.00     0.082 C 
ATOM     20  S   UNL A   1      47.467  39.448  27.240  1.00  0.00    -0.052 SA
ATOM     21  C   UNL A   1      49.367  40.993  28.189  1.00  0.00     0.285 C 
ATOM     22  C   UNL A   1      48.628  38.799  28.396  1.00  0.00     0.168 C 
ATOM     23  N   UNL A   1      49.388  39.824  28.917  1.00  0.00    -0.198 N 
ATOM     24  O   UNL A   1      50.244  41.841  28.112  1.00  0.00    -0.266 OA
ATOM     25  S   UNL A   1      48.814  37.184  28.744  1.00  0.00    -0.050 S 
BRANCH  23  26
ATOM     26  N   UNL A   1      50.333  39.553  29.926  1.00  0.00    -0.255 N 
ATOM     27  C   UNL A   1      50.235  39.844  31.271  1.00  0.00     0.270 C 
ATOM     28  H   UNL A   1      51.161  39.104  29.638  1.00  0.00     0.192 HD
ATOM     29  O   UNL A   1      51.012  39.329  32.072  1.00  0.00    -0.267 OA
BRANCH  27  30
ATOM     30  C   UNL A   1      49.280  40.851  31.766  1.00  0.00     0.045 A 
ATOM     31  C   UNL A   1      49.754  42.166  31.868  1.00  0.00     0.014 A 
ATOM     32  C   UNL A   1      47.944  40.545  32.046  1.00  0.00     0.060 A 
ATOM     33  C   UNL A   1      48.871  43.198  32.177  1.00  0.00     0.005 A 
ATOM     34  C   UNL A   1      47.072  41.593  32.328  1.00  0.00     0.116 A 
ATOM     35  C   UNL A   1      47.523  42.911  32.389  1.00  0.00     0.046 A 
BRANCH  34  36
ATOM     36  O   UNL A   1      45.738  41.381  32.514  1.00  0.00    -0.508 OA
ATOM     37  H   UNL A   1      45.188  41.182  31.781  1.00  0.00     0.293 HD
ENDBRANCH  34  36
ENDBRANCH  27  30
ENDBRANCH  23  26
ENDBRANCH  16  18
ENDBRANCH  11  12
ENDBRANCH   8  11
ENDBRANCH   6   8
ENDBRANCH   5   6
ENDBRANCH   4   5
ENDBRANCH   3   4
ENDBRANCH   2   3
ENDBRANCH   1   2
BRANCH   1  38
ATOM     38  C   UNL A   1      42.214  47.764  16.409  1.00  0.00     0.188 C 
BRANCH  38  39
ATOM     39  O   UNL A   1      42.305  48.627  17.525  1.00  0.00    -0.377 OA
BRANCH  39  40
ATOM     40  C   UNL A   1      43.612  48.989  17.952  1.00  0.00     0.188 C 
BRANCH  40  41
ATOM     41  C   UNL A   1      44.652  49.387  16.882  1.00  0.00     0.188 C 
BRANCH  41  42
ATOM     42  O   UNL A   1      45.902  48.726  17.019  1.00  0.00    -0.376 OA
BRANCH  42  43
ATOM     43  C   UNL A   1      45.918  47.416  17.565  1.00  0.00     0.202 C 
BRANCH  43  44
ATOM     44  C   UNL A   1      46.733  46.362  16.801  1.00  0.00     0.261 C 
BRANCH  44  45
ATOM     45  O   UNL A   1      47.799  45.735  17.533  1.00  0.00    -0.460 OA
BRANCH  45  46
ATOM     46  C   UNL A   1      48.958  46.415  17.663  1.00  0.00     0.338 C 
ATOM     47  O   UNL A   1      49.321  47.386  17.020  1.00  0.00    -0.246 OA
BRANCH  46  48
ATOM     48  C   UNL A   1      49.654  45.892  18.854  1.00  0.00     0.060 A 
ATOM     49  C   UNL A   1      49.217  44.700  19.453  1.00  0.00     0.016 A 
ATOM     50  C   UNL A   1      50.732  46.592  19.386  1.00  0.00     0.016 A 
ATOM     51  C   UNL A   1      49.851  44.215  20.601  1.00  0.00     0.010 A 
ATOM     52  C   UNL A   1      51.332  46.120  20.554  1.00  0.00     0.010 A 
ATOM     53  C   UNL A   1      50.891  44.945  21.181  1.00  0.00    -0.014 A 
BRANCH  53  54
ATOM     54  C   UNL A   1      51.397  44.631  22.540  1.00  0.00     0.031 A 
ATOM     55  C   UNL A   1      50.578  45.082  23.721  1.00  0.00     0.074 A 
ATOM     56  C   UNL A   1      52.570  43.999  22.734  1.00  0.00     0.049 A 
ATOM     57  N   UNL A   1      50.839  44.991  24.999  1.00  0.00    -0.248 NA
ATOM     58  C   UNL A   1      49.296  45.739  23.413  1.00  0.00     0.031 C 
ATOM     59  C   UNL A   1      53.455  43.504  21.683  1.00  0.00     0.029 A 
ATOM     60  N   UNL A   1      53.219  43.677  23.902  1.00  0.00    -0.354 N 
ATOM     61  C   UNL A   1      49.766  45.594  25.643  1.00  0.00     0.074 A 
ATOM     62  C   UNL A   1      48.873  46.085  24.618  1.00  0.00     0.031 C 
ATOM     63  C   UNL A   1      54.531  42.933  22.254  1.00  0.00     0.029 A 
ATOM     64  C   UNL A   1      54.430  43.057  23.707  1.00  0.00     0.049 A 
ATOM     65  H   UNL A   1      52.851  43.873  24.794  1.00  0.00     0.167 HD
ATOM     66  C   UNL A   1      49.533  45.722  26.970  1.00  0.00     0.031 A 
ATOM     67  C   UNL A   1      55.354  42.652  24.601  1.00  0.00     0.031 A 
ATOM     68  C   UNL A   1      50.423  45.243  27.993  1.00  0.00     0.049 A 
ATOM     69  C   UNL A   1      55.103  42.863  26.074  1.00  0.00     0.074 A 
ATOM     70  C   UNL A   1      50.260  45.291  29.366  1.00  0.00     0.029 A 
ATOM     71  N   UNL A   1      51.648  44.642  27.753  1.00  0.00    -0.354 N 
ATOM     72  N   UNL A   1      54.059  43.384  26.673  1.00  0.00    -0.248 NA
ATOM     73  C   UNL A   1      56.161  42.418  26.995  1.00  0.00     0.031 C 
ATOM     74  C   UNL A   1      51.417  44.776  29.958  1.00  0.00     0.029 A 
ATOM     75  C   UNL A   1      52.267  44.342  28.954  1.00  0.00     0.049 A 
ATOM     76  H   UNL A   1      52.021  44.456  26.861  1.00  0.00     0.167 HD
ATOM     77  C   UNL A   1      54.318  43.298  28.036  1.00  0.00     0.074 A 
ATOM     78  C   UNL A   1      55.612  42.661  28.177  1.00  0.00     0.031 C 
ATOM     79  C   UNL A   1      53.553  43.705  29.078  1.00  0.00     0.031 A 
BRANCH  66  80
ATOM     80  C   UNL A   1      48.277  46.436  27.385  1.00  0.00    -0.014 A 
ATOM     81  C   UNL A   1      47.038  45.776  27.428  1.00  0.00     0.009 A 
ATOM     82  C   UNL A   1      48.339  47.788  27.756  1.00  0.00     0.009 A 
ATOM     83  C   UNL A   1      45.881  46.467  27.796  1.00  0.00     0.001 A 
ATOM     84  C   UNL A   1      47.187  48.467  28.155  1.00  0.00     0.001 A 
ATOM     85  C   UNL A   1      45.958  47.810  28.164  1.00  0.00     0.000 A 
ENDBRANCH  66  80
BRANCH  67  86
ATOM     86  C   UNL A   1      56.613  42.007  24.140  1.00  0.00    -0.014 A 
ATOM     87  C   UNL A   1      57.744  42.782  23.836  1.00  0.00     0.009 A 
ATOM     88  C   UNL A   1      56.684  40.616  23.971  1.00  0.00     0.009 A 
ATOM     89  C   UNL A   1      58.906  42.181  23.344  1.00  0.00     0.001 A 
ATOM     90  C   UNL A   1      57.857  40.014  23.509  1.00  0.00     0.001 A 
ATOM     91  C   UNL A   1      58.964  40.798  23.186  1.00  0.00     0.000 A 
ENDBRANCH  67  86
BRANCH  79  92
ATOM     92  C   UNL A   1      54.066  43.433  30.467  1.00  0.00    -0.014 A 
ATOM     93  C   UNL A   1      55.128  44.168  31.017  1.00  0.00     0.009 A 
ATOM     94  C   UNL A   1      53.438  42.456  31.257  1.00  0.00     0.009 A 
ATOM     95  C   UNL A   1      55.571  43.905  32.315  1.00  0.00     0.001 A 
ATOM     96  C   UNL A   1      53.860  42.219  32.565  1.00  0.00     0.001 A 
ATOM     97  C   UNL A   1      54.934  42.936  33.090  1.00  0.00     0.000 A 
ENDBRANCH  79  92
ENDBRANCH  53  54
ENDBRANCH  46  48
ENDBRANCH  45  46
ENDBRANCH  44  45
ENDBRANCH  43  44
ENDBRANCH  42  43
ENDBRANCH  41  42
ENDBRANCH  40  41
ENDBRANCH  39  40
ENDBRANCH  38  39
ENDBRANCH   1  38
TORSDOF 27
ENDMDL
