MODEL 1
REMARK VINA RESULT:     -11.0      0.000      0.000
REMARK SMILES O=C(OCCOCCOCCOCCOC(=O)c1ccc(-c2c3nc(c(-c4ccccc4)c4ccc([nH]4)c(-c4ccccc4)c4nc(c(-c5ccccc5)c5ccc2[nH]5)C=C4)C=C3)cc1)C1=Cc2cc(S(F)(F)(F)(F)F)cc(Br)c2O[C@@H]1C(F)(F)F
REMARK SMILES IDX 10 1 9 2 8 3 7 4 6 5 5 6 4 7 3 8 2 9 1 10 66 11 67 12 82 13
REMARK SMILES IDX 68 14 81 15 69 16 80 17 70 18 78 19 77 20 79 21 83 22 84 23
REMARK SMILES IDX 85 24 86 25 71 26 72 27 73 28 74 29 75 30 76 31 11 32 12 33
REMARK SMILES IDX 13 34 14 35 15 36 16 37 17 38 18 39 19 40 65 41 20 42 64 43
REMARK SMILES IDX 21 44 22 45 23 46 58 47 24 48 63 49 57 50 59 51 25 52 62 53
REMARK SMILES IDX 56 54 55 55 26 57 48 58 33 59 47 60 34 61 37 62 46 63 60 64
REMARK SMILES IDX 35 65 36 66 45 68 61 69 38 70 27 71 28 72 32 73 29 74 31 75
REMARK SMILES IDX 30 76 49 77 50 78 54 79 51 80 53 81 52 82 39 83 40 84 44 85
REMARK SMILES IDX 41 86 43 87 42 88
REMARK H PARENT 59 56 37 67
REMARK Flexibility Score: inf
ROOT
ATOM      1  C   UNL A   1      39.551  22.134  26.316  1.00  0.00     0.188 C 
ENDROOT
BRANCH   1   2
ATOM      2  O   UNL A   1      38.705  21.432  25.417  1.00  0.00    -0.377 OA
BRANCH   2   3
ATOM      3  C   UNL A   1      37.367  21.875  25.584  1.00  0.00     0.188 C 
BRANCH   3   4
ATOM      4  C   UNL A   1      36.412  20.739  25.255  1.00  0.00     0.188 C 
BRANCH   4   5
ATOM      5  O   UNL A   1      35.201  20.916  25.975  1.00  0.00    -0.376 OA
BRANCH   5   6
ATOM      6  C   UNL A   1      35.093  22.268  26.393  1.00  0.00     0.202 C 
BRANCH   6   7
ATOM      7  C   UNL A   1      33.805  22.455  27.178  1.00  0.00     0.261 C 
BRANCH   7   8
ATOM      8  O   UNL A   1      33.225  23.708  26.845  1.00  0.00    -0.460 OA
BRANCH   8   9
ATOM      9  C   UNL A   1      31.854  23.781  26.480  1.00  0.00     0.338 C 
ATOM     10  O   UNL A   1      30.995  24.199  27.319  1.00  0.00    -0.246 OA
BRANCH   9  11
ATOM     11  C   UNL A   1      31.414  23.360  25.088  1.00  0.00     0.087 C 
ATOM     12  C   UNL A   1      31.009  24.297  24.190  1.00  0.00     0.027 C 
ATOM     13  C   UNL A   1      31.427  21.890  24.699  1.00  0.00     0.316 C 
ATOM     14  C   UNL A   1      30.996  25.767  24.579  1.00  0.00     0.020 A 
ATOM     15  O   UNL A   1      33.012  25.465  25.801  1.00  0.00    -0.474 OA
ATOM     16  C   UNL A   1      29.937  26.543  24.139  1.00  0.00     0.036 A 
ATOM     17  C   UNL A   1      32.024  26.307  25.224  1.00  0.00     0.142 A 
ATOM     18  C   UNL A   1      30.191  27.934  24.174  1.00  0.00     0.109 A 
ATOM     19  C   UNL A   1      32.140  27.670  25.338  1.00  0.00     0.062 A 
ATOM     20  C   UNL A   1      31.158  28.501  24.874  1.00  0.00     0.044 A 
ATOM     21  Br  UNL A   1      33.735  28.437  26.181  1.00  0.00    -0.047 Br
BRANCH  13  22
ATOM     22  C   UNL A   1      32.356  21.688  23.512  1.00  0.00     0.430 C 
ATOM     23  F   UNL A   1      32.926  20.489  23.596  1.00  0.00    -0.167 F 
ATOM     24  F   UNL A   1      31.658  21.769  22.384  1.00  0.00    -0.167 F 
ATOM     25  F   UNL A   1      33.297  22.628  23.521  1.00  0.00    -0.167 F 
ENDBRANCH  13  22
BRANCH  18  26
ATOM     26  S   UNL A   1      29.118  29.012  23.193  1.00  0.00     0.310 S 
ATOM     27  F   UNL A   1      29.895  28.668  21.853  1.00  0.00    -0.094 F 
ATOM     28  F   UNL A   1      30.151  30.182  23.409  1.00  0.00    -0.094 F 
ATOM     29  F   UNL A   1      28.200  29.939  22.349  1.00  0.00    -0.094 F 
ATOM     30  F   UNL A   1      28.168  27.792  22.870  1.00  0.00    -0.094 F 
ATOM     31  F   UNL A   1      30.097  28.030  23.952  1.00  0.00    -0.094 F 
ENDBRANCH  18  26
ENDBRANCH   9  11
ENDBRANCH   8   9
ENDBRANCH   7   8
ENDBRANCH   6   7
ENDBRANCH   5   6
ENDBRANCH   4   5
ENDBRANCH   3   4
ENDBRANCH   2   3
ENDBRANCH   1   2
BRANCH   1  32
ATOM     32  C   UNL A   1      40.524  21.160  26.959  1.00  0.00     0.188 C 
BRANCH  32  33
ATOM     33  O   UNL A   1      41.517  20.790  26.012  1.00  0.00    -0.376 OA
BRANCH  33  34
ATOM     34  C   UNL A   1      42.804  21.071  26.541  1.00  0.00     0.202 C 
BRANCH  34  35
ATOM     35  C   UNL A   1      43.620  21.833  25.510  1.00  0.00     0.261 C 
BRANCH  35  36
ATOM     36  O   UNL A   1      42.895  22.979  25.085  1.00  0.00    -0.460 OA
BRANCH  36  37
ATOM     37  C   UNL A   1      43.464  24.272  25.230  1.00  0.00     0.338 C 
ATOM     38  O   UNL A   1      44.481  24.600  24.542  1.00  0.00    -0.246 OA
BRANCH  37  39
ATOM     39  C   UNL A   1      42.856  25.264  26.209  1.00  0.00     0.060 A 
ATOM     40  C   UNL A   1      43.297  26.576  26.171  1.00  0.00     0.016 A 
ATOM     41  C   UNL A   1      42.039  24.839  27.166  1.00  0.00     0.016 A 
ATOM     42  C   UNL A   1      43.047  27.299  27.361  1.00  0.00     0.010 A 
ATOM     43  C   UNL A   1      41.730  25.648  28.233  1.00  0.00     0.010 A 
ATOM     44  C   UNL A   1      42.181  26.938  28.290  1.00  0.00    -0.014 A 
BRANCH  44  45
ATOM     45  C   UNL A   1      41.708  27.904  29.363  1.00  0.00     0.031 A 
ATOM     46  C   UNL A   1      40.585  28.706  29.152  1.00  0.00     0.074 A 
ATOM     47  C   UNL A   1      42.373  27.807  30.574  1.00  0.00     0.049 A 
ATOM     48  N   UNL A   1      39.951  29.469  30.044  1.00  0.00    -0.248 NA
ATOM     49  C   UNL A   1      39.897  28.836  27.859  1.00  0.00     0.031 C 
ATOM     50  C   UNL A   1      43.501  26.994  30.797  1.00  0.00     0.029 A 
ATOM     51  N   UNL A   1      42.082  28.458  31.752  1.00  0.00    -0.354 N 
ATOM     52  C   UNL A   1      38.907  30.074  29.473  1.00  0.00     0.074 A 
ATOM     53  C   UNL A   1      38.861  29.681  28.058  1.00  0.00     0.031 C 
ATOM     54  C   UNL A   1      43.892  27.160  32.087  1.00  0.00     0.029 A 
ATOM     55  C   UNL A   1      43.014  28.079  32.693  1.00  0.00     0.049 A 
ATOM     56  H   UNL A   1      41.337  29.085  31.897  1.00  0.00     0.167 HD
ATOM     57  C   UNL A   1      37.990  30.936  30.077  1.00  0.00     0.031 A 
ATOM     58  C   UNL A   1      43.112  28.503  34.009  1.00  0.00     0.031 A 
ATOM     59  C   UNL A   1      38.063  31.325  31.406  1.00  0.00     0.049 A 
ATOM     60  C   UNL A   1      42.229  29.411  34.599  1.00  0.00     0.074 A 
ATOM     61  C   UNL A   1      37.143  32.188  32.032  1.00  0.00     0.029 A 
ATOM     62  N   UNL A   1      39.009  30.967  32.340  1.00  0.00    -0.354 N 
ATOM     63  N   UNL A   1      41.163  29.985  34.039  1.00  0.00    -0.248 NA
ATOM     64  C   UNL A   1      42.341  29.892  35.982  1.00  0.00     0.031 C 
ATOM     65  C   UNL A   1      37.533  32.354  33.324  1.00  0.00     0.029 A 
ATOM     66  C   UNL A   1      38.704  31.599  33.525  1.00  0.00     0.049 A 
ATOM     67  H   UNL A   1      39.771  30.362  32.186  1.00  0.00     0.167 HD
ATOM     68  C   UNL A   1      40.553  30.780  34.919  1.00  0.00     0.074 A 
ATOM     69  C   UNL A   1      41.307  30.737  36.181  1.00  0.00     0.031 C 
ATOM     70  C   UNL A   1      39.396  31.536  34.725  1.00  0.00     0.031 A 
BRANCH  57  71
ATOM     71  C   UNL A   1      36.850  31.479  29.232  1.00  0.00    -0.014 A 
ATOM     72  C   UNL A   1      37.053  32.724  28.660  1.00  0.00     0.009 A 
ATOM     73  C   UNL A   1      35.739  30.789  29.003  1.00  0.00     0.009 A 
ATOM     74  C   UNL A   1      35.889  33.289  28.089  1.00  0.00     0.001 A 
ATOM     75  C   UNL A   1      34.691  31.357  28.319  1.00  0.00     0.001 A 
ATOM     76  C   UNL A   1      34.801  32.608  27.778  1.00  0.00     0.000 A 
ENDBRANCH  57  71
BRANCH  58  77
ATOM     77  C   UNL A   1      44.243  27.947  34.860  1.00  0.00    -0.014 A 
ATOM     78  C   UNL A   1      45.472  28.580  34.935  1.00  0.00     0.009 A 
ATOM     79  C   UNL A   1      44.021  26.795  35.481  1.00  0.00     0.009 A 
ATOM     80  C   UNL A   1      46.505  27.766  35.459  1.00  0.00     0.001 A 
ATOM     81  C   UNL A   1      45.052  26.120  36.089  1.00  0.00     0.001 A 
ATOM     82  C   UNL A   1      46.307  26.658  36.150  1.00  0.00     0.000 A 
ENDBRANCH  58  77
BRANCH  70  83
ATOM     83  C   UNL A   1      38.863  32.341  35.899  1.00  0.00    -0.014 A 
ATOM     84  C   UNL A   1      39.323  33.637  36.055  1.00  0.00     0.009 A 
ATOM     85  C   UNL A   1      38.069  31.778  36.802  1.00  0.00     0.009 A 
ATOM     86  C   UNL A   1      39.123  34.165  37.353  1.00  0.00     0.001 A 
ATOM     87  C   UNL A   1      37.806  32.411  37.994  1.00  0.00     0.001 A 
ATOM     88  C   UNL A   1      38.279  33.671  38.240  1.00  0.00     0.000 A 
ENDBRANCH  70  83
ENDBRANCH  44  45
ENDBRANCH  37  39
ENDBRANCH  36  37
ENDBRANCH  35  36
ENDBRANCH  34  35
ENDBRANCH  33  34
ENDBRANCH  32  33
ENDBRANCH   1  32
TORSDOF 22
ENDMDL
MODEL 2
REMARK VINA RESULT:     -10.9      4.178      9.132
REMARK SMILES O=C(OCCOCCOCCOCCOC(=O)c1ccc(-c2c3nc(c(-c4ccccc4)c4ccc([nH]4)c(-c4ccccc4)c4nc(c(-c5ccccc5)c5ccc2[nH]5)C=C4)C=C3)cc1)C1=Cc2cc(S(F)(F)(F)(F)F)cc(Br)c2O[C@@H]1C(F)(F)F
REMARK SMILES IDX 10 1 9 2 8 3 7 4 6 5 5 6 4 7 3 8 2 9 1 10 66 11 67 12 82 13
REMARK SMILES IDX 68 14 81 15 69 16 80 17 70 18 78 19 77 20 79 21 83 22 84 23
REMARK SMILES IDX 85 24 86 25 71 26 72 27 73 28 74 29 75 30 76 31 11 32 12 33
REMARK SMILES IDX 13 34 14 35 15 36 16 37 17 38 18 39 19 40 65 41 20 42 64 43
REMARK SMILES IDX 21 44 22 45 23 46 58 47 24 48 63 49 57 50 59 51 25 52 62 53
REMARK SMILES IDX 56 54 55 55 26 57 48 58 33 59 47 60 34 61 37 62 46 63 60 64
REMARK SMILES IDX 35 65 36 66 45 68 61 69 38 70 27 71 28 72 32 73 29 74 31 75
REMARK SMILES IDX 30 76 49 77 50 78 54 79 51 80 53 81 52 82 39 83 40 84 44 85
REMARK SMILES IDX 41 86 43 87 42 88
REMARK H PARENT 59 56 37 67
REMARK Flexibility Score: inf
ROOT
ATOM      1  C   UNL A   1      29.700  28.690  23.456  1.00  0.00     0.188 C 
ENDROOT
BRANCH   1   2
ATOM      2  O   UNL A   1      29.995  27.876  22.330  1.00  0.00    -0.377 OA
BRANCH   2   3
ATOM      3  C   UNL A   1      31.398  27.865  22.110  1.00  0.00     0.188 C 
BRANCH   3   4
ATOM      4  C   UNL A   1      31.918  26.442  22.235  1.00  0.00     0.188 C 
BRANCH   4   5
ATOM      5  O   UNL A   1      33.323  26.433  22.027  1.00  0.00    -0.376 OA
BRANCH   5   6
ATOM      6  C   UNL A   1      33.986  26.674  23.259  1.00  0.00     0.202 C 
BRANCH   6   7
ATOM      7  C   UNL A   1      33.382  25.792  24.340  1.00  0.00     0.261 C 
BRANCH   7   8
ATOM      8  O   UNL A   1      33.912  24.479  24.229  1.00  0.00    -0.460 OA
BRANCH   8   9
ATOM      9  C   UNL A   1      33.104  23.428  23.721  1.00  0.00     0.338 C 
ATOM     10  O   UNL A   1      33.372  22.910  22.592  1.00  0.00    -0.246 OA
BRANCH   9  11
ATOM     11  C   UNL A   1      31.919  22.923  24.526  1.00  0.00     0.087 C 
ATOM     12  C   UNL A   1      31.903  21.642  24.983  1.00  0.00     0.027 C 
ATOM     13  C   UNL A   1      30.750  23.849  24.822  1.00  0.00     0.316 C 
ATOM     14  C   UNL A   1      33.072  20.716  24.688  1.00  0.00     0.020 A 
ATOM     15  O   UNL A   1      34.586  22.521  24.994  1.00  0.00    -0.474 OA
ATOM     16  C   UNL A   1      32.789  19.396  24.376  1.00  0.00     0.036 A 
ATOM     17  C   UNL A   1      34.324  21.135  24.834  1.00  0.00     0.142 A 
ATOM     18  C   UNL A   1      33.892  18.523  24.523  1.00  0.00     0.109 A 
ATOM     19  C   UNL A   1      35.366  20.241  24.833  1.00  0.00     0.062 A 
ATOM     20  C   UNL A   1      35.153  18.913  24.589  1.00  0.00     0.044 A 
ATOM     21  Br  UNL A   1      37.187  20.878  25.182  1.00  0.00    -0.047 Br
BRANCH  13  22
ATOM     22  C   UNL A   1      30.588  23.997  26.326  1.00  0.00     0.430 C 
ATOM     23  F   UNL A   1      29.803  25.038  26.587  1.00  0.00    -0.167 F 
ATOM     24  F   UNL A   1      30.040  22.893  26.825  1.00  0.00    -0.167 F 
ATOM     25  F   UNL A   1      31.781  24.191  26.883  1.00  0.00    -0.167 F 
ENDBRANCH  13  22
BRANCH  18  26
ATOM     26  S   UNL A   1      33.553  16.748  24.629  1.00  0.00     0.310 S 
ATOM     27  F   UNL A   1      34.904  16.474  25.413  1.00  0.00    -0.094 F 
ATOM     28  F   UNL A   1      34.368  16.545  23.295  1.00  0.00    -0.094 F 
ATOM     29  F   UNL A   1      33.265  15.223  24.718  1.00  0.00    -0.094 F 
ATOM     30  F   UNL A   1      32.863  16.951  26.035  1.00  0.00    -0.094 F 
ATOM     31  F   UNL A   1      33.935  18.282  24.610  1.00  0.00    -0.094 F 
ENDBRANCH  18  26
ENDBRANCH   9  11
ENDBRANCH   8   9
ENDBRANCH   7   8
ENDBRANCH   6   7
ENDBRANCH   5   6
ENDBRANCH   4   5
ENDBRANCH   3   4
ENDBRANCH   2   3
ENDBRANCH   1   2
BRANCH   1  32
ATOM     32  C   UNL A   1      30.826  28.580  24.470  1.00  0.00     0.188 C 
BRANCH  32  33
ATOM     33  O   UNL A   1      31.246  29.882  24.853  1.00  0.00    -0.376 OA
BRANCH  33  34
ATOM     34  C   UNL A   1      32.531  29.808  25.451  1.00  0.00     0.202 C 
BRANCH  34  35
ATOM     35  C   UNL A   1      32.521  30.561  26.771  1.00  0.00     0.261 C 
BRANCH  35  36
ATOM     36  O   UNL A   1      33.461  29.975  27.660  1.00  0.00    -0.460 OA
BRANCH  36  37
ATOM     37  C   UNL A   1      34.588  30.722  28.094  1.00  0.00     0.338 C 
ATOM     38  O   UNL A   1      34.485  31.974  28.285  1.00  0.00    -0.246 OA
BRANCH  37  39
ATOM     39  C   UNL A   1      35.918  30.023  28.329  1.00  0.00     0.060 A 
ATOM     40  C   UNL A   1      36.173  29.506  29.587  1.00  0.00     0.016 A 
ATOM     41  C   UNL A   1      36.858  30.049  27.391  1.00  0.00     0.016 A 
ATOM     42  C   UNL A   1      37.547  29.299  29.855  1.00  0.00     0.010 A 
ATOM     43  C   UNL A   1      38.154  29.704  27.689  1.00  0.00     0.010 A 
ATOM     44  C   UNL A   1      38.489  29.241  28.932  1.00  0.00    -0.014 A 
BRANCH  44  45
ATOM     45  C   UNL A   1      39.872  28.686  29.233  1.00  0.00     0.031 A 
ATOM     46  C   UNL A   1      40.218  27.391  28.841  1.00  0.00     0.074 A 
ATOM     47  C   UNL A   1      40.765  29.597  29.769  1.00  0.00     0.049 A 
ATOM     48  N   UNL A   1      41.426  26.826  28.878  1.00  0.00    -0.248 NA
ATOM     49  C   UNL A   1      39.264  26.410  28.301  1.00  0.00     0.031 C 
ATOM     50  C   UNL A   1      40.425  30.907  30.158  1.00  0.00     0.029 A 
ATOM     51  N   UNL A   1      42.107  29.416  30.023  1.00  0.00    -0.354 N 
ATOM     52  C   UNL A   1      41.365  25.579  28.402  1.00  0.00     0.074 A 
ATOM     53  C   UNL A   1      39.973  25.293  28.031  1.00  0.00     0.031 C 
ATOM     54  C   UNL A   1      41.542  31.504  30.650  1.00  0.00     0.029 A 
ATOM     55  C   UNL A   1      42.600  30.577  30.575  1.00  0.00     0.049 A 
ATOM     56  H   UNL A   1      42.624  28.598  29.840  1.00  0.00     0.167 HD
ATOM     57  C   UNL A   1      42.417  24.673  28.261  1.00  0.00     0.031 A 
ATOM     58  C   UNL A   1      43.895  30.832  31.000  1.00  0.00     0.031 A 
ATOM     59  C   UNL A   1      43.721  24.944  28.646  1.00  0.00     0.049 A 
ATOM     60  C   UNL A   1      44.936  29.904  30.913  1.00  0.00     0.074 A 
ATOM     61  C   UNL A   1      44.795  24.043  28.504  1.00  0.00     0.029 A 
ATOM     62  N   UNL A   1      44.210  26.096  29.222  1.00  0.00    -0.354 N 
ATOM     63  N   UNL A   1      44.884  28.673  30.402  1.00  0.00    -0.248 NA
ATOM     64  C   UNL A   1      46.303  30.151  31.389  1.00  0.00     0.031 C 
ATOM     65  C   UNL A   1      45.913  24.640  28.996  1.00  0.00     0.029 A 
ATOM     66  C   UNL A   1      45.556  25.924  29.454  1.00  0.00     0.049 A 
ATOM     67  H   UNL A   1      43.686  26.904  29.431  1.00  0.00     0.167 HD
ATOM     68  C   UNL A   1      46.083  28.093  30.477  1.00  0.00     0.074 A 
ATOM     69  C   UNL A   1      47.011  29.034  31.120  1.00  0.00     0.031 C 
ATOM     70  C   UNL A   1      46.442  26.820  30.032  1.00  0.00     0.031 A 
BRANCH  57  71
ATOM     71  C   UNL A   1      42.116  23.313  27.655  1.00  0.00    -0.014 A 
ATOM     72  C   UNL A   1      42.328  23.192  26.291  1.00  0.00     0.009 A 
ATOM     73  C   UNL A   1      41.720  22.277  28.385  1.00  0.00     0.009 A 
ATOM     74  C   UNL A   1      41.812  21.997  25.735  1.00  0.00     0.001 A 
ATOM     75  C   UNL A   1      41.360  21.095  27.784  1.00  0.00     0.001 A 
ATOM     76  C   UNL A   1      41.487  20.925  26.433  1.00  0.00     0.000 A 
ENDBRANCH  57  71
BRANCH  58  77
ATOM     77  C   UNL A   1      44.199  32.198  31.592  1.00  0.00    -0.014 A 
ATOM     78  C   UNL A   1      43.992  32.470  32.934  1.00  0.00     0.009 A 
ATOM     79  C   UNL A   1      44.617  33.140  30.754  1.00  0.00     0.009 A 
ATOM     80  C   UNL A   1      43.976  33.852  33.243  1.00  0.00     0.001 A 
ATOM     81  C   UNL A   1      44.707  34.449  31.163  1.00  0.00     0.001 A 
ATOM     82  C   UNL A   1      44.459  34.799  32.461  1.00  0.00     0.000 A 
ENDBRANCH  58  77
BRANCH  70  83
ATOM     83  C   UNL A   1      47.891  26.390  30.191  1.00  0.00    -0.014 A 
ATOM     84  C   UNL A   1      48.686  26.369  29.058  1.00  0.00     0.009 A 
ATOM     85  C   UNL A   1      48.342  25.947  31.358  1.00  0.00     0.009 A 
ATOM     86  C   UNL A   1      49.857  25.586  29.193  1.00  0.00     0.001 A 
ATOM     87  C   UNL A   1      49.559  25.311  31.442  1.00  0.00     0.001 A 
ATOM     88  C   UNL A   1      50.371  25.201  30.348  1.00  0.00     0.000 A 
ENDBRANCH  70  83
ENDBRANCH  44  45
ENDBRANCH  37  39
ENDBRANCH  36  37
ENDBRANCH  35  36
ENDBRANCH  34  35
ENDBRANCH  33  34
ENDBRANCH  32  33
ENDBRANCH   1  32
TORSDOF 22
ENDMDL
MODEL 3
REMARK VINA RESULT:     -10.8      0.858      5.572
REMARK SMILES O=C(OCCOCCOCCOCCOC(=O)c1ccc(-c2c3nc(c(-c4ccccc4)c4ccc([nH]4)c(-c4ccccc4)c4nc(c(-c5ccccc5)c5ccc2[nH]5)C=C4)C=C3)cc1)C1=Cc2cc(S(F)(F)(F)(F)F)cc(Br)c2O[C@@H]1C(F)(F)F
REMARK SMILES IDX 10 1 9 2 8 3 7 4 6 5 5 6 4 7 3 8 2 9 1 10 66 11 67 12 82 13
REMARK SMILES IDX 68 14 81 15 69 16 80 17 70 18 78 19 77 20 79 21 83 22 84 23
REMARK SMILES IDX 85 24 86 25 71 26 72 27 73 28 74 29 75 30 76 31 11 32 12 33
REMARK SMILES IDX 13 34 14 35 15 36 16 37 17 38 18 39 19 40 65 41 20 42 64 43
REMARK SMILES IDX 21 44 22 45 23 46 58 47 24 48 63 49 57 50 59 51 25 52 62 53
REMARK SMILES IDX 56 54 55 55 26 57 48 58 33 59 47 60 34 61 37 62 46 63 60 64
REMARK SMILES IDX 35 65 36 66 45 68 61 69 38 70 27 71 28 72 32 73 29 74 31 75
REMARK SMILES IDX 30 76 49 77 50 78 54 79 51 80 53 81 52 82 39 83 40 84 44 85
REMARK SMILES IDX 41 86 43 87 42 88
REMARK H PARENT 59 56 37 67
REMARK Flexibility Score: inf
ROOT
ATOM      1  C   UNL A   1      39.858  22.033  26.350  1.00  0.00     0.188 C 
ENDROOT
BRANCH   1   2
ATOM      2  O   UNL A   1      38.741  21.390  25.754  1.00  0.00    -0.377 OA
BRANCH   2   3
ATOM      3  C   UNL A   1      37.679  22.321  25.612  1.00  0.00     0.188 C 
BRANCH   3   4
ATOM      4  C   UNL A   1      36.482  21.631  24.980  1.00  0.00     0.188 C 
BRANCH   4   5
ATOM      5  O   UNL A   1      35.351  21.777  25.826  1.00  0.00    -0.376 OA
BRANCH   5   6
ATOM      6  C   UNL A   1      35.190  23.145  26.168  1.00  0.00     0.202 C 
BRANCH   6   7
ATOM      7  C   UNL A   1      33.826  23.351  26.807  1.00  0.00     0.261 C 
BRANCH   7   8
ATOM      8  O   UNL A   1      33.229  24.526  26.278  1.00  0.00    -0.460 OA
BRANCH   8   9
ATOM      9  C   UNL A   1      31.860  24.518  25.900  1.00  0.00     0.338 C 
ATOM     10  O   UNL A   1      30.973  24.927  26.713  1.00  0.00    -0.246 OA
BRANCH   9  11
ATOM     11  C   UNL A   1      31.455  24.020  24.522  1.00  0.00     0.087 C 
ATOM     12  C   UNL A   1      30.963  24.892  23.601  1.00  0.00     0.027 C 
ATOM     13  C   UNL A   1      31.600  22.548  24.173  1.00  0.00     0.316 C 
ATOM     14  C   UNL A   1      30.818  26.364  23.950  1.00  0.00     0.020 A 
ATOM     15  O   UNL A   1      32.857  26.281  25.167  1.00  0.00    -0.474 OA
ATOM     16  C   UNL A   1      29.692  27.028  23.495  1.00  0.00     0.036 A 
ATOM     17  C   UNL A   1      31.795  27.013  24.574  1.00  0.00     0.142 A 
ATOM     18  C   UNL A   1      29.819  28.438  23.491  1.00  0.00     0.109 A 
ATOM     19  C   UNL A   1      31.788  28.384  24.650  1.00  0.00     0.062 A 
ATOM     20  C   UNL A   1      30.733  29.109  24.169  1.00  0.00     0.044 A 
ATOM     21  Br  UNL A   1      33.310  29.315  25.462  1.00  0.00    -0.047 Br
BRANCH  13  22
ATOM     22  C   UNL A   1      32.539  22.397  22.987  1.00  0.00     0.430 C 
ATOM     23  F   UNL A   1      31.881  21.857  21.966  1.00  0.00    -0.167 F 
ATOM     24  F   UNL A   1      33.002  23.593  22.633  1.00  0.00    -0.167 F 
ATOM     25  F   UNL A   1      33.557  21.610  23.324  1.00  0.00    -0.167 F 
ENDBRANCH  13  22
BRANCH  18  26
ATOM     26  S   UNL A   1      28.649  29.386  22.487  1.00  0.00     0.310 S 
ATOM     27  F   UNL A   1      28.695  30.617  23.487  1.00  0.00    -0.094 F 
ATOM     28  F   UNL A   1      27.476  28.806  23.364  1.00  0.00    -0.094 F 
ATOM     29  F   UNL A   1      27.643  30.202  21.628  1.00  0.00    -0.094 F 
ATOM     30  F   UNL A   1      29.847  30.066  21.713  1.00  0.00    -0.094 F 
ATOM     31  F   UNL A   1      29.690  28.653  23.424  1.00  0.00    -0.094 F 
ENDBRANCH  18  26
ENDBRANCH   9  11
ENDBRANCH   8   9
ENDBRANCH   7   8
ENDBRANCH   6   7
ENDBRANCH   5   6
ENDBRANCH   4   5
ENDBRANCH   3   4
ENDBRANCH   2   3
ENDBRANCH   1   2
BRANCH   1  32
ATOM     32  C   UNL A   1      40.893  20.991  26.740  1.00  0.00     0.188 C 
BRANCH  32  33
ATOM     33  O   UNL A   1      41.881  20.902  25.722  1.00  0.00    -0.376 OA
BRANCH  33  34
ATOM     34  C   UNL A   1      42.986  21.726  26.062  1.00  0.00     0.202 C 
BRANCH  34  35
ATOM     35  C   UNL A   1      43.341  22.609  24.877  1.00  0.00     0.261 C 
BRANCH  35  36
ATOM     36  O   UNL A   1      42.777  23.900  25.061  1.00  0.00    -0.460 OA
BRANCH  36  37
ATOM     37  C   UNL A   1      43.587  24.967  25.531  1.00  0.00     0.338 C 
ATOM     38  O   UNL A   1      44.619  25.317  24.878  1.00  0.00    -0.246 OA
BRANCH  37  39
ATOM     39  C   UNL A   1      43.219  25.692  26.817  1.00  0.00     0.060 A 
ATOM     40  C   UNL A   1      42.270  25.117  27.644  1.00  0.00     0.016 A 
ATOM     41  C   UNL A   1      43.690  26.911  27.052  1.00  0.00     0.016 A 
ATOM     42  C   UNL A   1      41.662  26.028  28.539  1.00  0.00     0.010 A 
ATOM     43  C   UNL A   1      43.137  27.698  28.033  1.00  0.00     0.010 A 
ATOM     44  C   UNL A   1      42.153  27.213  28.850  1.00  0.00    -0.014 A 
BRANCH  44  45
ATOM     45  C   UNL A   1      41.654  27.997  30.053  1.00  0.00     0.031 A 
ATOM     46  C   UNL A   1      42.333  27.938  31.271  1.00  0.00     0.074 A 
ATOM     47  C   UNL A   1      40.600  28.857  29.796  1.00  0.00     0.049 A 
ATOM     48  N   UNL A   1      42.125  28.687  32.355  1.00  0.00    -0.248 NA
ATOM     49  C   UNL A   1      43.431  27.002  31.558  1.00  0.00     0.031 C 
ATOM     50  C   UNL A   1      39.916  28.929  28.566  1.00  0.00     0.029 A 
ATOM     51  N   UNL A   1      40.030  29.774  30.650  1.00  0.00    -0.354 N 
ATOM     52  C   UNL A   1      42.986  28.349  33.319  1.00  0.00     0.074 A 
ATOM     53  C   UNL A   1      43.833  27.257  32.822  1.00  0.00     0.031 C 
ATOM     54  C   UNL A   1      38.940  29.868  28.682  1.00  0.00     0.029 A 
ATOM     55  C   UNL A   1      38.999  30.399  29.984  1.00  0.00     0.049 A 
ATOM     56  H   UNL A   1      40.311  29.953  31.577  1.00  0.00     0.167 HD
ATOM     57  C   UNL A   1      43.098  28.912  34.592  1.00  0.00     0.031 A 
ATOM     58  C   UNL A   1      38.144  31.377  30.469  1.00  0.00     0.031 A 
ATOM     59  C   UNL A   1      42.271  29.920  35.061  1.00  0.00     0.049 A 
ATOM     60  C   UNL A   1      38.218  31.899  31.763  1.00  0.00     0.074 A 
ATOM     61  C   UNL A   1      42.375  30.503  36.339  1.00  0.00     0.029 A 
ATOM     62  N   UNL A   1      41.223  30.527  34.405  1.00  0.00    -0.354 N 
ATOM     63  N   UNL A   1      39.103  31.590  32.712  1.00  0.00    -0.248 NA
ATOM     64  C   UNL A   1      37.299  32.912  32.298  1.00  0.00     0.031 C 
ATOM     65  C   UNL A   1      41.399  31.443  36.455  1.00  0.00     0.029 A 
ATOM     66  C   UNL A   1      40.668  31.462  35.251  1.00  0.00     0.049 A 
ATOM     67  H   UNL A   1      40.924  30.328  33.487  1.00  0.00     0.167 HD
ATOM     68  C   UNL A   1      38.869  32.310  33.811  1.00  0.00     0.074 A 
ATOM     69  C   UNL A   1      37.700  33.165  33.562  1.00  0.00     0.031 C 
ATOM     70  C   UNL A   1      39.585  32.292  35.009  1.00  0.00     0.031 A 
BRANCH  57  71
ATOM     71  C   UNL A   1      44.186  28.389  35.514  1.00  0.00    -0.014 A 
ATOM     72  C   UNL A   1      43.836  27.327  36.332  1.00  0.00     0.009 A 
ATOM     73  C   UNL A   1      45.421  28.877  35.512  1.00  0.00     0.009 A 
ATOM     74  C   UNL A   1      44.792  27.034  37.332  1.00  0.00     0.001 A 
ATOM     75  C   UNL A   1      46.346  28.447  36.432  1.00  0.00     0.001 A 
ATOM     76  C   UNL A   1      46.048  27.441  37.310  1.00  0.00     0.000 A 
ENDBRANCH  57  71
BRANCH  58  77
ATOM     77  C   UNL A   1      37.065  31.912  29.541  1.00  0.00    -0.014 A 
ATOM     78  C   UNL A   1      37.284  33.018  28.737  1.00  0.00     0.009 A 
ATOM     79  C   UNL A   1      35.884  31.308  29.577  1.00  0.00     0.009 A 
ATOM     80  C   UNL A   1      36.098  33.595  28.221  1.00  0.00     0.001 A 
ATOM     81  C   UNL A   1      34.799  31.857  28.937  1.00  0.00     0.001 A 
ATOM     82  C   UNL A   1      34.929  32.984  28.173  1.00  0.00     0.000 A 
ENDBRANCH  58  77
BRANCH  70  83
ATOM     83  C   UNL A   1      39.150  33.239  36.115  1.00  0.00    -0.014 A 
ATOM     84  C   UNL A   1      39.722  34.499  36.147  1.00  0.00     0.009 A 
ATOM     85  C   UNL A   1      38.333  32.828  37.078  1.00  0.00     0.009 A 
ATOM     86  C   UNL A   1      39.597  35.154  37.396  1.00  0.00     0.001 A 
ATOM     87  C   UNL A   1      38.152  33.584  38.212  1.00  0.00     0.001 A 
ATOM     88  C   UNL A   1      38.735  34.814  38.337  1.00  0.00     0.000 A 
ENDBRANCH  70  83
ENDBRANCH  44  45
ENDBRANCH  37  39
ENDBRANCH  36  37
ENDBRANCH  35  36
ENDBRANCH  34  35
ENDBRANCH  33  34
ENDBRANCH  32  33
ENDBRANCH   1  32
TORSDOF 22
ENDMDL
