MODEL 1
REMARK VINA RESULT:      -9.3      0.000      0.000
REMARK SMILES Cc1c(Cl)cc2c(c1C)O[C@H](C(F)(F)F)C(C(=O)OCCOCCOCCOCCOC(=O)c1ccc(-c3c4nc(c(-c5ccccc5)c5ccc([nH]5)c(-c5ccccc5)c5nc(c(-c6ccccc6)c6ccc3[nH]6)C=C5)C=C4)cc1)=C2
REMARK SMILES IDX 26 1 25 2 24 3 23 4 22 5 21 6 20 7 19 8 17 9 18 10 16 11
REMARK SMILES IDX 1 12 2 13 3 14 8 15 4 16 5 17 7 18 9 19 6 20 10 21 82 22
REMARK SMILES IDX 11 23 12 24 13 25 14 26 15 27 27 28 28 29 29 30 30 31 31 32
REMARK SMILES IDX 32 33 33 34 34 35 35 36 81 37 36 38 80 39 37 40 38 41 39 42
REMARK SMILES IDX 74 43 40 44 79 45 73 46 75 47 41 48 78 49 72 50 71 51 42 53
REMARK SMILES IDX 64 54 49 55 63 56 50 57 53 58 62 59 76 60 51 61 52 62 61 64
REMARK SMILES IDX 77 65 54 66 43 67 44 68 48 69 45 70 47 71 46 72 65 73 66 74
REMARK SMILES IDX 70 75 67 76 69 77 68 78 55 79 56 80 60 81 57 82 59 83 58 84
REMARK H PARENT 75 52 53 63
REMARK Flexibility Score: inf
ROOT
ATOM      1  C   UNL A   1      37.973  22.159  25.782  1.00  0.00     0.188 C 
ENDROOT
BRANCH   1   2
ATOM      2  O   UNL A   1      36.583  21.855  25.645  1.00  0.00    -0.377 OA
BRANCH   2   3
ATOM      3  C   UNL A   1      36.222  20.592  25.107  1.00  0.00     0.188 C 
BRANCH   3   4
ATOM      4  C   UNL A   1      34.703  20.414  24.917  1.00  0.00     0.188 C 
BRANCH   4   5
ATOM      5  O   UNL A   1      33.952  20.896  26.021  1.00  0.00    -0.376 OA
BRANCH   5   6
ATOM      6  C   UNL A   1      32.665  21.451  25.808  1.00  0.00     0.202 C 
BRANCH   6   7
ATOM      7  C   UNL A   1      32.345  22.902  26.209  1.00  0.00     0.261 C 
BRANCH   7   8
ATOM      8  O   UNL A   1      31.528  23.652  25.304  1.00  0.00    -0.460 OA
BRANCH   8   9
ATOM      9  C   UNL A   1      32.138  24.291  24.291  1.00  0.00     0.338 C 
ATOM     10  O   UNL A   1      32.438  23.823  23.207  1.00  0.00    -0.246 OA
BRANCH   9  11
ATOM     11  C   UNL A   1      32.231  25.722  24.654  1.00  0.00     0.087 C 
ATOM     12  C   UNL A   1      33.374  31.489  27.482  1.00  0.00     0.046 C 
ATOM     13  C   UNL A   1      33.371  30.130  26.827  1.00  0.00    -0.026 A 
ATOM     14  C   UNL A   1      34.369  29.199  27.190  1.00  0.00     0.045 A 
ATOM     15  C   UNL A   1      32.362  29.718  25.920  1.00  0.00    -0.004 A 
ATOM     16  Cl  UNL A   1      35.638  29.600  28.300  1.00  0.00    -0.084 Cl
ATOM     17  C   UNL A   1      34.355  27.891  26.702  1.00  0.00     0.032 A 
ATOM     18  C   UNL A   1      32.383  28.396  25.413  1.00  0.00     0.131 A 
ATOM     19  C   UNL A   1      31.247  30.626  25.455  1.00  0.00     0.049 C 
ATOM     20  C   UNL A   1      33.341  27.477  25.842  1.00  0.00     0.019 A 
ATOM     21  O   UNL A   1      31.410  28.074  24.505  1.00  0.00    -0.475 OA
ATOM     22  C   UNL A   1      33.235  26.079  25.465  1.00  0.00     0.027 C 
ATOM     23  C   UNL A   1      31.270  26.706  24.040  1.00  0.00     0.316 C 
BRANCH  23  24
ATOM     24  C   UNL A   1      29.805  26.293  24.240  1.00  0.00     0.430 C 
ATOM     25  F   UNL A   1      29.495  25.204  23.494  1.00  0.00    -0.167 F 
ATOM     26  F   UNL A   1      29.534  25.970  25.525  1.00  0.00    -0.167 F 
ATOM     27  F   UNL A   1      28.953  27.282  23.885  1.00  0.00    -0.167 F 
ENDBRANCH  23  24
ENDBRANCH   9  11
ENDBRANCH   8   9
ENDBRANCH   7   8
ENDBRANCH   6   7
ENDBRANCH   5   6
ENDBRANCH   4   5
ENDBRANCH   3   4
ENDBRANCH   2   3
ENDBRANCH   1   2
BRANCH   1  28
ATOM     28  C   UNL A   1      39.062  21.062  25.902  1.00  0.00     0.188 C 
BRANCH  28  29
ATOM     29  O   UNL A   1      40.363  21.555  26.188  1.00  0.00    -0.376 OA
BRANCH  29  30
ATOM     30  C   UNL A   1      40.969  21.153  27.405  1.00  0.00     0.202 C 
BRANCH  30  31
ATOM     31  C   UNL A   1      42.304  21.835  27.729  1.00  0.00     0.261 C 
BRANCH  31  32
ATOM     32  O   UNL A   1      42.227  22.942  28.641  1.00  0.00    -0.460 OA
BRANCH  32  33
ATOM     33  C   UNL A   1      41.711  24.098  28.173  1.00  0.00     0.338 C 
ATOM     34  O   UNL A   1      40.536  24.421  28.129  1.00  0.00    -0.246 OA
BRANCH  33  35
ATOM     35  C   UNL A   1      42.843  25.006  27.900  1.00  0.00     0.060 A 
ATOM     36  C   UNL A   1      43.569  25.537  28.975  1.00  0.00     0.016 A 
ATOM     37  C   UNL A   1      43.200  25.311  26.583  1.00  0.00     0.016 A 
ATOM     38  C   UNL A   1      44.639  26.398  28.734  1.00  0.00     0.010 A 
ATOM     39  C   UNL A   1      44.255  26.193  26.345  1.00  0.00     0.010 A 
ATOM     40  C   UNL A   1      44.958  26.764  27.419  1.00  0.00    -0.014 A 
BRANCH  40  41
ATOM     41  C   UNL A   1      45.872  27.906  27.180  1.00  0.00     0.031 A 
ATOM     42  C   UNL A   1      47.334  27.611  26.993  1.00  0.00     0.074 A 
ATOM     43  C   UNL A   1      45.419  29.168  27.094  1.00  0.00     0.049 A 
ATOM     44  N   UNL A   1      48.327  28.436  26.785  1.00  0.00    -0.248 NA
ATOM     45  C   UNL A   1      47.729  26.192  27.043  1.00  0.00     0.031 C 
ATOM     46  C   UNL A   1      44.020  29.577  27.197  1.00  0.00     0.029 A 
ATOM     47  N   UNL A   1      46.101  30.343  26.893  1.00  0.00    -0.354 N 
ATOM     48  C   UNL A   1      49.458  27.638  26.674  1.00  0.00     0.074 A 
ATOM     49  C   UNL A   1      49.040  26.269  26.874  1.00  0.00     0.031 C 
ATOM     50  C   UNL A   1      43.947  30.913  27.053  1.00  0.00     0.029 A 
ATOM     51  C   UNL A   1      45.295  31.454  26.882  1.00  0.00     0.049 A 
ATOM     52  H   UNL A   1      47.077  30.383  26.768  1.00  0.00     0.167 HD
ATOM     53  C   UNL A   1      50.733  28.010  26.414  1.00  0.00     0.031 A 
ATOM     54  C   UNL A   1      45.613  32.758  26.761  1.00  0.00     0.031 A 
ATOM     55  C   UNL A   1      51.156  29.371  26.236  1.00  0.00     0.049 A 
ATOM     56  C   UNL A   1      47.056  33.157  26.587  1.00  0.00     0.074 A 
ATOM     57  C   UNL A   1      52.428  29.848  25.976  1.00  0.00     0.029 A 
ATOM     58  N   UNL A   1      50.319  30.473  26.307  1.00  0.00    -0.354 N 
ATOM     59  N   UNL A   1      48.116  32.394  26.470  1.00  0.00    -0.248 NA
ATOM     60  C   UNL A   1      47.347  34.598  26.528  1.00  0.00     0.031 C 
ATOM     61  C   UNL A   1      52.372  31.244  25.949  1.00  0.00     0.029 A 
ATOM     62  C   UNL A   1      51.053  31.632  26.126  1.00  0.00     0.049 A 
ATOM     63  H   UNL A   1      49.347  30.436  26.462  1.00  0.00     0.167 HD
ATOM     64  C   UNL A   1      49.192  33.259  26.297  1.00  0.00     0.074 A 
ATOM     65  C   UNL A   1      48.656  34.604  26.310  1.00  0.00     0.031 C 
ATOM     66  C   UNL A   1      50.505  32.964  26.141  1.00  0.00     0.031 A 
BRANCH  53  67
ATOM     67  C   UNL A   1      51.769  26.925  26.328  1.00  0.00    -0.014 A 
ATOM     68  C   UNL A   1      51.971  26.209  25.138  1.00  0.00     0.009 A 
ATOM     69  C   UNL A   1      52.588  26.655  27.435  1.00  0.00     0.009 A 
ATOM     70  C   UNL A   1      52.961  25.228  25.065  1.00  0.00     0.001 A 
ATOM     71  C   UNL A   1      53.596  25.692  27.349  1.00  0.00     0.001 A 
ATOM     72  C   UNL A   1      53.778  24.976  26.168  1.00  0.00     0.000 A 
ENDBRANCH  53  67
BRANCH  54  73
ATOM     73  C   UNL A   1      44.545  33.793  26.805  1.00  0.00    -0.014 A 
ATOM     74  C   UNL A   1      44.161  34.373  28.024  1.00  0.00     0.009 A 
ATOM     75  C   UNL A   1      43.894  34.200  25.629  1.00  0.00     0.009 A 
ATOM     76  C   UNL A   1      43.140  35.326  28.066  1.00  0.00     0.001 A 
ATOM     77  C   UNL A   1      42.894  35.174  25.670  1.00  0.00     0.001 A 
ATOM     78  C   UNL A   1      42.513  35.731  26.889  1.00  0.00     0.000 A 
ENDBRANCH  54  73
BRANCH  66  79
ATOM     79  C   UNL A   1      51.465  34.105  25.949  1.00  0.00    -0.014 A 
ATOM     80  C   UNL A   1      51.976  34.817  27.044  1.00  0.00     0.009 A 
ATOM     81  C   UNL A   1      51.938  34.407  24.661  1.00  0.00     0.009 A 
ATOM     82  C   UNL A   1      52.927  35.822  26.852  1.00  0.00     0.001 A 
ATOM     83  C   UNL A   1      52.911  35.391  24.475  1.00  0.00     0.001 A 
ATOM     84  C   UNL A   1      53.400  36.101  25.570  1.00  0.00     0.000 A 
ENDBRANCH  66  79
ENDBRANCH  40  41
ENDBRANCH  33  35
ENDBRANCH  32  33
ENDBRANCH  31  32
ENDBRANCH  30  31
ENDBRANCH  29  30
ENDBRANCH  28  29
ENDBRANCH   1  28
TORSDOF 21
ENDMDL
MODEL 2
REMARK VINA RESULT:      -9.1      2.048      6.304
REMARK SMILES Cc1c(Cl)cc2c(c1C)O[C@H](C(F)(F)F)C(C(=O)OCCOCCOCCOCCOC(=O)c1ccc(-c3c4nc(c(-c5ccccc5)c5ccc([nH]5)c(-c5ccccc5)c5nc(c(-c6ccccc6)c6ccc3[nH]6)C=C5)C=C4)cc1)=C2
REMARK SMILES IDX 26 1 25 2 24 3 23 4 22 5 21 6 20 7 19 8 17 9 18 10 16 11
REMARK SMILES IDX 1 12 2 13 3 14 8 15 4 16 5 17 7 18 9 19 6 20 10 21 82 22
REMARK SMILES IDX 11 23 12 24 13 25 14 26 15 27 27 28 28 29 29 30 30 31 31 32
REMARK SMILES IDX 32 33 33 34 34 35 35 36 81 37 36 38 80 39 37 40 38 41 39 42
REMARK SMILES IDX 74 43 40 44 79 45 73 46 75 47 41 48 78 49 72 50 71 51 42 53
REMARK SMILES IDX 64 54 49 55 63 56 50 57 53 58 62 59 76 60 51 61 52 62 61 64
REMARK SMILES IDX 77 65 54 66 43 67 44 68 48 69 45 70 47 71 46 72 65 73 66 74
REMARK SMILES IDX 70 75 67 76 69 77 68 78 55 79 56 80 60 81 57 82 59 83 58 84
REMARK H PARENT 75 52 53 63
REMARK Flexibility Score: inf
ROOT
ATOM      1  C   UNL A   1      36.778  20.783  25.352  1.00  0.00     0.188 C 
ENDROOT
BRANCH   1   2
ATOM      2  O   UNL A   1      35.517  20.604  24.703  1.00  0.00    -0.377 OA
BRANCH   2   3
ATOM      3  C   UNL A   1      34.345  20.601  25.504  1.00  0.00     0.188 C 
BRANCH   3   4
ATOM      4  C   UNL A   1      33.520  21.898  25.393  1.00  0.00     0.188 C 
BRANCH   4   5
ATOM      5  O   UNL A   1      32.572  21.857  24.337  1.00  0.00    -0.376 OA
BRANCH   5   6
ATOM      6  C   UNL A   1      31.360  22.583  24.452  1.00  0.00     0.202 C 
BRANCH   6   7
ATOM      7  C   UNL A   1      31.012  23.717  23.472  1.00  0.00     0.261 C 
BRANCH   7   8
ATOM      8  O   UNL A   1      31.212  25.054  23.941  1.00  0.00    -0.460 OA
BRANCH   8   9
ATOM      9  C   UNL A   1      31.822  25.923  23.116  1.00  0.00     0.338 C 
ATOM     10  O   UNL A   1      32.590  25.655  22.209  1.00  0.00    -0.246 OA
BRANCH   9  11
ATOM     11  C   UNL A   1      31.265  27.266  23.388  1.00  0.00     0.087 C 
ATOM     12  C   UNL A   1      28.764  33.284  23.062  1.00  0.00     0.046 C 
ATOM     13  C   UNL A   1      29.127  31.820  23.005  1.00  0.00    -0.026 A 
ATOM     14  C   UNL A   1      28.756  31.072  21.866  1.00  0.00     0.045 A 
ATOM     15  C   UNL A   1      29.895  31.181  24.011  1.00  0.00    -0.004 A 
ATOM     16  Cl  UNL A   1      27.829  31.764  20.576  1.00  0.00    -0.084 Cl
ATOM     17  C   UNL A   1      29.158  29.745  21.706  1.00  0.00     0.032 A 
ATOM     18  C   UNL A   1      30.267  29.825  23.844  1.00  0.00     0.131 A 
ATOM     19  C   UNL A   1      30.346  31.877  25.274  1.00  0.00     0.049 C 
ATOM     20  C   UNL A   1      29.945  29.131  22.677  1.00  0.00     0.019 A 
ATOM     21  O   UNL A   1      30.967  29.251  24.871  1.00  0.00    -0.475 OA
ATOM     22  C   UNL A   1      30.496  27.808  22.436  1.00  0.00     0.027 C 
ATOM     23  C   UNL A   1      31.508  27.911  24.727  1.00  0.00     0.316 C 
BRANCH  23  24
ATOM     24  C   UNL A   1      33.000  27.971  25.085  1.00  0.00     0.430 C 
ATOM     25  F   UNL A   1      33.773  27.966  23.971  1.00  0.00    -0.167 F 
ATOM     26  F   UNL A   1      33.318  29.094  25.769  1.00  0.00    -0.167 F 
ATOM     27  F   UNL A   1      33.376  26.917  25.843  1.00  0.00    -0.167 F 
ENDBRANCH  23  24
ENDBRANCH   9  11
ENDBRANCH   8   9
ENDBRANCH   7   8
ENDBRANCH   6   7
ENDBRANCH   5   6
ENDBRANCH   4   5
ENDBRANCH   3   4
ENDBRANCH   2   3
ENDBRANCH   1   2
BRANCH   1  28
ATOM     28  C   UNL A   1      37.679  22.020  25.104  1.00  0.00     0.188 C 
BRANCH  28  29
ATOM     29  O   UNL A   1      38.256  22.572  26.280  1.00  0.00    -0.376 OA
BRANCH  29  30
ATOM     30  C   UNL A   1      39.652  22.819  26.278  1.00  0.00     0.202 C 
BRANCH  30  31
ATOM     31  C   UNL A   1      40.135  23.854  27.301  1.00  0.00     0.261 C 
BRANCH  31  32
ATOM     32  O   UNL A   1      41.426  23.599  27.877  1.00  0.00    -0.460 OA
BRANCH  32  33
ATOM     33  C   UNL A   1      42.446  23.346  27.030  1.00  0.00     0.338 C 
ATOM     34  O   UNL A   1      42.601  22.359  26.331  1.00  0.00    -0.246 OA
BRANCH  33  35
ATOM     35  C   UNL A   1      43.259  24.574  26.942  1.00  0.00     0.060 A 
ATOM     36  C   UNL A   1      43.604  25.077  25.680  1.00  0.00     0.016 A 
ATOM     37  C   UNL A   1      43.657  25.241  28.104  1.00  0.00     0.016 A 
ATOM     38  C   UNL A   1      44.375  26.235  25.579  1.00  0.00     0.010 A 
ATOM     39  C   UNL A   1      44.449  26.385  28.002  1.00  0.00     0.010 A 
ATOM     40  C   UNL A   1      44.836  26.869  26.741  1.00  0.00    -0.014 A 
BRANCH  40  41
ATOM     41  C   UNL A   1      45.900  27.896  26.639  1.00  0.00     0.031 A 
ATOM     42  C   UNL A   1      45.493  29.342  26.711  1.00  0.00     0.074 A 
ATOM     43  C   UNL A   1      47.197  27.562  26.520  1.00  0.00     0.049 A 
ATOM     44  N   UNL A   1      46.233  30.417  26.633  1.00  0.00    -0.248 NA
ATOM     45  C   UNL A   1      44.057  29.610  26.903  1.00  0.00     0.031 C 
ATOM     46  C   UNL A   1      47.724  26.200  26.498  1.00  0.00     0.029 A 
ATOM     47  N   UNL A   1      48.309  28.359  26.401  1.00  0.00    -0.354 N 
ATOM     48  C   UNL A   1      45.355  31.485  26.773  1.00  0.00     0.074 A 
ATOM     49  C   UNL A   1      44.025  30.933  26.901  1.00  0.00     0.031 C 
ATOM     50  C   UNL A   1      49.063  26.256  26.379  1.00  0.00     0.029 A 
ATOM     51  C   UNL A   1      49.481  27.654  26.281  1.00  0.00     0.049 A 
ATOM     52  H   UNL A   1      48.269  29.342  26.402  1.00  0.00     0.167 HD
ATOM     53  C   UNL A   1      45.633  32.808  26.803  1.00  0.00     0.031 A 
ATOM     54  C   UNL A   1      50.744  28.090  26.100  1.00  0.00     0.031 A 
ATOM     55  C   UNL A   1      46.951  33.360  26.654  1.00  0.00     0.049 A 
ATOM     56  C   UNL A   1      51.013  29.571  26.023  1.00  0.00     0.074 A 
ATOM     57  C   UNL A   1      47.330  34.690  26.665  1.00  0.00     0.029 A 
ATOM     58  N   UNL A   1      48.101  32.614  26.460  1.00  0.00    -0.354 N 
ATOM     59  N   UNL A   1      50.178  30.572  26.168  1.00  0.00    -0.248 NA
ATOM     60  C   UNL A   1      52.401  29.983  25.756  1.00  0.00     0.031 C 
ATOM     61  C   UNL A   1      48.704  34.751  26.417  1.00  0.00     0.029 A 
ATOM     62  C   UNL A   1      49.189  33.457  26.318  1.00  0.00     0.049 A 
ATOM     63  H   UNL A   1      48.138  31.630  26.428  1.00  0.00     0.167 HD
ATOM     64  C   UNL A   1      50.942  31.727  26.039  1.00  0.00     0.074 A 
ATOM     65  C   UNL A   1      52.309  31.305  25.818  1.00  0.00     0.031 C 
ATOM     66  C   UNL A   1      50.545  33.022  26.098  1.00  0.00     0.031 A 
BRANCH  53  67
ATOM     67  C   UNL A   1      44.481  33.755  26.986  1.00  0.00    -0.014 A 
ATOM     68  C   UNL A   1      43.963  34.029  28.261  1.00  0.00     0.009 A 
ATOM     69  C   UNL A   1      43.943  34.421  25.874  1.00  0.00     0.009 A 
ATOM     70  C   UNL A   1      42.915  34.937  28.417  1.00  0.00     0.001 A 
ATOM     71  C   UNL A   1      42.913  35.350  26.037  1.00  0.00     0.001 A 
ATOM     72  C   UNL A   1      42.396  35.603  27.306  1.00  0.00     0.000 A 
ENDBRANCH  53  67
BRANCH  54  73
ATOM     73  C   UNL A   1      51.859  27.113  25.972  1.00  0.00    -0.014 A 
ATOM     74  C   UNL A   1      52.211  26.591  24.718  1.00  0.00     0.009 A 
ATOM     75  C   UNL A   1      52.571  26.688  27.105  1.00  0.00     0.009 A 
ATOM     76  C   UNL A   1      53.241  25.654  24.603  1.00  0.00     0.001 A 
ATOM     77  C   UNL A   1      53.620  25.773  26.983  1.00  0.00     0.001 A 
ATOM     78  C   UNL A   1      53.950  25.252  25.734  1.00  0.00     0.000 A 
ENDBRANCH  54  73
BRANCH  66  79
ATOM     79  C   UNL A   1      51.594  34.088  25.946  1.00  0.00    -0.014 A 
ATOM     80  C   UNL A   1      51.805  34.728  24.715  1.00  0.00     0.009 A 
ATOM     81  C   UNL A   1      52.311  34.524  27.071  1.00  0.00     0.009 A 
ATOM     82  C   UNL A   1      52.728  35.771  24.611  1.00  0.00     0.001 A 
ATOM     83  C   UNL A   1      53.211  35.588  26.971  1.00  0.00     0.001 A 
ATOM     84  C   UNL A   1      53.423  36.205  25.740  1.00  0.00     0.000 A 
ENDBRANCH  66  79
ENDBRANCH  40  41
ENDBRANCH  33  35
ENDBRANCH  32  33
ENDBRANCH  31  32
ENDBRANCH  30  31
ENDBRANCH  29  30
ENDBRANCH  28  29
ENDBRANCH   1  28
TORSDOF 21
ENDMDL
MODEL 3
REMARK VINA RESULT:      -9.1      9.046     14.775
REMARK SMILES Cc1c(Cl)cc2c(c1C)O[C@H](C(F)(F)F)C(C(=O)OCCOCCOCCOCCOC(=O)c1ccc(-c3c4nc(c(-c5ccccc5)c5ccc([nH]5)c(-c5ccccc5)c5nc(c(-c6ccccc6)c6ccc3[nH]6)C=C5)C=C4)cc1)=C2
REMARK SMILES IDX 26 1 25 2 24 3 23 4 22 5 21 6 20 7 19 8 17 9 18 10 16 11
REMARK SMILES IDX 1 12 2 13 3 14 8 15 4 16 5 17 7 18 9 19 6 20 10 21 82 22
REMARK SMILES IDX 11 23 12 24 13 25 14 26 15 27 27 28 28 29 29 30 30 31 31 32
REMARK SMILES IDX 32 33 33 34 34 35 35 36 81 37 36 38 80 39 37 40 38 41 39 42
REMARK SMILES IDX 74 43 40 44 79 45 73 46 75 47 41 48 78 49 72 50 71 51 42 53
REMARK SMILES IDX 64 54 49 55 63 56 50 57 53 58 62 59 76 60 51 61 52 62 61 64
REMARK SMILES IDX 77 65 54 66 43 67 44 68 48 69 45 70 47 71 46 72 65 73 66 74
REMARK SMILES IDX 70 75 67 76 69 77 68 78 55 79 56 80 60 81 57 82 59 83 58 84
REMARK H PARENT 75 52 53 63
REMARK Flexibility Score: inf
ROOT
ATOM      1  C   UNL A   1      45.862  40.728  27.832  1.00  0.00     0.188 C 
ENDROOT
BRANCH   1   2
ATOM      2  O   UNL A   1      46.548  39.756  27.041  1.00  0.00    -0.377 OA
BRANCH   2   3
ATOM      3  C   UNL A   1      47.302  40.208  25.927  1.00  0.00     0.188 C 
BRANCH   3   4
ATOM      4  C   UNL A   1      46.789  39.672  24.577  1.00  0.00     0.188 C 
BRANCH   4   5
ATOM      5  O   UNL A   1      46.434  40.708  23.674  1.00  0.00    -0.376 OA
BRANCH   5   6
ATOM      6  C   UNL A   1      47.245  40.961  22.539  1.00  0.00     0.202 C 
BRANCH   6   7
ATOM      7  C   UNL A   1      46.717  41.773  21.343  1.00  0.00     0.261 C 
BRANCH   7   8
ATOM      8  O   UNL A   1      45.361  42.222  21.422  1.00  0.00    -0.460 OA
BRANCH   8   9
ATOM      9  C   UNL A   1      45.145  43.518  21.708  1.00  0.00     0.338 C 
ATOM     10  O   UNL A   1      45.559  44.131  22.676  1.00  0.00    -0.246 OA
BRANCH   9  11
ATOM     11  C   UNL A   1      44.456  44.125  20.549  1.00  0.00     0.087 C 
ATOM     12  C   UNL A   1      41.932  48.108  16.040  1.00  0.00     0.046 C 
ATOM     13  C   UNL A   1      42.747  47.286  17.007  1.00  0.00    -0.026 A 
ATOM     14  C   UNL A   1      43.913  47.855  17.568  1.00  0.00     0.045 A 
ATOM     15  C   UNL A   1      42.350  45.996  17.442  1.00  0.00    -0.004 A 
ATOM     16  Cl  UNL A   1      44.474  49.430  17.114  1.00  0.00    -0.084 Cl
ATOM     17  C   UNL A   1      44.646  47.187  18.550  1.00  0.00     0.032 A 
ATOM     18  C   UNL A   1      43.125  45.323  18.417  1.00  0.00     0.131 A 
ATOM     19  C   UNL A   1      41.126  45.286  16.912  1.00  0.00     0.049 C 
ATOM     20  C   UNL A   1      44.233  45.937  19.003  1.00  0.00     0.019 A 
ATOM     21  O   UNL A   1      42.718  44.062  18.759  1.00  0.00    -0.475 OA
ATOM     22  C   UNL A   1      44.901  45.317  20.134  1.00  0.00     0.027 C 
ATOM     23  C   UNL A   1      43.368  43.354  19.848  1.00  0.00     0.316 C 
BRANCH  23  24
ATOM     24  C   UNL A   1      42.273  42.878  20.813  1.00  0.00     0.430 C 
ATOM     25  F   UNL A   1      42.276  43.608  21.956  1.00  0.00    -0.167 F 
ATOM     26  F   UNL A   1      41.035  42.998  20.283  1.00  0.00    -0.167 F 
ATOM     27  F   UNL A   1      42.440  41.582  21.160  1.00  0.00    -0.167 F 
ENDBRANCH  23  24
ENDBRANCH   9  11
ENDBRANCH   8   9
ENDBRANCH   7   8
ENDBRANCH   6   7
ENDBRANCH   5   6
ENDBRANCH   4   5
ENDBRANCH   3   4
ENDBRANCH   2   3
ENDBRANCH   1   2
BRANCH   1  28
ATOM     28  C   UNL A   1      44.630  41.512  27.312  1.00  0.00     0.188 C 
BRANCH  28  29
ATOM     29  O   UNL A   1      43.634  40.702  26.702  1.00  0.00    -0.376 OA
BRANCH  29  30
ATOM     30  C   UNL A   1      43.098  39.631  27.459  1.00  0.00     0.202 C 
BRANCH  30  31
ATOM     31  C   UNL A   1      43.414  38.228  26.925  1.00  0.00     0.261 C 
BRANCH  31  32
ATOM     32  O   UNL A   1      42.274  37.396  26.659  1.00  0.00    -0.460 OA
BRANCH  32  33
ATOM     33  C   UNL A   1      41.960  36.458  27.578  1.00  0.00     0.338 C 
ATOM     34  O   UNL A   1      41.003  36.451  28.332  1.00  0.00    -0.246 OA
BRANCH  33  35
ATOM     35  C   UNL A   1      42.883  35.323  27.379  1.00  0.00     0.060 A 
ATOM     36  C   UNL A   1      43.433  34.684  28.498  1.00  0.00     0.016 A 
ATOM     37  C   UNL A   1      43.183  34.877  26.088  1.00  0.00     0.016 A 
ATOM     38  C   UNL A   1      44.309  33.613  28.327  1.00  0.00     0.010 A 
ATOM     39  C   UNL A   1      44.079  33.820  25.918  1.00  0.00     0.010 A 
ATOM     40  C   UNL A   1      44.669  33.205  27.035  1.00  0.00    -0.014 A 
BRANCH  40  41
ATOM     41  C   UNL A   1      45.823  32.293  26.852  1.00  0.00     0.031 A 
ATOM     42  C   UNL A   1      45.549  30.817  26.777  1.00  0.00     0.074 A 
ATOM     43  C   UNL A   1      47.077  32.758  26.720  1.00  0.00     0.049 A 
ATOM     44  N   UNL A   1      46.388  29.823  26.635  1.00  0.00    -0.248 NA
ATOM     45  C   UNL A   1      44.138  30.405  26.871  1.00  0.00     0.031 C 
ATOM     46  C   UNL A   1      47.465  34.166  26.715  1.00  0.00     0.029 A 
ATOM     47  N   UNL A   1      48.261  32.080  26.557  1.00  0.00    -0.354 N 
ATOM     48  C   UNL A   1      45.607  28.675  26.616  1.00  0.00     0.074 A 
ATOM     49  C   UNL A   1      44.234  29.087  26.799  1.00  0.00     0.031 C 
ATOM     50  C   UNL A   1      48.798  34.248  26.551  1.00  0.00     0.029 A 
ATOM     51  C   UNL A   1      49.359  32.899  26.474  1.00  0.00     0.049 A 
ATOM     52  H   UNL A   1      48.315  31.098  26.504  1.00  0.00     0.167 HD
ATOM     53  C   UNL A   1      45.997  27.391  26.447  1.00  0.00     0.031 A 
ATOM     54  C   UNL A   1      50.667  32.593  26.363  1.00  0.00     0.031 A 
ATOM     55  C   UNL A   1      47.363  26.977  26.287  1.00  0.00     0.049 A 
ATOM     56  C   UNL A   1      51.086  31.147  26.293  1.00  0.00     0.074 A 
ATOM     57  C   UNL A   1      47.857  25.696  26.117  1.00  0.00     0.029 A 
ATOM     58  N   UNL A   1      48.452  27.832  26.284  1.00  0.00    -0.354 N 
ATOM     59  N   UNL A   1      50.339  30.070  26.262  1.00  0.00    -0.248 NA
ATOM     60  C   UNL A   1      52.532  30.875  26.240  1.00  0.00     0.031 C 
ATOM     61  C   UNL A   1      49.251  25.771  26.071  1.00  0.00     0.029 A 
ATOM     62  C   UNL A   1      49.620  27.105  26.145  1.00  0.00     0.049 A 
ATOM     63  H   UNL A   1      48.401  28.813  26.367  1.00  0.00     0.167 HD
ATOM     64  C   UNL A   1      51.219  28.998  26.160  1.00  0.00     0.074 A 
ATOM     65  C   UNL A   1      52.555  29.554  26.119  1.00  0.00     0.031 C 
ATOM     66  C   UNL A   1      50.944  27.672  26.105  1.00  0.00     0.031 A 
BRANCH  53  67
ATOM     67  C   UNL A   1      44.928  26.335  26.450  1.00  0.00    -0.014 A 
ATOM     68  C   UNL A   1      44.347  25.890  25.253  1.00  0.00     0.009 A 
ATOM     69  C   UNL A   1      44.537  25.742  27.660  1.00  0.00     0.009 A 
ATOM     70  C   UNL A   1      43.379  24.884  25.270  1.00  0.00     0.001 A 
ATOM     71  C   UNL A   1      43.590  24.716  27.671  1.00  0.00     0.001 A 
ATOM     72  C   UNL A   1      43.007  24.293  26.478  1.00  0.00     0.000 A 
ENDBRANCH  53  67
BRANCH  54  73
ATOM     73  C   UNL A   1      51.685  33.677  26.317  1.00  0.00    -0.014 A 
ATOM     74  C   UNL A   1      52.096  34.220  25.090  1.00  0.00     0.009 A 
ATOM     75  C   UNL A   1      52.260  34.170  27.500  1.00  0.00     0.009 A 
ATOM     76  C   UNL A   1      53.070  35.220  25.047  1.00  0.00     0.001 A 
ATOM     77  C   UNL A   1      53.213  35.190  27.455  1.00  0.00     0.001 A 
ATOM     78  C   UNL A   1      53.622  35.710  26.229  1.00  0.00     0.000 A 
ENDBRANCH  54  73
BRANCH  66  79
ATOM     79  C   UNL A   1      52.098  26.718  25.972  1.00  0.00    -0.014 A 
ATOM     80  C   UNL A   1      52.806  26.273  27.099  1.00  0.00     0.009 A 
ATOM     81  C   UNL A   1      52.417  26.183  24.713  1.00  0.00     0.009 A 
ATOM     82  C   UNL A   1      53.824  25.326  26.965  1.00  0.00     0.001 A 
ATOM     83  C   UNL A   1      53.415  25.214  24.586  1.00  0.00     0.001 A 
ATOM     84  C   UNL A   1      54.120  24.791  25.711  1.00  0.00     0.000 A 
ENDBRANCH  66  79
ENDBRANCH  40  41
ENDBRANCH  33  35
ENDBRANCH  32  33
ENDBRANCH  31  32
ENDBRANCH  30  31
ENDBRANCH  29  30
ENDBRANCH  28  29
ENDBRANCH   1  28
TORSDOF 21
ENDMDL
