MODEL 1
REMARK VINA RESULT:      -8.6      0.000      0.000
REMARK SMILES CCCC[C@H](C(=O)OCCOCCOCCOCCOC(=O)c1ccc(-c2c3nc(c(-c4ccccc4)c4ccc([nH]4)c(-c4ccccc4)c4nc(c(-c5ccccc5)c5ccc2[nH]5)C=C4)C=C3)cc1)c1ccnn1C
REMARK SMILES IDX 13 1 12 2 11 3 10 4 9 5 8 6 6 7 7 8 5 9 4 10 3 11 2 12 1 13
REMARK SMILES IDX 71 14 72 15 75 16 73 17 74 18 76 19 14 20 15 21 16 22 17 23
REMARK SMILES IDX 18 24 19 25 20 26 21 27 22 28 23 29 24 30 70 31 25 32 69 33
REMARK SMILES IDX 26 34 27 35 28 36 63 37 29 38 68 39 62 40 64 41 30 42 67 43
REMARK SMILES IDX 61 44 60 45 31 47 53 48 38 49 52 50 39 51 42 52 51 53 65 54
REMARK SMILES IDX 40 55 41 56 50 58 66 59 43 60 32 61 33 62 37 63 34 64 36 65
REMARK SMILES IDX 35 66 54 67 55 68 59 69 56 70 58 71 57 72 44 73 45 74 49 75
REMARK SMILES IDX 46 76 48 77 47 78
REMARK H PARENT 64 46 42 57
REMARK Flexibility Score: inf
ROOT
ATOM      1  C   UNL A   1      33.996  31.242  27.628  1.00  0.00     0.188 C 
ENDROOT
BRANCH   1   2
ATOM      2  C   UNL A   1      32.737  30.398  27.327  1.00  0.00     0.188 C 
BRANCH   2   3
ATOM      3  O   UNL A   1      33.045  29.116  26.811  1.00  0.00    -0.376 OA
BRANCH   3   4
ATOM      4  C   UNL A   1      33.707  28.953  25.577  1.00  0.00     0.202 C 
BRANCH   4   5
ATOM      5  C   UNL A   1      32.945  28.607  24.294  1.00  0.00     0.261 C 
BRANCH   5   6
ATOM      6  O   UNL A   1      33.080  27.289  23.762  1.00  0.00    -0.463 OA
BRANCH   6   7
ATOM      7  C   UNL A   1      33.474  26.280  24.584  1.00  0.00     0.315 C 
ATOM      8  O   UNL A   1      34.352  26.380  25.429  1.00  0.00    -0.251 OA
BRANCH   7   9
ATOM      9  C   UNL A   1      32.679  25.011  24.256  1.00  0.00     0.148 C 
BRANCH   9  10
ATOM     10  C   UNL A   1      33.565  24.047  23.464  1.00  0.00     0.022 C 
BRANCH  10  11
ATOM     11  C   UNL A   1      32.797  23.147  22.477  1.00  0.00     0.001 C 
BRANCH  11  12
ATOM     12  C   UNL A   1      32.175  21.849  23.005  1.00  0.00    -0.003 C 
ATOM     13  C   UNL A   1      33.101  20.990  23.854  1.00  0.00     0.004 C 
ENDBRANCH  11  12
ENDBRANCH  10  11
ENDBRANCH   9  10
BRANCH   9  14
ATOM     14  C   UNL A   1      32.040  24.425  25.500  1.00  0.00     0.052 A 
ATOM     15  C   UNL A   1      32.567  23.474  26.367  1.00  0.00     0.046 A 
ATOM     16  N   UNL A   1      30.792  24.698  26.012  1.00  0.00    -0.272 N 
ATOM     17  C   UNL A   1      31.514  23.118  27.224  1.00  0.00     0.135 A 
ATOM     18  N   UNL A   1      30.427  23.850  26.997  1.00  0.00    -0.182 NA
ATOM     19  C   UNL A   1      29.894  25.791  25.727  1.00  0.00     0.174 C 
ENDBRANCH   9  14
ENDBRANCH   7   9
ENDBRANCH   6   7
ENDBRANCH   5   6
ENDBRANCH   4   5
ENDBRANCH   3   4
ENDBRANCH   2   3
ENDBRANCH   1   2
BRANCH   1  20
ATOM     20  O   UNL A   1      33.868  32.555  28.149  1.00  0.00    -0.377 OA
BRANCH  20  21
ATOM     21  C   UNL A   1      34.870  32.963  29.051  1.00  0.00     0.188 C 
BRANCH  21  22
ATOM     22  C   UNL A   1      34.630  32.458  30.486  1.00  0.00     0.188 C 
BRANCH  22  23
ATOM     23  O   UNL A   1      34.029  33.275  31.474  1.00  0.00    -0.376 OA
BRANCH  23  24
ATOM     24  C   UNL A   1      34.280  33.163  32.865  1.00  0.00     0.202 C 
BRANCH  24  25
ATOM     25  C   UNL A   1      35.295  33.989  33.679  1.00  0.00     0.261 C 
BRANCH  25  26
ATOM     26  O   UNL A   1      36.682  33.775  33.448  1.00  0.00    -0.460 OA
BRANCH  26  27
ATOM     27  C   UNL A   1      37.208  32.699  34.057  1.00  0.00     0.338 C 
ATOM     28  O   UNL A   1      37.060  32.351  35.220  1.00  0.00    -0.246 OA
BRANCH  27  29
ATOM     29  C   UNL A   1      37.865  31.877  33.029  1.00  0.00     0.060 A 
ATOM     30  C   UNL A   1      38.836  30.958  33.447  1.00  0.00     0.016 A 
ATOM     31  C   UNL A   1      37.539  32.012  31.677  1.00  0.00     0.016 A 
ATOM     32  C   UNL A   1      39.518  30.198  32.510  1.00  0.00     0.010 A 
ATOM     33  C   UNL A   1      38.262  31.284  30.730  1.00  0.00     0.010 A 
ATOM     34  C   UNL A   1      39.285  30.418  31.149  1.00  0.00    -0.014 A 
BRANCH  34  35
ATOM     35  C   UNL A   1      40.325  29.961  30.206  1.00  0.00     0.031 A 
ATOM     36  C   UNL A   1      41.472  30.896  29.932  1.00  0.00     0.074 A 
ATOM     37  C   UNL A   1      40.309  28.718  29.699  1.00  0.00     0.049 A 
ATOM     38  N   UNL A   1      42.536  30.711  29.197  1.00  0.00    -0.248 NA
ATOM     39  C   UNL A   1      41.414  32.216  30.588  1.00  0.00     0.031 C 
ATOM     40  C   UNL A   1      39.284  27.709  29.956  1.00  0.00     0.029 A 
ATOM     41  N   UNL A   1      41.203  28.094  28.870  1.00  0.00    -0.354 N 
ATOM     42  C   UNL A   1      43.265  31.890  29.294  1.00  0.00     0.074 A 
ATOM     43  C   UNL A   1      42.514  32.794  30.132  1.00  0.00     0.031 C 
ATOM     44  C   UNL A   1      39.607  26.586  29.290  1.00  0.00     0.029 A 
ATOM     45  C   UNL A   1      40.843  26.812  28.543  1.00  0.00     0.049 A 
ATOM     46  H   UNL A   1      42.025  28.524  28.540  1.00  0.00     0.167 HD
ATOM     47  C   UNL A   1      44.462  32.190  28.739  1.00  0.00     0.031 A 
ATOM     48  C   UNL A   1      41.443  25.931  27.721  1.00  0.00     0.031 A 
ATOM     49  C   UNL A   1      45.199  31.290  27.895  1.00  0.00     0.049 A 
ATOM     50  C   UNL A   1      42.735  26.320  27.051  1.00  0.00     0.074 A 
ATOM     51  C   UNL A   1      46.420  31.491  27.279  1.00  0.00     0.029 A 
ATOM     52  N   UNL A   1      44.775  30.017  27.543  1.00  0.00    -0.354 N 
ATOM     53  N   UNL A   1      43.425  27.430  27.160  1.00  0.00    -0.248 NA
ATOM     54  C   UNL A   1      43.342  25.321  26.161  1.00  0.00     0.031 C 
ATOM     55  C   UNL A   1      46.705  30.365  26.502  1.00  0.00     0.029 A 
ATOM     56  C   UNL A   1      45.700  29.431  26.697  1.00  0.00     0.049 A 
ATOM     57  H   UNL A   1      43.941  29.593  27.849  1.00  0.00     0.167 HD
ATOM     58  C   UNL A   1      44.566  27.247  26.385  1.00  0.00     0.074 A 
ATOM     59  C   UNL A   1      44.479  25.912  25.830  1.00  0.00     0.031 C 
ATOM     60  C   UNL A   1      45.595  28.100  26.156  1.00  0.00     0.031 A 
BRANCH  47  61
ATOM     61  C   UNL A   1      45.016  33.564  28.986  1.00  0.00    -0.014 A 
ATOM     62  C   UNL A   1      45.864  33.833  30.073  1.00  0.00     0.009 A 
ATOM     63  C   UNL A   1      44.704  34.604  28.097  1.00  0.00     0.009 A 
ATOM     64  C   UNL A   1      46.362  35.121  30.279  1.00  0.00     0.001 A 
ATOM     65  C   UNL A   1      45.229  35.883  28.286  1.00  0.00     0.001 A 
ATOM     66  C   UNL A   1      46.051  36.142  29.382  1.00  0.00     0.000 A 
ENDBRANCH  47  61
BRANCH  48  67
ATOM     67  C   UNL A   1      40.821  24.605  27.458  1.00  0.00    -0.014 A 
ATOM     68  C   UNL A   1      41.367  23.430  27.997  1.00  0.00     0.009 A 
ATOM     69  C   UNL A   1      39.696  24.506  26.625  1.00  0.00     0.009 A 
ATOM     70  C   UNL A   1      40.827  22.184  27.672  1.00  0.00     0.001 A 
ATOM     71  C   UNL A   1      39.135  23.262  26.330  1.00  0.00     0.001 A 
ATOM     72  C   UNL A   1      39.709  22.101  26.842  1.00  0.00     0.000 A 
ENDBRANCH  48  67
BRANCH  60  73
ATOM     73  C   UNL A   1      46.737  27.590  25.319  1.00  0.00    -0.014 A 
ATOM     74  C   UNL A   1      46.892  27.962  23.974  1.00  0.00     0.009 A 
ATOM     75  C   UNL A   1      47.683  26.729  25.898  1.00  0.00     0.009 A 
ATOM     76  C   UNL A   1      47.938  27.435  23.213  1.00  0.00     0.001 A 
ATOM     77  C   UNL A   1      48.750  26.238  25.147  1.00  0.00     0.001 A 
ATOM     78  C   UNL A   1      48.868  26.577  23.801  1.00  0.00     0.000 A 
ENDBRANCH  60  73
ENDBRANCH  34  35
ENDBRANCH  27  29
ENDBRANCH  26  27
ENDBRANCH  25  26
ENDBRANCH  24  25
ENDBRANCH  23  24
ENDBRANCH  22  23
ENDBRANCH  21  22
ENDBRANCH  20  21
ENDBRANCH   1  20
TORSDOF 24
ENDMDL
MODEL 2
REMARK VINA RESULT:      -7.7      6.415     10.207
REMARK SMILES CCCC[C@H](C(=O)OCCOCCOCCOCCOC(=O)c1ccc(-c2c3nc(c(-c4ccccc4)c4ccc([nH]4)c(-c4ccccc4)c4nc(c(-c5ccccc5)c5ccc2[nH]5)C=C4)C=C3)cc1)c1ccnn1C
REMARK SMILES IDX 13 1 12 2 11 3 10 4 9 5 8 6 6 7 7 8 5 9 4 10 3 11 2 12 1 13
REMARK SMILES IDX 71 14 72 15 75 16 73 17 74 18 76 19 14 20 15 21 16 22 17 23
REMARK SMILES IDX 18 24 19 25 20 26 21 27 22 28 23 29 24 30 70 31 25 32 69 33
REMARK SMILES IDX 26 34 27 35 28 36 63 37 29 38 68 39 62 40 64 41 30 42 67 43
REMARK SMILES IDX 61 44 60 45 31 47 53 48 38 49 52 50 39 51 42 52 51 53 65 54
REMARK SMILES IDX 40 55 41 56 50 58 66 59 43 60 32 61 33 62 37 63 34 64 36 65
REMARK SMILES IDX 35 66 54 67 55 68 59 69 56 70 58 71 57 72 44 73 45 74 49 75
REMARK SMILES IDX 46 76 48 77 47 78
REMARK H PARENT 64 46 42 57
REMARK Flexibility Score: inf
ROOT
ATOM      1  C   UNL A   1      32.056  28.221  27.342  1.00  0.00     0.188 C 
ENDROOT
BRANCH   1   2
ATOM      2  C   UNL A   1      31.311  27.203  26.451  1.00  0.00     0.188 C 
BRANCH   2   3
ATOM      3  O   UNL A   1      31.489  25.865  26.879  1.00  0.00    -0.376 OA
BRANCH   3   4
ATOM      4  C   UNL A   1      31.621  24.804  25.961  1.00  0.00     0.202 C 
BRANCH   4   5
ATOM      5  C   UNL A   1      30.691  23.587  25.997  1.00  0.00     0.261 C 
BRANCH   5   6
ATOM      6  O   UNL A   1      31.269  22.301  26.225  1.00  0.00    -0.463 OA
BRANCH   6   7
ATOM      7  C   UNL A   1      32.619  22.193  26.340  1.00  0.00     0.315 C 
ATOM      8  O   UNL A   1      33.276  22.678  27.250  1.00  0.00    -0.251 OA
BRANCH   7   9
ATOM      9  C   UNL A   1      33.176  21.413  25.143  1.00  0.00     0.148 C 
BRANCH   9  10
ATOM     10  C   UNL A   1      32.286  20.199  24.869  1.00  0.00     0.022 C 
BRANCH  10  11
ATOM     11  C   UNL A   1      32.959  18.843  25.155  1.00  0.00     0.001 C 
BRANCH  11  12
ATOM     12  C   UNL A   1      34.081  18.374  24.222  1.00  0.00    -0.003 C 
ATOM     13  C   UNL A   1      33.777  17.111  23.429  1.00  0.00     0.004 C 
ENDBRANCH  11  12
ENDBRANCH  10  11
ENDBRANCH   9  10
BRANCH   9  14
ATOM     14  C   UNL A   1      33.410  22.323  23.953  1.00  0.00     0.052 A 
ATOM     15  C   UNL A   1      32.588  22.518  22.849  1.00  0.00     0.046 A 
ATOM     16  N   UNL A   1      34.503  23.125  23.711  1.00  0.00    -0.272 N 
ATOM     17  C   UNL A   1      33.343  23.283  21.945  1.00  0.00     0.135 A 
ATOM     18  N   UNL A   1      34.516  23.638  22.462  1.00  0.00    -0.182 NA
ATOM     19  C   UNL A   1      35.543  23.567  24.607  1.00  0.00     0.174 C 
ENDBRANCH   9  14
ENDBRANCH   7   9
ENDBRANCH   6   7
ENDBRANCH   5   6
ENDBRANCH   4   5
ENDBRANCH   3   4
ENDBRANCH   2   3
ENDBRANCH   1   2
BRANCH   1  20
ATOM     20  O   UNL A   1      32.093  29.593  26.983  1.00  0.00    -0.377 OA
BRANCH  20  21
ATOM     21  C   UNL A   1      33.332  30.080  26.524  1.00  0.00     0.188 C 
BRANCH  21  22
ATOM     22  C   UNL A   1      34.332  30.350  27.664  1.00  0.00     0.188 C 
BRANCH  22  23
ATOM     23  O   UNL A   1      35.539  31.058  27.447  1.00  0.00    -0.376 OA
BRANCH  23  24
ATOM     24  C   UNL A   1      35.944  32.195  28.191  1.00  0.00     0.202 C 
BRANCH  24  25
ATOM     25  C   UNL A   1      35.796  32.391  29.712  1.00  0.00     0.261 C 
BRANCH  25  26
ATOM     26  O   UNL A   1      36.939  32.189  30.534  1.00  0.00    -0.460 OA
BRANCH  26  27
ATOM     27  C   UNL A   1      37.065  30.956  31.052  1.00  0.00     0.338 C 
ATOM     28  O   UNL A   1      36.682  29.899  30.571  1.00  0.00    -0.246 OA
BRANCH  27  29
ATOM     29  C   UNL A   1      37.924  31.054  32.243  1.00  0.00     0.060 A 
ATOM     30  C   UNL A   1      39.235  31.516  32.069  1.00  0.00     0.016 A 
ATOM     31  C   UNL A   1      37.453  30.690  33.507  1.00  0.00     0.016 A 
ATOM     32  C   UNL A   1      40.097  31.577  33.152  1.00  0.00     0.010 A 
ATOM     33  C   UNL A   1      38.336  30.703  34.588  1.00  0.00     0.010 A 
ATOM     34  C   UNL A   1      39.670  31.098  34.395  1.00  0.00    -0.014 A 
BRANCH  34  35
ATOM     35  C   UNL A   1      40.716  30.740  35.373  1.00  0.00     0.031 A 
ATOM     36  C   UNL A   1      41.441  29.437  35.169  1.00  0.00     0.074 A 
ATOM     37  C   UNL A   1      41.086  31.593  36.342  1.00  0.00     0.049 A 
ATOM     38  N   UNL A   1      42.433  28.925  35.847  1.00  0.00    -0.248 NA
ATOM     39  C   UNL A   1      40.989  28.604  34.039  1.00  0.00     0.031 C 
ATOM     40  C   UNL A   1      40.499  32.910  36.583  1.00  0.00     0.029 A 
ATOM     41  N   UNL A   1      42.063  31.475  37.294  1.00  0.00    -0.354 N 
ATOM     42  C   UNL A   1      42.717  27.711  35.232  1.00  0.00     0.074 A 
ATOM     43  C   UNL A   1      41.777  27.546  34.149  1.00  0.00     0.031 C 
ATOM     44  C   UNL A   1      41.130  33.479  37.626  1.00  0.00     0.029 A 
ATOM     45  C   UNL A   1      42.140  32.554  38.136  1.00  0.00     0.049 A 
ATOM     46  H   UNL A   1      42.653  30.690  37.367  1.00  0.00     0.167 HD
ATOM     47  C   UNL A   1      43.682  26.815  35.540  1.00  0.00     0.031 A 
ATOM     48  C   UNL A   1      42.932  32.758  39.205  1.00  0.00     0.031 A 
ATOM     49  C   UNL A   1      44.607  26.978  36.628  1.00  0.00     0.049 A 
ATOM     50  C   UNL A   1      43.946  31.707  39.574  1.00  0.00     0.074 A 
ATOM     51  C   UNL A   1      45.624  26.132  37.028  1.00  0.00     0.029 A 
ATOM     52  N   UNL A   1      44.619  28.062  37.492  1.00  0.00    -0.354 N 
ATOM     53  N   UNL A   1      44.218  30.570  38.979  1.00  0.00    -0.248 NA
ATOM     54  C   UNL A   1      44.779  31.982  40.753  1.00  0.00     0.031 C 
ATOM     55  C   UNL A   1      46.211  26.672  38.177  1.00  0.00     0.029 A 
ATOM     56  C   UNL A   1      45.611  27.893  38.442  1.00  0.00     0.049 A 
ATOM     57  H   UNL A   1      44.013  28.836  37.439  1.00  0.00     0.167 HD
ATOM     58  C   UNL A   1      45.278  30.014  39.688  1.00  0.00     0.074 A 
ATOM     59  C   UNL A   1      45.609  30.950  40.742  1.00  0.00     0.031 C 
ATOM     60  C   UNL A   1      45.924  28.839  39.484  1.00  0.00     0.031 A 
BRANCH  47  61
ATOM     61  C   UNL A   1      43.747  25.558  34.720  1.00  0.00    -0.014 A 
ATOM     62  C   UNL A   1      43.031  24.404  35.080  1.00  0.00     0.009 A 
ATOM     63  C   UNL A   1      44.521  25.537  33.549  1.00  0.00     0.009 A 
ATOM     64  C   UNL A   1      43.114  23.249  34.299  1.00  0.00     0.001 A 
ATOM     65  C   UNL A   1      44.576  24.393  32.753  1.00  0.00     0.001 A 
ATOM     66  C   UNL A   1      43.879  23.248  33.133  1.00  0.00     0.000 A 
ENDBRANCH  47  61
BRANCH  48  67
ATOM     67  C   UNL A   1      42.786  33.992  40.023  1.00  0.00    -0.014 A 
ATOM     68  C   UNL A   1      41.893  34.043  41.104  1.00  0.00     0.009 A 
ATOM     69  C   UNL A   1      43.512  35.147  39.693  1.00  0.00     0.009 A 
ATOM     70  C   UNL A   1      41.700  35.233  41.809  1.00  0.00     0.001 A 
ATOM     71  C   UNL A   1      43.345  36.326  40.422  1.00  0.00     0.001 A 
ATOM     72  C   UNL A   1      42.428  36.373  41.470  1.00  0.00     0.000 A 
ENDBRANCH  48  67
BRANCH  60  73
ATOM     73  C   UNL A   1      47.093  28.533  40.381  1.00  0.00    -0.014 A 
ATOM     74  C   UNL A   1      46.939  27.819  41.580  1.00  0.00     0.009 A 
ATOM     75  C   UNL A   1      48.378  28.960  40.007  1.00  0.00     0.009 A 
ATOM     76  C   UNL A   1      48.038  27.591  42.411  1.00  0.00     0.001 A 
ATOM     77  C   UNL A   1      49.480  28.695  40.818  1.00  0.00     0.001 A 
ATOM     78  C   UNL A   1      49.307  28.026  42.029  1.00  0.00     0.000 A 
ENDBRANCH  60  73
ENDBRANCH  34  35
ENDBRANCH  27  29
ENDBRANCH  26  27
ENDBRANCH  25  26
ENDBRANCH  24  25
ENDBRANCH  23  24
ENDBRANCH  22  23
ENDBRANCH  21  22
ENDBRANCH  20  21
ENDBRANCH   1  20
TORSDOF 24
ENDMDL
MODEL 3
REMARK VINA RESULT:      -7.6      2.207      3.612
REMARK SMILES CCCC[C@H](C(=O)OCCOCCOCCOCCOC(=O)c1ccc(-c2c3nc(c(-c4ccccc4)c4ccc([nH]4)c(-c4ccccc4)c4nc(c(-c5ccccc5)c5ccc2[nH]5)C=C4)C=C3)cc1)c1ccnn1C
REMARK SMILES IDX 13 1 12 2 11 3 10 4 9 5 8 6 6 7 7 8 5 9 4 10 3 11 2 12 1 13
REMARK SMILES IDX 71 14 72 15 75 16 73 17 74 18 76 19 14 20 15 21 16 22 17 23
REMARK SMILES IDX 18 24 19 25 20 26 21 27 22 28 23 29 24 30 70 31 25 32 69 33
REMARK SMILES IDX 26 34 27 35 28 36 63 37 29 38 68 39 62 40 64 41 30 42 67 43
REMARK SMILES IDX 61 44 60 45 31 47 53 48 38 49 52 50 39 51 42 52 51 53 65 54
REMARK SMILES IDX 40 55 41 56 50 58 66 59 43 60 32 61 33 62 37 63 34 64 36 65
REMARK SMILES IDX 35 66 54 67 55 68 59 69 56 70 58 71 57 72 44 73 45 74 49 75
REMARK SMILES IDX 46 76 48 77 47 78
REMARK H PARENT 64 46 42 57
REMARK Flexibility Score: inf
ROOT
ATOM      1  C   UNL A   1      33.881  27.727  26.368  1.00  0.00     0.188 C 
ENDROOT
BRANCH   1   2
ATOM      2  C   UNL A   1      33.596  26.823  25.147  1.00  0.00     0.188 C 
BRANCH   2   3
ATOM      3  O   UNL A   1      33.676  25.444  25.455  1.00  0.00    -0.376 OA
BRANCH   3   4
ATOM      4  C   UNL A   1      33.240  24.456  24.549  1.00  0.00     0.202 C 
BRANCH   4   5
ATOM      5  C   UNL A   1      32.534  23.182  25.025  1.00  0.00     0.261 C 
BRANCH   5   6
ATOM      6  O   UNL A   1      33.086  22.480  26.139  1.00  0.00    -0.463 OA
BRANCH   6   7
ATOM      7  C   UNL A   1      33.324  21.146  26.028  1.00  0.00     0.315 C 
ATOM      8  O   UNL A   1      33.087  20.327  26.904  1.00  0.00    -0.251 OA
BRANCH   7   9
ATOM      9  C   UNL A   1      33.964  20.849  24.667  1.00  0.00     0.148 C 
BRANCH   9  10
ATOM     10  C   UNL A   1      35.484  20.769  24.827  1.00  0.00     0.022 C 
BRANCH  10  11
ATOM     11  C   UNL A   1      36.069  21.775  25.838  1.00  0.00     0.001 C 
BRANCH  11  12
ATOM     12  C   UNL A   1      37.512  22.252  25.639  1.00  0.00    -0.003 C 
ATOM     13  C   UNL A   1      37.751  23.726  25.936  1.00  0.00     0.004 C 
ENDBRANCH  11  12
ENDBRANCH  10  11
ENDBRANCH   9  10
BRANCH   9  14
ATOM     14  C   UNL A   1      33.321  19.646  24.007  1.00  0.00     0.052 A 
ATOM     15  C   UNL A   1      33.406  18.312  24.388  1.00  0.00     0.046 A 
ATOM     16  N   UNL A   1      32.539  19.627  22.874  1.00  0.00    -0.272 N 
ATOM     17  C   UNL A   1      32.819  17.581  23.343  1.00  0.00     0.135 A 
ATOM     18  N   UNL A   1      32.306  18.380  22.412  1.00  0.00    -0.182 NA
ATOM     19  C   UNL A   1      31.866  20.709  22.196  1.00  0.00     0.174 C 
ENDBRANCH   9  14
ENDBRANCH   7   9
ENDBRANCH   6   7
ENDBRANCH   5   6
ENDBRANCH   4   5
ENDBRANCH   3   4
ENDBRANCH   2   3
ENDBRANCH   1   2
BRANCH   1  20
ATOM     20  O   UNL A   1      33.109  28.897  26.586  1.00  0.00    -0.377 OA
BRANCH  20  21
ATOM     21  C   UNL A   1      33.791  30.123  26.451  1.00  0.00     0.188 C 
BRANCH  21  22
ATOM     22  C   UNL A   1      34.097  30.792  27.804  1.00  0.00     0.188 C 
BRANCH  22  23
ATOM     23  O   UNL A   1      34.917  31.944  27.898  1.00  0.00    -0.376 OA
BRANCH  23  24
ATOM     24  C   UNL A   1      34.786  32.939  28.900  1.00  0.00     0.202 C 
BRANCH  24  25
ATOM     25  C   UNL A   1      34.858  32.715  30.422  1.00  0.00     0.261 C 
BRANCH  25  26
ATOM     26  O   UNL A   1      36.139  32.586  31.027  1.00  0.00    -0.460 OA
BRANCH  26  27
ATOM     27  C   UNL A   1      36.526  31.327  31.294  1.00  0.00     0.338 C 
ATOM     28  O   UNL A   1      35.835  30.402  31.695  1.00  0.00    -0.246 OA
BRANCH  27  29
ATOM     29  C   UNL A   1      37.918  31.179  30.841  1.00  0.00     0.060 A 
ATOM     30  C   UNL A   1      38.161  31.163  29.462  1.00  0.00     0.016 A 
ATOM     31  C   UNL A   1      38.966  31.050  31.756  1.00  0.00     0.016 A 
ATOM     32  C   UNL A   1      39.449  30.975  28.988  1.00  0.00     0.010 A 
ATOM     33  C   UNL A   1      40.255  30.810  31.279  1.00  0.00     0.010 A 
ATOM     34  C   UNL A   1      40.482  30.721  29.895  1.00  0.00    -0.014 A 
BRANCH  34  35
ATOM     35  C   UNL A   1      41.698  30.072  29.366  1.00  0.00     0.031 A 
ATOM     36  C   UNL A   1      42.951  30.902  29.292  1.00  0.00     0.074 A 
ATOM     37  C   UNL A   1      41.717  28.763  29.069  1.00  0.00     0.049 A 
ATOM     38  N   UNL A   1      44.156  30.555  28.926  1.00  0.00    -0.248 NA
ATOM     39  C   UNL A   1      42.828  32.315  29.697  1.00  0.00     0.031 C 
ATOM     40  C   UNL A   1      40.579  27.852  29.174  1.00  0.00     0.029 A 
ATOM     41  N   UNL A   1      42.748  27.974  28.633  1.00  0.00    -0.354 N 
ATOM     42  C   UNL A   1      44.928  31.704  29.048  1.00  0.00     0.074 A 
ATOM     43  C   UNL A   1      44.055  32.766  29.491  1.00  0.00     0.031 C 
ATOM     44  C   UNL A   1      40.976  26.621  28.804  1.00  0.00     0.029 A 
ATOM     45  C   UNL A   1      42.384  26.670  28.414  1.00  0.00     0.049 A 
ATOM     46  H   UNL A   1      43.662  28.310  28.489  1.00  0.00     0.167 HD
ATOM     47  C   UNL A   1      46.252  31.860  28.817  1.00  0.00     0.031 A 
ATOM     48  C   UNL A   1      43.110  25.640  27.939  1.00  0.00     0.031 A 
ATOM     49  C   UNL A   1      47.113  30.803  28.363  1.00  0.00     0.049 A 
ATOM     50  C   UNL A   1      44.564  25.861  27.614  1.00  0.00     0.074 A 
ATOM     51  C   UNL A   1      48.469  30.850  28.097  1.00  0.00     0.029 A 
ATOM     52  N   UNL A   1      46.696  29.507  28.102  1.00  0.00    -0.354 N 
ATOM     53  N   UNL A   1      45.289  26.946  27.746  1.00  0.00    -0.248 NA
ATOM     54  C   UNL A   1      45.305  24.703  27.095  1.00  0.00     0.031 C 
ATOM     55  C   UNL A   1      48.860  29.599  27.612  1.00  0.00     0.029 A 
ATOM     56  C   UNL A   1      47.764  28.751  27.652  1.00  0.00     0.049 A 
ATOM     57  H   UNL A   1      45.777  29.173  28.218  1.00  0.00     0.167 HD
ATOM     58  C   UNL A   1      46.578  26.591  27.364  1.00  0.00     0.074 A 
ATOM     59  C   UNL A   1      46.535  25.186  27.015  1.00  0.00     0.031 C 
ATOM     60  C   UNL A   1      47.699  27.352  27.311  1.00  0.00     0.031 A 
BRANCH  47  61
ATOM     61  C   UNL A   1      46.831  33.234  29.001  1.00  0.00    -0.014 A 
ATOM     62  C   UNL A   1      46.853  34.172  27.957  1.00  0.00     0.009 A 
ATOM     63  C   UNL A   1      47.341  33.604  30.256  1.00  0.00     0.009 A 
ATOM     64  C   UNL A   1      47.400  35.441  28.157  1.00  0.00     0.001 A 
ATOM     65  C   UNL A   1      47.858  34.883  30.463  1.00  0.00     0.001 A 
ATOM     66  C   UNL A   1      47.894  35.797  29.412  1.00  0.00     0.000 A 
ENDBRANCH  47  61
BRANCH  48  67
ATOM     67  C   UNL A   1      42.474  24.314  27.714  1.00  0.00    -0.014 A 
ATOM     68  C   UNL A   1      41.823  24.019  26.507  1.00  0.00     0.009 A 
ATOM     69  C   UNL A   1      42.477  23.349  28.733  1.00  0.00     0.009 A 
ATOM     70  C   UNL A   1      41.155  22.804  26.340  1.00  0.00     0.001 A 
ATOM     71  C   UNL A   1      41.839  22.120  28.552  1.00  0.00     0.001 A 
ATOM     72  C   UNL A   1      41.166  21.854  27.361  1.00  0.00     0.000 A 
ENDBRANCH  48  67
BRANCH  60  73
ATOM     73  C   UNL A   1      48.980  26.665  26.920  1.00  0.00    -0.014 A 
ATOM     74  C   UNL A   1      49.768  25.979  27.857  1.00  0.00     0.009 A 
ATOM     75  C   UNL A   1      49.395  26.696  25.578  1.00  0.00     0.009 A 
ATOM     76  C   UNL A   1      50.973  25.390  27.468  1.00  0.00     0.001 A 
ATOM     77  C   UNL A   1      50.578  26.071  25.185  1.00  0.00     0.001 A 
ATOM     78  C   UNL A   1      51.375  25.434  26.133  1.00  0.00     0.000 A 
ENDBRANCH  60  73
ENDBRANCH  34  35
ENDBRANCH  27  29
ENDBRANCH  26  27
ENDBRANCH  25  26
ENDBRANCH  24  25
ENDBRANCH  23  24
ENDBRANCH  22  23
ENDBRANCH  21  22
ENDBRANCH  20  21
ENDBRANCH   1  20
TORSDOF 24
ENDMDL
