MODEL 1
REMARK VINA RESULT:      -9.9      0.000      0.000
REMARK SMILES O=C(OCCOCCOCCOCCOC(=O)[C@H]1C[C@](O)(c2ccccc2Cl)[C@@H](c2ccccc2Cl)O1)c1ccc(-c2c3nc(c(-c4ccccc4)c4ccc([nH]4)c(-c4ccccc4)c4nc(c(-c5ccccc5)c5ccc2[nH]5)C=C4)C=C3)cc1
REMARK SMILES IDX 8 1 7 2 6 3 5 4 4 5 3 6 2 7 1 8 38 9 39 10 85 11 40 12 84 13
REMARK SMILES IDX 41 14 42 15 43 16 78 17 44 18 83 19 77 20 79 21 45 22 82 23
REMARK SMILES IDX 76 24 75 25 46 27 68 28 53 29 67 30 54 31 57 32 66 33 80 34
REMARK SMILES IDX 55 35 56 36 65 38 81 39 58 40 47 41 48 42 52 43 49 44 51 45
REMARK SMILES IDX 50 46 69 47 70 48 74 49 71 50 73 51 72 52 59 53 60 54 64 55
REMARK SMILES IDX 61 56 63 57 62 58 9 59 10 60 11 61 12 62 13 63 14 64 15 65
REMARK SMILES IDX 16 66 17 67 18 68 19 69 37 70 20 71 29 72 22 73 23 74 27 75
REMARK SMILES IDX 24 76 26 77 28 78 25 79 21 80 30 82 31 83 35 84 32 85 34 86
REMARK SMILES IDX 36 87 33 88
REMARK H PARENT 79 26 57 37 21 81
REMARK Flexibility Score: inf
ROOT
ATOM      1  C   UNL A   1      33.354  21.802  26.048  1.00  0.00     0.188 C 
ENDROOT
BRANCH   1   2
ATOM      2  C   UNL A   1      34.747  21.421  25.559  1.00  0.00     0.188 C 
BRANCH   2   3
ATOM      3  O   UNL A   1      35.374  22.455  24.818  1.00  0.00    -0.376 OA
BRANCH   3   4
ATOM      4  C   UNL A   1      36.749  22.309  24.524  1.00  0.00     0.202 C 
BRANCH   4   5
ATOM      5  C   UNL A   1      37.211  20.995  25.167  1.00  0.00     0.261 C 
BRANCH   5   6
ATOM      6  O   UNL A   1      38.060  21.107  26.341  1.00  0.00    -0.460 OA
BRANCH   6   7
ATOM      7  C   UNL A   1      39.394  21.314  26.201  1.00  0.00     0.338 C 
ATOM      8  O   UNL A   1      40.112  20.588  25.522  1.00  0.00    -0.246 OA
BRANCH   7   9
ATOM      9  C   UNL A   1      39.868  22.633  26.726  1.00  0.00     0.060 A 
ATOM     10  C   UNL A   1      39.346  23.865  26.297  1.00  0.00     0.016 A 
ATOM     11  C   UNL A   1      40.845  22.626  27.729  1.00  0.00     0.016 A 
ATOM     12  C   UNL A   1      39.812  25.068  26.823  1.00  0.00     0.010 A 
ATOM     13  C   UNL A   1      41.340  23.829  28.237  1.00  0.00     0.010 A 
ATOM     14  C   UNL A   1      40.848  25.052  27.754  1.00  0.00    -0.014 A 
BRANCH  14  15
ATOM     15  C   UNL A   1      41.611  26.290  28.010  1.00  0.00     0.031 A 
ATOM     16  C   UNL A   1      40.951  27.328  28.868  1.00  0.00     0.074 A 
ATOM     17  C   UNL A   1      42.841  26.484  27.509  1.00  0.00     0.049 A 
ATOM     18  N   UNL A   1      41.299  28.565  29.098  1.00  0.00    -0.248 NA
ATOM     19  C   UNL A   1      39.715  26.908  29.553  1.00  0.00     0.031 C 
ATOM     20  C   UNL A   1      43.616  25.501  26.755  1.00  0.00     0.029 A 
ATOM     21  N   UNL A   1      43.644  27.595  27.550  1.00  0.00    -0.354 N 
ATOM     22  C   UNL A   1      40.301  29.082  29.914  1.00  0.00     0.074 A 
ATOM     23  C   UNL A   1      39.340  28.029  30.143  1.00  0.00     0.031 C 
ATOM     24  C   UNL A   1      44.777  26.065  26.377  1.00  0.00     0.029 A 
ATOM     25  C   UNL A   1      44.793  27.461  26.812  1.00  0.00     0.049 A 
ATOM     26  H   UNL A   1      43.418  28.408  28.057  1.00  0.00     0.167 HD
ATOM     27  C   UNL A   1      40.185  30.336  30.407  1.00  0.00     0.031 A 
ATOM     28  C   UNL A   1      45.720  28.383  26.484  1.00  0.00     0.031 A 
ATOM     29  C   UNL A   1      41.137  31.377  30.140  1.00  0.00     0.049 A 
ATOM     30  C   UNL A   1      45.540  29.798  26.972  1.00  0.00     0.074 A 
ATOM     31  C   UNL A   1      41.119  32.696  30.554  1.00  0.00     0.029 A 
ATOM     32  N   UNL A   1      42.282  31.207  29.373  1.00  0.00    -0.354 N 
ATOM     33  N   UNL A   1      44.579  30.297  27.715  1.00  0.00    -0.248 NA
ATOM     34  C   UNL A   1      46.561  30.776  26.574  1.00  0.00     0.031 C 
ATOM     35  C   UNL A   1      42.228  33.336  29.991  1.00  0.00     0.029 A 
ATOM     36  C   UNL A   1      42.970  32.401  29.283  1.00  0.00     0.049 A 
ATOM     37  H   UNL A   1      42.562  30.360  28.957  1.00  0.00     0.167 HD
ATOM     38  C   UNL A   1      44.889  31.641  27.890  1.00  0.00     0.074 A 
ATOM     39  C   UNL A   1      46.132  31.875  27.181  1.00  0.00     0.031 C 
ATOM     40  C   UNL A   1      44.212  32.594  28.575  1.00  0.00     0.031 A 
BRANCH  27  41
ATOM     41  C   UNL A   1      38.939  30.644  31.187  1.00  0.00    -0.014 A 
ATOM     42  C   UNL A   1      38.880  30.486  32.581  1.00  0.00     0.009 A 
ATOM     43  C   UNL A   1      37.779  31.033  30.499  1.00  0.00     0.009 A 
ATOM     44  C   UNL A   1      37.670  30.654  33.260  1.00  0.00     0.001 A 
ATOM     45  C   UNL A   1      36.579  31.232  31.184  1.00  0.00     0.001 A 
ATOM     46  C   UNL A   1      36.522  31.026  32.562  1.00  0.00     0.000 A 
ENDBRANCH  27  41
BRANCH  28  47
ATOM     47  C   UNL A   1      46.859  28.003  25.606  1.00  0.00    -0.014 A 
ATOM     48  C   UNL A   1      48.080  27.579  26.150  1.00  0.00     0.009 A 
ATOM     49  C   UNL A   1      46.717  28.031  24.208  1.00  0.00     0.009 A 
ATOM     50  C   UNL A   1      49.134  27.196  25.314  1.00  0.00     0.001 A 
ATOM     51  C   UNL A   1      47.762  27.622  23.376  1.00  0.00     0.001 A 
ATOM     52  C   UNL A   1      48.971  27.210  23.929  1.00  0.00     0.000 A 
ENDBRANCH  28  47
BRANCH  40  53
ATOM     53  C   UNL A   1      44.816  33.967  28.640  1.00  0.00    -0.014 A 
ATOM     54  C   UNL A   1      45.840  34.271  29.548  1.00  0.00     0.009 A 
ATOM     55  C   UNL A   1      44.426  34.933  27.699  1.00  0.00     0.009 A 
ATOM     56  C   UNL A   1      46.455  35.524  29.518  1.00  0.00     0.001 A 
ATOM     57  C   UNL A   1      45.059  36.174  27.655  1.00  0.00     0.001 A 
ATOM     58  C   UNL A   1      46.071  36.470  28.566  1.00  0.00     0.000 A 
ENDBRANCH  40  53
ENDBRANCH  14  15
ENDBRANCH   7   9
ENDBRANCH   6   7
ENDBRANCH   5   6
ENDBRANCH   4   5
ENDBRANCH   3   4
ENDBRANCH   2   3
ENDBRANCH   1   2
BRANCH   1  59
ATOM     59  O   UNL A   1      32.296  21.269  25.261  1.00  0.00    -0.377 OA
BRANCH  59  60
ATOM     60  C   UNL A   1      32.680  20.361  24.227  1.00  0.00     0.188 C 
BRANCH  60  61
ATOM     61  C   UNL A   1      32.133  20.720  22.857  1.00  0.00     0.188 C 
BRANCH  61  62
ATOM     62  O   UNL A   1      31.990  22.136  22.805  1.00  0.00    -0.376 OA
BRANCH  62  63
ATOM     63  C   UNL A   1      33.083  22.811  22.196  1.00  0.00     0.202 C 
BRANCH  63  64
ATOM     64  C   UNL A   1      32.838  24.233  21.641  1.00  0.00     0.261 C 
BRANCH  64  65
ATOM     65  O   UNL A   1      33.829  25.232  21.949  1.00  0.00    -0.461 OA
BRANCH  65  66
ATOM     66  C   UNL A   1      33.829  25.841  23.164  1.00  0.00     0.335 C 
ATOM     67  O   UNL A   1      34.421  25.412  24.147  1.00  0.00    -0.249 OA
BRANCH  66  68
ATOM     68  C   UNL A   1      32.971  27.134  23.147  1.00  0.00     0.232 C 
ATOM     69  C   UNL A   1      31.604  26.928  23.785  1.00  0.00     0.087 C 
ATOM     70  O   UNL A   1      33.573  28.191  23.873  1.00  0.00    -0.355 OA
ATOM     71  C   UNL A   1      31.220  28.266  24.454  1.00  0.00     0.124 C 
ATOM     72  C   UNL A   1      32.567  29.064  24.442  1.00  0.00     0.187 C 
BRANCH  71  73
ATOM     73  C   UNL A   1      29.900  28.815  23.885  1.00  0.00     0.005 A 
ATOM     74  C   UNL A   1      29.895  30.216  23.615  1.00  0.00     0.008 A 
ATOM     75  C   UNL A   1      28.722  28.130  23.542  1.00  0.00     0.047 A 
ATOM     76  C   UNL A   1      28.851  30.867  22.955  1.00  0.00     0.001 A 
ATOM     77  C   UNL A   1      27.680  28.785  22.851  1.00  0.00     0.021 A 
ATOM     78  Cl  UNL A   1      28.346  26.506  23.979  1.00  0.00    -0.084 Cl
ATOM     79  C   UNL A   1      27.751  30.141  22.542  1.00  0.00     0.002 A 
ENDBRANCH  71  73
BRANCH  71  80
ATOM     80  O   UNL A   1      30.855  28.015  25.838  1.00  0.00    -0.382 OA
ATOM     81  H   UNL A   1      31.521  28.407  26.425  1.00  0.00     0.212 HD
ENDBRANCH  71  80
BRANCH  72  82
ATOM     82  C   UNL A   1      33.165  29.523  25.768  1.00  0.00     0.003 A 
ATOM     83  C   UNL A   1      34.323  28.878  26.261  1.00  0.00     0.008 A 
ATOM     84  C   UNL A   1      32.702  30.646  26.476  1.00  0.00     0.046 A 
ATOM     85  C   UNL A   1      35.009  29.350  27.382  1.00  0.00     0.000 A 
ATOM     86  C   UNL A   1      33.392  31.115  27.605  1.00  0.00     0.021 A 
ATOM     87  Cl  UNL A   1      31.310  31.550  26.000  1.00  0.00    -0.084 Cl
ATOM     88  C   UNL A   1      34.547  30.476  28.050  1.00  0.00     0.002 A 
ENDBRANCH  72  82
ENDBRANCH  66  68
ENDBRANCH  65  66
ENDBRANCH  64  65
ENDBRANCH  63  64
ENDBRANCH  62  63
ENDBRANCH  61  62
ENDBRANCH  60  61
ENDBRANCH  59  60
ENDBRANCH   1  59
TORSDOF 23
ENDMDL
MODEL 2
REMARK VINA RESULT:      -9.8      1.571      2.342
REMARK SMILES O=C(OCCOCCOCCOCCOC(=O)[C@H]1C[C@](O)(c2ccccc2Cl)[C@@H](c2ccccc2Cl)O1)c1ccc(-c2c3nc(c(-c4ccccc4)c4ccc([nH]4)c(-c4ccccc4)c4nc(c(-c5ccccc5)c5ccc2[nH]5)C=C4)C=C3)cc1
REMARK SMILES IDX 8 1 7 2 6 3 5 4 4 5 3 6 2 7 1 8 38 9 39 10 85 11 40 12 84 13
REMARK SMILES IDX 41 14 42 15 43 16 78 17 44 18 83 19 77 20 79 21 45 22 82 23
REMARK SMILES IDX 76 24 75 25 46 27 68 28 53 29 67 30 54 31 57 32 66 33 80 34
REMARK SMILES IDX 55 35 56 36 65 38 81 39 58 40 47 41 48 42 52 43 49 44 51 45
REMARK SMILES IDX 50 46 69 47 70 48 74 49 71 50 73 51 72 52 59 53 60 54 64 55
REMARK SMILES IDX 61 56 63 57 62 58 9 59 10 60 11 61 12 62 13 63 14 64 15 65
REMARK SMILES IDX 16 66 17 67 18 68 19 69 37 70 20 71 29 72 22 73 23 74 27 75
REMARK SMILES IDX 24 76 26 77 28 78 25 79 21 80 30 82 31 83 35 84 32 85 34 86
REMARK SMILES IDX 36 87 33 88
REMARK H PARENT 79 26 57 37 21 81
REMARK Flexibility Score: inf
ROOT
ATOM      1  C   UNL A   1      33.769  21.436  25.881  1.00  0.00     0.188 C 
ENDROOT
BRANCH   1   2
ATOM      2  C   UNL A   1      34.860  20.689  25.121  1.00  0.00     0.188 C 
BRANCH   2   3
ATOM      3  O   UNL A   1      36.104  21.367  25.133  1.00  0.00    -0.376 OA
BRANCH   3   4
ATOM      4  C   UNL A   1      37.271  20.602  24.896  1.00  0.00     0.202 C 
BRANCH   4   5
ATOM      5  C   UNL A   1      38.400  21.239  25.715  1.00  0.00     0.261 C 
BRANCH   5   6
ATOM      6  O   UNL A   1      39.749  20.782  25.431  1.00  0.00    -0.460 OA
BRANCH   6   7
ATOM      7  C   UNL A   1      40.597  20.482  26.449  1.00  0.00     0.338 C 
ATOM      8  O   UNL A   1      40.692  19.356  26.925  1.00  0.00    -0.246 OA
BRANCH   7   9
ATOM      9  C   UNL A   1      41.580  21.565  26.766  1.00  0.00     0.060 A 
ATOM     10  C   UNL A   1      42.072  21.805  28.060  1.00  0.00     0.016 A 
ATOM     11  C   UNL A   1      42.063  22.342  25.706  1.00  0.00     0.016 A 
ATOM     12  C   UNL A   1      42.994  22.819  28.305  1.00  0.00     0.010 A 
ATOM     13  C   UNL A   1      42.962  23.383  25.950  1.00  0.00     0.010 A 
ATOM     14  C   UNL A   1      43.398  23.644  27.258  1.00  0.00    -0.014 A 
BRANCH  14  15
ATOM     15  C   UNL A   1      44.037  24.939  27.562  1.00  0.00     0.031 A 
ATOM     16  C   UNL A   1      43.137  26.050  28.015  1.00  0.00     0.074 A 
ATOM     17  C   UNL A   1      45.362  25.122  27.451  1.00  0.00     0.049 A 
ATOM     18  N   UNL A   1      43.391  27.322  28.166  1.00  0.00    -0.248 NA
ATOM     19  C   UNL A   1      41.749  25.667  28.330  1.00  0.00     0.031 C 
ATOM     20  C   UNL A   1      46.339  24.086  27.125  1.00  0.00     0.029 A 
ATOM     21  N   UNL A   1      46.108  26.266  27.584  1.00  0.00    -0.354 N 
ATOM     22  C   UNL A   1      42.184  27.895  28.546  1.00  0.00     0.074 A 
ATOM     23  C   UNL A   1      41.203  26.838  28.608  1.00  0.00     0.031 C 
ATOM     24  C   UNL A   1      47.558  24.648  27.055  1.00  0.00     0.029 A 
ATOM     25  C   UNL A   1      47.433  26.089  27.272  1.00  0.00     0.049 A 
ATOM     26  H   UNL A   1      45.730  27.127  27.875  1.00  0.00     0.167 HD
ATOM     27  C   UNL A   1      41.915  29.197  28.796  1.00  0.00     0.031 A 
ATOM     28  C   UNL A   1      48.413  27.002  27.124  1.00  0.00     0.031 A 
ATOM     29  C   UNL A   1      42.900  30.237  28.697  1.00  0.00     0.049 A 
ATOM     30  C   UNL A   1      48.084  28.459  27.326  1.00  0.00     0.074 A 
ATOM     31  C   UNL A   1      42.748  31.596  28.894  1.00  0.00     0.029 A 
ATOM     32  N   UNL A   1      44.229  30.020  28.360  1.00  0.00    -0.354 N 
ATOM     33  N   UNL A   1      46.936  29.007  27.652  1.00  0.00    -0.248 NA
ATOM     34  C   UNL A   1      49.176  29.423  27.135  1.00  0.00     0.031 C 
ATOM     35  C   UNL A   1      43.977  32.207  28.624  1.00  0.00     0.029 A 
ATOM     36  C   UNL A   1      44.907  31.223  28.323  1.00  0.00     0.049 A 
ATOM     37  H   UNL A   1      44.629  29.140  28.176  1.00  0.00     0.167 HD
ATOM     38  C   UNL A   1      47.171  30.375  27.725  1.00  0.00     0.074 A 
ATOM     39  C   UNL A   1      48.574  30.571  27.416  1.00  0.00     0.031 C 
ATOM     40  C   UNL A   1      46.309  31.378  28.021  1.00  0.00     0.031 A 
BRANCH  27  41
ATOM     41  C   UNL A   1      40.484  29.546  29.093  1.00  0.00    -0.014 A 
ATOM     42  C   UNL A   1      40.033  29.763  30.405  1.00  0.00     0.009 A 
ATOM     43  C   UNL A   1      39.557  29.590  28.041  1.00  0.00     0.009 A 
ATOM     44  C   UNL A   1      38.672  29.956  30.661  1.00  0.00     0.001 A 
ATOM     45  C   UNL A   1      38.203  29.817  28.296  1.00  0.00     0.001 A 
ATOM     46  C   UNL A   1      37.760  29.983  29.607  1.00  0.00     0.000 A 
ENDBRANCH  27  41
BRANCH  28  47
ATOM     47  C   UNL A   1      49.773  26.562  26.711  1.00  0.00    -0.014 A 
ATOM     48  C   UNL A   1      50.721  26.158  27.662  1.00  0.00     0.009 A 
ATOM     49  C   UNL A   1      50.119  26.513  25.350  1.00  0.00     0.009 A 
ATOM     50  C   UNL A   1      51.986  25.719  27.259  1.00  0.00     0.001 A 
ATOM     51  C   UNL A   1      51.373  26.049  24.948  1.00  0.00     0.001 A 
ATOM     52  C   UNL A   1      52.308  25.657  25.903  1.00  0.00     0.000 A 
ENDBRANCH  28  47
BRANCH  40  53
ATOM     53  C   UNL A   1      46.858  32.775  28.079  1.00  0.00    -0.014 A 
ATOM     54  C   UNL A   1      47.383  33.303  29.266  1.00  0.00     0.009 A 
ATOM     55  C   UNL A   1      46.950  33.524  26.895  1.00  0.00     0.009 A 
ATOM     56  C   UNL A   1      47.980  34.566  29.268  1.00  0.00     0.001 A 
ATOM     57  C   UNL A   1      47.570  34.773  26.894  1.00  0.00     0.001 A 
ATOM     58  C   UNL A   1      48.082  35.294  28.081  1.00  0.00     0.000 A 
ENDBRANCH  40  53
ENDBRANCH  14  15
ENDBRANCH   7   9
ENDBRANCH   6   7
ENDBRANCH   5   6
ENDBRANCH   4   5
ENDBRANCH   3   4
ENDBRANCH   2   3
ENDBRANCH   1   2
BRANCH   1  59
ATOM     59  O   UNL A   1      32.472  21.308  25.310  1.00  0.00    -0.377 OA
BRANCH  59  60
ATOM     60  C   UNL A   1      32.357  20.400  24.214  1.00  0.00     0.188 C 
BRANCH  60  61
ATOM     61  C   UNL A   1      32.155  21.078  22.870  1.00  0.00     0.188 C 
BRANCH  61  62
ATOM     62  O   UNL A   1      32.154  22.485  23.092  1.00  0.00    -0.376 OA
BRANCH  62  63
ATOM     63  C   UNL A   1      33.226  23.175  22.463  1.00  0.00     0.202 C 
BRANCH  63  64
ATOM     64  C   UNL A   1      34.111  24.091  23.339  1.00  0.00     0.261 C 
BRANCH  64  65
ATOM     65  O   UNL A   1      33.852  25.507  23.270  1.00  0.00    -0.461 OA
BRANCH  65  66
ATOM     66  C   UNL A   1      33.378  26.058  22.122  1.00  0.00     0.335 C 
ATOM     67  O   UNL A   1      33.603  25.614  21.003  1.00  0.00    -0.249 OA
BRANCH  66  68
ATOM     68  C   UNL A   1      32.534  27.327  22.412  1.00  0.00     0.232 C 
ATOM     69  C   UNL A   1      31.220  27.001  23.108  1.00  0.00     0.087 C 
ATOM     70  O   UNL A   1      33.202  28.236  23.270  1.00  0.00    -0.355 OA
ATOM     71  C   UNL A   1      30.904  28.191  24.041  1.00  0.00     0.124 C 
ATOM     72  C   UNL A   1      32.253  28.984  24.069  1.00  0.00     0.187 C 
BRANCH  71  73
ATOM     73  C   UNL A   1      29.548  28.828  23.690  1.00  0.00     0.005 A 
ATOM     74  C   UNL A   1      29.578  30.241  23.497  1.00  0.00     0.008 A 
ATOM     75  C   UNL A   1      28.301  28.216  23.479  1.00  0.00     0.047 A 
ATOM     76  C   UNL A   1      28.488  30.975  23.023  1.00  0.00     0.001 A 
ATOM     77  C   UNL A   1      27.209  28.955  22.974  1.00  0.00     0.021 A 
ATOM     78  Cl  UNL A   1      27.906  26.587  23.878  1.00  0.00    -0.084 Cl
ATOM     79  C   UNL A   1      27.306  30.322  22.729  1.00  0.00     0.002 A 
ENDBRANCH  71  73
BRANCH  71  80
ATOM     80  O   UNL A   1      30.648  27.687  25.380  1.00  0.00    -0.382 OA
ATOM     81  H   UNL A   1      30.089  26.896  25.328  1.00  0.00     0.212 HD
ENDBRANCH  71  80
BRANCH  72  82
ATOM     82  C   UNL A   1      32.960  29.194  25.404  1.00  0.00     0.003 A 
ATOM     83  C   UNL A   1      34.050  28.361  25.745  1.00  0.00     0.008 A 
ATOM     84  C   UNL A   1      32.667  30.260  26.273  1.00  0.00     0.046 A 
ATOM     85  C   UNL A   1      34.836  28.600  26.874  1.00  0.00     0.000 A 
ATOM     86  C   UNL A   1      33.457  30.495  27.409  1.00  0.00     0.021 A 
ATOM     87  Cl  UNL A   1      31.376  31.373  25.995  1.00  0.00    -0.084 Cl
ATOM     88  C   UNL A   1      34.544  29.675  27.702  1.00  0.00     0.002 A 
ENDBRANCH  72  82
ENDBRANCH  66  68
ENDBRANCH  65  66
ENDBRANCH  64  65
ENDBRANCH  63  64
ENDBRANCH  62  63
ENDBRANCH  61  62
ENDBRANCH  60  61
ENDBRANCH  59  60
ENDBRANCH   1  59
TORSDOF 23
ENDMDL
MODEL 3
REMARK VINA RESULT:      -9.6      3.948      8.683
REMARK SMILES O=C(OCCOCCOCCOCCOC(=O)[C@H]1C[C@](O)(c2ccccc2Cl)[C@@H](c2ccccc2Cl)O1)c1ccc(-c2c3nc(c(-c4ccccc4)c4ccc([nH]4)c(-c4ccccc4)c4nc(c(-c5ccccc5)c5ccc2[nH]5)C=C4)C=C3)cc1
REMARK SMILES IDX 8 1 7 2 6 3 5 4 4 5 3 6 2 7 1 8 38 9 39 10 85 11 40 12 84 13
REMARK SMILES IDX 41 14 42 15 43 16 78 17 44 18 83 19 77 20 79 21 45 22 82 23
REMARK SMILES IDX 76 24 75 25 46 27 68 28 53 29 67 30 54 31 57 32 66 33 80 34
REMARK SMILES IDX 55 35 56 36 65 38 81 39 58 40 47 41 48 42 52 43 49 44 51 45
REMARK SMILES IDX 50 46 69 47 70 48 74 49 71 50 73 51 72 52 59 53 60 54 64 55
REMARK SMILES IDX 61 56 63 57 62 58 9 59 10 60 11 61 12 62 13 63 14 64 15 65
REMARK SMILES IDX 16 66 17 67 18 68 19 69 37 70 20 71 29 72 22 73 23 74 27 75
REMARK SMILES IDX 24 76 26 77 28 78 25 79 21 80 30 82 31 83 35 84 32 85 34 86
REMARK SMILES IDX 36 87 33 88
REMARK H PARENT 79 26 57 37 21 81
REMARK Flexibility Score: inf
ROOT
ATOM      1  C   UNL A   1      44.710  19.404  24.260  1.00  0.00     0.188 C 
ENDROOT
BRANCH   1   2
ATOM      2  C   UNL A   1      45.960  20.058  24.838  1.00  0.00     0.188 C 
BRANCH   2   3
ATOM      3  O   UNL A   1      45.848  21.467  24.942  1.00  0.00    -0.376 OA
BRANCH   3   4
ATOM      4  C   UNL A   1      45.176  22.150  23.902  1.00  0.00     0.202 C 
BRANCH   4   5
ATOM      5  C   UNL A   1      44.813  23.540  24.439  1.00  0.00     0.261 C 
BRANCH   5   6
ATOM      6  O   UNL A   1      44.364  23.610  25.819  1.00  0.00    -0.460 OA
BRANCH   6   7
ATOM      7  C   UNL A   1      43.037  23.626  26.105  1.00  0.00     0.338 C 
ATOM      8  O   UNL A   1      42.312  22.648  25.955  1.00  0.00    -0.246 OA
BRANCH   7   9
ATOM      9  C   UNL A   1      42.587  24.842  26.853  1.00  0.00     0.060 A 
ATOM     10  C   UNL A   1      43.367  26.004  26.975  1.00  0.00     0.016 A 
ATOM     11  C   UNL A   1      41.304  24.828  27.415  1.00  0.00     0.016 A 
ATOM     12  C   UNL A   1      42.901  27.116  27.674  1.00  0.00     0.010 A 
ATOM     13  C   UNL A   1      40.844  25.926  28.145  1.00  0.00     0.010 A 
ATOM     14  C   UNL A   1      41.661  27.056  28.305  1.00  0.00    -0.014 A 
BRANCH  14  15
ATOM     15  C   UNL A   1      41.338  28.039  29.358  1.00  0.00     0.031 A 
ATOM     16  C   UNL A   1      42.142  27.969  30.622  1.00  0.00     0.074 A 
ATOM     17  C   UNL A   1      40.376  28.961  29.199  1.00  0.00     0.049 A 
ATOM     18  N   UNL A   1      41.955  28.570  31.765  1.00  0.00    -0.248 NA
ATOM     19  C   UNL A   1      43.320  27.083  30.587  1.00  0.00     0.031 C 
ATOM     20  C   UNL A   1      39.609  29.187  27.977  1.00  0.00     0.029 A 
ATOM     21  N   UNL A   1      39.871  29.871  30.094  1.00  0.00    -0.354 N 
ATOM     22  C   UNL A   1      42.962  28.097  32.598  1.00  0.00     0.074 A 
ATOM     23  C   UNL A   1      43.758  27.168  31.831  1.00  0.00     0.031 C 
ATOM     24  C   UNL A   1      38.706  30.157  28.206  1.00  0.00     0.029 A 
ATOM     25  C   UNL A   1      38.796  30.571  29.605  1.00  0.00     0.049 A 
ATOM     26  H   UNL A   1      40.242  30.007  30.995  1.00  0.00     0.167 HD
ATOM     27  C   UNL A   1      43.185  28.396  33.899  1.00  0.00     0.031 A 
ATOM     28  C   UNL A   1      37.952  31.409  30.241  1.00  0.00     0.031 A 
ATOM     29  C   UNL A   1      42.361  29.299  34.651  1.00  0.00     0.049 A 
ATOM     30  C   UNL A   1      38.161  31.672  31.710  1.00  0.00     0.074 A 
ATOM     31  C   UNL A   1      42.462  29.661  35.980  1.00  0.00     0.029 A 
ATOM     32  N   UNL A   1      41.269  29.977  34.125  1.00  0.00    -0.354 N 
ATOM     33  N   UNL A   1      39.091  31.200  32.508  1.00  0.00    -0.248 NA
ATOM     34  C   UNL A   1      37.206  32.573  32.369  1.00  0.00     0.031 C 
ATOM     35  C   UNL A   1      41.396  30.520  36.272  1.00  0.00     0.029 A 
ATOM     36  C   UNL A   1      40.673  30.742  35.109  1.00  0.00     0.049 A 
ATOM     37  H   UNL A   1      40.966  29.922  33.191  1.00  0.00     0.167 HD
ATOM     38  C   UNL A   1      38.847  31.760  33.756  1.00  0.00     0.074 A 
ATOM     39  C   UNL A   1      37.684  32.614  33.606  1.00  0.00     0.031 C 
ATOM     40  C   UNL A   1      39.521  31.589  34.919  1.00  0.00     0.031 A 
BRANCH  27  41
ATOM     41  C   UNL A   1      44.298  27.653  34.581  1.00  0.00    -0.014 A 
ATOM     42  C   UNL A   1      44.049  26.562  35.429  1.00  0.00     0.009 A 
ATOM     43  C   UNL A   1      45.618  28.102  34.423  1.00  0.00     0.009 A 
ATOM     44  C   UNL A   1      45.093  25.976  36.151  1.00  0.00     0.001 A 
ATOM     45  C   UNL A   1      46.664  27.493  35.119  1.00  0.00     0.001 A 
ATOM     46  C   UNL A   1      46.398  26.442  35.996  1.00  0.00     0.000 A 
ENDBRANCH  27  41
BRANCH  28  47
ATOM     47  C   UNL A   1      36.807  32.002  29.500  1.00  0.00    -0.014 A 
ATOM     48  C   UNL A   1      36.983  33.123  28.675  1.00  0.00     0.009 A 
ATOM     49  C   UNL A   1      35.529  31.426  29.590  1.00  0.00     0.009 A 
ATOM     50  C   UNL A   1      35.905  33.654  27.961  1.00  0.00     0.001 A 
ATOM     51  C   UNL A   1      34.459  31.942  28.855  1.00  0.00     0.001 A 
ATOM     52  C   UNL A   1      34.646  33.058  28.044  1.00  0.00     0.000 A 
ENDBRANCH  28  47
BRANCH  40  53
ATOM     53  C   UNL A   1      39.058  32.372  36.114  1.00  0.00    -0.014 A 
ATOM     54  C   UNL A   1      39.525  33.670  36.361  1.00  0.00     0.009 A 
ATOM     55  C   UNL A   1      38.054  31.837  36.938  1.00  0.00     0.009 A 
ATOM     56  C   UNL A   1      39.003  34.415  37.421  1.00  0.00     0.001 A 
ATOM     57  C   UNL A   1      37.516  32.592  37.979  1.00  0.00     0.001 A 
ATOM     58  C   UNL A   1      37.993  33.878  38.221  1.00  0.00     0.000 A 
ENDBRANCH  40  53
ENDBRANCH  14  15
ENDBRANCH   7   9
ENDBRANCH   6   7
ENDBRANCH   5   6
ENDBRANCH   4   5
ENDBRANCH   3   4
ENDBRANCH   2   3
ENDBRANCH   1   2
BRANCH   1  59
ATOM     59  O   UNL A   1      44.285  18.241  24.962  1.00  0.00    -0.377 OA
BRANCH  59  60
ATOM     60  C   UNL A   1      43.326  18.451  26.000  1.00  0.00     0.188 C 
BRANCH  60  61
ATOM     61  C   UNL A   1      42.337  19.565  25.709  1.00  0.00     0.188 C 
BRANCH  61  62
ATOM     62  O   UNL A   1      41.467  19.676  26.831  1.00  0.00    -0.376 OA
BRANCH  62  63
ATOM     63  C   UNL A   1      40.093  19.807  26.494  1.00  0.00     0.202 C 
BRANCH  63  64
ATOM     64  C   UNL A   1      39.642  21.101  25.779  1.00  0.00     0.261 C 
BRANCH  64  65
ATOM     65  O   UNL A   1      38.653  21.906  26.451  1.00  0.00    -0.461 OA
BRANCH  65  66
ATOM     66  C   UNL A   1      37.940  22.831  25.756  1.00  0.00     0.335 C 
ATOM     67  O   UNL A   1      38.060  24.042  25.900  1.00  0.00    -0.249 OA
BRANCH  66  68
ATOM     68  C   UNL A   1      36.946  22.155  24.774  1.00  0.00     0.232 C 
ATOM     69  C   UNL A   1      35.816  21.438  25.499  1.00  0.00     0.087 C 
ATOM     70  O   UNL A   1      36.315  23.090  23.917  1.00  0.00    -0.355 OA
ATOM     71  C   UNL A   1      34.567  21.553  24.597  1.00  0.00     0.124 C 
ATOM     72  C   UNL A   1      34.988  22.639  23.551  1.00  0.00     0.187 C 
BRANCH  71  73
ATOM     73  C   UNL A   1      34.027  20.165  24.214  1.00  0.00     0.005 A 
ATOM     74  C   UNL A   1      34.761  19.064  24.746  1.00  0.00     0.008 A 
ATOM     75  C   UNL A   1      32.887  19.825  23.465  1.00  0.00     0.047 A 
ATOM     76  C   UNL A   1      34.340  17.736  24.640  1.00  0.00     0.001 A 
ATOM     77  C   UNL A   1      32.449  18.486  23.383  1.00  0.00     0.021 A 
ATOM     78  Cl  UNL A   1      31.963  20.913  22.501  1.00  0.00    -0.084 Cl
ATOM     79  C   UNL A   1      33.159  17.449  23.983  1.00  0.00     0.002 A 
ENDBRANCH  71  73
BRANCH  71  80
ATOM     80  O   UNL A   1      33.465  22.085  25.382  1.00  0.00    -0.382 OA
ATOM     81  H   UNL A   1      33.756  22.883  25.850  1.00  0.00     0.212 HD
ENDBRANCH  71  80
BRANCH  72  82
ATOM     82  C   UNL A   1      34.165  23.920  23.443  1.00  0.00     0.003 A 
ATOM     83  C   UNL A   1      33.348  24.120  22.306  1.00  0.00     0.008 A 
ATOM     84  C   UNL A   1      34.074  24.867  24.478  1.00  0.00     0.046 A 
ATOM     85  C   UNL A   1      32.456  25.191  22.220  1.00  0.00     0.000 A 
ATOM     86  C   UNL A   1      33.178  25.944  24.386  1.00  0.00     0.021 A 
ATOM     87  Cl  UNL A   1      34.996  24.762  25.934  1.00  0.00    -0.084 Cl
ATOM     88  C   UNL A   1      32.364  26.098  23.265  1.00  0.00     0.002 A 
ENDBRANCH  72  82
ENDBRANCH  66  68
ENDBRANCH  65  66
ENDBRANCH  64  65
ENDBRANCH  63  64
ENDBRANCH  62  63
ENDBRANCH  61  62
ENDBRANCH  60  61
ENDBRANCH  59  60
ENDBRANCH   1  59
TORSDOF 23
ENDMDL
