MODEL 1
REMARK VINA RESULT:      -8.9      0.000      0.000
REMARK SMILES O=C(CCCCN1C(=O)CCc2cc([N+](=O)[O-])ccc21)OCCOCCOCCOCCOC(=O)c1ccc(-c2c3nc(c(-c4ccccc4)c4ccc([nH]4)c(-c4ccccc4)c4nc(c(-c5ccccc5)c5ccc2[nH]5)C=C4)C=C3)cc1
REMARK SMILES IDX 25 1 24 2 23 3 22 4 21 5 2 6 1 7 3 8 4 9 5 10 6 11 7 12 8 13
REMARK SMILES IDX 20 14 9 15 10 16 12 17 19 18 11 19 13 20 18 21 14 22 15 23
REMARK SMILES IDX 16 24 17 25 26 26 27 27 28 28 29 29 30 30 31 31 32 32 33 33
REMARK SMILES IDX 34 34 35 35 36 36 37 37 83 38 38 39 82 40 39 41 40 42 41 43
REMARK SMILES IDX 76 44 42 45 81 46 75 47 77 48 43 49 80 50 74 51 73 52 44 54
REMARK SMILES IDX 66 55 51 56 65 57 52 58 55 59 64 60 78 61 53 62 54 63 63 65
REMARK SMILES IDX 79 66 56 67 45 68 46 69 50 70 47 71 49 72 48 73 67 74 68 75
REMARK SMILES IDX 72 76 69 77 71 78 70 79 57 80 58 81 62 82 59 83 61 84 60 85
REMARK H PARENT 77 53 55 64
REMARK Flexibility Score: inf
ROOT
ATOM      1  C   UNL A   1      36.077  23.174  25.979  1.00  0.00     0.188 C 
ENDROOT
BRANCH   1   2
ATOM      2  O   UNL A   1      35.385  22.005  26.415  1.00  0.00    -0.376 OA
BRANCH   2   3
ATOM      3  C   UNL A   1      34.001  21.896  26.188  1.00  0.00     0.202 C 
BRANCH   3   4
ATOM      4  C   UNL A   1      33.126  22.414  27.333  1.00  0.00     0.261 C 
BRANCH   4   5
ATOM      5  O   UNL A   1      31.869  23.065  27.044  1.00  0.00    -0.463 OA
BRANCH   5   6
ATOM      6  C   UNL A   1      31.835  24.303  26.507  1.00  0.00     0.305 C 
ATOM      7  O   UNL A   1      32.642  25.178  26.802  1.00  0.00    -0.252 OA
BRANCH   6   8
ATOM      8  C   UNL A   1      30.719  24.504  25.483  1.00  0.00     0.123 C 
BRANCH   8   9
ATOM      9  C   UNL A   1      29.877  25.775  25.578  1.00  0.00     0.014 C 
BRANCH   9  10
ATOM     10  C   UNL A   1      29.170  26.297  24.316  1.00  0.00     0.023 C 
BRANCH  10  11
ATOM     11  C   UNL A   1      29.715  27.552  23.600  1.00  0.00     0.125 C 
BRANCH  11  12
ATOM     12  N   UNL A   1      31.153  27.822  23.614  1.00  0.00    -0.312 N 
ATOM     13  C   UNL A   1      31.588  28.990  24.249  1.00  0.00     0.227 C 
ATOM     14  C   UNL A   1      32.083  26.883  23.108  1.00  0.00     0.047 A 
ATOM     15  O   UNL A   1      30.828  29.883  24.623  1.00  0.00    -0.275 OA
ATOM     16  C   UNL A   1      33.088  29.141  24.365  1.00  0.00     0.105 C 
ATOM     17  C   UNL A   1      33.301  26.746  23.786  1.00  0.00    -0.017 A 
ATOM     18  C   UNL A   1      31.763  26.011  22.067  1.00  0.00     0.034 A 
ATOM     19  C   UNL A   1      33.711  27.811  24.765  1.00  0.00     0.048 C 
ATOM     20  C   UNL A   1      34.031  25.563  23.631  1.00  0.00     0.091 A 
ATOM     21  C   UNL A   1      32.479  24.831  21.903  1.00  0.00     0.088 A 
ATOM     22  C   UNL A   1      33.570  24.583  22.738  1.00  0.00     0.269 A 
BRANCH  22  23
ATOM     23  N   UNL A   1      34.192  23.258  22.720  1.00  0.00     0.062 N 
ATOM     24  O   UNL A   1      33.448  22.272  22.782  1.00  0.00    -0.258 OA
ATOM     25  O   UNL A   1      35.427  23.209  22.616  1.00  0.00    -0.258 OA
ENDBRANCH  22  23
ENDBRANCH  11  12
ENDBRANCH  10  11
ENDBRANCH   9  10
ENDBRANCH   8   9
ENDBRANCH   6   8
ENDBRANCH   5   6
ENDBRANCH   4   5
ENDBRANCH   3   4
ENDBRANCH   2   3
ENDBRANCH   1   2
BRANCH   1  26
ATOM     26  C   UNL A   1      37.576  23.035  25.766  1.00  0.00     0.188 C 
BRANCH  26  27
ATOM     27  O   UNL A   1      38.147  21.729  25.728  1.00  0.00    -0.377 OA
BRANCH  27  28
ATOM     28  C   UNL A   1      39.505  21.512  26.091  1.00  0.00     0.188 C 
BRANCH  28  29
ATOM     29  C   UNL A   1      39.966  20.051  26.043  1.00  0.00     0.188 C 
BRANCH  29  30
ATOM     30  O   UNL A   1      41.364  19.804  26.003  1.00  0.00    -0.376 OA
BRANCH  30  31
ATOM     31  C   UNL A   1      42.236  20.775  26.572  1.00  0.00     0.202 C 
BRANCH  31  32
ATOM     32  C   UNL A   1      43.451  21.271  25.760  1.00  0.00     0.261 C 
BRANCH  32  33
ATOM     33  O   UNL A   1      43.137  22.259  24.757  1.00  0.00    -0.460 OA
BRANCH  33  34
ATOM     34  C   UNL A   1      43.075  23.549  25.171  1.00  0.00     0.338 C 
ATOM     35  O   UNL A   1      42.159  24.089  25.761  1.00  0.00    -0.246 OA
BRANCH  34  36
ATOM     36  C   UNL A   1      44.382  24.216  24.965  1.00  0.00     0.060 A 
ATOM     37  C   UNL A   1      45.492  23.437  24.596  1.00  0.00     0.016 A 
ATOM     38  C   UNL A   1      44.542  25.572  25.244  1.00  0.00     0.016 A 
ATOM     39  C   UNL A   1      46.767  24.007  24.523  1.00  0.00     0.010 A 
ATOM     40  C   UNL A   1      45.823  26.134  25.204  1.00  0.00     0.010 A 
ATOM     41  C   UNL A   1      46.946  25.348  24.876  1.00  0.00    -0.014 A 
BRANCH  41  42
ATOM     42  C   UNL A   1      48.306  25.884  25.144  1.00  0.00     0.031 A 
ATOM     43  C   UNL A   1      48.828  25.809  26.552  1.00  0.00     0.074 A 
ATOM     44  C   UNL A   1      49.048  26.468  24.187  1.00  0.00     0.049 A 
ATOM     45  N   UNL A   1      49.904  26.343  27.072  1.00  0.00    -0.248 NA
ATOM     46  C   UNL A   1      48.016  25.036  27.505  1.00  0.00     0.031 C 
ATOM     47  C   UNL A   1      48.690  26.559  22.773  1.00  0.00     0.029 A 
ATOM     48  N   UNL A   1      50.252  27.125  24.277  1.00  0.00    -0.354 N 
ATOM     49  C   UNL A   1      49.880  25.995  28.418  1.00  0.00     0.074 A 
ATOM     50  C   UNL A   1      48.679  25.218  28.635  1.00  0.00     0.031 C 
ATOM     51  C   UNL A   1      49.638  27.268  22.134  1.00  0.00     0.029 A 
ATOM     52  C   UNL A   1      50.643  27.716  23.099  1.00  0.00     0.049 A 
ATOM     53  H   UNL A   1      50.783  27.169  25.105  1.00  0.00     0.167 HD
ATOM     54  C   UNL A   1      50.771  26.302  29.390  1.00  0.00     0.031 A 
ATOM     55  C   UNL A   1      51.665  28.556  22.840  1.00  0.00     0.031 A 
ATOM     56  C   UNL A   1      51.950  27.097  29.181  1.00  0.00     0.049 A 
ATOM     57  C   UNL A   1      52.603  28.957  23.951  1.00  0.00     0.074 A 
ATOM     58  C   UNL A   1      52.928  27.445  30.098  1.00  0.00     0.029 A 
ATOM     59  N   UNL A   1      52.301  27.685  27.976  1.00  0.00    -0.354 N 
ATOM     60  N   UNL A   1      52.591  28.599  25.213  1.00  0.00    -0.248 NA
ATOM     61  C   UNL A   1      53.697  29.878  23.603  1.00  0.00     0.031 C 
ATOM     62  C   UNL A   1      53.831  28.303  29.464  1.00  0.00     0.029 A 
ATOM     63  C   UNL A   1      53.460  28.425  28.134  1.00  0.00     0.049 A 
ATOM     64  H   UNL A   1      51.802  27.590  27.134  1.00  0.00     0.167 HD
ATOM     65  C   UNL A   1      53.688  29.223  25.799  1.00  0.00     0.074 A 
ATOM     66  C   UNL A   1      54.348  29.978  24.754  1.00  0.00     0.031 C 
ATOM     67  C   UNL A   1      54.112  29.170  27.086  1.00  0.00     0.031 A 
BRANCH  54  68
ATOM     68  C   UNL A   1      50.460  25.829  30.783  1.00  0.00    -0.014 A 
ATOM     69  C   UNL A   1      50.902  24.583  31.256  1.00  0.00     0.009 A 
ATOM     70  C   UNL A   1      49.709  26.650  31.640  1.00  0.00     0.009 A 
ATOM     71  C   UNL A   1      50.556  24.150  32.539  1.00  0.00     0.001 A 
ATOM     72  C   UNL A   1      49.396  26.231  32.933  1.00  0.00     0.001 A 
ATOM     73  C   UNL A   1      49.808  24.977  33.377  1.00  0.00     0.000 A 
ENDBRANCH  54  68
BRANCH  55  74
ATOM     74  C   UNL A   1      51.833  29.117  21.471  1.00  0.00    -0.014 A 
ATOM     75  C   UNL A   1      52.434  28.363  20.452  1.00  0.00     0.009 A 
ATOM     76  C   UNL A   1      51.394  30.419  21.179  1.00  0.00     0.009 A 
ATOM     77  C   UNL A   1      52.606  28.907  19.176  1.00  0.00     0.001 A 
ATOM     78  C   UNL A   1      51.540  30.948  19.896  1.00  0.00     0.001 A 
ATOM     79  C   UNL A   1      52.152  30.195  18.897  1.00  0.00     0.000 A 
ENDBRANCH  55  74
BRANCH  67  80
ATOM     80  C   UNL A   1      55.377  29.904  27.444  1.00  0.00    -0.014 A 
ATOM     81  C   UNL A   1      56.639  29.304  27.312  1.00  0.00     0.009 A 
ATOM     82  C   UNL A   1      55.304  31.251  27.837  1.00  0.00     0.009 A 
ATOM     83  C   UNL A   1      57.799  30.034  27.585  1.00  0.00     0.001 A 
ATOM     84  C   UNL A   1      56.466  31.986  28.078  1.00  0.00     0.001 A 
ATOM     85  C   UNL A   1      57.712  31.375  27.958  1.00  0.00     0.000 A 
ENDBRANCH  67  80
ENDBRANCH  41  42
ENDBRANCH  34  36
ENDBRANCH  33  34
ENDBRANCH  32  33
ENDBRANCH  31  32
ENDBRANCH  30  31
ENDBRANCH  29  30
ENDBRANCH  28  29
ENDBRANCH  27  28
ENDBRANCH  26  27
ENDBRANCH   1  26
TORSDOF 25
ENDMDL
MODEL 2
REMARK VINA RESULT:      -8.8      6.801     11.302
REMARK SMILES O=C(CCCCN1C(=O)CCc2cc([N+](=O)[O-])ccc21)OCCOCCOCCOCCOC(=O)c1ccc(-c2c3nc(c(-c4ccccc4)c4ccc([nH]4)c(-c4ccccc4)c4nc(c(-c5ccccc5)c5ccc2[nH]5)C=C4)C=C3)cc1
REMARK SMILES IDX 25 1 24 2 23 3 22 4 21 5 2 6 1 7 3 8 4 9 5 10 6 11 7 12 8 13
REMARK SMILES IDX 20 14 9 15 10 16 12 17 19 18 11 19 13 20 18 21 14 22 15 23
REMARK SMILES IDX 16 24 17 25 26 26 27 27 28 28 29 29 30 30 31 31 32 32 33 33
REMARK SMILES IDX 34 34 35 35 36 36 37 37 83 38 38 39 82 40 39 41 40 42 41 43
REMARK SMILES IDX 76 44 42 45 81 46 75 47 77 48 43 49 80 50 74 51 73 52 44 54
REMARK SMILES IDX 66 55 51 56 65 57 52 58 55 59 64 60 78 61 53 62 54 63 63 65
REMARK SMILES IDX 79 66 56 67 45 68 46 69 50 70 47 71 49 72 48 73 67 74 68 75
REMARK SMILES IDX 72 76 69 77 71 78 70 79 57 80 58 81 62 82 59 83 61 84 60 85
REMARK H PARENT 77 53 55 64
REMARK Flexibility Score: inf
ROOT
ATOM      1  C   UNL A   1      31.791  25.346  26.371  1.00  0.00     0.188 C 
ENDROOT
BRANCH   1   2
ATOM      2  O   UNL A   1      30.645  26.079  25.941  1.00  0.00    -0.376 OA
BRANCH   2   3
ATOM      3  C   UNL A   1      30.257  26.024  24.589  1.00  0.00     0.202 C 
BRANCH   3   4
ATOM      4  C   UNL A   1      30.193  27.386  23.890  1.00  0.00     0.261 C 
BRANCH   4   5
ATOM      5  O   UNL A   1      30.889  27.589  22.642  1.00  0.00    -0.463 OA
BRANCH   5   6
ATOM      6  C   UNL A   1      32.168  28.020  22.621  1.00  0.00     0.305 C 
ATOM      7  O   UNL A   1      32.502  29.130  23.022  1.00  0.00    -0.252 OA
BRANCH   6   8
ATOM      8  C   UNL A   1      33.160  26.993  22.076  1.00  0.00     0.123 C 
BRANCH   8   9
ATOM      9  C   UNL A   1      32.601  25.747  21.391  1.00  0.00     0.014 C 
BRANCH   9  10
ATOM     10  C   UNL A   1      32.951  24.363  21.961  1.00  0.00     0.023 C 
BRANCH  10  11
ATOM     11  C   UNL A   1      33.704  24.259  23.305  1.00  0.00     0.125 C 
BRANCH  11  12
ATOM     12  N   UNL A   1      33.571  23.047  24.113  1.00  0.00    -0.312 N 
ATOM     13  C   UNL A   1      32.346  22.374  24.078  1.00  0.00     0.227 C 
ATOM     14  C   UNL A   1      34.675  22.505  24.814  1.00  0.00     0.047 A 
ATOM     15  O   UNL A   1      31.329  22.840  23.565  1.00  0.00    -0.275 OA
ATOM     16  C   UNL A   1      32.314  21.050  24.809  1.00  0.00     0.105 C 
ATOM     17  C   UNL A   1      34.787  21.110  24.873  1.00  0.00    -0.017 A 
ATOM     18  C   UNL A   1      35.704  23.308  25.308  1.00  0.00     0.034 A 
ATOM     19  C   UNL A   1      33.591  20.271  24.520  1.00  0.00     0.048 C 
ATOM     20  C   UNL A   1      36.039  20.543  25.127  1.00  0.00     0.091 A 
ATOM     21  C   UNL A   1      36.954  22.757  25.564  1.00  0.00     0.088 A 
ATOM     22  C   UNL A   1      37.131  21.382  25.401  1.00  0.00     0.269 A 
BRANCH  22  23
ATOM     23  N   UNL A   1      38.485  20.827  25.455  1.00  0.00     0.062 N 
ATOM     24  O   UNL A   1      39.382  21.544  25.917  1.00  0.00    -0.258 OA
ATOM     25  O   UNL A   1      38.640  19.662  25.060  1.00  0.00    -0.258 OA
ENDBRANCH  22  23
ENDBRANCH  11  12
ENDBRANCH  10  11
ENDBRANCH   9  10
ENDBRANCH   8   9
ENDBRANCH   6   8
ENDBRANCH   5   6
ENDBRANCH   4   5
ENDBRANCH   3   4
ENDBRANCH   2   3
ENDBRANCH   1   2
BRANCH   1  26
ATOM     26  C   UNL A   1      33.141  26.012  26.159  1.00  0.00     0.188 C 
BRANCH  26  27
ATOM     27  O   UNL A   1      33.191  27.427  25.990  1.00  0.00    -0.377 OA
BRANCH  27  28
ATOM     28  C   UNL A   1      32.734  28.303  27.012  1.00  0.00     0.188 C 
BRANCH  28  29
ATOM     29  C   UNL A   1      31.840  29.452  26.532  1.00  0.00     0.188 C 
BRANCH  29  30
ATOM     30  O   UNL A   1      32.166  30.765  26.967  1.00  0.00    -0.376 OA
BRANCH  30  31
ATOM     31  C   UNL A   1      33.419  30.969  27.612  1.00  0.00     0.202 C 
BRANCH  31  32
ATOM     32  C   UNL A   1      34.061  32.371  27.595  1.00  0.00     0.261 C 
BRANCH  32  33
ATOM     33  O   UNL A   1      33.134  33.457  27.802  1.00  0.00    -0.460 OA
BRANCH  33  34
ATOM     34  C   UNL A   1      33.418  34.316  28.813  1.00  0.00     0.338 C 
ATOM     35  O   UNL A   1      32.727  35.231  29.216  1.00  0.00    -0.246 OA
BRANCH  34  36
ATOM     36  C   UNL A   1      34.648  33.886  29.518  1.00  0.00     0.060 A 
ATOM     37  C   UNL A   1      35.896  34.137  28.922  1.00  0.00     0.016 A 
ATOM     38  C   UNL A   1      34.573  33.143  30.694  1.00  0.00     0.016 A 
ATOM     39  C   UNL A   1      37.069  33.630  29.490  1.00  0.00     0.010 A 
ATOM     40  C   UNL A   1      35.744  32.607  31.244  1.00  0.00     0.010 A 
ATOM     41  C   UNL A   1      36.993  32.819  30.627  1.00  0.00    -0.014 A 
BRANCH  41  42
ATOM     42  C   UNL A   1      38.154  31.993  31.045  1.00  0.00     0.031 A 
ATOM     43  C   UNL A   1      39.058  32.538  32.118  1.00  0.00     0.074 A 
ATOM     44  C   UNL A   1      38.441  30.814  30.466  1.00  0.00     0.049 A 
ATOM     45  N   UNL A   1      40.211  32.092  32.543  1.00  0.00    -0.248 NA
ATOM     46  C   UNL A   1      38.597  33.763  32.792  1.00  0.00     0.031 C 
ATOM     47  C   UNL A   1      37.626  30.143  29.457  1.00  0.00     0.029 A 
ATOM     48  N   UNL A   1      39.528  29.988  30.630  1.00  0.00    -0.354 N 
ATOM     49  C   UNL A   1      40.628  32.997  33.512  1.00  0.00     0.074 A 
ATOM     50  C   UNL A   1      39.612  34.022  33.600  1.00  0.00     0.031 C 
ATOM     51  C   UNL A   1      38.260  29.024  29.064  1.00  0.00     0.029 A 
ATOM     52  C   UNL A   1      39.544  28.925  29.760  1.00  0.00     0.049 A 
ATOM     53  H   UNL A   1      40.228  30.143  31.306  1.00  0.00     0.167 HD
ATOM     54  C   UNL A   1      41.761  32.984  34.254  1.00  0.00     0.031 A 
ATOM     55  C   UNL A   1      40.501  28.006  29.520  1.00  0.00     0.031 A 
ATOM     56  C   UNL A   1      42.784  31.981  34.146  1.00  0.00     0.049 A 
ATOM     57  C   UNL A   1      41.794  28.053  30.296  1.00  0.00     0.074 A 
ATOM     58  C   UNL A   1      43.958  31.867  34.872  1.00  0.00     0.029 A 
ATOM     59  N   UNL A   1      42.766  30.929  33.244  1.00  0.00    -0.354 N 
ATOM     60  N   UNL A   1      42.167  28.893  31.232  1.00  0.00    -0.248 NA
ATOM     61  C   UNL A   1      42.798  27.023  29.985  1.00  0.00     0.031 C 
ATOM     62  C   UNL A   1      44.683  30.788  34.357  1.00  0.00     0.029 A 
ATOM     63  C   UNL A   1      43.925  30.183  33.367  1.00  0.00     0.049 A 
ATOM     64  H   UNL A   1      42.036  30.740  32.611  1.00  0.00     0.167 HD
ATOM     65  C   UNL A   1      43.430  28.476  31.640  1.00  0.00     0.074 A 
ATOM     66  C   UNL A   1      43.757  27.304  30.857  1.00  0.00     0.031 C 
ATOM     67  C   UNL A   1      44.240  29.015  32.585  1.00  0.00     0.031 A 
BRANCH  54  68
ATOM     68  C   UNL A   1      41.976  34.134  35.199  1.00  0.00    -0.014 A 
ATOM     69  C   UNL A   1      42.484  35.367  34.758  1.00  0.00     0.009 A 
ATOM     70  C   UNL A   1      41.662  33.978  36.559  1.00  0.00     0.009 A 
ATOM     71  C   UNL A   1      42.718  36.400  35.669  1.00  0.00     0.001 A 
ATOM     72  C   UNL A   1      41.863  35.024  37.459  1.00  0.00     0.001 A 
ATOM     73  C   UNL A   1      42.403  36.230  37.017  1.00  0.00     0.000 A 
ENDBRANCH  54  68
BRANCH  55  74
ATOM     74  C   UNL A   1      40.294  26.981  28.460  1.00  0.00    -0.014 A 
ATOM     75  C   UNL A   1      39.548  25.821  28.714  1.00  0.00     0.009 A 
ATOM     76  C   UNL A   1      40.851  27.160  27.182  1.00  0.00     0.009 A 
ATOM     77  C   UNL A   1      39.378  24.855  27.718  1.00  0.00     0.001 A 
ATOM     78  C   UNL A   1      40.653  26.209  26.180  1.00  0.00     0.001 A 
ATOM     79  C   UNL A   1      39.924  25.053  26.451  1.00  0.00     0.000 A 
ENDBRANCH  55  74
BRANCH  67  80
ATOM     80  C   UNL A   1      45.546  28.323  32.871  1.00  0.00    -0.014 A 
ATOM     81  C   UNL A   1      45.635  27.272  33.798  1.00  0.00     0.009 A 
ATOM     82  C   UNL A   1      46.689  28.674  32.134  1.00  0.00     0.009 A 
ATOM     83  C   UNL A   1      46.847  26.603  33.991  1.00  0.00     0.001 A 
ATOM     84  C   UNL A   1      47.889  27.983  32.306  1.00  0.00     0.001 A 
ATOM     85  C   UNL A   1      47.969  26.952  33.240  1.00  0.00     0.000 A 
ENDBRANCH  67  80
ENDBRANCH  41  42
ENDBRANCH  34  36
ENDBRANCH  33  34
ENDBRANCH  32  33
ENDBRANCH  31  32
ENDBRANCH  30  31
ENDBRANCH  29  30
ENDBRANCH  28  29
ENDBRANCH  27  28
ENDBRANCH  26  27
ENDBRANCH   1  26
TORSDOF 25
ENDMDL
MODEL 3
REMARK VINA RESULT:      -8.7      5.355      8.890
REMARK SMILES O=C(CCCCN1C(=O)CCc2cc([N+](=O)[O-])ccc21)OCCOCCOCCOCCOC(=O)c1ccc(-c2c3nc(c(-c4ccccc4)c4ccc([nH]4)c(-c4ccccc4)c4nc(c(-c5ccccc5)c5ccc2[nH]5)C=C4)C=C3)cc1
REMARK SMILES IDX 25 1 24 2 23 3 22 4 21 5 2 6 1 7 3 8 4 9 5 10 6 11 7 12 8 13
REMARK SMILES IDX 20 14 9 15 10 16 12 17 19 18 11 19 13 20 18 21 14 22 15 23
REMARK SMILES IDX 16 24 17 25 26 26 27 27 28 28 29 29 30 30 31 31 32 32 33 33
REMARK SMILES IDX 34 34 35 35 36 36 37 37 83 38 38 39 82 40 39 41 40 42 41 43
REMARK SMILES IDX 76 44 42 45 81 46 75 47 77 48 43 49 80 50 74 51 73 52 44 54
REMARK SMILES IDX 66 55 51 56 65 57 52 58 55 59 64 60 78 61 53 62 54 63 63 65
REMARK SMILES IDX 79 66 56 67 45 68 46 69 50 70 47 71 49 72 48 73 67 74 68 75
REMARK SMILES IDX 72 76 69 77 71 78 70 79 57 80 58 81 62 82 59 83 61 84 60 85
REMARK H PARENT 77 53 55 64
REMARK Flexibility Score: inf
ROOT
ATOM      1  C   UNL A   1      32.936  35.732  29.023  1.00  0.00     0.188 C 
ENDROOT
BRANCH   1   2
ATOM      2  O   UNL A   1      32.977  34.306  28.972  1.00  0.00    -0.376 OA
BRANCH   2   3
ATOM      3  C   UNL A   1      33.164  33.664  27.733  1.00  0.00     0.202 C 
BRANCH   3   4
ATOM      4  C   UNL A   1      34.152  32.494  27.768  1.00  0.00     0.261 C 
BRANCH   4   5
ATOM      5  O   UNL A   1      33.709  31.188  28.197  1.00  0.00    -0.463 OA
BRANCH   5   6
ATOM      6  C   UNL A   1      33.444  30.214  27.300  1.00  0.00     0.305 C 
ATOM      7  O   UNL A   1      34.313  29.693  26.609  1.00  0.00    -0.252 OA
BRANCH   6   8
ATOM      8  C   UNL A   1      31.973  29.806  27.245  1.00  0.00     0.123 C 
BRANCH   8   9
ATOM      9  C   UNL A   1      31.612  28.366  27.604  1.00  0.00     0.014 C 
BRANCH   9  10
ATOM     10  C   UNL A   1      31.721  27.278  26.524  1.00  0.00     0.023 C 
BRANCH  10  11
ATOM     11  C   UNL A   1      31.172  27.550  25.107  1.00  0.00     0.125 C 
BRANCH  11  12
ATOM     12  N   UNL A   1      31.809  26.916  23.954  1.00  0.00    -0.312 N 
ATOM     13  C   UNL A   1      32.541  27.732  23.085  1.00  0.00     0.227 C 
ATOM     14  C   UNL A   1      31.787  25.511  23.781  1.00  0.00     0.047 A 
ATOM     15  O   UNL A   1      32.521  28.961  23.130  1.00  0.00    -0.275 OA
ATOM     16  C   UNL A   1      33.301  27.002  21.999  1.00  0.00     0.105 C 
ATOM     17  C   UNL A   1      32.933  24.903  23.255  1.00  0.00    -0.017 A 
ATOM     18  C   UNL A   1      30.733  24.724  24.248  1.00  0.00     0.034 A 
ATOM     19  C   UNL A   1      33.967  25.762  22.580  1.00  0.00     0.048 C 
ATOM     20  C   UNL A   1      33.145  23.541  23.491  1.00  0.00     0.091 A 
ATOM     21  C   UNL A   1      30.930  23.370  24.488  1.00  0.00     0.088 A 
ATOM     22  C   UNL A   1      32.165  22.801  24.172  1.00  0.00     0.269 A 
BRANCH  22  23
ATOM     23  N   UNL A   1      32.456  21.437  24.618  1.00  0.00     0.062 N 
ATOM     24  O   UNL A   1      31.624  20.881  25.346  1.00  0.00    -0.258 OA
ATOM     25  O   UNL A   1      33.505  20.916  24.213  1.00  0.00    -0.258 OA
ENDBRANCH  22  23
ENDBRANCH  11  12
ENDBRANCH  10  11
ENDBRANCH   9  10
ENDBRANCH   8   9
ENDBRANCH   6   8
ENDBRANCH   5   6
ENDBRANCH   4   5
ENDBRANCH   3   4
ENDBRANCH   2   3
ENDBRANCH   1   2
BRANCH   1  26
ATOM     26  C   UNL A   1      33.440  36.378  30.304  1.00  0.00     0.188 C 
BRANCH  26  27
ATOM     27  O   UNL A   1      32.701  36.187  31.508  1.00  0.00    -0.377 OA
BRANCH  27  28
ATOM     28  C   UNL A   1      33.192  35.342  32.542  1.00  0.00     0.188 C 
BRANCH  28  29
ATOM     29  C   UNL A   1      34.622  34.829  32.338  1.00  0.00     0.188 C 
BRANCH  29  30
ATOM     30  O   UNL A   1      34.986  33.621  32.992  1.00  0.00    -0.376 OA
BRANCH  30  31
ATOM     31  C   UNL A   1      34.932  32.409  32.247  1.00  0.00     0.202 C 
BRANCH  31  32
ATOM     32  C   UNL A   1      35.878  32.215  31.044  1.00  0.00     0.261 C 
BRANCH  32  33
ATOM     33  O   UNL A   1      36.002  30.850  30.593  1.00  0.00    -0.460 OA
BRANCH  33  34
ATOM     34  C   UNL A   1      36.888  30.068  31.258  1.00  0.00     0.338 C 
ATOM     35  O   UNL A   1      36.648  29.291  32.163  1.00  0.00    -0.246 OA
BRANCH  34  36
ATOM     36  C   UNL A   1      38.219  30.141  30.613  1.00  0.00     0.060 A 
ATOM     37  C   UNL A   1      38.300  30.082  29.212  1.00  0.00     0.016 A 
ATOM     38  C   UNL A   1      39.383  30.151  31.381  1.00  0.00     0.016 A 
ATOM     39  C   UNL A   1      39.543  30.014  28.574  1.00  0.00     0.010 A 
ATOM     40  C   UNL A   1      40.625  30.048  30.744  1.00  0.00     0.010 A 
ATOM     41  C   UNL A   1      40.711  29.946  29.341  1.00  0.00    -0.014 A 
BRANCH  41  42
ATOM     42  C   UNL A   1      41.996  29.528  28.724  1.00  0.00     0.031 A 
ATOM     43  C   UNL A   1      42.149  28.087  28.320  1.00  0.00     0.074 A 
ATOM     44  C   UNL A   1      43.026  30.378  28.567  1.00  0.00     0.049 A 
ATOM     45  N   UNL A   1      43.213  27.443  27.913  1.00  0.00    -0.248 NA
ATOM     46  C   UNL A   1      40.934  27.260  28.398  1.00  0.00     0.031 C 
ATOM     47  C   UNL A   1      42.998  31.808  28.863  1.00  0.00     0.029 A 
ATOM     48  N   UNL A   1      44.312  30.143  28.144  1.00  0.00    -0.354 N 
ATOM     49  C   UNL A   1      42.802  26.130  27.717  1.00  0.00     0.074 A 
ATOM     50  C   UNL A   1      41.399  26.068  28.062  1.00  0.00     0.031 C 
ATOM     51  C   UNL A   1      44.225  32.318  28.647  1.00  0.00     0.029 A 
ATOM     52  C   UNL A   1      45.131  31.242  28.242  1.00  0.00     0.049 A 
ATOM     53  H   UNL A   1      44.618  29.271  27.803  1.00  0.00     0.167 HD
ATOM     54  C   UNL A   1      43.529  25.067  27.299  1.00  0.00     0.031 A 
ATOM     55  C   UNL A   1      46.463  31.358  28.069  1.00  0.00     0.031 A 
ATOM     56  C   UNL A   1      44.930  25.122  26.982  1.00  0.00     0.049 A 
ATOM     57  C   UNL A   1      47.275  30.146  27.684  1.00  0.00     0.074 A 
ATOM     58  C   UNL A   1      45.751  24.104  26.526  1.00  0.00     0.029 A 
ATOM     59  N   UNL A   1      45.722  26.252  27.107  1.00  0.00    -0.354 N 
ATOM     60  N   UNL A   1      46.874  28.916  27.470  1.00  0.00    -0.248 NA
ATOM     61  C   UNL A   1      48.724  30.339  27.513  1.00  0.00     0.031 C 
ATOM     62  C   UNL A   1      47.055  24.602  26.446  1.00  0.00     0.029 A 
ATOM     63  C   UNL A   1      47.031  25.948  26.774  1.00  0.00     0.049 A 
ATOM     64  H   UNL A   1      45.402  27.139  27.389  1.00  0.00     0.167 HD
ATOM     65  C   UNL A   1      48.012  28.199  27.111  1.00  0.00     0.074 A 
ATOM     66  C   UNL A   1      49.118  29.133  27.129  1.00  0.00     0.031 C 
ATOM     67  C   UNL A   1      48.125  26.886  26.791  1.00  0.00     0.031 A 
BRANCH  54  68
ATOM     68  C   UNL A   1      42.827  23.739  27.227  1.00  0.00    -0.014 A 
ATOM     69  C   UNL A   1      42.277  23.258  26.027  1.00  0.00     0.009 A 
ATOM     70  C   UNL A   1      42.716  22.953  28.385  1.00  0.00     0.009 A 
ATOM     71  C   UNL A   1      41.589  22.043  26.003  1.00  0.00     0.001 A 
ATOM     72  C   UNL A   1      42.060  21.723  28.350  1.00  0.00     0.001 A 
ATOM     73  C   UNL A   1      41.485  21.274  27.162  1.00  0.00     0.000 A 
ENDBRANCH  54  68
BRANCH  55  74
ATOM     74  C   UNL A   1      47.129  32.669  28.306  1.00  0.00    -0.014 A 
ATOM     75  C   UNL A   1      47.475  33.505  27.235  1.00  0.00     0.009 A 
ATOM     76  C   UNL A   1      47.426  33.087  29.613  1.00  0.00     0.009 A 
ATOM     77  C   UNL A   1      48.120  34.724  27.467  1.00  0.00     0.001 A 
ATOM     78  C   UNL A   1      48.042  34.318  29.844  1.00  0.00     0.001 A 
ATOM     79  C   UNL A   1      48.395  35.132  28.770  1.00  0.00     0.000 A 
ENDBRANCH  55  74
BRANCH  67  80
ATOM     80  C   UNL A   1      49.480  26.374  26.381  1.00  0.00    -0.014 A 
ATOM     81  C   UNL A   1      50.004  26.619  25.102  1.00  0.00     0.009 A 
ATOM     82  C   UNL A   1      50.281  25.710  27.325  1.00  0.00     0.009 A 
ATOM     83  C   UNL A   1      51.294  26.192  24.774  1.00  0.00     0.001 A 
ATOM     84  C   UNL A   1      51.580  25.313  27.005  1.00  0.00     0.001 A 
ATOM     85  C   UNL A   1      52.083  25.548  25.727  1.00  0.00     0.000 A 
ENDBRANCH  67  80
ENDBRANCH  41  42
ENDBRANCH  34  36
ENDBRANCH  33  34
ENDBRANCH  32  33
ENDBRANCH  31  32
ENDBRANCH  30  31
ENDBRANCH  29  30
ENDBRANCH  28  29
ENDBRANCH  27  28
ENDBRANCH  26  27
ENDBRANCH   1  26
TORSDOF 25
ENDMDL
