MODEL 1
REMARK VINA RESULT:      -8.6      0.000      0.000
REMARK SMILES CS(=O)(=O)c1ccc(N2N=C(C(=O)OCCOCCOCCOCCOC(=O)c3ccc(-c4c5nc(c(-c6ccccc6)c6ccc([nH]6)c(-c6ccccc6)c6nc(c(-c7ccccc7)c7ccc4[nH]7)C=C6)C=C5)cc3)C[C@H]2c2cccs2)cc1
REMARK SMILES IDX 20 1 19 2 18 3 17 4 16 5 15 6 14 7 12 8 13 9 11 10 9 11
REMARK SMILES IDX 10 12 78 13 77 14 8 15 5 16 6 17 85 18 7 19 84 20 2 21 1 22
REMARK SMILES IDX 3 23 4 24 79 25 80 26 83 27 81 28 82 29 21 30 22 31 23 32
REMARK SMILES IDX 24 33 25 34 26 35 27 36 28 37 29 38 30 39 76 40 31 41 75 42
REMARK SMILES IDX 32 43 33 44 34 45 69 46 35 47 74 48 68 49 70 50 36 51 73 52
REMARK SMILES IDX 67 53 66 54 37 56 59 57 44 58 58 59 45 60 48 61 57 62 71 63
REMARK SMILES IDX 46 64 47 65 56 67 72 68 49 69 38 70 39 71 43 72 40 73 42 74
REMARK SMILES IDX 41 75 60 76 61 77 65 78 62 79 64 80 63 81 50 82 51 83 55 84
REMARK SMILES IDX 52 85 54 86 53 87
REMARK H PARENT 70 55 48 66
REMARK Flexibility Score: inf
ROOT
ATOM      1  O   UNL A   1      44.656  39.709  25.796  1.00  0.00    -0.377 OA
ENDROOT
BRANCH   1   2
ATOM      2  C   UNL A   1      44.993  41.075  25.589  1.00  0.00     0.188 C 
BRANCH   2   3
ATOM      3  C   UNL A   1      43.756  41.989  25.545  1.00  0.00     0.188 C 
BRANCH   3   4
ATOM      4  O   UNL A   1      42.921  41.710  24.424  1.00  0.00    -0.376 OA
BRANCH   4   5
ATOM      5  C   UNL A   1      42.623  42.781  23.537  1.00  0.00     0.202 C 
BRANCH   5   6
ATOM      6  C   UNL A   1      41.720  42.514  22.320  1.00  0.00     0.261 C 
BRANCH   6   7
ATOM      7  O   UNL A   1      42.398  42.457  21.059  1.00  0.00    -0.459 OA
BRANCH   7   8
ATOM      8  C   UNL A   1      41.934  43.236  20.065  1.00  0.00     0.354 C 
ATOM      9  O   UNL A   1      40.791  43.459  19.765  1.00  0.00    -0.245 OA
BRANCH   8  10
ATOM     10  C   UNL A   1      43.134  43.910  19.438  1.00  0.00     0.148 C 
ATOM     11  N   UNL A   1      44.864  45.092  19.181  1.00  0.00    -0.256 N 
ATOM     12  N   UNL A   1      44.009  44.589  20.121  1.00  0.00    -0.169 NA
ATOM     13  C   UNL A   1      44.340  44.959  17.811  1.00  0.00     0.154 C 
ATOM     14  C   UNL A   1      43.442  43.727  17.980  1.00  0.00     0.099 C 
BRANCH  11  15
ATOM     15  C   UNL A   1      45.924  45.902  19.556  1.00  0.00     0.060 A 
ATOM     16  C   UNL A   1      48.116  47.450  20.424  1.00  0.00     0.067 A 
ATOM     17  C   UNL A   1      46.937  47.445  21.169  1.00  0.00     0.022 A 
ATOM     18  C   UNL A   1      48.193  46.730  19.231  1.00  0.00     0.022 A 
ATOM     19  C   UNL A   1      45.849  46.678  20.725  1.00  0.00     0.029 A 
ATOM     20  C   UNL A   1      47.101  45.970  18.805  1.00  0.00     0.029 A 
BRANCH  16  21
ATOM     21  S   UNL A   1      49.564  48.339  20.948  1.00  0.00     0.175 S 
ATOM     22  C   UNL A   1      50.928  47.215  20.879  1.00  0.00     0.163 C 
ATOM     23  O   UNL A   1      49.368  48.677  22.345  1.00  0.00    -0.224 OA
ATOM     24  O   UNL A   1      49.786  49.372  19.955  1.00  0.00    -0.224 OA
ENDBRANCH  16  21
ENDBRANCH  11  15
BRANCH  13  25
ATOM     25  C   UNL A   1      43.592  46.158  17.242  1.00  0.00     0.030 A 
ATOM     26  C   UNL A   1      44.099  47.425  17.008  1.00  0.00     0.017 A 
ATOM     27  S   UNL A   1      41.922  46.092  16.827  1.00  0.00    -0.147 S 
ATOM     28  C   UNL A   1      43.123  48.324  16.490  1.00  0.00     0.012 A 
ATOM     29  C   UNL A   1      41.904  47.713  16.311  1.00  0.00     0.065 A 
ENDBRANCH  13  25
ENDBRANCH   8  10
ENDBRANCH   7   8
ENDBRANCH   6   7
ENDBRANCH   5   6
ENDBRANCH   4   5
ENDBRANCH   3   4
ENDBRANCH   2   3
ENDBRANCH   1   2
BRANCH   1  30
ATOM     30  C   UNL A   1      44.754  39.206  27.129  1.00  0.00     0.188 C 
BRANCH  30  31
ATOM     31  C   UNL A   1      45.425  40.032  28.248  1.00  0.00     0.188 C 
BRANCH  31  32
ATOM     32  O   UNL A   1      46.277  39.272  29.103  1.00  0.00    -0.376 OA
BRANCH  32  33
ATOM     33  C   UNL A   1      45.792  38.993  30.412  1.00  0.00     0.202 C 
BRANCH  33  34
ATOM     34  C   UNL A   1      44.976  37.697  30.518  1.00  0.00     0.261 C 
BRANCH  34  35
ATOM     35  O   UNL A   1      45.588  36.554  29.895  1.00  0.00    -0.460 OA
BRANCH  35  36
ATOM     36  C   UNL A   1      46.317  35.748  30.696  1.00  0.00     0.338 C 
ATOM     37  O   UNL A   1      46.890  36.053  31.724  1.00  0.00    -0.246 OA
BRANCH  36  38
ATOM     38  C   UNL A   1      46.154  34.360  30.226  1.00  0.00     0.060 A 
ATOM     39  C   UNL A   1      45.795  34.154  28.888  1.00  0.00     0.016 A 
ATOM     40  C   UNL A   1      46.314  33.278  31.096  1.00  0.00     0.016 A 
ATOM     41  C   UNL A   1      45.526  32.865  28.436  1.00  0.00     0.010 A 
ATOM     42  C   UNL A   1      46.035  31.987  30.642  1.00  0.00     0.010 A 
ATOM     43  C   UNL A   1      45.593  31.784  29.324  1.00  0.00    -0.014 A 
BRANCH  43  44
ATOM     44  C   UNL A   1      45.012  30.486  28.910  1.00  0.00     0.031 A 
ATOM     45  C   UNL A   1      45.937  29.404  28.425  1.00  0.00     0.074 A 
ATOM     46  C   UNL A   1      43.695  30.248  29.017  1.00  0.00     0.049 A 
ATOM     47  N   UNL A   1      45.671  28.158  28.127  1.00  0.00    -0.248 NA
ATOM     48  C   UNL A   1      47.350  29.778  28.255  1.00  0.00     0.031 C 
ATOM     49  C   UNL A   1      42.695  31.209  29.476  1.00  0.00     0.029 A 
ATOM     50  N   UNL A   1      42.977  29.109  28.752  1.00  0.00    -0.354 N 
ATOM     51  C   UNL A   1      46.883  27.598  27.744  1.00  0.00     0.074 A 
ATOM     52  C   UNL A   1      47.874  28.650  27.802  1.00  0.00     0.031 C 
ATOM     53  C   UNL A   1      41.488  30.618  29.460  1.00  0.00     0.029 A 
ATOM     54  C   UNL A   1      41.632  29.242  28.986  1.00  0.00     0.049 A 
ATOM     55  H   UNL A   1      43.388  28.276  28.425  1.00  0.00     0.167 HD
ATOM     56  C   UNL A   1      47.153  26.320  27.386  1.00  0.00     0.031 A 
ATOM     57  C   UNL A   1      40.632  28.353  28.840  1.00  0.00     0.031 A 
ATOM     58  C   UNL A   1      46.166  25.279  27.297  1.00  0.00     0.049 A 
ATOM     59  C   UNL A   1      40.944  26.947  28.406  1.00  0.00     0.074 A 
ATOM     60  C   UNL A   1      46.343  23.947  26.969  1.00  0.00     0.029 A 
ATOM     61  N   UNL A   1      44.810  25.460  27.520  1.00  0.00    -0.354 N 
ATOM     62  N   UNL A   1      42.105  26.410  28.116  1.00  0.00    -0.248 NA
ATOM     63  C   UNL A   1      39.810  26.019  28.307  1.00  0.00     0.031 C 
ATOM     64  C   UNL A   1      45.085  23.334  26.940  1.00  0.00     0.029 A 
ATOM     65  C   UNL A   1      44.132  24.271  27.309  1.00  0.00     0.049 A 
ATOM     66  H   UNL A   1      44.390  26.309  27.791  1.00  0.00     0.167 HD
ATOM     67  C   UNL A   1      41.845  25.077  27.822  1.00  0.00     0.074 A 
ATOM     68  C   UNL A   1      40.417  24.885  27.984  1.00  0.00     0.031 C 
ATOM     69  C   UNL A   1      42.710  24.097  27.459  1.00  0.00     0.031 A 
BRANCH  56  70
ATOM     70  C   UNL A   1      48.578  26.003  27.028  1.00  0.00    -0.014 A 
ATOM     71  C   UNL A   1      49.468  25.474  27.977  1.00  0.00     0.009 A 
ATOM     72  C   UNL A   1      49.039  26.247  25.726  1.00  0.00     0.009 A 
ATOM     73  C   UNL A   1      50.805  25.243  27.642  1.00  0.00     0.001 A 
ATOM     74  C   UNL A   1      50.368  25.988  25.386  1.00  0.00     0.001 A 
ATOM     75  C   UNL A   1      51.252  25.499  26.346  1.00  0.00     0.000 A 
ENDBRANCH  56  70
BRANCH  57  76
ATOM     76  C   UNL A   1      39.236  28.773  29.121  1.00  0.00    -0.014 A 
ATOM     77  C   UNL A   1      38.697  28.663  30.412  1.00  0.00     0.009 A 
ATOM     78  C   UNL A   1      38.442  29.311  28.096  1.00  0.00     0.009 A 
ATOM     79  C   UNL A   1      37.385  29.070  30.665  1.00  0.00     0.001 A 
ATOM     80  C   UNL A   1      37.140  29.740  28.359  1.00  0.00     0.001 A 
ATOM     81  C   UNL A   1      36.611  29.615  29.642  1.00  0.00     0.000 A 
ENDBRANCH  57  76
BRANCH  69  82
ATOM     82  C   UNL A   1      42.141  22.723  27.233  1.00  0.00    -0.014 A 
ATOM     83  C   UNL A   1      41.674  21.941  28.302  1.00  0.00     0.009 A 
ATOM     84  C   UNL A   1      42.039  22.220  25.927  1.00  0.00     0.009 A 
ATOM     85  C   UNL A   1      41.152  20.667  28.068  1.00  0.00     0.001 A 
ATOM     86  C   UNL A   1      41.490  20.957  25.694  1.00  0.00     0.001 A 
ATOM     87  C   UNL A   1      41.057  20.178  26.766  1.00  0.00     0.000 A 
ENDBRANCH  69  82
ENDBRANCH  43  44
ENDBRANCH  36  38
ENDBRANCH  35  36
ENDBRANCH  34  35
ENDBRANCH  33  34
ENDBRANCH  32  33
ENDBRANCH  31  32
ENDBRANCH  30  31
ENDBRANCH   1  30
TORSDOF 23
ENDMDL
MODEL 2
REMARK VINA RESULT:      -8.4      9.906     13.303
REMARK SMILES CS(=O)(=O)c1ccc(N2N=C(C(=O)OCCOCCOCCOCCOC(=O)c3ccc(-c4c5nc(c(-c6ccccc6)c6ccc([nH]6)c(-c6ccccc6)c6nc(c(-c7ccccc7)c7ccc4[nH]7)C=C6)C=C5)cc3)C[C@H]2c2cccs2)cc1
REMARK SMILES IDX 20 1 19 2 18 3 17 4 16 5 15 6 14 7 12 8 13 9 11 10 9 11
REMARK SMILES IDX 10 12 78 13 77 14 8 15 5 16 6 17 85 18 7 19 84 20 2 21 1 22
REMARK SMILES IDX 3 23 4 24 79 25 80 26 83 27 81 28 82 29 21 30 22 31 23 32
REMARK SMILES IDX 24 33 25 34 26 35 27 36 28 37 29 38 30 39 76 40 31 41 75 42
REMARK SMILES IDX 32 43 33 44 34 45 69 46 35 47 74 48 68 49 70 50 36 51 73 52
REMARK SMILES IDX 67 53 66 54 37 56 59 57 44 58 58 59 45 60 48 61 57 62 71 63
REMARK SMILES IDX 46 64 47 65 56 67 72 68 49 69 38 70 39 71 43 72 40 73 42 74
REMARK SMILES IDX 41 75 60 76 61 77 65 78 62 79 64 80 63 81 50 82 51 83 55 84
REMARK SMILES IDX 52 85 54 86 53 87
REMARK H PARENT 70 55 48 66
REMARK Flexibility Score: inf
ROOT
ATOM      1  O   UNL A   1      32.894  34.741  32.025  1.00  0.00    -0.377 OA
ENDROOT
BRANCH   1   2
ATOM      2  C   UNL A   1      34.018  34.241  32.738  1.00  0.00     0.188 C 
BRANCH   2   3
ATOM      3  C   UNL A   1      35.248  35.158  32.620  1.00  0.00     0.188 C 
BRANCH   3   4
ATOM      4  O   UNL A   1      35.954  35.273  33.854  1.00  0.00    -0.376 OA
BRANCH   4   5
ATOM      5  C   UNL A   1      36.499  34.087  34.417  1.00  0.00     0.202 C 
BRANCH   5   6
ATOM      6  C   UNL A   1      37.987  34.063  34.810  1.00  0.00     0.261 C 
BRANCH   6   7
ATOM      7  O   UNL A   1      38.750  35.195  34.378  1.00  0.00    -0.459 OA
BRANCH   7   8
ATOM      8  C   UNL A   1      39.896  35.461  35.030  1.00  0.00     0.354 C 
ATOM      9  O   UNL A   1      40.049  35.716  36.196  1.00  0.00    -0.245 OA
BRANCH   8  10
ATOM     10  C   UNL A   1      41.023  35.259  34.040  1.00  0.00     0.148 C 
ATOM     11  N   UNL A   1      42.235  34.432  32.523  1.00  0.00    -0.256 N 
ATOM     12  N   UNL A   1      41.020  34.321  33.139  1.00  0.00    -0.169 NA
ATOM     13  C   UNL A   1      43.166  35.303  33.262  1.00  0.00     0.154 C 
ATOM     14  C   UNL A   1      42.170  36.225  33.975  1.00  0.00     0.099 C 
BRANCH  11  15
ATOM     15  C   UNL A   1      42.593  33.557  31.509  1.00  0.00     0.060 A 
ATOM     16  C   UNL A   1      43.464  31.812  29.473  1.00  0.00     0.067 A 
ATOM     17  C   UNL A   1      43.445  33.187  29.242  1.00  0.00     0.022 A 
ATOM     18  C   UNL A   1      43.009  31.300  30.689  1.00  0.00     0.022 A 
ATOM     19  C   UNL A   1      43.002  34.047  30.258  1.00  0.00     0.029 A 
ATOM     20  C   UNL A   1      42.574  32.171  31.691  1.00  0.00     0.029 A 
BRANCH  16  21
ATOM     21  S   UNL A   1      44.072  30.656  28.266  1.00  0.00     0.175 S 
ATOM     22  C   UNL A   1      44.156  31.505  26.717  1.00  0.00     0.163 C 
ATOM     23  O   UNL A   1      43.061  29.624  28.125  1.00  0.00    -0.224 OA
ATOM     24  O   UNL A   1      45.425  30.325  28.668  1.00  0.00    -0.224 OA
ENDBRANCH  16  21
ENDBRANCH  11  15
BRANCH  13  25
ATOM     25  C   UNL A   1      44.128  34.619  34.226  1.00  0.00     0.030 A 
ATOM     26  C   UNL A   1      44.103  34.672  35.609  1.00  0.00     0.017 A 
ATOM     27  S   UNL A   1      45.455  33.666  33.683  1.00  0.00    -0.147 S 
ATOM     28  C   UNL A   1      45.164  33.935  36.210  1.00  0.00     0.012 A 
ATOM     29  C   UNL A   1      45.952  33.310  35.272  1.00  0.00     0.065 A 
ENDBRANCH  13  25
ENDBRANCH   8  10
ENDBRANCH   7   8
ENDBRANCH   6   7
ENDBRANCH   5   6
ENDBRANCH   4   5
ENDBRANCH   3   4
ENDBRANCH   2   3
ENDBRANCH   1   2
BRANCH   1  30
ATOM     30  C   UNL A   1      32.904  36.125  31.674  1.00  0.00     0.188 C 
BRANCH  30  31
ATOM     31  C   UNL A   1      33.127  36.577  30.214  1.00  0.00     0.188 C 
BRANCH  31  32
ATOM     32  O   UNL A   1      32.720  35.619  29.239  1.00  0.00    -0.376 OA
BRANCH  32  33
ATOM     33  C   UNL A   1      33.752  34.901  28.571  1.00  0.00     0.202 C 
BRANCH  33  34
ATOM     34  C   UNL A   1      33.461  33.404  28.390  1.00  0.00     0.261 C 
BRANCH  34  35
ATOM     35  O   UNL A   1      34.633  32.576  28.292  1.00  0.00    -0.460 OA
BRANCH  35  36
ATOM     36  C   UNL A   1      34.465  31.354  27.747  1.00  0.00     0.338 C 
ATOM     37  O   UNL A   1      33.622  31.016  26.937  1.00  0.00    -0.246 OA
BRANCH  36  38
ATOM     38  C   UNL A   1      35.605  30.508  28.147  1.00  0.00     0.060 A 
ATOM     39  C   UNL A   1      35.713  30.140  29.493  1.00  0.00     0.016 A 
ATOM     40  C   UNL A   1      36.575  30.116  27.219  1.00  0.00     0.016 A 
ATOM     41  C   UNL A   1      36.832  29.434  29.928  1.00  0.00     0.010 A 
ATOM     42  C   UNL A   1      37.701  29.417  27.661  1.00  0.00     0.010 A 
ATOM     43  C   UNL A   1      37.854  29.118  29.025  1.00  0.00    -0.014 A 
BRANCH  43  44
ATOM     44  C   UNL A   1      39.155  28.650  29.558  1.00  0.00     0.031 A 
ATOM     45  C   UNL A   1      39.608  29.155  30.900  1.00  0.00     0.074 A 
ATOM     46  C   UNL A   1      39.895  27.749  28.893  1.00  0.00     0.049 A 
ATOM     47  N   UNL A   1      40.642  28.795  31.616  1.00  0.00    -0.248 NA
ATOM     48  C   UNL A   1      38.781  30.206  31.517  1.00  0.00     0.031 C 
ATOM     49  C   UNL A   1      39.566  27.180  27.588  1.00  0.00     0.029 A 
ATOM     50  N   UNL A   1      41.079  27.149  29.239  1.00  0.00    -0.354 N 
ATOM     51  C   UNL A   1      40.586  29.567  32.769  1.00  0.00     0.074 A 
ATOM     52  C   UNL A   1      39.445  30.446  32.637  1.00  0.00     0.031 C 
ATOM     53  C   UNL A   1      40.530  26.309  27.242  1.00  0.00     0.029 A 
ATOM     54  C   UNL A   1      41.542  26.266  28.296  1.00  0.00     0.049 A 
ATOM     55  H   UNL A   1      41.552  27.335  30.083  1.00  0.00     0.167 HD
ATOM     56  C   UNL A   1      41.403  29.542  33.849  1.00  0.00     0.031 A 
ATOM     57  C   UNL A   1      42.653  25.505  28.288  1.00  0.00     0.031 A 
ATOM     58  C   UNL A   1      42.557  28.692  33.971  1.00  0.00     0.049 A 
ATOM     59  C   UNL A   1      43.570  25.515  29.481  1.00  0.00     0.074 A 
ATOM     60  C   UNL A   1      43.433  28.573  35.035  1.00  0.00     0.029 A 
ATOM     61  N   UNL A   1      43.004  27.828  32.984  1.00  0.00    -0.354 N 
ATOM     62  N   UNL A   1      43.467  26.196  30.597  1.00  0.00    -0.248 NA
ATOM     63  C   UNL A   1      44.741  24.630  29.421  1.00  0.00     0.031 C 
ATOM     64  C   UNL A   1      44.444  27.677  34.668  1.00  0.00     0.029 A 
ATOM     65  C   UNL A   1      44.162  27.192  33.401  1.00  0.00     0.049 A 
ATOM     66  H   UNL A   1      42.564  27.686  32.115  1.00  0.00     0.167 HD
ATOM     67  C   UNL A   1      44.546  25.806  31.381  1.00  0.00     0.074 A 
ATOM     68  C   UNL A   1      45.281  24.817  30.618  1.00  0.00     0.031 C 
ATOM     69  C   UNL A   1      44.893  26.222  32.625  1.00  0.00     0.031 A 
BRANCH  56  70
ATOM     70  C   UNL A   1      41.085  30.498  34.964  1.00  0.00    -0.014 A 
ATOM     71  C   UNL A   1      39.881  30.406  35.683  1.00  0.00     0.009 A 
ATOM     72  C   UNL A   1      41.995  31.514  35.291  1.00  0.00     0.009 A 
ATOM     73  C   UNL A   1      39.576  31.341  36.674  1.00  0.00     0.001 A 
ATOM     74  C   UNL A   1      41.700  32.430  36.301  1.00  0.00     0.001 A 
ATOM     75  C   UNL A   1      40.487  32.351  36.983  1.00  0.00     0.000 A 
ENDBRANCH  56  70
BRANCH  57  76
ATOM     76  C   UNL A   1      42.948  24.658  27.105  1.00  0.00    -0.014 A 
ATOM     77  C   UNL A   1      42.418  23.363  26.996  1.00  0.00     0.009 A 
ATOM     78  C   UNL A   1      43.746  25.157  26.064  1.00  0.00     0.009 A 
ATOM     79  C   UNL A   1      42.696  22.580  25.874  1.00  0.00     0.001 A 
ATOM     80  C   UNL A   1      44.001  24.380  24.933  1.00  0.00     0.001 A 
ATOM     81  C   UNL A   1      43.480  23.091  24.840  1.00  0.00     0.000 A 
ENDBRANCH  57  76
BRANCH  69  82
ATOM     82  C   UNL A   1      46.108  25.594  33.249  1.00  0.00    -0.014 A 
ATOM     83  C   UNL A   1      47.370  26.203  33.166  1.00  0.00     0.009 A 
ATOM     84  C   UNL A   1      45.979  24.391  33.961  1.00  0.00     0.009 A 
ATOM     85  C   UNL A   1      48.485  25.599  33.752  1.00  0.00     0.001 A 
ATOM     86  C   UNL A   1      47.090  23.804  34.569  1.00  0.00     0.001 A 
ATOM     87  C   UNL A   1      48.343  24.403  34.456  1.00  0.00     0.000 A 
ENDBRANCH  69  82
ENDBRANCH  43  44
ENDBRANCH  36  38
ENDBRANCH  35  36
ENDBRANCH  34  35
ENDBRANCH  33  34
ENDBRANCH  32  33
ENDBRANCH  31  32
ENDBRANCH  30  31
ENDBRANCH   1  30
TORSDOF 23
ENDMDL
MODEL 3
REMARK VINA RESULT:      -8.0     10.825     15.320
REMARK SMILES CS(=O)(=O)c1ccc(N2N=C(C(=O)OCCOCCOCCOCCOC(=O)c3ccc(-c4c5nc(c(-c6ccccc6)c6ccc([nH]6)c(-c6ccccc6)c6nc(c(-c7ccccc7)c7ccc4[nH]7)C=C6)C=C5)cc3)C[C@H]2c2cccs2)cc1
REMARK SMILES IDX 20 1 19 2 18 3 17 4 16 5 15 6 14 7 12 8 13 9 11 10 9 11
REMARK SMILES IDX 10 12 78 13 77 14 8 15 5 16 6 17 85 18 7 19 84 20 2 21 1 22
REMARK SMILES IDX 3 23 4 24 79 25 80 26 83 27 81 28 82 29 21 30 22 31 23 32
REMARK SMILES IDX 24 33 25 34 26 35 27 36 28 37 29 38 30 39 76 40 31 41 75 42
REMARK SMILES IDX 32 43 33 44 34 45 69 46 35 47 74 48 68 49 70 50 36 51 73 52
REMARK SMILES IDX 67 53 66 54 37 56 59 57 44 58 58 59 45 60 48 61 57 62 71 63
REMARK SMILES IDX 46 64 47 65 56 67 72 68 49 69 38 70 39 71 43 72 40 73 42 74
REMARK SMILES IDX 41 75 60 76 61 77 65 78 62 79 64 80 63 81 50 82 51 83 55 84
REMARK SMILES IDX 52 85 54 86 53 87
REMARK H PARENT 70 55 48 66
REMARK Flexibility Score: inf
ROOT
ATOM      1  O   UNL A   1      33.117  34.562  32.034  1.00  0.00    -0.377 OA
ENDROOT
BRANCH   1   2
ATOM      2  C   UNL A   1      34.402  34.014  32.299  1.00  0.00     0.188 C 
BRANCH   2   3
ATOM      3  C   UNL A   1      34.924  34.381  33.699  1.00  0.00     0.188 C 
BRANCH   3   4
ATOM      4  O   UNL A   1      36.219  33.839  33.949  1.00  0.00    -0.376 OA
BRANCH   4   5
ATOM      5  C   UNL A   1      37.340  34.526  33.407  1.00  0.00     0.202 C 
BRANCH   5   6
ATOM      6  C   UNL A   1      38.534  34.847  34.324  1.00  0.00     0.261 C 
BRANCH   6   7
ATOM      7  O   UNL A   1      38.423  34.354  35.664  1.00  0.00    -0.459 OA
BRANCH   7   8
ATOM      8  C   UNL A   1      39.471  33.679  36.170  1.00  0.00     0.354 C 
ATOM      9  O   UNL A   1      40.105  32.793  35.658  1.00  0.00    -0.245 OA
BRANCH   8  10
ATOM     10  C   UNL A   1      39.814  34.326  37.494  1.00  0.00     0.148 C 
ATOM     11  N   UNL A   1      40.216  35.778  38.972  1.00  0.00    -0.256 N 
ATOM     12  N   UNL A   1      39.751  35.609  37.698  1.00  0.00    -0.169 NA
ATOM     13  C   UNL A   1      40.872  34.569  39.500  1.00  0.00     0.154 C 
ATOM     14  C   UNL A   1      40.139  33.487  38.696  1.00  0.00     0.099 C 
BRANCH  11  15
ATOM     15  C   UNL A   1      40.315  37.046  39.523  1.00  0.00     0.060 A 
ATOM     16  C   UNL A   1      40.559  39.677  40.509  1.00  0.00     0.067 A 
ATOM     17  C   UNL A   1      41.704  38.910  40.297  1.00  0.00     0.022 A 
ATOM     18  C   UNL A   1      39.297  39.127  40.279  1.00  0.00     0.022 A 
ATOM     19  C   UNL A   1      41.573  37.599  39.814  1.00  0.00     0.029 A 
ATOM     20  C   UNL A   1      39.184  37.821  39.795  1.00  0.00     0.029 A 
BRANCH  16  21
ATOM     21  S   UNL A   1      40.636  41.366  41.056  1.00  0.00     0.175 S 
ATOM     22  C   UNL A   1      41.082  42.354  39.658  1.00  0.00     0.163 C 
ATOM     23  O   UNL A   1      41.735  41.453  41.999  1.00  0.00    -0.224 OA
ATOM     24  O   UNL A   1      39.287  41.729  41.446  1.00  0.00    -0.224 OA
ENDBRANCH  16  21
ENDBRANCH  11  15
BRANCH  13  25
ATOM     25  C   UNL A   1      42.386  34.488  39.349  1.00  0.00     0.030 A 
ATOM     26  C   UNL A   1      43.302  34.099  40.312  1.00  0.00     0.017 A 
ATOM     27  S   UNL A   1      43.193  34.925  37.892  1.00  0.00    -0.147 S 
ATOM     28  C   UNL A   1      44.648  34.159  39.850  1.00  0.00     0.012 A 
ATOM     29  C   UNL A   1      44.725  34.559  38.536  1.00  0.00     0.065 A 
ENDBRANCH  13  25
ENDBRANCH   8  10
ENDBRANCH   7   8
ENDBRANCH   6   7
ENDBRANCH   5   6
ENDBRANCH   4   5
ENDBRANCH   3   4
ENDBRANCH   2   3
ENDBRANCH   1   2
BRANCH   1  30
ATOM     30  C   UNL A   1      33.065  35.909  31.563  1.00  0.00     0.188 C 
BRANCH  30  31
ATOM     31  C   UNL A   1      33.167  36.234  30.056  1.00  0.00     0.188 C 
BRANCH  31  32
ATOM     32  O   UNL A   1      32.689  35.196  29.203  1.00  0.00    -0.376 OA
BRANCH  32  33
ATOM     33  C   UNL A   1      33.637  34.592  28.330  1.00  0.00     0.202 C 
BRANCH  33  34
ATOM     34  C   UNL A   1      34.001  33.147  28.698  1.00  0.00     0.261 C 
BRANCH  34  35
ATOM     35  O   UNL A   1      35.413  32.902  28.829  1.00  0.00    -0.460 OA
BRANCH  35  36
ATOM     36  C   UNL A   1      35.831  31.639  28.602  1.00  0.00     0.338 C 
ATOM     37  O   UNL A   1      35.461  30.887  27.720  1.00  0.00    -0.246 OA
BRANCH  36  38
ATOM     38  C   UNL A   1      36.973  31.363  29.493  1.00  0.00     0.060 A 
ATOM     39  C   UNL A   1      36.783  31.507  30.872  1.00  0.00     0.016 A 
ATOM     40  C   UNL A   1      38.222  31.006  28.977  1.00  0.00     0.016 A 
ATOM     41  C   UNL A   1      37.865  31.360  31.737  1.00  0.00     0.010 A 
ATOM     42  C   UNL A   1      39.308  30.869  29.846  1.00  0.00     0.010 A 
ATOM     43  C   UNL A   1      39.141  31.095  31.223  1.00  0.00    -0.014 A 
BRANCH  43  44
ATOM     44  C   UNL A   1      40.313  31.249  32.115  1.00  0.00     0.031 A 
ATOM     45  C   UNL A   1      40.867  30.028  32.796  1.00  0.00     0.074 A 
ATOM     46  C   UNL A   1      40.915  32.439  32.272  1.00  0.00     0.049 A 
ATOM     47  N   UNL A   1      41.950  29.901  33.518  1.00  0.00    -0.248 NA
ATOM     48  C   UNL A   1      40.094  28.785  32.639  1.00  0.00     0.031 C 
ATOM     49  C   UNL A   1      40.480  33.695  31.666  1.00  0.00     0.029 A 
ATOM     50  N   UNL A   1      42.034  32.776  32.991  1.00  0.00    -0.354 N 
ATOM     51  C   UNL A   1      41.994  28.564  33.894  1.00  0.00     0.074 A 
ATOM     52  C   UNL A   1      40.807  27.933  33.360  1.00  0.00     0.031 C 
ATOM     53  C   UNL A   1      41.327  34.670  32.039  1.00  0.00     0.029 A 
ATOM     54  C   UNL A   1      42.355  34.107  32.913  1.00  0.00     0.049 A 
ATOM     55  H   UNL A   1      42.556  32.124  33.514  1.00  0.00     0.167 HD
ATOM     56  C   UNL A   1      42.942  27.914  34.610  1.00  0.00     0.031 A 
ATOM     57  C   UNL A   1      43.367  34.793  33.477  1.00  0.00     0.031 A 
ATOM     58  C   UNL A   1      44.107  28.544  35.169  1.00  0.00     0.049 A 
ATOM     59  C   UNL A   1      44.393  34.061  34.300  1.00  0.00     0.074 A 
ATOM     60  C   UNL A   1      45.140  27.967  35.888  1.00  0.00     0.029 A 
ATOM     61  N   UNL A   1      44.385  29.900  35.087  1.00  0.00    -0.354 N 
ATOM     62  N   UNL A   1      44.463  32.784  34.589  1.00  0.00    -0.248 NA
ATOM     63  C   UNL A   1      45.492  34.865  34.852  1.00  0.00     0.031 C 
ATOM     64  C   UNL A   1      46.014  28.985  36.288  1.00  0.00     0.029 A 
ATOM     65  C   UNL A   1      45.557  30.185  35.766  1.00  0.00     0.049 A 
ATOM     66  H   UNL A   1      43.830  30.562  34.613  1.00  0.00     0.167 HD
ATOM     67  C   UNL A   1      45.624  32.626  35.335  1.00  0.00     0.074 A 
ATOM     68  C   UNL A   1      46.234  33.937  35.442  1.00  0.00     0.031 C 
ATOM     69  C   UNL A   1      46.145  31.496  35.878  1.00  0.00     0.031 A 
BRANCH  56  70
ATOM     70  C   UNL A   1      42.721  26.448  34.854  1.00  0.00    -0.014 A 
ATOM     71  C   UNL A   1      43.498  25.475  34.202  1.00  0.00     0.009 A 
ATOM     72  C   UNL A   1      41.715  26.033  35.739  1.00  0.00     0.009 A 
ATOM     73  C   UNL A   1      43.236  24.116  34.396  1.00  0.00     0.001 A 
ATOM     74  C   UNL A   1      41.476  24.675  35.952  1.00  0.00     0.001 A 
ATOM     75  C   UNL A   1      42.227  23.718  35.272  1.00  0.00     0.000 A 
ENDBRANCH  56  70
BRANCH  57  76
ATOM     76  C   UNL A   1      43.461  36.260  33.267  1.00  0.00    -0.014 A 
ATOM     77  C   UNL A   1      42.957  37.157  34.220  1.00  0.00     0.009 A 
ATOM     78  C   UNL A   1      44.082  36.767  32.115  1.00  0.00     0.009 A 
ATOM     79  C   UNL A   1      43.059  38.535  34.014  1.00  0.00     0.001 A 
ATOM     80  C   UNL A   1      44.204  38.144  31.925  1.00  0.00     0.001 A 
ATOM     81  C   UNL A   1      43.689  39.027  32.872  1.00  0.00     0.000 A 
ENDBRANCH  57  76
BRANCH  69  82
ATOM     82  C   UNL A   1      47.448  31.623  36.616  1.00  0.00    -0.014 A 
ATOM     83  C   UNL A   1      47.486  31.868  37.997  1.00  0.00     0.009 A 
ATOM     84  C   UNL A   1      48.657  31.458  35.922  1.00  0.00     0.009 A 
ATOM     85  C   UNL A   1      48.709  31.984  38.661  1.00  0.00     0.001 A 
ATOM     86  C   UNL A   1      49.878  31.545  36.593  1.00  0.00     0.001 A 
ATOM     87  C   UNL A   1      49.903  31.818  37.960  1.00  0.00     0.000 A 
ENDBRANCH  69  82
ENDBRANCH  43  44
ENDBRANCH  36  38
ENDBRANCH  35  36
ENDBRANCH  34  35
ENDBRANCH  33  34
ENDBRANCH  32  33
ENDBRANCH  31  32
ENDBRANCH  30  31
ENDBRANCH   1  30
TORSDOF 23
ENDMDL
