MODEL 1
REMARK VINA RESULT:     -11.4      0.000      0.000
REMARK SMILES O=C(N[C@]1(C(=O)OCCOCCOCCOCCOC(=O)c2ccc(-c3c4nc(c(-c5ccccc5)c5ccc([nH]5)c(-c5ccccc5)c5nc(c(-c6ccccc6)c6ccc3[nH]6)C=C5)C=C4)cc2)CC[C@H](c2ccccc2)CC1)OCC1c2ccccc2-c2ccccc21
REMARK SMILES IDX 12 1 11 2 10 3 9 4 8 5 7 6 5 7 6 8 4 9 70 10 80 11 71 12
REMARK SMILES IDX 79 13 72 14 3 15 1 16 2 17 81 19 82 20 83 21 84 22 95 23
REMARK SMILES IDX 85 24 89 25 90 26 94 27 86 28 88 29 91 30 93 31 87 32 92 33
REMARK SMILES IDX 73 34 74 35 78 36 75 37 77 38 76 39 13 40 14 41 15 42 16 43
REMARK SMILES IDX 17 44 18 45 19 46 20 47 21 48 22 49 23 50 69 51 24 52 68 53
REMARK SMILES IDX 25 54 26 55 27 56 62 57 28 58 67 59 61 60 63 61 29 62 66 63
REMARK SMILES IDX 60 64 59 65 30 67 52 68 37 69 51 70 38 71 41 72 50 73 64 74
REMARK SMILES IDX 39 75 40 76 49 78 65 79 42 80 31 81 32 82 36 83 33 84 35 85
REMARK SMILES IDX 34 86 53 87 54 88 58 89 55 90 57 91 56 92 43 93 44 94 48 95
REMARK SMILES IDX 45 96 47 97 46 98
REMARK H PARENT 3 18 63 66 41 77
REMARK Flexibility Score: inf
ROOT
ATOM      1  C   UNL A   1      40.443  19.580  25.915  1.00  0.00     0.188 C 
ENDROOT
BRANCH   1   2
ATOM      2  C   UNL A   1      40.520  20.899  26.695  1.00  0.00     0.188 C 
BRANCH   2   3
ATOM      3  O   UNL A   1      39.383  21.714  26.544  1.00  0.00    -0.376 OA
BRANCH   3   4
ATOM      4  C   UNL A   1      38.535  21.547  25.429  1.00  0.00     0.202 C 
BRANCH   4   5
ATOM      5  C   UNL A   1      37.051  21.965  25.406  1.00  0.00     0.261 C 
BRANCH   5   6
ATOM      6  O   UNL A   1      36.233  21.660  24.266  1.00  0.00    -0.461 OA
BRANCH   6   7
ATOM      7  C   UNL A   1      35.821  22.733  23.538  1.00  0.00     0.332 C 
ATOM      8  O   UNL A   1      36.585  23.361  22.804  1.00  0.00    -0.249 OA
BRANCH   7   9
ATOM      9  C   UNL A   1      34.352  23.201  23.854  1.00  0.00     0.141 C 
ATOM     10  C   UNL A   1      34.545  24.159  25.033  1.00  0.00     0.041 C 
ATOM     11  C   UNL A   1      33.180  22.213  24.088  1.00  0.00     0.041 C 
ATOM     12  C   UNL A   1      34.261  23.570  26.408  1.00  0.00     0.011 C 
ATOM     13  C   UNL A   1      32.906  21.737  25.511  1.00  0.00     0.011 C 
ATOM     14  C   UNL A   1      32.900  22.878  26.525  1.00  0.00     0.019 C 
BRANCH   9  15
ATOM     15  N   UNL A   1      34.013  23.813  22.526  1.00  0.00    -0.305 N 
ATOM     16  O   UNL A   1      33.256  25.193  20.927  1.00  0.00    -0.225 OA
ATOM     17  C   UNL A   1      33.510  24.999  22.110  1.00  0.00     0.408 C 
ATOM     18  H   UNL A   1      34.202  23.204  21.775  1.00  0.00     0.168 HD
BRANCH  17  19
ATOM     19  O   UNL A   1      33.380  25.961  23.063  1.00  0.00    -0.449 OA
BRANCH  19  20
ATOM     20  C   UNL A   1      32.210  26.710  22.764  1.00  0.00     0.248 C 
BRANCH  20  21
ATOM     21  C   UNL A   1      32.319  28.266  22.738  1.00  0.00     0.088 C 
ATOM     22  C   UNL A   1      31.060  29.143  22.711  1.00  0.00    -0.029 A 
ATOM     23  C   UNL A   1      32.794  28.533  24.176  1.00  0.00    -0.029 A 
ATOM     24  C   UNL A   1      30.323  29.607  21.628  1.00  0.00     0.005 A 
ATOM     25  C   UNL A   1      30.728  29.568  24.020  1.00  0.00    -0.014 A 
ATOM     26  C   UNL A   1      31.742  29.092  24.929  1.00  0.00    -0.014 A 
ATOM     27  C   UNL A   1      33.941  28.035  24.774  1.00  0.00     0.005 A 
ATOM     28  C   UNL A   1      29.231  30.457  21.867  1.00  0.00     0.000 A 
ATOM     29  C   UNL A   1      29.634  30.392  24.262  1.00  0.00     0.009 A 
ATOM     30  C   UNL A   1      31.777  29.052  26.309  1.00  0.00     0.009 A 
ATOM     31  C   UNL A   1      33.979  28.004  26.164  1.00  0.00     0.000 A 
ATOM     32  C   UNL A   1      28.884  30.839  23.173  1.00  0.00     0.001 A 
ATOM     33  C   UNL A   1      32.896  28.481  26.923  1.00  0.00     0.001 A 
ENDBRANCH  20  21
ENDBRANCH  19  20
ENDBRANCH  17  19
ENDBRANCH   9  15
BRANCH  14  34
ATOM     34  C   UNL A   1      31.624  23.729  26.491  1.00  0.00    -0.045 A 
ATOM     35  C   UNL A   1      31.551  25.064  26.068  1.00  0.00     0.004 A 
ATOM     36  C   UNL A   1      30.408  23.136  26.869  1.00  0.00     0.004 A 
ATOM     37  C   UNL A   1      30.363  25.805  26.104  1.00  0.00     0.000 A 
ATOM     38  C   UNL A   1      29.207  23.859  26.876  1.00  0.00     0.000 A 
ATOM     39  C   UNL A   1      29.188  25.202  26.516  1.00  0.00     0.000 A 
ENDBRANCH  14  34
ENDBRANCH   7   9
ENDBRANCH   6   7
ENDBRANCH   5   6
ENDBRANCH   4   5
ENDBRANCH   3   4
ENDBRANCH   2   3
ENDBRANCH   1   2
BRANCH   1  40
ATOM     40  O   UNL A   1      41.626  18.845  25.622  1.00  0.00    -0.377 OA
BRANCH  40  41
ATOM     41  C   UNL A   1      42.898  19.420  25.905  1.00  0.00     0.188 C 
BRANCH  41  42
ATOM     42  C   UNL A   1      44.119  18.976  25.078  1.00  0.00     0.188 C 
BRANCH  42  43
ATOM     43  O   UNL A   1      44.869  20.038  24.517  1.00  0.00    -0.376 OA
BRANCH  43  44
ATOM     44  C   UNL A   1      45.715  20.787  25.376  1.00  0.00     0.202 C 
BRANCH  44  45
ATOM     45  C   UNL A   1      45.631  22.323  25.350  1.00  0.00     0.261 C 
BRANCH  45  46
ATOM     46  O   UNL A   1      44.560  22.926  26.094  1.00  0.00    -0.460 OA
BRANCH  46  47
ATOM     47  C   UNL A   1      43.499  23.397  25.410  1.00  0.00     0.338 C 
ATOM     48  O   UNL A   1      43.031  22.965  24.369  1.00  0.00    -0.246 OA
BRANCH  47  49
ATOM     49  C   UNL A   1      42.869  24.442  26.237  1.00  0.00     0.060 A 
ATOM     50  C   UNL A   1      43.355  25.756  26.172  1.00  0.00     0.016 A 
ATOM     51  C   UNL A   1      41.806  24.117  27.080  1.00  0.00     0.016 A 
ATOM     52  C   UNL A   1      42.798  26.744  26.979  1.00  0.00     0.010 A 
ATOM     53  C   UNL A   1      41.269  25.103  27.911  1.00  0.00     0.010 A 
ATOM     54  C   UNL A   1      41.790  26.409  27.888  1.00  0.00    -0.014 A 
BRANCH  54  55
ATOM     55  C   UNL A   1      41.446  27.359  28.970  1.00  0.00     0.031 A 
ATOM     56  C   UNL A   1      42.261  27.315  30.232  1.00  0.00     0.074 A 
ATOM     57  C   UNL A   1      40.461  28.261  28.825  1.00  0.00     0.049 A 
ATOM     58  N   UNL A   1      42.126  28.008  31.333  1.00  0.00    -0.248 NA
ATOM     59  C   UNL A   1      43.380  26.357  30.254  1.00  0.00     0.031 C 
ATOM     60  C   UNL A   1      39.644  28.443  27.627  1.00  0.00     0.029 A 
ATOM     61  N   UNL A   1      39.981  29.195  29.708  1.00  0.00    -0.354 N 
ATOM     62  C   UNL A   1      43.136  27.564  32.179  1.00  0.00     0.074 A 
ATOM     63  C   UNL A   1      43.854  26.523  31.479  1.00  0.00     0.031 C 
ATOM     64  C   UNL A   1      38.751  29.422  27.855  1.00  0.00     0.029 A 
ATOM     65  C   UNL A   1      38.911  29.906  29.225  1.00  0.00     0.049 A 
ATOM     66  H   UNL A   1      40.367  29.341  30.602  1.00  0.00     0.167 HD
ATOM     67  C   UNL A   1      43.442  27.990  33.426  1.00  0.00     0.031 A 
ATOM     68  C   UNL A   1      38.133  30.824  29.834  1.00  0.00     0.031 A 
ATOM     69  C   UNL A   1      42.711  29.010  34.129  1.00  0.00     0.049 A 
ATOM     70  C   UNL A   1      38.431  31.212  31.260  1.00  0.00     0.074 A 
ATOM     71  C   UNL A   1      42.936  29.513  35.397  1.00  0.00     0.029 A 
ATOM     72  N   UNL A   1      41.603  29.673  33.623  1.00  0.00    -0.354 N 
ATOM     73  N   UNL A   1      39.396  30.797  32.047  1.00  0.00    -0.248 NA
ATOM     74  C   UNL A   1      37.535  32.199  31.878  1.00  0.00     0.031 C 
ATOM     75  C   UNL A   1      41.926  30.435  35.685  1.00  0.00     0.029 A 
ATOM     76  C   UNL A   1      41.116  30.561  34.566  1.00  0.00     0.049 A 
ATOM     77  H   UNL A   1      41.221  29.534  32.726  1.00  0.00     0.167 HD
ATOM     78  C   UNL A   1      39.242  31.498  33.238  1.00  0.00     0.074 A 
ATOM     79  C   UNL A   1      38.101  32.373  33.063  1.00  0.00     0.031 C 
ATOM     80  C   UNL A   1      39.979  31.425  34.375  1.00  0.00     0.031 A 
BRANCH  67  81
ATOM     81  C   UNL A   1      44.592  27.317  34.123  1.00  0.00    -0.014 A 
ATOM     82  C   UNL A   1      45.902  27.815  34.025  1.00  0.00     0.009 A 
ATOM     83  C   UNL A   1      44.357  26.176  34.907  1.00  0.00     0.009 A 
ATOM     84  C   UNL A   1      46.956  27.163  34.668  1.00  0.00     0.001 A 
ATOM     85  C   UNL A   1      45.407  25.545  35.575  1.00  0.00     0.001 A 
ATOM     86  C   UNL A   1      46.707  26.033  35.447  1.00  0.00     0.000 A 
ENDBRANCH  67  81
BRANCH  68  87
ATOM     87  C   UNL A   1      36.976  31.418  29.114  1.00  0.00    -0.014 A 
ATOM     88  C   UNL A   1      37.025  32.733  28.629  1.00  0.00     0.009 A 
ATOM     89  C   UNL A   1      35.797  30.674  28.932  1.00  0.00     0.009 A 
ATOM     90  C   UNL A   1      35.911  33.301  28.005  1.00  0.00     0.001 A 
ATOM     91  C   UNL A   1      34.697  31.234  28.278  1.00  0.00     0.001 A 
ATOM     92  C   UNL A   1      34.751  32.550  27.825  1.00  0.00     0.000 A 
ENDBRANCH  68  87
BRANCH  80  93
ATOM     93  C   UNL A   1      39.605  32.349  35.502  1.00  0.00    -0.014 A 
ATOM     94  C   UNL A   1      38.623  32.002  36.443  1.00  0.00     0.009 A 
ATOM     95  C   UNL A   1      40.287  33.568  35.652  1.00  0.00     0.009 A 
ATOM     96  C   UNL A   1      38.305  32.875  37.486  1.00  0.00     0.001 A 
ATOM     97  C   UNL A   1      39.992  34.422  36.715  1.00  0.00     0.001 A 
ATOM     98  C   UNL A   1      38.994  34.079  37.625  1.00  0.00     0.000 A 
ENDBRANCH  80  93
ENDBRANCH  54  55
ENDBRANCH  47  49
ENDBRANCH  46  47
ENDBRANCH  45  46
ENDBRANCH  44  45
ENDBRANCH  43  44
ENDBRANCH  42  43
ENDBRANCH  41  42
ENDBRANCH  40  41
ENDBRANCH   1  40
TORSDOF 25
ENDMDL
MODEL 2
REMARK VINA RESULT:     -10.6      0.796      5.317
REMARK SMILES O=C(N[C@]1(C(=O)OCCOCCOCCOCCOC(=O)c2ccc(-c3c4nc(c(-c5ccccc5)c5ccc([nH]5)c(-c5ccccc5)c5nc(c(-c6ccccc6)c6ccc3[nH]6)C=C5)C=C4)cc2)CC[C@H](c2ccccc2)CC1)OCC1c2ccccc2-c2ccccc21
REMARK SMILES IDX 12 1 11 2 10 3 9 4 8 5 7 6 5 7 6 8 4 9 70 10 80 11 71 12
REMARK SMILES IDX 79 13 72 14 3 15 1 16 2 17 81 19 82 20 83 21 84 22 95 23
REMARK SMILES IDX 85 24 89 25 90 26 94 27 86 28 88 29 91 30 93 31 87 32 92 33
REMARK SMILES IDX 73 34 74 35 78 36 75 37 77 38 76 39 13 40 14 41 15 42 16 43
REMARK SMILES IDX 17 44 18 45 19 46 20 47 21 48 22 49 23 50 69 51 24 52 68 53
REMARK SMILES IDX 25 54 26 55 27 56 62 57 28 58 67 59 61 60 63 61 29 62 66 63
REMARK SMILES IDX 60 64 59 65 30 67 52 68 37 69 51 70 38 71 41 72 50 73 64 74
REMARK SMILES IDX 39 75 40 76 49 78 65 79 42 80 31 81 32 82 36 83 33 84 35 85
REMARK SMILES IDX 34 86 53 87 54 88 58 89 55 90 57 91 56 92 43 93 44 94 48 95
REMARK SMILES IDX 45 96 47 97 46 98
REMARK H PARENT 3 18 63 66 41 77
REMARK Flexibility Score: inf
ROOT
ATOM      1  C   UNL A   1      40.483  19.551  26.038  1.00  0.00     0.188 C 
ENDROOT
BRANCH   1   2
ATOM      2  C   UNL A   1      40.551  20.965  26.630  1.00  0.00     0.188 C 
BRANCH   2   3
ATOM      3  O   UNL A   1      39.350  21.689  26.508  1.00  0.00    -0.376 OA
BRANCH   3   4
ATOM      4  C   UNL A   1      38.467  21.422  25.441  1.00  0.00     0.202 C 
BRANCH   4   5
ATOM      5  C   UNL A   1      36.986  21.851  25.420  1.00  0.00     0.261 C 
BRANCH   5   6
ATOM      6  O   UNL A   1      36.200  21.673  24.233  1.00  0.00    -0.461 OA
BRANCH   6   7
ATOM      7  C   UNL A   1      35.794  22.818  23.622  1.00  0.00     0.332 C 
ATOM      8  O   UNL A   1      36.570  23.534  22.987  1.00  0.00    -0.249 OA
BRANCH   7   9
ATOM      9  C   UNL A   1      34.311  23.233  23.947  1.00  0.00     0.141 C 
ATOM     10  C   UNL A   1      34.469  24.123  25.184  1.00  0.00     0.041 C 
ATOM     11  C   UNL A   1      33.160  22.206  24.108  1.00  0.00     0.041 C 
ATOM     12  C   UNL A   1      34.185  23.446  26.518  1.00  0.00     0.011 C 
ATOM     13  C   UNL A   1      32.882  21.640  25.497  1.00  0.00     0.011 C 
ATOM     14  C   UNL A   1      32.839  22.717  26.577  1.00  0.00     0.019 C 
BRANCH   9  15
ATOM     15  N   UNL A   1      33.972  23.915  22.654  1.00  0.00    -0.305 N 
ATOM     16  O   UNL A   1      33.048  25.256  21.111  1.00  0.00    -0.225 OA
ATOM     17  C   UNL A   1      33.204  24.970  22.292  1.00  0.00     0.408 C 
ATOM     18  H   UNL A   1      34.415  23.494  21.883  1.00  0.00     0.168 HD
BRANCH  17  19
ATOM     19  O   UNL A   1      32.691  25.714  23.309  1.00  0.00    -0.449 OA
BRANCH  19  20
ATOM     20  C   UNL A   1      31.688  26.559  22.763  1.00  0.00     0.248 C 
BRANCH  20  21
ATOM     21  C   UNL A   1      31.984  28.088  22.670  1.00  0.00     0.088 C 
ATOM     22  C   UNL A   1      30.842  29.113  22.682  1.00  0.00    -0.029 A 
ATOM     23  C   UNL A   1      32.577  28.339  24.067  1.00  0.00    -0.029 A 
ATOM     24  C   UNL A   1      30.101  29.630  21.626  1.00  0.00     0.005 A 
ATOM     25  C   UNL A   1      30.646  29.617  23.990  1.00  0.00    -0.014 A 
ATOM     26  C   UNL A   1      31.649  29.048  24.857  1.00  0.00    -0.014 A 
ATOM     27  C   UNL A   1      33.689  27.722  24.616  1.00  0.00     0.005 A 
ATOM     28  C   UNL A   1      29.138  30.617  21.894  1.00  0.00     0.000 A 
ATOM     29  C   UNL A   1      29.679  30.577  24.263  1.00  0.00     0.009 A 
ATOM     30  C   UNL A   1      31.766  29.048  26.233  1.00  0.00     0.009 A 
ATOM     31  C   UNL A   1      33.810  27.730  26.001  1.00  0.00     0.000 A 
ATOM     32  C   UNL A   1      28.922  31.079  23.203  1.00  0.00     0.001 A 
ATOM     33  C   UNL A   1      32.843  28.361  26.803  1.00  0.00     0.001 A 
ENDBRANCH  20  21
ENDBRANCH  19  20
ENDBRANCH  17  19
ENDBRANCH   9  15
BRANCH  14  34
ATOM     34  C   UNL A   1      31.544  23.539  26.579  1.00  0.00    -0.045 A 
ATOM     35  C   UNL A   1      30.278  23.057  26.941  1.00  0.00     0.004 A 
ATOM     36  C   UNL A   1      31.608  24.899  26.236  1.00  0.00     0.004 A 
ATOM     37  C   UNL A   1      29.122  23.844  26.878  1.00  0.00     0.000 A 
ATOM     38  C   UNL A   1      30.462  25.707  26.203  1.00  0.00     0.000 A 
ATOM     39  C   UNL A   1      29.213  25.173  26.501  1.00  0.00     0.000 A 
ENDBRANCH  14  34
ENDBRANCH   7   9
ENDBRANCH   6   7
ENDBRANCH   5   6
ENDBRANCH   4   5
ENDBRANCH   3   4
ENDBRANCH   2   3
ENDBRANCH   1   2
BRANCH   1  40
ATOM     40  O   UNL A   1      41.675  18.823  25.769  1.00  0.00    -0.377 OA
BRANCH  40  41
ATOM     41  C   UNL A   1      42.925  19.508  25.747  1.00  0.00     0.188 C 
BRANCH  41  42
ATOM     42  C   UNL A   1      44.124  18.848  25.039  1.00  0.00     0.188 C 
BRANCH  42  43
ATOM     43  O   UNL A   1      44.902  19.731  24.251  1.00  0.00    -0.376 OA
BRANCH  43  44
ATOM     44  C   UNL A   1      45.970  20.424  24.878  1.00  0.00     0.202 C 
BRANCH  44  45
ATOM     45  C   UNL A   1      45.933  21.961  24.929  1.00  0.00     0.261 C 
BRANCH  45  46
ATOM     46  O   UNL A   1      44.937  22.558  25.776  1.00  0.00    -0.460 OA
BRANCH  46  47
ATOM     47  C   UNL A   1      43.890  23.168  25.190  1.00  0.00     0.338 C 
ATOM     48  O   UNL A   1      43.364  22.890  24.124  1.00  0.00    -0.246 OA
BRANCH  47  49
ATOM     49  C   UNL A   1      43.352  24.146  26.153  1.00  0.00     0.060 A 
ATOM     50  C   UNL A   1      43.666  25.504  26.002  1.00  0.00     0.016 A 
ATOM     51  C   UNL A   1      42.547  23.714  27.208  1.00  0.00     0.016 A 
ATOM     52  C   UNL A   1      43.201  26.433  26.929  1.00  0.00     0.010 A 
ATOM     53  C   UNL A   1      42.107  24.643  28.154  1.00  0.00     0.010 A 
ATOM     54  C   UNL A   1      42.465  25.998  28.036  1.00  0.00    -0.014 A 
BRANCH  54  55
ATOM     55  C   UNL A   1      42.272  26.914  29.182  1.00  0.00     0.031 A 
ATOM     56  C   UNL A   1      41.072  27.819  29.167  1.00  0.00     0.074 A 
ATOM     57  C   UNL A   1      43.118  26.920  30.226  1.00  0.00     0.049 A 
ATOM     58  N   UNL A   1      40.713  28.737  30.027  1.00  0.00    -0.248 NA
ATOM     59  C   UNL A   1      40.154  27.667  28.026  1.00  0.00     0.031 C 
ATOM     60  C   UNL A   1      44.279  26.047  30.385  1.00  0.00     0.029 A 
ATOM     61  N   UNL A   1      43.126  27.701  31.354  1.00  0.00    -0.354 N 
ATOM     62  C   UNL A   1      39.534  29.276  29.525  1.00  0.00     0.074 A 
ATOM     63  C   UNL A   1      39.255  28.607  28.275  1.00  0.00     0.031 C 
ATOM     64  C   UNL A   1      44.897  26.350  31.540  1.00  0.00     0.029 A 
ATOM     65  C   UNL A   1      44.196  27.463  32.179  1.00  0.00     0.049 A 
ATOM     66  H   UNL A   1      42.429  28.369  31.552  1.00  0.00     0.167 HD
ATOM     67  C   UNL A   1      38.750  30.239  30.062  1.00  0.00     0.031 A 
ATOM     68  C   UNL A   1      44.578  28.092  33.308  1.00  0.00     0.031 A 
ATOM     69  C   UNL A   1      39.042  30.919  31.295  1.00  0.00     0.049 A 
ATOM     70  C   UNL A   1      43.741  29.231  33.836  1.00  0.00     0.074 A 
ATOM     71  C   UNL A   1      38.314  31.912  31.925  1.00  0.00     0.029 A 
ATOM     72  N   UNL A   1      40.161  30.682  32.078  1.00  0.00    -0.354 N 
ATOM     73  N   UNL A   1      42.622  29.724  33.363  1.00  0.00    -0.248 NA
ATOM     74  C   UNL A   1      44.221  29.893  35.057  1.00  0.00     0.031 C 
ATOM     75  C   UNL A   1      39.026  32.321  33.056  1.00  0.00     0.029 A 
ATOM     76  C   UNL A   1      40.159  31.530  33.171  1.00  0.00     0.049 A 
ATOM     77  H   UNL A   1      40.854  30.009  31.885  1.00  0.00     0.167 HD
ATOM     78  C   UNL A   1      42.247  30.730  34.246  1.00  0.00     0.074 A 
ATOM     79  C   UNL A   1      43.250  30.765  35.290  1.00  0.00     0.031 C 
ATOM     80  C   UNL A   1      41.167  31.551  34.200  1.00  0.00     0.031 A 
BRANCH  67  81
ATOM     81  C   UNL A   1      37.524  30.642  29.290  1.00  0.00    -0.014 A 
ATOM     82  C   UNL A   1      37.415  31.910  28.695  1.00  0.00     0.009 A 
ATOM     83  C   UNL A   1      36.467  29.730  29.140  1.00  0.00     0.009 A 
ATOM     84  C   UNL A   1      36.260  32.267  27.997  1.00  0.00     0.001 A 
ATOM     85  C   UNL A   1      35.327  30.078  28.414  1.00  0.00     0.001 A 
ATOM     86  C   UNL A   1      35.221  31.349  27.852  1.00  0.00     0.000 A 
ENDBRANCH  67  81
BRANCH  68  87
ATOM     87  C   UNL A   1      45.829  27.687  34.003  1.00  0.00    -0.014 A 
ATOM     88  C   UNL A   1      45.829  26.647  34.943  1.00  0.00     0.009 A 
ATOM     89  C   UNL A   1      47.033  28.366  33.745  1.00  0.00     0.009 A 
ATOM     90  C   UNL A   1      46.998  26.313  35.631  1.00  0.00     0.001 A 
ATOM     91  C   UNL A   1      48.207  28.007  34.410  1.00  0.00     0.001 A 
ATOM     92  C   UNL A   1      48.187  26.989  35.361  1.00  0.00     0.000 A 
ENDBRANCH  68  87
BRANCH  80  93
ATOM     93  C   UNL A   1      40.990  32.525  35.333  1.00  0.00    -0.014 A 
ATOM     94  C   UNL A   1      40.692  32.093  36.635  1.00  0.00     0.009 A 
ATOM     95  C   UNL A   1      41.174  33.898  35.099  1.00  0.00     0.009 A 
ATOM     96  C   UNL A   1      40.545  33.020  37.670  1.00  0.00     0.001 A 
ATOM     97  C   UNL A   1      41.061  34.819  36.142  1.00  0.00     0.001 A 
ATOM     98  C   UNL A   1      40.736  34.380  37.423  1.00  0.00     0.000 A 
ENDBRANCH  80  93
ENDBRANCH  54  55
ENDBRANCH  47  49
ENDBRANCH  46  47
ENDBRANCH  45  46
ENDBRANCH  44  45
ENDBRANCH  43  44
ENDBRANCH  42  43
ENDBRANCH  41  42
ENDBRANCH  40  41
ENDBRANCH   1  40
TORSDOF 25
ENDMDL
MODEL 3
REMARK VINA RESULT:     -10.6      1.489      4.428
REMARK SMILES O=C(N[C@]1(C(=O)OCCOCCOCCOCCOC(=O)c2ccc(-c3c4nc(c(-c5ccccc5)c5ccc([nH]5)c(-c5ccccc5)c5nc(c(-c6ccccc6)c6ccc3[nH]6)C=C5)C=C4)cc2)CC[C@H](c2ccccc2)CC1)OCC1c2ccccc2-c2ccccc21
REMARK SMILES IDX 12 1 11 2 10 3 9 4 8 5 7 6 5 7 6 8 4 9 70 10 80 11 71 12
REMARK SMILES IDX 79 13 72 14 3 15 1 16 2 17 81 19 82 20 83 21 84 22 95 23
REMARK SMILES IDX 85 24 89 25 90 26 94 27 86 28 88 29 91 30 93 31 87 32 92 33
REMARK SMILES IDX 73 34 74 35 78 36 75 37 77 38 76 39 13 40 14 41 15 42 16 43
REMARK SMILES IDX 17 44 18 45 19 46 20 47 21 48 22 49 23 50 69 51 24 52 68 53
REMARK SMILES IDX 25 54 26 55 27 56 62 57 28 58 67 59 61 60 63 61 29 62 66 63
REMARK SMILES IDX 60 64 59 65 30 67 52 68 37 69 51 70 38 71 41 72 50 73 64 74
REMARK SMILES IDX 39 75 40 76 49 78 65 79 42 80 31 81 32 82 36 83 33 84 35 85
REMARK SMILES IDX 34 86 53 87 54 88 58 89 55 90 57 91 56 92 43 93 44 94 48 95
REMARK SMILES IDX 45 96 47 97 46 98
REMARK H PARENT 3 18 63 66 41 77
REMARK Flexibility Score: inf
ROOT
ATOM      1  C   UNL A   1      38.680  21.772  25.724  1.00  0.00     0.188 C 
ENDROOT
BRANCH   1   2
ATOM      2  C   UNL A   1      38.429  23.224  26.150  1.00  0.00     0.188 C 
BRANCH   2   3
ATOM      3  O   UNL A   1      37.447  23.879  25.383  1.00  0.00    -0.376 OA
BRANCH   3   4
ATOM      4  C   UNL A   1      37.004  23.314  24.169  1.00  0.00     0.202 C 
BRANCH   4   5
ATOM      5  C   UNL A   1      35.535  23.317  23.703  1.00  0.00     0.261 C 
BRANCH   5   6
ATOM      6  O   UNL A   1      34.641  24.351  24.140  1.00  0.00    -0.461 OA
BRANCH   6   7
ATOM      7  C   UNL A   1      33.898  24.936  23.162  1.00  0.00     0.332 C 
ATOM      8  O   UNL A   1      34.090  24.706  21.967  1.00  0.00    -0.249 OA
BRANCH   7   9
ATOM      9  C   UNL A   1      32.912  26.048  23.677  1.00  0.00     0.141 C 
ATOM     10  C   UNL A   1      33.361  27.289  22.899  1.00  0.00     0.041 C 
ATOM     11  C   UNL A   1      32.687  26.349  25.181  1.00  0.00     0.041 C 
ATOM     12  C   UNL A   1      34.261  28.249  23.663  1.00  0.00     0.011 C 
ATOM     13  C   UNL A   1      33.575  27.392  25.853  1.00  0.00     0.011 C 
ATOM     14  C   UNL A   1      33.713  28.670  25.030  1.00  0.00     0.019 C 
BRANCH   9  15
ATOM     15  N   UNL A   1      31.614  25.417  23.265  1.00  0.00    -0.305 N 
ATOM     16  O   UNL A   1      29.952  23.949  22.925  1.00  0.00    -0.225 OA
ATOM     17  C   UNL A   1      31.013  24.222  23.474  1.00  0.00     0.408 C 
ATOM     18  H   UNL A   1      31.068  26.017  22.707  1.00  0.00     0.168 HD
BRANCH  17  19
ATOM     19  O   UNL A   1      31.617  23.396  24.371  1.00  0.00    -0.449 OA
BRANCH  19  20
ATOM     20  C   UNL A   1      31.849  22.153  23.725  1.00  0.00     0.248 C 
BRANCH  20  21
ATOM     21  C   UNL A   1      31.836  20.858  24.595  1.00  0.00     0.088 C 
ATOM     22  C   UNL A   1      32.624  19.613  24.166  1.00  0.00    -0.029 A 
ATOM     23  C   UNL A   1      32.697  21.316  25.784  1.00  0.00    -0.029 A 
ATOM     24  C   UNL A   1      32.239  18.554  23.354  1.00  0.00     0.005 A 
ATOM     25  C   UNL A   1      33.883  19.579  24.814  1.00  0.00    -0.014 A 
ATOM     26  C   UNL A   1      33.961  20.695  25.725  1.00  0.00    -0.014 A 
ATOM     27  C   UNL A   1      32.447  22.394  26.619  1.00  0.00     0.005 A 
ATOM     28  C   UNL A   1      33.134  17.489  23.160  1.00  0.00     0.000 A 
ATOM     29  C   UNL A   1      34.780  18.538  24.607  1.00  0.00     0.009 A 
ATOM     30  C   UNL A   1      35.029  21.225  26.422  1.00  0.00     0.009 A 
ATOM     31  C   UNL A   1      33.522  22.921  27.327  1.00  0.00     0.000 A 
ATOM     32  C   UNL A   1      34.397  17.486  23.773  1.00  0.00     0.001 A 
ATOM     33  C   UNL A   1      34.805  22.360  27.207  1.00  0.00     0.001 A 
ENDBRANCH  20  21
ENDBRANCH  19  20
ENDBRANCH  17  19
ENDBRANCH   9  15
BRANCH  14  34
ATOM     34  C   UNL A   1      32.481  29.582  25.093  1.00  0.00    -0.045 A 
ATOM     35  C   UNL A   1      32.266  30.590  26.043  1.00  0.00     0.004 A 
ATOM     36  C   UNL A   1      31.492  29.447  24.105  1.00  0.00     0.004 A 
ATOM     37  C   UNL A   1      31.097  31.360  26.078  1.00  0.00     0.000 A 
ATOM     38  C   UNL A   1      30.333  30.237  24.110  1.00  0.00     0.000 A 
ATOM     39  C   UNL A   1      30.124  31.179  25.111  1.00  0.00     0.000 A 
ENDBRANCH  14  34
ENDBRANCH   7   9
ENDBRANCH   6   7
ENDBRANCH   5   6
ENDBRANCH   4   5
ENDBRANCH   3   4
ENDBRANCH   2   3
ENDBRANCH   1   2
BRANCH   1  40
ATOM     40  O   UNL A   1      39.658  20.983  26.391  1.00  0.00    -0.377 OA
BRANCH  40  41
ATOM     41  C   UNL A   1      41.039  21.293  26.230  1.00  0.00     0.188 C 
BRANCH  41  42
ATOM     42  C   UNL A   1      42.048  20.141  26.058  1.00  0.00     0.188 C 
BRANCH  42  43
ATOM     43  O   UNL A   1      43.093  20.404  25.139  1.00  0.00    -0.376 OA
BRANCH  43  44
ATOM     44  C   UNL A   1      44.416  20.507  25.642  1.00  0.00     0.202 C 
BRANCH  44  45
ATOM     45  C   UNL A   1      45.088  21.890  25.694  1.00  0.00     0.261 C 
BRANCH  45  46
ATOM     46  O   UNL A   1      44.325  22.960  26.275  1.00  0.00    -0.460 OA
BRANCH  46  47
ATOM     47  C   UNL A   1      43.699  23.816  25.445  1.00  0.00     0.338 C 
ATOM     48  O   UNL A   1      43.545  23.708  24.239  1.00  0.00    -0.246 OA
BRANCH  47  49
ATOM     49  C   UNL A   1      43.058  24.850  26.277  1.00  0.00     0.060 A 
ATOM     50  C   UNL A   1      43.707  26.078  26.467  1.00  0.00     0.016 A 
ATOM     51  C   UNL A   1      41.822  24.597  26.874  1.00  0.00     0.016 A 
ATOM     52  C   UNL A   1      43.134  27.048  27.285  1.00  0.00     0.010 A 
ATOM     53  C   UNL A   1      41.264  25.559  27.719  1.00  0.00     0.010 A 
ATOM     54  C   UNL A   1      41.937  26.770  27.955  1.00  0.00    -0.014 A 
BRANCH  54  55
ATOM     55  C   UNL A   1      41.515  27.643  29.074  1.00  0.00     0.031 A 
ATOM     56  C   UNL A   1      42.269  27.541  30.370  1.00  0.00     0.074 A 
ATOM     57  C   UNL A   1      40.513  28.527  28.935  1.00  0.00     0.049 A 
ATOM     58  N   UNL A   1      42.062  28.161  31.503  1.00  0.00    -0.248 NA
ATOM     59  C   UNL A   1      43.412  26.612  30.390  1.00  0.00     0.031 C 
ATOM     60  C   UNL A   1      39.751  28.762  27.711  1.00  0.00     0.029 A 
ATOM     61  N   UNL A   1      39.965  29.393  29.848  1.00  0.00    -0.354 N 
ATOM     62  C   UNL A   1      43.042  27.691  32.370  1.00  0.00     0.074 A 
ATOM     63  C   UNL A   1      43.822  26.714  31.645  1.00  0.00     0.031 C 
ATOM     64  C   UNL A   1      38.821  29.703  27.953  1.00  0.00     0.029 A 
ATOM     65  C   UNL A   1      38.900  30.105  29.356  1.00  0.00     0.049 A 
ATOM     66  H   UNL A   1      40.304  29.493  30.767  1.00  0.00     0.167 HD
ATOM     67  C   UNL A   1      43.275  28.047  33.654  1.00  0.00     0.031 A 
ATOM     68  C   UNL A   1      38.069  30.963  29.980  1.00  0.00     0.031 A 
ATOM     69  C   UNL A   1      42.482  29.002  34.380  1.00  0.00     0.049 A 
ATOM     70  C   UNL A   1      38.287  31.270  31.440  1.00  0.00     0.074 A 
ATOM     71  C   UNL A   1      42.632  29.431  35.686  1.00  0.00     0.029 A 
ATOM     72  N   UNL A   1      41.382  29.667  33.861  1.00  0.00    -0.354 N 
ATOM     73  N   UNL A   1      39.223  30.832  32.247  1.00  0.00    -0.248 NA
ATOM     74  C   UNL A   1      37.334  32.194  32.071  1.00  0.00     0.031 C 
ATOM     75  C   UNL A   1      41.583  30.308  35.978  1.00  0.00     0.029 A 
ATOM     76  C   UNL A   1      40.825  30.483  34.831  1.00  0.00     0.049 A 
ATOM     77  H   UNL A   1      41.048  29.575  32.939  1.00  0.00     0.167 HD
ATOM     78  C   UNL A   1      38.992  31.453  33.470  1.00  0.00     0.074 A 
ATOM     79  C   UNL A   1      37.837  32.309  33.292  1.00  0.00     0.031 C 
ATOM     80  C   UNL A   1      39.676  31.328  34.635  1.00  0.00     0.031 A 
BRANCH  67  81
ATOM     81  C   UNL A   1      44.408  27.361  34.366  1.00  0.00    -0.014 A 
ATOM     82  C   UNL A   1      44.259  26.075  34.915  1.00  0.00     0.009 A 
ATOM     83  C   UNL A   1      45.651  28.004  34.474  1.00  0.00     0.009 A 
ATOM     84  C   UNL A   1      45.321  25.466  35.586  1.00  0.00     0.001 A 
ATOM     85  C   UNL A   1      46.720  27.379  35.118  1.00  0.00     0.001 A 
ATOM     86  C   UNL A   1      46.551  26.115  35.681  1.00  0.00     0.000 A 
ENDBRANCH  67  81
BRANCH  68  87
ATOM     87  C   UNL A   1      36.931  31.572  29.240  1.00  0.00    -0.014 A 
ATOM     88  C   UNL A   1      37.066  32.816  28.606  1.00  0.00     0.009 A 
ATOM     89  C   UNL A   1      35.688  30.918  29.189  1.00  0.00     0.009 A 
ATOM     90  C   UNL A   1      35.973  33.405  27.963  1.00  0.00     0.001 A 
ATOM     91  C   UNL A   1      34.608  31.494  28.517  1.00  0.00     0.001 A 
ATOM     92  C   UNL A   1      34.748  32.743  27.914  1.00  0.00     0.000 A 
ENDBRANCH  68  87
BRANCH  80  93
ATOM     93  C   UNL A   1      39.222  32.171  35.797  1.00  0.00    -0.014 A 
ATOM     94  C   UNL A   1      39.643  33.501  35.950  1.00  0.00     0.009 A 
ATOM     95  C   UNL A   1      38.315  31.635  36.726  1.00  0.00     0.009 A 
ATOM     96  C   UNL A   1      39.196  34.263  37.032  1.00  0.00     0.001 A 
ATOM     97  C   UNL A   1      37.842  32.410  37.787  1.00  0.00     0.001 A 
ATOM     98  C   UNL A   1      38.292  33.719  37.944  1.00  0.00     0.000 A 
ENDBRANCH  80  93
ENDBRANCH  54  55
ENDBRANCH  47  49
ENDBRANCH  46  47
ENDBRANCH  45  46
ENDBRANCH  44  45
ENDBRANCH  43  44
ENDBRANCH  42  43
ENDBRANCH  41  42
ENDBRANCH  40  41
ENDBRANCH   1  40
TORSDOF 25
ENDMDL
