MODEL 1
REMARK VINA RESULT:      -8.3      0.000      0.000
REMARK SMILES CC(=O)O[C@@H]1[C@H](O)C(C)=C(CC[C@@H](C)CC(=O)OCCOCCOCCOCCOC(=O)c2ccc(-c3c4nc(c(-c5ccccc5)c5ccc([nH]5)c(-c5ccccc5)c5nc(c(-c6ccccc6)c6ccc3[nH]6)C=C5)C=C4)cc2)[C@@]2(C)CCCC(C)(C)[C@H]12
REMARK SMILES IDX 22 1 21 2 20 3 19 4 18 5 16 6 17 7 15 8 13 9 14 10 12 11
REMARK SMILES IDX 11 12 10 13 5 14 6 15 89 16 8 17 81 18 86 19 9 20 83 21
REMARK SMILES IDX 82 22 85 23 87 24 88 25 84 26 4 27 2 28 1 29 3 30 7 31 23 33
REMARK SMILES IDX 24 34 25 35 26 36 27 37 28 38 29 39 30 40 31 41 32 42 33 43
REMARK SMILES IDX 34 44 80 45 35 46 79 47 36 48 37 49 38 50 73 51 39 52 78 53
REMARK SMILES IDX 72 54 74 55 40 56 77 57 71 58 70 59 41 61 63 62 48 63 62 64
REMARK SMILES IDX 49 65 52 66 61 67 75 68 50 69 51 70 60 72 76 73 53 74 42 75
REMARK SMILES IDX 43 76 47 77 44 78 46 79 45 80 64 81 65 82 69 83 66 84 68 85
REMARK SMILES IDX 67 86 54 87 55 88 59 89 56 90 58 91 57 92
REMARK H PARENT 7 32 74 60 52 71
REMARK Flexibility Score: inf
ROOT
ATOM      1  C   UNL A   1      38.729  34.705  29.820  1.00  0.00     0.188 C 
ENDROOT
BRANCH   1   2
ATOM      2  O   UNL A   1      37.819  33.838  29.139  1.00  0.00    -0.376 OA
BRANCH   2   3
ATOM      3  C   UNL A   1      36.444  34.206  29.214  1.00  0.00     0.202 C 
BRANCH   3   4
ATOM      4  C   UNL A   1      35.465  33.259  28.505  1.00  0.00     0.261 C 
BRANCH   4   5
ATOM      5  O   UNL A   1      36.041  32.299  27.581  1.00  0.00    -0.463 OA
BRANCH   5   6
ATOM      6  C   UNL A   1      35.573  31.028  27.689  1.00  0.00     0.306 C 
ATOM      7  O   UNL A   1      36.265  30.027  27.537  1.00  0.00    -0.252 OA
BRANCH   6   8
ATOM      8  C   UNL A   1      34.047  30.937  27.797  1.00  0.00     0.126 C 
BRANCH   8   9
ATOM      9  C   UNL A   1      33.188  30.398  26.630  1.00  0.00    -0.003 C 
ATOM     10  C   UNL A   1      31.799  31.053  26.653  1.00  0.00     0.008 C 
BRANCH   9  11
ATOM     11  C   UNL A   1      33.108  28.827  26.565  1.00  0.00     0.008 C 
BRANCH  11  12
ATOM     12  C   UNL A   1      31.761  28.133  27.010  1.00  0.00     0.032 C 
BRANCH  12  13
ATOM     13  C   UNL A   1      30.802  27.251  26.114  1.00  0.00    -0.062 C 
ATOM     14  C   UNL A   1      32.342  24.998  25.209  1.00  0.00     0.213 C 
ATOM     15  C   UNL A   1      31.651  25.134  26.576  1.00  0.00     0.181 C 
ATOM     16  C   UNL A   1      32.208  26.279  24.299  1.00  0.00     0.049 C 
ATOM     17  C   UNL A   1      30.436  25.991  26.504  1.00  0.00    -0.042 C 
ATOM     18  C   UNL A   1      31.025  27.354  24.538  1.00  0.00    -0.004 C 
ATOM     19  C   UNL A   1      32.844  26.211  22.872  1.00  0.00    -0.028 C 
ATOM     20  C   UNL A   1      29.294  25.167  25.965  1.00  0.00     0.042 C 
ATOM     21  C   UNL A   1      31.533  28.750  23.992  1.00  0.00     0.011 C 
ATOM     22  C   UNL A   1      29.652  27.142  23.809  1.00  0.00     0.016 C 
ATOM     23  C   UNL A   1      33.474  27.611  22.682  1.00  0.00     0.007 C 
ATOM     24  C   UNL A   1      31.895  25.919  21.697  1.00  0.00     0.011 C 
ATOM     25  C   UNL A   1      33.972  25.158  22.774  1.00  0.00     0.011 C 
ATOM     26  C   UNL A   1      32.432  28.728  22.741  1.00  0.00     0.001 C 
BRANCH  14  27
ATOM     27  O   UNL A   1      32.040  23.733  24.590  1.00  0.00    -0.459 OA
BRANCH  27  28
ATOM     28  C   UNL A   1      32.946  22.703  24.645  1.00  0.00     0.303 C 
ATOM     29  C   UNL A   1      32.879  21.587  23.619  1.00  0.00     0.139 C 
ATOM     30  O   UNL A   1      33.733  22.623  25.589  1.00  0.00    -0.253 OA
ENDBRANCH  27  28
ENDBRANCH  14  27
BRANCH  15  31
ATOM     31  O   UNL A   1      31.544  23.920  27.228  1.00  0.00    -0.385 OA
ATOM     32  H   UNL A   1      31.698  24.047  28.177  1.00  0.00     0.211 HD
ENDBRANCH  15  31
ENDBRANCH  12  13
ENDBRANCH  11  12
ENDBRANCH   9  11
ENDBRANCH   8   9
ENDBRANCH   6   8
ENDBRANCH   5   6
ENDBRANCH   4   5
ENDBRANCH   3   4
ENDBRANCH   2   3
ENDBRANCH   1   2
BRANCH   1  33
ATOM     33  C   UNL A   1      40.212  34.494  29.427  1.00  0.00     0.188 C 
BRANCH  33  34
ATOM     34  O   UNL A   1      40.807  35.714  28.986  1.00  0.00    -0.377 OA
BRANCH  34  35
ATOM     35  C   UNL A   1      42.198  35.754  28.751  1.00  0.00     0.188 C 
BRANCH  35  36
ATOM     36  C   UNL A   1      43.008  36.958  29.230  1.00  0.00     0.188 C 
BRANCH  36  37
ATOM     37  O   UNL A   1      43.487  36.991  30.564  1.00  0.00    -0.376 OA
BRANCH  37  38
ATOM     38  C   UNL A   1      43.977  38.211  31.115  1.00  0.00     0.202 C 
BRANCH  38  39
ATOM     39  C   UNL A   1      45.499  38.359  31.155  1.00  0.00     0.261 C 
BRANCH  39  40
ATOM     40  O   UNL A   1      46.135  37.080  30.964  1.00  0.00    -0.460 OA
BRANCH  40  41
ATOM     41  C   UNL A   1      46.678  36.848  29.754  1.00  0.00     0.338 C 
ATOM     42  O   UNL A   1      47.356  37.608  29.078  1.00  0.00    -0.246 OA
BRANCH  41  43
ATOM     43  C   UNL A   1      46.492  35.428  29.417  1.00  0.00     0.060 A 
ATOM     44  C   UNL A   1      46.023  35.126  28.133  1.00  0.00     0.016 A 
ATOM     45  C   UNL A   1      46.707  34.413  30.354  1.00  0.00     0.016 A 
ATOM     46  C   UNL A   1      45.708  33.813  27.802  1.00  0.00     0.010 A 
ATOM     47  C   UNL A   1      46.394  33.091  30.020  1.00  0.00     0.010 A 
ATOM     48  C   UNL A   1      45.833  32.800  28.763  1.00  0.00    -0.014 A 
BRANCH  48  49
ATOM     49  C   UNL A   1      45.087  31.537  28.544  1.00  0.00     0.031 A 
ATOM     50  C   UNL A   1      45.780  30.446  27.767  1.00  0.00     0.074 A 
ATOM     51  C   UNL A   1      43.887  31.310  29.106  1.00  0.00     0.049 A 
ATOM     52  N   UNL A   1      45.380  29.228  27.505  1.00  0.00    -0.248 NA
ATOM     53  C   UNL A   1      47.112  30.771  27.226  1.00  0.00     0.031 C 
ATOM     54  C   UNL A   1      43.145  32.253  29.940  1.00  0.00     0.029 A 
ATOM     55  N   UNL A   1      43.092  30.191  29.070  1.00  0.00    -0.354 N 
ATOM     56  C   UNL A   1      46.414  28.644  26.782  1.00  0.00     0.074 A 
ATOM     57  C   UNL A   1      47.436  29.648  26.605  1.00  0.00     0.031 C 
ATOM     58  C   UNL A   1      42.004  31.667  30.346  1.00  0.00     0.029 A 
ATOM     59  C   UNL A   1      41.923  30.322  29.780  1.00  0.00     0.049 A 
ATOM     60  H   UNL A   1      43.337  29.372  28.582  1.00  0.00     0.167 HD
ATOM     61  C   UNL A   1      46.517  27.377  26.319  1.00  0.00     0.031 A 
ATOM     62  C   UNL A   1      40.904  29.454  29.940  1.00  0.00     0.031 A 
ATOM     63  C   UNL A   1      45.495  26.380  26.468  1.00  0.00     0.049 A 
ATOM     64  C   UNL A   1      40.987  28.089  29.303  1.00  0.00     0.074 A 
ATOM     65  C   UNL A   1      45.493  25.074  26.013  1.00  0.00     0.029 A 
ATOM     66  N   UNL A   1      44.289  26.583  27.118  1.00  0.00    -0.354 N 
ATOM     67  N   UNL A   1      41.976  27.544  28.634  1.00  0.00    -0.248 NA
ATOM     68  C   UNL A   1      39.813  27.216  29.453  1.00  0.00     0.031 C 
ATOM     69  C   UNL A   1      44.258  24.504  26.337  1.00  0.00     0.029 A 
ATOM     70  C   UNL A   1      43.521  25.435  27.052  1.00  0.00     0.049 A 
ATOM     71  H   UNL A   1      44.017  27.420  27.560  1.00  0.00     0.167 HD
ATOM     72  C   UNL A   1      41.557  26.257  28.318  1.00  0.00     0.074 A 
ATOM     73  C   UNL A   1      40.232  26.096  28.880  1.00  0.00     0.031 C 
ATOM     74  C   UNL A   1      42.209  25.290  27.626  1.00  0.00     0.031 A 
BRANCH  61  75
ATOM     75  C   UNL A   1      47.771  27.017  25.577  1.00  0.00    -0.014 A 
ATOM     76  C   UNL A   1      47.817  27.030  24.173  1.00  0.00     0.009 A 
ATOM     77  C   UNL A   1      48.931  26.679  26.292  1.00  0.00     0.009 A 
ATOM     78  C   UNL A   1      48.991  26.680  23.502  1.00  0.00     0.001 A 
ATOM     79  C   UNL A   1      50.111  26.360  25.618  1.00  0.00     0.001 A 
ATOM     80  C   UNL A   1      50.136  26.353  24.224  1.00  0.00     0.000 A 
ENDBRANCH  61  75
BRANCH  62  81
ATOM     81  C   UNL A   1      39.695  29.842  30.717  1.00  0.00    -0.014 A 
ATOM     82  C   UNL A   1      38.613  30.484  30.094  1.00  0.00     0.009 A 
ATOM     83  C   UNL A   1      39.645  29.627  32.104  1.00  0.00     0.009 A 
ATOM     84  C   UNL A   1      37.526  30.934  30.849  1.00  0.00     0.001 A 
ATOM     85  C   UNL A   1      38.543  30.049  32.851  1.00  0.00     0.001 A 
ATOM     86  C   UNL A   1      37.491  30.715  32.226  1.00  0.00     0.000 A 
ENDBRANCH  62  81
BRANCH  74  87
ATOM     87  C   UNL A   1      41.527  23.957  27.480  1.00  0.00    -0.014 A 
ATOM     88  C   UNL A   1      40.553  23.737  26.494  1.00  0.00     0.009 A 
ATOM     89  C   UNL A   1      41.912  22.889  28.306  1.00  0.00     0.009 A 
ATOM     90  C   UNL A   1      39.954  22.482  26.363  1.00  0.00     0.001 A 
ATOM     91  C   UNL A   1      41.334  21.628  28.152  1.00  0.00     0.001 A 
ATOM     92  C   UNL A   1      40.349  21.428  27.187  1.00  0.00     0.000 A 
ENDBRANCH  74  87
ENDBRANCH  48  49
ENDBRANCH  41  43
ENDBRANCH  40  41
ENDBRANCH  39  40
ENDBRANCH  38  39
ENDBRANCH  37  38
ENDBRANCH  36  37
ENDBRANCH  35  36
ENDBRANCH  34  35
ENDBRANCH  33  34
ENDBRANCH   1  33
TORSDOF 27
ENDMDL
MODEL 2
REMARK VINA RESULT:      -8.0      5.778     10.220
REMARK SMILES CC(=O)O[C@@H]1[C@H](O)C(C)=C(CC[C@@H](C)CC(=O)OCCOCCOCCOCCOC(=O)c2ccc(-c3c4nc(c(-c5ccccc5)c5ccc([nH]5)c(-c5ccccc5)c5nc(c(-c6ccccc6)c6ccc3[nH]6)C=C5)C=C4)cc2)[C@@]2(C)CCCC(C)(C)[C@H]12
REMARK SMILES IDX 22 1 21 2 20 3 19 4 18 5 16 6 17 7 15 8 13 9 14 10 12 11
REMARK SMILES IDX 11 12 10 13 5 14 6 15 89 16 8 17 81 18 86 19 9 20 83 21
REMARK SMILES IDX 82 22 85 23 87 24 88 25 84 26 4 27 2 28 1 29 3 30 7 31 23 33
REMARK SMILES IDX 24 34 25 35 26 36 27 37 28 38 29 39 30 40 31 41 32 42 33 43
REMARK SMILES IDX 34 44 80 45 35 46 79 47 36 48 37 49 38 50 73 51 39 52 78 53
REMARK SMILES IDX 72 54 74 55 40 56 77 57 71 58 70 59 41 61 63 62 48 63 62 64
REMARK SMILES IDX 49 65 52 66 61 67 75 68 50 69 51 70 60 72 76 73 53 74 42 75
REMARK SMILES IDX 43 76 47 77 44 78 46 79 45 80 64 81 65 82 69 83 66 84 68 85
REMARK SMILES IDX 67 86 54 87 55 88 59 89 56 90 58 91 57 92
REMARK H PARENT 7 32 74 60 52 71
REMARK Flexibility Score: inf
ROOT
ATOM      1  C   UNL A   1      38.519  34.504  30.014  1.00  0.00     0.188 C 
ENDROOT
BRANCH   1   2
ATOM      2  O   UNL A   1      37.771  33.828  29.001  1.00  0.00    -0.376 OA
BRANCH   2   3
ATOM      3  C   UNL A   1      36.359  33.794  29.197  1.00  0.00     0.202 C 
BRANCH   3   4
ATOM      4  C   UNL A   1      35.577  32.893  28.230  1.00  0.00     0.261 C 
BRANCH   4   5
ATOM      5  O   UNL A   1      36.255  31.698  27.762  1.00  0.00    -0.463 OA
BRANCH   5   6
ATOM      6  C   UNL A   1      35.590  30.530  27.964  1.00  0.00     0.306 C 
ATOM      7  O   UNL A   1      36.136  29.435  28.042  1.00  0.00    -0.252 OA
BRANCH   6   8
ATOM      8  C   UNL A   1      34.066  30.659  27.865  1.00  0.00     0.126 C 
BRANCH   8   9
ATOM      9  C   UNL A   1      33.286  30.078  26.663  1.00  0.00    -0.003 C 
ATOM     10  C   UNL A   1      31.888  30.711  26.589  1.00  0.00     0.008 C 
BRANCH   9  11
ATOM     11  C   UNL A   1      33.234  28.506  26.632  1.00  0.00     0.008 C 
BRANCH  11  12
ATOM     12  C   UNL A   1      31.896  27.798  27.084  1.00  0.00     0.032 C 
BRANCH  12  13
ATOM     13  C   UNL A   1      31.101  26.676  26.302  1.00  0.00    -0.062 C 
ATOM     14  C   UNL A   1      33.020  25.250  24.705  1.00  0.00     0.213 C 
ATOM     15  C   UNL A   1      32.734  25.022  26.199  1.00  0.00     0.181 C 
ATOM     16  C   UNL A   1      32.196  26.438  24.075  1.00  0.00     0.049 C 
ATOM     17  C   UNL A   1      31.326  25.350  26.554  1.00  0.00    -0.042 C 
ATOM     18  C   UNL A   1      30.826  26.959  24.757  1.00  0.00    -0.004 C 
ATOM     19  C   UNL A   1      32.392  26.713  22.548  1.00  0.00    -0.028 C 
ATOM     20  C   UNL A   1      30.446  24.187  26.167  1.00  0.00     0.042 C 
ATOM     21  C   UNL A   1      30.637  28.476  24.345  1.00  0.00     0.011 C 
ATOM     22  C   UNL A   1      29.472  26.285  24.343  1.00  0.00     0.016 C 
ATOM     23  C   UNL A   1      32.409  28.257  22.451  1.00  0.00     0.007 C 
ATOM     24  C   UNL A   1      31.321  26.157  21.595  1.00  0.00     0.011 C 
ATOM     25  C   UNL A   1      33.744  26.181  22.019  1.00  0.00     0.011 C 
ATOM     26  C   UNL A   1      31.101  28.882  22.933  1.00  0.00     0.001 C 
BRANCH  14  27
ATOM     27  O   UNL A   1      33.024  24.009  23.974  1.00  0.00    -0.459 OA
BRANCH  27  28
ATOM     28  C   UNL A   1      34.081  23.140  24.093  1.00  0.00     0.303 C 
ATOM     29  C   UNL A   1      35.495  23.640  23.864  1.00  0.00     0.139 C 
ATOM     30  O   UNL A   1      33.875  21.939  24.269  1.00  0.00    -0.253 OA
ENDBRANCH  27  28
ENDBRANCH  14  27
BRANCH  15  31
ATOM     31  O   UNL A   1      33.247  23.819  26.648  1.00  0.00    -0.385 OA
ATOM     32  H   UNL A   1      34.090  23.640  26.204  1.00  0.00     0.211 HD
ENDBRANCH  15  31
ENDBRANCH  12  13
ENDBRANCH  11  12
ENDBRANCH   9  11
ENDBRANCH   8   9
ENDBRANCH   6   8
ENDBRANCH   5   6
ENDBRANCH   4   5
ENDBRANCH   3   4
ENDBRANCH   2   3
ENDBRANCH   1   2
BRANCH   1  33
ATOM     33  C   UNL A   1      40.054  34.344  29.874  1.00  0.00     0.188 C 
BRANCH  33  34
ATOM     34  O   UNL A   1      40.579  35.247  28.901  1.00  0.00    -0.377 OA
BRANCH  34  35
ATOM     35  C   UNL A   1      41.960  35.537  28.909  1.00  0.00     0.188 C 
BRANCH  35  36
ATOM     36  C   UNL A   1      42.492  36.689  28.056  1.00  0.00     0.188 C 
BRANCH  36  37
ATOM     37  O   UNL A   1      42.445  38.012  28.562  1.00  0.00    -0.376 OA
BRANCH  37  38
ATOM     38  C   UNL A   1      43.218  39.039  27.945  1.00  0.00     0.202 C 
BRANCH  38  39
ATOM     39  C   UNL A   1      44.234  39.741  28.848  1.00  0.00     0.261 C 
BRANCH  39  40
ATOM     40  O   UNL A   1      44.027  39.368  30.224  1.00  0.00    -0.460 OA
BRANCH  40  41
ATOM     41  C   UNL A   1      44.961  38.578  30.785  1.00  0.00     0.338 C 
ATOM     42  O   UNL A   1      46.090  38.344  30.378  1.00  0.00    -0.246 OA
BRANCH  41  43
ATOM     43  C   UNL A   1      44.486  38.153  32.112  1.00  0.00     0.060 A 
ATOM     44  C   UNL A   1      44.928  36.914  32.589  1.00  0.00     0.016 A 
ATOM     45  C   UNL A   1      43.575  38.917  32.848  1.00  0.00     0.016 A 
ATOM     46  C   UNL A   1      44.413  36.405  33.777  1.00  0.00     0.010 A 
ATOM     47  C   UNL A   1      43.060  38.407  34.045  1.00  0.00     0.010 A 
ATOM     48  C   UNL A   1      43.431  37.121  34.476  1.00  0.00    -0.014 A 
BRANCH  48  49
ATOM     49  C   UNL A   1      42.595  36.381  35.453  1.00  0.00     0.031 A 
ATOM     50  C   UNL A   1      42.780  36.707  36.914  1.00  0.00     0.074 A 
ATOM     51  C   UNL A   1      41.625  35.535  35.065  1.00  0.00     0.049 A 
ATOM     52  N   UNL A   1      42.124  36.262  37.955  1.00  0.00    -0.248 NA
ATOM     53  C   UNL A   1      43.838  37.680  37.241  1.00  0.00     0.031 C 
ATOM     54  C   UNL A   1      41.297  35.192  33.684  1.00  0.00     0.029 A 
ATOM     55  N   UNL A   1      40.721  34.825  35.816  1.00  0.00    -0.354 N 
ATOM     56  C   UNL A   1      42.683  36.909  39.051  1.00  0.00     0.074 A 
ATOM     57  C   UNL A   1      43.758  37.738  38.560  1.00  0.00     0.031 C 
ATOM     58  C   UNL A   1      40.253  34.342  33.685  1.00  0.00     0.029 A 
ATOM     59  C   UNL A   1      39.860  34.061  35.064  1.00  0.00     0.049 A 
ATOM     60  H   UNL A   1      40.691  34.861  36.799  1.00  0.00     0.167 HD
ATOM     61  C   UNL A   1      42.325  36.836  40.354  1.00  0.00     0.031 A 
ATOM     62  C   UNL A   1      38.878  33.225  35.455  1.00  0.00     0.031 A 
ATOM     63  C   UNL A   1      41.275  35.996  40.854  1.00  0.00     0.049 A 
ATOM     64  C   UNL A   1      38.584  33.064  36.926  1.00  0.00     0.074 A 
ATOM     65  C   UNL A   1      40.851  35.832  42.161  1.00  0.00     0.029 A 
ATOM     66  N   UNL A   1      40.487  35.171  40.068  1.00  0.00    -0.354 N 
ATOM     67  N   UNL A   1      39.110  33.691  37.952  1.00  0.00    -0.248 NA
ATOM     68  C   UNL A   1      37.550  32.082  37.291  1.00  0.00     0.031 C 
ATOM     69  C   UNL A   1      39.844  34.862  42.172  1.00  0.00     0.029 A 
ATOM     70  C   UNL A   1      39.597  34.474  40.865  1.00  0.00     0.049 A 
ATOM     71  H   UNL A   1      40.552  35.092  39.089  1.00  0.00     0.167 HD
ATOM     72  C   UNL A   1      38.446  33.207  39.073  1.00  0.00     0.074 A 
ATOM     73  C   UNL A   1      37.471  32.247  38.604  1.00  0.00     0.031 C 
ATOM     74  C   UNL A   1      38.626  33.530  40.379  1.00  0.00     0.031 A 
BRANCH  61  75
ATOM     75  C   UNL A   1      43.107  37.670  41.328  1.00  0.00    -0.014 A 
ATOM     76  C   UNL A   1      44.264  37.172  41.949  1.00  0.00     0.009 A 
ATOM     77  C   UNL A   1      42.691  38.980  41.615  1.00  0.00     0.009 A 
ATOM     78  C   UNL A   1      44.970  37.959  42.861  1.00  0.00     0.001 A 
ATOM     79  C   UNL A   1      43.417  39.774  42.503  1.00  0.00     0.001 A 
ATOM     80  C   UNL A   1      44.550  39.260  43.132  1.00  0.00     0.000 A 
ENDBRANCH  61  75
BRANCH  62  81
ATOM     81  C   UNL A   1      38.103  32.447  34.450  1.00  0.00    -0.014 A 
ATOM     82  C   UNL A   1      38.567  31.206  33.984  1.00  0.00     0.009 A 
ATOM     83  C   UNL A   1      36.921  32.974  33.903  1.00  0.00     0.009 A 
ATOM     84  C   UNL A   1      37.886  30.530  32.967  1.00  0.00     0.001 A 
ATOM     85  C   UNL A   1      36.225  32.281  32.911  1.00  0.00     0.001 A 
ATOM     86  C   UNL A   1      36.715  31.067  32.434  1.00  0.00     0.000 A 
ENDBRANCH  62  81
BRANCH  74  87
ATOM     87  C   UNL A   1      37.719  32.880  41.388  1.00  0.00    -0.014 A 
ATOM     88  C   UNL A   1      36.478  33.441  41.725  1.00  0.00     0.009 A 
ATOM     89  C   UNL A   1      38.091  31.656  41.965  1.00  0.00     0.009 A 
ATOM     90  C   UNL A   1      35.643  32.805  42.647  1.00  0.00     0.001 A 
ATOM     91  C   UNL A   1      37.241  31.006  42.861  1.00  0.00     0.001 A 
ATOM     92  C   UNL A   1      36.023  31.585  43.208  1.00  0.00     0.000 A 
ENDBRANCH  74  87
ENDBRANCH  48  49
ENDBRANCH  41  43
ENDBRANCH  40  41
ENDBRANCH  39  40
ENDBRANCH  38  39
ENDBRANCH  37  38
ENDBRANCH  36  37
ENDBRANCH  35  36
ENDBRANCH  34  35
ENDBRANCH  33  34
ENDBRANCH   1  33
TORSDOF 27
ENDMDL
MODEL 3
REMARK VINA RESULT:      -7.0      8.473     15.376
REMARK SMILES CC(=O)O[C@@H]1[C@H](O)C(C)=C(CC[C@@H](C)CC(=O)OCCOCCOCCOCCOC(=O)c2ccc(-c3c4nc(c(-c5ccccc5)c5ccc([nH]5)c(-c5ccccc5)c5nc(c(-c6ccccc6)c6ccc3[nH]6)C=C5)C=C4)cc2)[C@@]2(C)CCCC(C)(C)[C@H]12
REMARK SMILES IDX 22 1 21 2 20 3 19 4 18 5 16 6 17 7 15 8 13 9 14 10 12 11
REMARK SMILES IDX 11 12 10 13 5 14 6 15 89 16 8 17 81 18 86 19 9 20 83 21
REMARK SMILES IDX 82 22 85 23 87 24 88 25 84 26 4 27 2 28 1 29 3 30 7 31 23 33
REMARK SMILES IDX 24 34 25 35 26 36 27 37 28 38 29 39 30 40 31 41 32 42 33 43
REMARK SMILES IDX 34 44 80 45 35 46 79 47 36 48 37 49 38 50 73 51 39 52 78 53
REMARK SMILES IDX 72 54 74 55 40 56 77 57 71 58 70 59 41 61 63 62 48 63 62 64
REMARK SMILES IDX 49 65 52 66 61 67 75 68 50 69 51 70 60 72 76 73 53 74 42 75
REMARK SMILES IDX 43 76 47 77 44 78 46 79 45 80 64 81 65 82 69 83 66 84 68 85
REMARK SMILES IDX 67 86 54 87 55 88 59 89 56 90 58 91 57 92
REMARK H PARENT 7 32 74 60 52 71
REMARK Flexibility Score: inf
ROOT
ATOM      1  C   UNL A   1      38.557  31.098  31.634  1.00  0.00     0.188 C 
ENDROOT
BRANCH   1   2
ATOM      2  O   UNL A   1      37.880  31.099  30.375  1.00  0.00    -0.376 OA
BRANCH   2   3
ATOM      3  C   UNL A   1      37.896  32.338  29.669  1.00  0.00     0.202 C 
BRANCH   3   4
ATOM      4  C   UNL A   1      36.527  32.850  29.199  1.00  0.00     0.261 C 
BRANCH   4   5
ATOM      5  O   UNL A   1      36.091  32.429  27.880  1.00  0.00    -0.463 OA
BRANCH   5   6
ATOM      6  C   UNL A   1      35.635  31.151  27.793  1.00  0.00     0.306 C 
ATOM      7  O   UNL A   1      36.343  30.188  27.521  1.00  0.00    -0.252 OA
BRANCH   6   8
ATOM      8  C   UNL A   1      34.108  31.034  27.843  1.00  0.00     0.126 C 
BRANCH   8   9
ATOM      9  C   UNL A   1      33.301  30.516  26.630  1.00  0.00    -0.003 C 
ATOM     10  C   UNL A   1      31.865  31.061  26.683  1.00  0.00     0.008 C 
BRANCH   9  11
ATOM     11  C   UNL A   1      33.342  28.953  26.453  1.00  0.00     0.008 C 
BRANCH  11  12
ATOM     12  C   UNL A   1      32.103  28.115  26.960  1.00  0.00     0.032 C 
BRANCH  12  13
ATOM     13  C   UNL A   1      31.055  27.331  26.072  1.00  0.00    -0.062 C 
ATOM     14  C   UNL A   1      32.348  24.918  25.190  1.00  0.00     0.213 C 
ATOM     15  C   UNL A   1      31.676  25.141  26.556  1.00  0.00     0.181 C 
ATOM     16  C   UNL A   1      32.349  26.198  24.267  1.00  0.00     0.049 C 
ATOM     17  C   UNL A   1      30.559  26.120  26.474  1.00  0.00    -0.042 C 
ATOM     18  C   UNL A   1      31.286  27.394  24.495  1.00  0.00    -0.004 C 
ATOM     19  C   UNL A   1      32.972  26.050  22.841  1.00  0.00    -0.028 C 
ATOM     20  C   UNL A   1      29.335  25.416  25.944  1.00  0.00     0.042 C 
ATOM     21  C   UNL A   1      31.938  28.723  23.936  1.00  0.00     0.011 C 
ATOM     22  C   UNL A   1      29.898  27.321  23.768  1.00  0.00     0.016 C 
ATOM     23  C   UNL A   1      33.747  27.373  22.638  1.00  0.00     0.007 C 
ATOM     24  C   UNL A   1      31.997  25.848  21.669  1.00  0.00     0.011 C 
ATOM     25  C   UNL A   1      33.983  24.882  22.754  1.00  0.00     0.011 C 
ATOM     26  C   UNL A   1      32.829  28.594  22.685  1.00  0.00     0.001 C 
BRANCH  14  27
ATOM     27  O   UNL A   1      31.913  23.687  24.583  1.00  0.00    -0.459 OA
BRANCH  27  28
ATOM     28  C   UNL A   1      32.388  22.484  25.045  1.00  0.00     0.303 C 
ATOM     29  C   UNL A   1      33.818  22.076  24.744  1.00  0.00     0.139 C 
ATOM     30  O   UNL A   1      31.627  21.690  25.597  1.00  0.00    -0.253 OA
ENDBRANCH  27  28
ENDBRANCH  14  27
BRANCH  15  31
ATOM     31  O   UNL A   1      31.442  23.951  27.219  1.00  0.00    -0.385 OA
ATOM     32  H   UNL A   1      32.283  23.492  27.369  1.00  0.00     0.211 HD
ENDBRANCH  15  31
ENDBRANCH  12  13
ENDBRANCH  11  12
ENDBRANCH   9  11
ENDBRANCH   8   9
ENDBRANCH   6   8
ENDBRANCH   5   6
ENDBRANCH   4   5
ENDBRANCH   3   4
ENDBRANCH   2   3
ENDBRANCH   1   2
BRANCH   1  33
ATOM     33  C   UNL A   1      38.139  32.255  32.575  1.00  0.00     0.188 C 
BRANCH  33  34
ATOM     34  O   UNL A   1      38.968  32.300  33.736  1.00  0.00    -0.377 OA
BRANCH  34  35
ATOM     35  C   UNL A   1      40.007  31.356  33.874  1.00  0.00     0.188 C 
BRANCH  35  36
ATOM     36  C   UNL A   1      40.056  30.465  35.115  1.00  0.00     0.188 C 
BRANCH  36  37
ATOM     37  O   UNL A   1      39.815  31.033  36.391  1.00  0.00    -0.376 OA
BRANCH  37  38
ATOM     38  C   UNL A   1      40.671  32.060  36.887  1.00  0.00     0.202 C 
BRANCH  38  39
ATOM     39  C   UNL A   1      40.064  33.463  36.943  1.00  0.00     0.261 C 
BRANCH  39  40
ATOM     40  O   UNL A   1      38.975  33.503  37.885  1.00  0.00    -0.460 OA
BRANCH  40  41
ATOM     41  C   UNL A   1      39.302  33.534  39.190  1.00  0.00     0.338 C 
ATOM     42  O   UNL A   1      39.360  32.595  39.972  1.00  0.00    -0.246 OA
BRANCH  41  43
ATOM     43  C   UNL A   1      39.781  34.884  39.526  1.00  0.00     0.060 A 
ATOM     44  C   UNL A   1      39.378  35.936  38.697  1.00  0.00     0.016 A 
ATOM     45  C   UNL A   1      40.658  35.112  40.591  1.00  0.00     0.016 A 
ATOM     46  C   UNL A   1      39.900  37.211  38.891  1.00  0.00     0.010 A 
ATOM     47  C   UNL A   1      41.181  36.394  40.789  1.00  0.00     0.010 A 
ATOM     48  C   UNL A   1      40.851  37.431  39.898  1.00  0.00    -0.014 A 
BRANCH  48  49
ATOM     49  C   UNL A   1      41.704  38.640  39.796  1.00  0.00     0.031 A 
ATOM     50  C   UNL A   1      41.182  39.913  40.413  1.00  0.00     0.074 A 
ATOM     51  C   UNL A   1      42.945  38.596  39.282  1.00  0.00     0.049 A 
ATOM     52  N   UNL A   1      41.761  41.081  40.528  1.00  0.00    -0.248 NA
ATOM     53  C   UNL A   1      39.827  39.854  40.993  1.00  0.00     0.031 C 
ATOM     54  C   UNL A   1      43.594  37.413  38.722  1.00  0.00     0.029 A 
ATOM     55  N   UNL A   1      43.890  39.586  39.171  1.00  0.00    -0.354 N 
ATOM     56  C   UNL A   1      40.848  41.884  41.200  1.00  0.00     0.074 A 
ATOM     57  C   UNL A   1      39.662  41.093  41.427  1.00  0.00     0.031 C 
ATOM     58  C   UNL A   1      44.839  37.744  38.335  1.00  0.00     0.029 A 
ATOM     59  C   UNL A   1      45.064  39.165  38.593  1.00  0.00     0.049 A 
ATOM     60  H   UNL A   1      43.742  40.509  39.476  1.00  0.00     0.167 HD
ATOM     61  C   UNL A   1      40.986  43.166  41.612  1.00  0.00     0.031 A 
ATOM     62  C   UNL A   1      46.183  39.857  38.301  1.00  0.00     0.031 A 
ATOM     63  C   UNL A   1      42.151  43.968  41.370  1.00  0.00     0.049 A 
ATOM     64  C   UNL A   1      46.262  41.321  38.655  1.00  0.00     0.074 A 
ATOM     65  C   UNL A   1      42.379  45.286  41.725  1.00  0.00     0.029 A 
ATOM     66  N   UNL A   1      43.282  43.528  40.703  1.00  0.00    -0.354 N 
ATOM     67  N   UNL A   1      45.398  42.067  39.303  1.00  0.00    -0.248 NA
ATOM     68  C   UNL A   1      47.479  42.037  38.244  1.00  0.00     0.031 C 
ATOM     69  C   UNL A   1      43.627  45.661  41.220  1.00  0.00     0.029 A 
ATOM     70  C   UNL A   1      44.202  44.556  40.610  1.00  0.00     0.049 A 
ATOM     71  H   UNL A   1      43.412  42.620  40.346  1.00  0.00     0.167 HD
ATOM     72  C   UNL A   1      45.983  43.323  39.408  1.00  0.00     0.074 A 
ATOM     73  C   UNL A   1      47.280  43.237  38.771  1.00  0.00     0.031 C 
ATOM     74  C   UNL A   1      45.493  44.450  39.982  1.00  0.00     0.031 A 
BRANCH  61  75
ATOM     75  C   UNL A   1      39.826  43.782  42.340  1.00  0.00    -0.014 A 
ATOM     76  C   UNL A   1      39.698  43.671  43.734  1.00  0.00     0.009 A 
ATOM     77  C   UNL A   1      38.857  44.503  41.623  1.00  0.00     0.009 A 
ATOM     78  C   UNL A   1      38.605  44.241  44.390  1.00  0.00     0.001 A 
ATOM     79  C   UNL A   1      37.783  45.098  42.287  1.00  0.00     0.001 A 
ATOM     80  C   UNL A   1      37.654  44.959  43.668  1.00  0.00     0.000 A 
ENDBRANCH  61  75
BRANCH  62  81
ATOM     81  C   UNL A   1      47.324  39.194  37.612  1.00  0.00    -0.014 A 
ATOM     82  C   UNL A   1      48.382  38.634  38.346  1.00  0.00     0.009 A 
ATOM     83  C   UNL A   1      47.392  39.176  36.209  1.00  0.00     0.009 A 
ATOM     84  C   UNL A   1      49.497  38.104  37.690  1.00  0.00     0.001 A 
ATOM     85  C   UNL A   1      48.492  38.617  35.557  1.00  0.00     0.001 A 
ATOM     86  C   UNL A   1      49.550  38.094  36.297  1.00  0.00     0.000 A 
ENDBRANCH  62  81
BRANCH  74  87
ATOM     87  C   UNL A   1      46.377  45.667  39.996  1.00  0.00    -0.014 A 
ATOM     88  C   UNL A   1      47.265  45.915  41.053  1.00  0.00     0.009 A 
ATOM     89  C   UNL A   1      46.361  46.546  38.901  1.00  0.00     0.009 A 
ATOM     90  C   UNL A   1      48.094  47.039  41.030  1.00  0.00     0.001 A 
ATOM     91  C   UNL A   1      47.213  47.650  38.864  1.00  0.00     0.001 A 
ATOM     92  C   UNL A   1      48.071  47.901  39.933  1.00  0.00     0.000 A 
ENDBRANCH  74  87
ENDBRANCH  48  49
ENDBRANCH  41  43
ENDBRANCH  40  41
ENDBRANCH  39  40
ENDBRANCH  38  39
ENDBRANCH  37  38
ENDBRANCH  36  37
ENDBRANCH  35  36
ENDBRANCH  34  35
ENDBRANCH  33  34
ENDBRANCH   1  33
TORSDOF 27
ENDMDL
