MODEL 1
REMARK VINA RESULT:      -8.5      0.000      0.000
REMARK SMILES Cc1ccc2c(c1)c(-c1ccnc3c(C)cccc13)c(C)n2CC(=O)OCCOCCOCCOCCOC(=O)c1ccc(-c2c3nc(c(-c4ccccc4)c4ccc([nH]4)c(-c4ccccc4)c4nc(c(-c5ccccc5)c5ccc2[nH]5)C=C4)C=C3)cc1
REMARK SMILES IDX 32 1 31 2 30 3 29 4 28 5 27 6 26 7 24 8 25 9 23 10 22 11
REMARK SMILES IDX 1 12 2 13 3 14 7 15 4 16 6 17 5 18 8 19 20 20 21 21 9 22
REMARK SMILES IDX 10 23 19 24 11 25 13 26 18 27 12 28 14 29 17 30 15 31 16 32
REMARK SMILES IDX 33 33 34 34 35 35 36 36 37 37 38 38 39 39 40 40 41 41 42 42
REMARK SMILES IDX 88 43 43 44 87 45 44 46 45 47 46 48 81 49 47 50 86 51 80 52
REMARK SMILES IDX 82 53 48 54 85 55 79 56 78 57 49 59 71 60 56 61 70 62 57 63
REMARK SMILES IDX 60 64 69 65 83 66 58 67 59 68 68 70 84 71 61 72 50 73 51 74
REMARK SMILES IDX 55 75 52 76 54 77 53 78 72 79 73 80 77 81 74 82 76 83 75 84
REMARK SMILES IDX 62 85 63 86 67 87 64 88 66 89 65 90
REMARK H PARENT 82 58 60 69
REMARK Flexibility Score: inf
ROOT
ATOM      1  O   UNL A   1      35.817  32.158  32.267  1.00  0.00    -0.377 OA
ENDROOT
BRANCH   1   2
ATOM      2  C   UNL A   1      37.013  32.897  32.309  1.00  0.00     0.188 C 
BRANCH   2   3
ATOM      3  C   UNL A   1      38.218  32.211  32.959  1.00  0.00     0.188 C 
BRANCH   3   4
ATOM      4  O   UNL A   1      39.512  32.750  32.753  1.00  0.00    -0.376 OA
BRANCH   4   5
ATOM      5  C   UNL A   1      39.617  34.043  32.158  1.00  0.00     0.202 C 
BRANCH   5   6
ATOM      6  C   UNL A   1      40.986  34.553  31.661  1.00  0.00     0.261 C 
BRANCH   6   7
ATOM      7  O   UNL A   1      41.177  34.469  30.225  1.00  0.00    -0.462 OA
BRANCH   7   8
ATOM      8  C   UNL A   1      42.255  33.782  29.780  1.00  0.00     0.326 C 
ATOM      9  O   UNL A   1      42.221  32.583  29.507  1.00  0.00    -0.250 OA
BRANCH   8  10
ATOM     10  C   UNL A   1      43.473  34.616  29.430  1.00  0.00     0.244 C 
BRANCH  10  11
ATOM     11  N   UNL A   1      43.351  36.064  29.209  1.00  0.00    -0.333 N 
ATOM     12  C   UNL A   1      45.138  40.447  32.308  1.00  0.00     0.044 C 
ATOM     13  C   UNL A   1      44.590  39.252  31.585  1.00  0.00    -0.050 A 
ATOM     14  C   UNL A   1      44.590  37.991  32.185  1.00  0.00     0.005 A 
ATOM     15  C   UNL A   1      44.059  39.400  30.298  1.00  0.00     0.014 A 
ATOM     16  C   UNL A   1      44.141  36.852  31.501  1.00  0.00     0.027 A 
ATOM     17  C   UNL A   1      43.650  38.263  29.571  1.00  0.00     0.008 A 
ATOM     18  C   UNL A   1      43.717  37.004  30.171  1.00  0.00     0.049 A 
ATOM     19  C   UNL A   1      43.176  38.082  28.245  1.00  0.00     0.011 A 
ATOM     20  C   UNL A   1      43.251  36.718  27.976  1.00  0.00     0.024 A 
ATOM     21  C   UNL A   1      43.240  36.064  26.629  1.00  0.00     0.065 C 
BRANCH  19  22
ATOM     22  C   UNL A   1      42.843  39.103  27.249  1.00  0.00    -0.005 A 
ATOM     23  C   UNL A   1      41.507  39.364  26.961  1.00  0.00     0.029 A 
ATOM     24  C   UNL A   1      43.858  39.842  26.583  1.00  0.00     0.008 A 
ATOM     25  C   UNL A   1      41.222  40.401  26.100  1.00  0.00     0.112 A 
ATOM     26  C   UNL A   1      43.458  40.914  25.747  1.00  0.00     0.074 A 
ATOM     27  C   UNL A   1      45.237  39.552  26.706  1.00  0.00     0.011 A 
ATOM     28  N   UNL A   1      42.157  41.192  25.537  1.00  0.00    -0.256 NA
ATOM     29  C   UNL A   1      44.445  41.695  25.123  1.00  0.00    -0.025 A 
ATOM     30  C   UNL A   1      46.191  40.272  25.999  1.00  0.00     0.001 A 
ATOM     31  C   UNL A   1      44.091  42.955  24.373  1.00  0.00     0.047 C 
ATOM     32  C   UNL A   1      45.804  41.364  25.240  1.00  0.00     0.005 A 
ENDBRANCH  19  22
ENDBRANCH  10  11
ENDBRANCH   8  10
ENDBRANCH   7   8
ENDBRANCH   6   7
ENDBRANCH   5   6
ENDBRANCH   4   5
ENDBRANCH   3   4
ENDBRANCH   2   3
ENDBRANCH   1   2
BRANCH   1  33
ATOM     33  C   UNL A   1      34.610  32.805  32.615  1.00  0.00     0.188 C 
BRANCH  33  34
ATOM     34  C   UNL A   1      34.439  34.262  32.176  1.00  0.00     0.188 C 
BRANCH  34  35
ATOM     35  O   UNL A   1      33.406  34.522  31.220  1.00  0.00    -0.376 OA
BRANCH  35  36
ATOM     36  C   UNL A   1      33.818  34.858  29.888  1.00  0.00     0.202 C 
BRANCH  36  37
ATOM     37  C   UNL A   1      33.737  33.699  28.891  1.00  0.00     0.261 C 
BRANCH  37  38
ATOM     38  O   UNL A   1      34.868  32.835  29.070  1.00  0.00    -0.460 OA
BRANCH  38  39
ATOM     39  C   UNL A   1      34.770  31.600  28.525  1.00  0.00     0.338 C 
ATOM     40  O   UNL A   1      33.803  31.092  27.987  1.00  0.00    -0.246 OA
BRANCH  39  41
ATOM     41  C   UNL A   1      36.166  31.154  28.365  1.00  0.00     0.060 A 
ATOM     42  C   UNL A   1      36.460  29.827  28.047  1.00  0.00     0.016 A 
ATOM     43  C   UNL A   1      37.156  32.018  28.845  1.00  0.00     0.016 A 
ATOM     44  C   UNL A   1      37.723  29.329  28.329  1.00  0.00     0.010 A 
ATOM     45  C   UNL A   1      38.418  31.515  29.132  1.00  0.00     0.010 A 
ATOM     46  C   UNL A   1      38.685  30.158  28.926  1.00  0.00    -0.014 A 
BRANCH  46  47
ATOM     47  C   UNL A   1      40.027  29.602  29.133  1.00  0.00     0.031 A 
ATOM     48  C   UNL A   1      40.408  29.517  30.572  1.00  0.00     0.074 A 
ATOM     49  C   UNL A   1      40.786  29.049  28.164  1.00  0.00     0.049 A 
ATOM     50  N   UNL A   1      41.495  29.908  31.155  1.00  0.00    -0.248 NA
ATOM     51  C   UNL A   1      39.370  29.013  31.494  1.00  0.00     0.031 C 
ATOM     52  C   UNL A   1      40.390  28.814  26.773  1.00  0.00     0.029 A 
ATOM     53  N   UNL A   1      42.020  28.456  28.240  1.00  0.00    -0.354 N 
ATOM     54  C   UNL A   1      41.341  29.547  32.492  1.00  0.00     0.074 A 
ATOM     55  C   UNL A   1      39.968  29.157  32.672  1.00  0.00     0.031 C 
ATOM     56  C   UNL A   1      41.249  27.942  26.207  1.00  0.00     0.029 A 
ATOM     57  C   UNL A   1      42.300  27.627  27.159  1.00  0.00     0.049 A 
ATOM     58  H   UNL A   1      42.646  28.603  28.986  1.00  0.00     0.167 HD
ATOM     59  C   UNL A   1      42.397  29.338  33.319  1.00  0.00     0.031 A 
ATOM     60  C   UNL A   1      43.254  26.666  27.068  1.00  0.00     0.031 A 
ATOM     61  C   UNL A   1      43.583  30.009  32.876  1.00  0.00     0.049 A 
ATOM     62  C   UNL A   1      44.253  26.893  28.132  1.00  0.00     0.074 A 
ATOM     63  C   UNL A   1      43.942  31.327  32.701  1.00  0.00     0.029 A 
ATOM     64  N   UNL A   1      44.522  29.252  32.223  1.00  0.00    -0.354 N 
ATOM     65  N   UNL A   1      45.078  27.899  28.164  1.00  0.00    -0.248 NA
ATOM     66  C   UNL A   1      44.108  26.167  29.385  1.00  0.00     0.031 C 
ATOM     67  C   UNL A   1      44.863  31.325  31.618  1.00  0.00     0.029 A 
ATOM     68  C   UNL A   1      45.050  30.003  31.206  1.00  0.00     0.049 A 
ATOM     69  H   UNL A   1      44.773  28.327  32.446  1.00  0.00     0.167 HD
ATOM     70  C   UNL A   1      45.229  28.190  29.512  1.00  0.00     0.074 A 
ATOM     71  C   UNL A   1      44.722  27.016  30.211  1.00  0.00     0.031 C 
ATOM     72  C   UNL A   1      45.487  29.461  29.933  1.00  0.00     0.031 A 
BRANCH  59  73
ATOM     73  C   UNL A   1      42.418  28.192  34.301  1.00  0.00    -0.014 A 
ATOM     74  C   UNL A   1      42.197  28.370  35.684  1.00  0.00     0.009 A 
ATOM     75  C   UNL A   1      42.395  26.873  33.824  1.00  0.00     0.009 A 
ATOM     76  C   UNL A   1      41.990  27.297  36.552  1.00  0.00     0.001 A 
ATOM     77  C   UNL A   1      42.139  25.796  34.685  1.00  0.00     0.001 A 
ATOM     78  C   UNL A   1      41.941  26.009  36.047  1.00  0.00     0.000 A 
ENDBRANCH  59  73
BRANCH  60  79
ATOM     79  C   UNL A   1      43.167  25.390  26.315  1.00  0.00    -0.014 A 
ATOM     80  C   UNL A   1      42.356  24.341  26.793  1.00  0.00     0.009 A 
ATOM     81  C   UNL A   1      44.046  25.095  25.262  1.00  0.00     0.009 A 
ATOM     82  C   UNL A   1      42.418  23.055  26.252  1.00  0.00     0.001 A 
ATOM     83  C   UNL A   1      44.118  23.799  24.724  1.00  0.00     0.001 A 
ATOM     84  C   UNL A   1      43.311  22.780  25.224  1.00  0.00     0.000 A 
ENDBRANCH  60  79
BRANCH  72  85
ATOM     85  C   UNL A   1      45.999  30.467  28.930  1.00  0.00    -0.014 A 
ATOM     86  C   UNL A   1      47.370  30.778  28.957  1.00  0.00     0.009 A 
ATOM     87  C   UNL A   1      45.158  31.237  28.109  1.00  0.00     0.009 A 
ATOM     88  C   UNL A   1      47.881  31.843  28.214  1.00  0.00     0.001 A 
ATOM     89  C   UNL A   1      45.679  32.283  27.338  1.00  0.00     0.001 A 
ATOM     90  C   UNL A   1      47.035  32.597  27.406  1.00  0.00     0.000 A 
ENDBRANCH  72  85
ENDBRANCH  46  47
ENDBRANCH  39  41
ENDBRANCH  38  39
ENDBRANCH  37  38
ENDBRANCH  36  37
ENDBRANCH  35  36
ENDBRANCH  34  35
ENDBRANCH  33  34
ENDBRANCH   1  33
TORSDOF 22
ENDMDL
MODEL 2
REMARK VINA RESULT:      -8.3      3.776      8.982
REMARK SMILES Cc1ccc2c(c1)c(-c1ccnc3c(C)cccc13)c(C)n2CC(=O)OCCOCCOCCOCCOC(=O)c1ccc(-c2c3nc(c(-c4ccccc4)c4ccc([nH]4)c(-c4ccccc4)c4nc(c(-c5ccccc5)c5ccc2[nH]5)C=C4)C=C3)cc1
REMARK SMILES IDX 32 1 31 2 30 3 29 4 28 5 27 6 26 7 24 8 25 9 23 10 22 11
REMARK SMILES IDX 1 12 2 13 3 14 7 15 4 16 6 17 5 18 8 19 20 20 21 21 9 22
REMARK SMILES IDX 10 23 19 24 11 25 13 26 18 27 12 28 14 29 17 30 15 31 16 32
REMARK SMILES IDX 33 33 34 34 35 35 36 36 37 37 38 38 39 39 40 40 41 41 42 42
REMARK SMILES IDX 88 43 43 44 87 45 44 46 45 47 46 48 81 49 47 50 86 51 80 52
REMARK SMILES IDX 82 53 48 54 85 55 79 56 78 57 49 59 71 60 56 61 70 62 57 63
REMARK SMILES IDX 60 64 69 65 83 66 58 67 59 68 68 70 84 71 61 72 50 73 51 74
REMARK SMILES IDX 55 75 52 76 54 77 53 78 72 79 73 80 77 81 74 82 76 83 75 84
REMARK SMILES IDX 62 85 63 86 67 87 64 88 66 89 65 90
REMARK H PARENT 82 58 60 69
REMARK Flexibility Score: inf
ROOT
ATOM      1  O   UNL A   1      35.243  32.637  28.694  1.00  0.00    -0.377 OA
ENDROOT
BRANCH   1   2
ATOM      2  C   UNL A   1      34.503  33.118  29.789  1.00  0.00     0.188 C 
BRANCH   2   3
ATOM      3  C   UNL A   1      34.903  32.590  31.170  1.00  0.00     0.188 C 
BRANCH   3   4
ATOM      4  O   UNL A   1      35.317  33.510  32.165  1.00  0.00    -0.376 OA
BRANCH   4   5
ATOM      5  C   UNL A   1      35.378  33.057  33.518  1.00  0.00     0.202 C 
BRANCH   5   6
ATOM      6  C   UNL A   1      36.745  32.886  34.212  1.00  0.00     0.261 C 
BRANCH   6   7
ATOM      7  O   UNL A   1      37.778  32.304  33.376  1.00  0.00    -0.462 OA
BRANCH   7   8
ATOM      8  C   UNL A   1      38.936  31.943  33.977  1.00  0.00     0.326 C 
ATOM      9  O   UNL A   1      38.998  31.586  35.153  1.00  0.00    -0.250 OA
BRANCH   8  10
ATOM     10  C   UNL A   1      40.138  31.798  33.063  1.00  0.00     0.244 C 
BRANCH  10  11
ATOM     11  N   UNL A   1      40.632  30.467  32.680  1.00  0.00    -0.333 N 
ATOM     12  C   UNL A   1      39.425  27.217  28.210  1.00  0.00     0.044 C 
ATOM     13  C   UNL A   1      39.622  28.069  29.429  1.00  0.00    -0.050 A 
ATOM     14  C   UNL A   1      38.785  29.158  29.684  1.00  0.00     0.005 A 
ATOM     15  C   UNL A   1      40.648  27.765  30.332  1.00  0.00     0.014 A 
ATOM     16  C   UNL A   1      38.994  30.002  30.784  1.00  0.00     0.027 A 
ATOM     17  C   UNL A   1      40.910  28.629  31.415  1.00  0.00     0.008 A 
ATOM     18  C   UNL A   1      40.096  29.746  31.614  1.00  0.00     0.049 A 
ATOM     19  C   UNL A   1      41.916  28.647  32.418  1.00  0.00     0.011 A 
ATOM     20  C   UNL A   1      41.873  29.908  33.006  1.00  0.00     0.024 A 
ATOM     21  C   UNL A   1      42.946  30.557  33.823  1.00  0.00     0.065 C 
BRANCH  19  22
ATOM     22  C   UNL A   1      42.945  27.642  32.693  1.00  0.00    -0.005 A 
ATOM     23  C   UNL A   1      44.055  27.557  31.858  1.00  0.00     0.029 A 
ATOM     24  C   UNL A   1      42.837  26.762  33.804  1.00  0.00     0.008 A 
ATOM     25  C   UNL A   1      45.056  26.675  32.202  1.00  0.00     0.112 A 
ATOM     26  C   UNL A   1      43.940  25.921  34.093  1.00  0.00     0.074 A 
ATOM     27  C   UNL A   1      41.686  26.680  34.621  1.00  0.00     0.011 A 
ATOM     28  N   UNL A   1      45.036  25.905  33.309  1.00  0.00    -0.256 NA
ATOM     29  C   UNL A   1      43.881  25.084  35.220  1.00  0.00    -0.025 A 
ATOM     30  C   UNL A   1      41.608  25.772  35.669  1.00  0.00     0.001 A 
ATOM     31  C   UNL A   1      45.086  24.305  35.684  1.00  0.00     0.047 C 
ATOM     32  C   UNL A   1      42.713  25.003  35.994  1.00  0.00     0.005 A 
ENDBRANCH  19  22
ENDBRANCH  10  11
ENDBRANCH   8  10
ENDBRANCH   7   8
ENDBRANCH   6   7
ENDBRANCH   5   6
ENDBRANCH   4   5
ENDBRANCH   3   4
ENDBRANCH   2   3
ENDBRANCH   1   2
BRANCH   1  33
ATOM     33  C   UNL A   1      36.554  32.159  28.921  1.00  0.00     0.188 C 
BRANCH  33  34
ATOM     34  C   UNL A   1      37.690  33.186  28.913  1.00  0.00     0.188 C 
BRANCH  34  35
ATOM     35  O   UNL A   1      38.343  33.425  30.164  1.00  0.00    -0.376 OA
BRANCH  35  36
ATOM     36  C   UNL A   1      38.992  34.692  30.331  1.00  0.00     0.202 C 
BRANCH  36  37
ATOM     37  C   UNL A   1      40.376  34.784  29.683  1.00  0.00     0.261 C 
BRANCH  37  38
ATOM     38  O   UNL A   1      41.245  33.806  30.272  1.00  0.00    -0.460 OA
BRANCH  38  39
ATOM     39  C   UNL A   1      42.570  33.974  30.054  1.00  0.00     0.338 C 
ATOM     40  O   UNL A   1      43.331  34.742  30.615  1.00  0.00    -0.246 OA
BRANCH  39  41
ATOM     41  C   UNL A   1      42.974  32.780  29.291  1.00  0.00     0.060 A 
ATOM     42  C   UNL A   1      42.600  31.502  29.712  1.00  0.00     0.016 A 
ATOM     43  C   UNL A   1      43.984  32.959  28.340  1.00  0.00     0.016 A 
ATOM     44  C   UNL A   1      43.326  30.406  29.272  1.00  0.00     0.010 A 
ATOM     45  C   UNL A   1      44.713  31.860  27.904  1.00  0.00     0.010 A 
ATOM     46  C   UNL A   1      44.420  30.591  28.413  1.00  0.00    -0.014 A 
BRANCH  46  47
ATOM     47  C   UNL A   1      45.105  29.391  27.917  1.00  0.00     0.031 A 
ATOM     48  C   UNL A   1      46.424  29.160  28.572  1.00  0.00     0.074 A 
ATOM     49  C   UNL A   1      44.551  28.477  27.095  1.00  0.00     0.049 A 
ATOM     50  N   UNL A   1      47.572  28.904  28.032  1.00  0.00    -0.248 NA
ATOM     51  C   UNL A   1      46.469  29.350  30.036  1.00  0.00     0.031 C 
ATOM     52  C   UNL A   1      43.163  28.451  26.626  1.00  0.00     0.029 A 
ATOM     53  N   UNL A   1      45.064  27.301  26.608  1.00  0.00    -0.354 N 
ATOM     54  C   UNL A   1      48.448  28.736  29.103  1.00  0.00     0.074 A 
ATOM     55  C   UNL A   1      47.763  29.180  30.287  1.00  0.00     0.031 C 
ATOM     56  C   UNL A   1      42.883  27.229  26.127  1.00  0.00     0.029 A 
ATOM     57  C   UNL A   1      44.087  26.418  26.159  1.00  0.00     0.049 A 
ATOM     58  H   UNL A   1      46.029  27.102  26.580  1.00  0.00     0.167 HD
ATOM     59  C   UNL A   1      49.588  28.006  29.006  1.00  0.00     0.031 A 
ATOM     60  C   UNL A   1      44.210  25.087  25.925  1.00  0.00     0.031 A 
ATOM     61  C   UNL A   1      50.054  27.889  27.656  1.00  0.00     0.049 A 
ATOM     62  C   UNL A   1      45.645  24.759  25.807  1.00  0.00     0.074 A 
ATOM     63  C   UNL A   1      50.508  28.780  26.708  1.00  0.00     0.029 A 
ATOM     64  N   UNL A   1      49.782  26.716  27.000  1.00  0.00    -0.354 N 
ATOM     65  N   UNL A   1      46.408  25.139  24.824  1.00  0.00    -0.248 NA
ATOM     66  C   UNL A   1      46.345  24.281  26.990  1.00  0.00     0.031 C 
ATOM     67  C   UNL A   1      50.118  28.229  25.458  1.00  0.00     0.029 A 
ATOM     68  C   UNL A   1      49.475  27.011  25.698  1.00  0.00     0.049 A 
ATOM     69  H   UNL A   1      49.803  25.816  27.398  1.00  0.00     0.167 HD
ATOM     70  C   UNL A   1      47.652  25.345  25.401  1.00  0.00     0.074 A 
ATOM     71  C   UNL A   1      47.585  24.675  26.693  1.00  0.00     0.031 C 
ATOM     72  C   UNL A   1      48.516  26.273  24.898  1.00  0.00     0.031 A 
BRANCH  59  73
ATOM     73  C   UNL A   1      50.028  27.077  30.111  1.00  0.00    -0.014 A 
ATOM     74  C   UNL A   1      49.193  26.068  30.636  1.00  0.00     0.009 A 
ATOM     75  C   UNL A   1      51.384  27.020  30.468  1.00  0.00     0.009 A 
ATOM     76  C   UNL A   1      49.669  25.070  31.488  1.00  0.00     0.001 A 
ATOM     77  C   UNL A   1      51.876  25.991  31.283  1.00  0.00     0.001 A 
ATOM     78  C   UNL A   1      51.018  25.021  31.795  1.00  0.00     0.000 A 
ENDBRANCH  59  73
BRANCH  60  79
ATOM     79  C   UNL A   1      43.168  24.047  26.119  1.00  0.00    -0.014 A 
ATOM     80  C   UNL A   1      42.193  24.203  27.125  1.00  0.00     0.009 A 
ATOM     81  C   UNL A   1      43.251  22.796  25.489  1.00  0.00     0.009 A 
ATOM     82  C   UNL A   1      41.342  23.158  27.494  1.00  0.00     0.001 A 
ATOM     83  C   UNL A   1      42.402  21.742  25.867  1.00  0.00     0.001 A 
ATOM     84  C   UNL A   1      41.455  21.921  26.873  1.00  0.00     0.000 A 
ENDBRANCH  60  79
BRANCH  72  85
ATOM     85  C   UNL A   1      48.290  26.790  23.497  1.00  0.00    -0.014 A 
ATOM     86  C   UNL A   1      49.096  26.267  22.470  1.00  0.00     0.009 A 
ATOM     87  C   UNL A   1      47.461  27.884  23.201  1.00  0.00     0.009 A 
ATOM     88  C   UNL A   1      49.098  26.838  21.197  1.00  0.00     0.001 A 
ATOM     89  C   UNL A   1      47.440  28.433  21.914  1.00  0.00     0.001 A 
ATOM     90  C   UNL A   1      48.272  27.923  20.918  1.00  0.00     0.000 A 
ENDBRANCH  72  85
ENDBRANCH  46  47
ENDBRANCH  39  41
ENDBRANCH  38  39
ENDBRANCH  37  38
ENDBRANCH  36  37
ENDBRANCH  35  36
ENDBRANCH  34  35
ENDBRANCH  33  34
ENDBRANCH   1  33
TORSDOF 22
ENDMDL
MODEL 3
REMARK VINA RESULT:      -8.2      5.302     12.576
REMARK SMILES Cc1ccc2c(c1)c(-c1ccnc3c(C)cccc13)c(C)n2CC(=O)OCCOCCOCCOCCOC(=O)c1ccc(-c2c3nc(c(-c4ccccc4)c4ccc([nH]4)c(-c4ccccc4)c4nc(c(-c5ccccc5)c5ccc2[nH]5)C=C4)C=C3)cc1
REMARK SMILES IDX 32 1 31 2 30 3 29 4 28 5 27 6 26 7 24 8 25 9 23 10 22 11
REMARK SMILES IDX 1 12 2 13 3 14 7 15 4 16 6 17 5 18 8 19 20 20 21 21 9 22
REMARK SMILES IDX 10 23 19 24 11 25 13 26 18 27 12 28 14 29 17 30 15 31 16 32
REMARK SMILES IDX 33 33 34 34 35 35 36 36 37 37 38 38 39 39 40 40 41 41 42 42
REMARK SMILES IDX 88 43 43 44 87 45 44 46 45 47 46 48 81 49 47 50 86 51 80 52
REMARK SMILES IDX 82 53 48 54 85 55 79 56 78 57 49 59 71 60 56 61 70 62 57 63
REMARK SMILES IDX 60 64 69 65 83 66 58 67 59 68 68 70 84 71 61 72 50 73 51 74
REMARK SMILES IDX 55 75 52 76 54 77 53 78 72 79 73 80 77 81 74 82 76 83 75 84
REMARK SMILES IDX 62 85 63 86 67 87 64 88 66 89 65 90
REMARK H PARENT 82 58 60 69
REMARK Flexibility Score: inf
ROOT
ATOM      1  O   UNL A   1      40.411  20.967  27.535  1.00  0.00    -0.377 OA
ENDROOT
BRANCH   1   2
ATOM      2  C   UNL A   1      40.782  22.290  27.833  1.00  0.00     0.188 C 
BRANCH   2   3
ATOM      3  C   UNL A   1      40.438  23.350  26.783  1.00  0.00     0.188 C 
BRANCH   3   4
ATOM      4  O   UNL A   1      39.125  23.881  26.744  1.00  0.00    -0.376 OA
BRANCH   4   5
ATOM      5  C   UNL A   1      38.098  23.096  26.138  1.00  0.00     0.202 C 
BRANCH   5   6
ATOM      6  C   UNL A   1      37.030  23.775  25.255  1.00  0.00     0.261 C 
BRANCH   6   7
ATOM      7  O   UNL A   1      35.706  23.187  25.350  1.00  0.00    -0.462 OA
BRANCH   7   8
ATOM      8  C   UNL A   1      35.344  22.311  24.385  1.00  0.00     0.326 C 
ATOM      9  O   UNL A   1      35.673  21.125  24.396  1.00  0.00    -0.250 OA
BRANCH   8  10
ATOM     10  C   UNL A   1      34.324  22.816  23.381  1.00  0.00     0.244 C 
BRANCH  10  11
ATOM     11  N   UNL A   1      33.261  23.743  23.794  1.00  0.00    -0.333 N 
ATOM     12  C   UNL A   1      29.066  23.136  27.540  1.00  0.00     0.044 C 
ATOM     13  C   UNL A   1      30.126  23.202  26.480  1.00  0.00    -0.050 A 
ATOM     14  C   UNL A   1      30.810  22.052  26.080  1.00  0.00     0.005 A 
ATOM     15  C   UNL A   1      30.427  24.426  25.872  1.00  0.00     0.014 A 
ATOM     16  C   UNL A   1      31.846  22.104  25.138  1.00  0.00     0.027 A 
ATOM     17  C   UNL A   1      31.500  24.514  24.962  1.00  0.00     0.008 A 
ATOM     18  C   UNL A   1      32.209  23.359  24.623  1.00  0.00     0.049 A 
ATOM     19  C   UNL A   1      32.100  25.601  24.273  1.00  0.00     0.011 A 
ATOM     20  C   UNL A   1      33.318  25.142  23.782  1.00  0.00     0.024 A 
ATOM     21  C   UNL A   1      34.479  25.974  23.332  1.00  0.00     0.065 C 
BRANCH  19  22
ATOM     22  C   UNL A   1      31.662  26.999  24.222  1.00  0.00    -0.005 A 
ATOM     23  C   UNL A   1      30.820  27.411  23.194  1.00  0.00     0.029 A 
ATOM     24  C   UNL A   1      32.070  27.936  25.210  1.00  0.00     0.008 A 
ATOM     25  C   UNL A   1      30.340  28.701  23.230  1.00  0.00     0.112 A 
ATOM     26  C   UNL A   1      31.487  29.227  25.179  1.00  0.00     0.074 A 
ATOM     27  C   UNL A   1      33.030  27.645  26.206  1.00  0.00     0.011 A 
ATOM     28  N   UNL A   1      30.619  29.583  24.212  1.00  0.00    -0.256 NA
ATOM     29  C   UNL A   1      31.832  30.153  26.178  1.00  0.00    -0.025 A 
ATOM     30  C   UNL A   1      33.434  28.608  27.122  1.00  0.00     0.001 A 
ATOM     31  C   UNL A   1      31.113  31.472  26.308  1.00  0.00     0.047 C 
ATOM     32  C   UNL A   1      32.810  29.845  27.136  1.00  0.00     0.005 A 
ENDBRANCH  19  22
ENDBRANCH  10  11
ENDBRANCH   8  10
ENDBRANCH   7   8
ENDBRANCH   6   7
ENDBRANCH   5   6
ENDBRANCH   4   5
ENDBRANCH   3   4
ENDBRANCH   2   3
ENDBRANCH   1   2
BRANCH   1  33
ATOM     33  C   UNL A   1      40.611  20.488  26.220  1.00  0.00     0.188 C 
BRANCH  33  34
ATOM     34  C   UNL A   1      41.838  19.609  25.969  1.00  0.00     0.188 C 
BRANCH  34  35
ATOM     35  O   UNL A   1      43.115  20.220  26.186  1.00  0.00    -0.376 OA
BRANCH  35  36
ATOM     36  C   UNL A   1      44.160  19.895  25.260  1.00  0.00     0.202 C 
BRANCH  36  37
ATOM     37  C   UNL A   1      45.302  20.914  25.213  1.00  0.00     0.261 C 
BRANCH  37  38
ATOM     38  O   UNL A   1      44.770  22.235  25.388  1.00  0.00    -0.460 OA
BRANCH  38  39
ATOM     39  C   UNL A   1      45.441  23.236  24.773  1.00  0.00     0.338 C 
ATOM     40  O   UNL A   1      45.737  23.328  23.595  1.00  0.00    -0.246 OA
BRANCH  39  41
ATOM     41  C   UNL A   1      45.391  24.358  25.728  1.00  0.00     0.060 A 
ATOM     42  C   UNL A   1      45.527  24.136  27.099  1.00  0.00     0.016 A 
ATOM     43  C   UNL A   1      44.897  25.572  25.239  1.00  0.00     0.016 A 
ATOM     44  C   UNL A   1      45.049  25.086  27.988  1.00  0.00     0.010 A 
ATOM     45  C   UNL A   1      44.413  26.520  26.131  1.00  0.00     0.010 A 
ATOM     46  C   UNL A   1      44.439  26.254  27.503  1.00  0.00    -0.014 A 
BRANCH  46  47
ATOM     47  C   UNL A   1      44.020  27.260  28.486  1.00  0.00     0.031 A 
ATOM     48  C   UNL A   1      45.074  28.274  28.769  1.00  0.00     0.074 A 
ATOM     49  C   UNL A   1      42.764  27.389  28.963  1.00  0.00     0.049 A 
ATOM     50  N   UNL A   1      45.517  28.698  29.908  1.00  0.00    -0.248 NA
ATOM     51  C   UNL A   1      45.801  28.804  27.598  1.00  0.00     0.031 C 
ATOM     52  C   UNL A   1      41.584  26.634  28.532  1.00  0.00     0.029 A 
ATOM     53  N   UNL A   1      42.242  28.310  29.836  1.00  0.00    -0.354 N 
ATOM     54  C   UNL A   1      46.463  29.671  29.592  1.00  0.00     0.074 A 
ATOM     55  C   UNL A   1      46.712  29.578  28.179  1.00  0.00     0.031 C 
ATOM     56  C   UNL A   1      40.471  27.265  28.959  1.00  0.00     0.029 A 
ATOM     57  C   UNL A   1      40.856  28.412  29.764  1.00  0.00     0.049 A 
ATOM     58  H   UNL A   1      42.793  28.846  30.451  1.00  0.00     0.167 HD
ATOM     59  C   UNL A   1      46.799  30.669  30.448  1.00  0.00     0.031 A 
ATOM     60  C   UNL A   1      40.068  29.412  30.231  1.00  0.00     0.031 A 
ATOM     61  C   UNL A   1      46.521  30.340  31.815  1.00  0.00     0.049 A 
ATOM     62  C   UNL A   1      40.839  30.201  31.213  1.00  0.00     0.074 A 
ATOM     63  C   UNL A   1      46.985  29.387  32.694  1.00  0.00     0.029 A 
ATOM     64  N   UNL A   1      45.378  30.864  32.363  1.00  0.00    -0.354 N 
ATOM     65  N   UNL A   1      41.207  29.763  32.382  1.00  0.00    -0.248 NA
ATOM     66  C   UNL A   1      41.523  31.400  30.753  1.00  0.00     0.031 C 
ATOM     67  C   UNL A   1      45.887  29.100  33.551  1.00  0.00     0.029 A 
ATOM     68  C   UNL A   1      44.816  29.915  33.177  1.00  0.00     0.049 A 
ATOM     69  H   UNL A   1      45.023  31.767  32.201  1.00  0.00     0.167 HD
ATOM     70  C   UNL A   1      42.435  30.365  32.614  1.00  0.00     0.074 A 
ATOM     71  C   UNL A   1      42.510  31.455  31.650  1.00  0.00     0.031 C 
ATOM     72  C   UNL A   1      43.388  29.750  33.372  1.00  0.00     0.031 A 
BRANCH  59  73
ATOM     73  C   UNL A   1      47.004  32.086  29.969  1.00  0.00    -0.014 A 
ATOM     74  C   UNL A   1      46.065  32.761  29.160  1.00  0.00     0.009 A 
ATOM     75  C   UNL A   1      48.020  32.868  30.540  1.00  0.00     0.009 A 
ATOM     76  C   UNL A   1      46.142  34.131  28.909  1.00  0.00     0.001 A 
ATOM     77  C   UNL A   1      48.073  34.253  30.329  1.00  0.00     0.001 A 
ATOM     78  C   UNL A   1      47.137  34.882  29.512  1.00  0.00     0.000 A 
ENDBRANCH  59  73
BRANCH  60  79
ATOM     79  C   UNL A   1      38.800  29.903  29.633  1.00  0.00    -0.014 A 
ATOM     80  C   UNL A   1      38.597  31.285  29.445  1.00  0.00     0.009 A 
ATOM     81  C   UNL A   1      37.692  29.060  29.460  1.00  0.00     0.009 A 
ATOM     82  C   UNL A   1      37.347  31.807  29.104  1.00  0.00     0.001 A 
ATOM     83  C   UNL A   1      36.432  29.584  29.128  1.00  0.00     0.001 A 
ATOM     84  C   UNL A   1      36.259  30.956  28.958  1.00  0.00     0.000 A 
ENDBRANCH  60  79
BRANCH  72  85
ATOM     85  C   UNL A   1      42.973  28.614  34.276  1.00  0.00    -0.014 A 
ATOM     86  C   UNL A   1      42.783  27.350  33.692  1.00  0.00     0.009 A 
ATOM     87  C   UNL A   1      42.590  28.792  35.615  1.00  0.00     0.009 A 
ATOM     88  C   UNL A   1      42.200  26.305  34.410  1.00  0.00     0.001 A 
ATOM     89  C   UNL A   1      42.037  27.734  36.345  1.00  0.00     0.001 A 
ATOM     90  C   UNL A   1      41.825  26.497  35.737  1.00  0.00     0.000 A 
ENDBRANCH  72  85
ENDBRANCH  46  47
ENDBRANCH  39  41
ENDBRANCH  38  39
ENDBRANCH  37  38
ENDBRANCH  36  37
ENDBRANCH  35  36
ENDBRANCH  34  35
ENDBRANCH  33  34
ENDBRANCH   1  33
TORSDOF 22
ENDMDL
