MODEL 1
REMARK VINA RESULT:      -9.7      0.000      0.000
REMARK SMILES Cc1nn(C)c2c1nc(SCC(=O)OCCOCCOCCOCCOC(=O)c1ccc(-c3c4nc(c(-c5ccccc5)c5ccc([nH]5)c(-c5ccccc5)c5nc(c(-c6ccccc6)c6ccc3[nH]6)C=C5)C=C4)cc1)n2[C@H]1CC[N@@H+](C)C1
REMARK SMILES IDX 19 1 18 2 17 3 16 4 15 5 14 6 12 7 13 8 11 9 10 10 9 11 1 12
REMARK SMILES IDX 2 13 3 14 7 15 4 16 6 17 8 18 5 19 77 20 78 21 79 22 83 23
REMARK SMILES IDX 80 24 81 25 82 26 20 28 21 29 22 30 23 31 24 32 25 33 26 34
REMARK SMILES IDX 27 35 28 36 29 37 30 38 76 39 31 40 75 41 32 42 33 43 34 44
REMARK SMILES IDX 69 45 35 46 74 47 68 48 70 49 36 50 73 51 67 52 66 53 37 55
REMARK SMILES IDX 59 56 44 57 58 58 45 59 48 60 57 61 71 62 46 63 47 64 56 66
REMARK SMILES IDX 72 67 49 68 38 69 39 70 43 71 40 72 42 73 41 74 60 75 61 76
REMARK SMILES IDX 65 77 62 78 64 79 63 80 50 81 51 82 55 83 52 84 54 85 53 86
REMARK H PARENT 81 27 70 54 48 65
REMARK Flexibility Score: inf
ROOT
ATOM      1  C   UNL A   1      37.767  22.034  25.329  1.00  0.00     0.188 C 
ENDROOT
BRANCH   1   2
ATOM      2  C   UNL A   1      36.319  21.649  25.732  1.00  0.00     0.188 C 
BRANCH   2   3
ATOM      3  O   UNL A   1      35.458  20.950  24.835  1.00  0.00    -0.376 OA
BRANCH   3   4
ATOM      4  C   UNL A   1      35.311  19.549  24.981  1.00  0.00     0.202 C 
BRANCH   4   5
ATOM      5  C   UNL A   1      34.012  18.921  24.440  1.00  0.00     0.261 C 
BRANCH   5   6
ATOM      6  O   UNL A   1      33.024  19.860  23.955  1.00  0.00    -0.463 OA
BRANCH   6   7
ATOM      7  C   UNL A   1      32.380  19.539  22.805  1.00  0.00     0.316 C 
ATOM      8  O   UNL A   1      32.165  18.378  22.459  1.00  0.00    -0.251 OA
BRANCH   7   9
ATOM      9  C   UNL A   1      31.867  20.709  21.966  1.00  0.00     0.200 C 
BRANCH   9  10
ATOM     10  S   UNL A   1      32.702  22.310  22.086  1.00  0.00    -0.076 SA
BRANCH  10  11
ATOM     11  C   UNL A   1      31.905  23.215  23.364  1.00  0.00     0.171 A 
ATOM     12  C   UNL A   1      29.551  23.256  27.313  1.00  0.00     0.071 C 
ATOM     13  C   UNL A   1      30.292  24.099  26.351  1.00  0.00     0.087 A 
ATOM     14  N   UNL A   1      30.565  25.372  26.700  1.00  0.00    -0.174 NA
ATOM     15  C   UNL A   1      30.915  23.804  25.130  1.00  0.00     0.132 A 
ATOM     16  N   UNL A   1      31.424  25.817  25.750  1.00  0.00    -0.250 N 
ATOM     17  C   UNL A   1      31.574  24.920  24.732  1.00  0.00     0.159 A 
ATOM     18  N   UNL A   1      31.131  22.732  24.326  1.00  0.00    -0.219 NA
ATOM     19  C   UNL A   1      32.233  26.958  26.109  1.00  0.00     0.176 C 
ATOM     20  N   UNL A   1      32.116  24.601  23.517  1.00  0.00    -0.295 N 
BRANCH  20  21
ATOM     21  C   UNL A   1      32.563  25.471  22.433  1.00  0.00     0.152 C 
ATOM     22  C   UNL A   1      31.372  26.244  21.846  1.00  0.00     0.093 C 
ATOM     23  C   UNL A   1      33.585  26.578  22.741  1.00  0.00     0.288 C 
ATOM     24  C   UNL A   1      31.500  27.620  22.471  1.00  0.00     0.264 C 
ATOM     25  N   UNL A   1      32.940  27.849  22.387  1.00  0.00    -0.336 N 
ATOM     26  C   UNL A   1      33.368  28.974  23.204  1.00  0.00     0.332 C 
ATOM     27  H   UNL A   1      33.217  28.123  21.444  1.00  0.00     0.347 HD
ENDBRANCH  20  21
ENDBRANCH  10  11
ENDBRANCH   9  10
ENDBRANCH   7   9
ENDBRANCH   6   7
ENDBRANCH   5   6
ENDBRANCH   4   5
ENDBRANCH   3   4
ENDBRANCH   2   3
ENDBRANCH   1   2
BRANCH   1  28
ATOM     28  O   UNL A   1      38.799  21.148  25.735  1.00  0.00    -0.377 OA
BRANCH  28  29
ATOM     29  C   UNL A   1      40.011  21.758  26.145  1.00  0.00     0.188 C 
BRANCH  29  30
ATOM     30  C   UNL A   1      41.053  20.818  26.769  1.00  0.00     0.188 C 
BRANCH  30  31
ATOM     31  O   UNL A   1      41.771  20.028  25.831  1.00  0.00    -0.376 OA
BRANCH  31  32
ATOM     32  C   UNL A   1      42.429  18.853  26.273  1.00  0.00     0.202 C 
BRANCH  32  33
ATOM     33  C   UNL A   1      43.621  18.431  25.427  1.00  0.00     0.261 C 
BRANCH  33  34
ATOM     34  O   UNL A   1      44.724  19.316  25.445  1.00  0.00    -0.460 OA
BRANCH  34  35
ATOM     35  C   UNL A   1      44.919  19.990  24.310  1.00  0.00     0.338 C 
ATOM     36  O   UNL A   1      45.219  19.536  23.209  1.00  0.00    -0.246 OA
BRANCH  35  37
ATOM     37  C   UNL A   1      44.936  21.410  24.633  1.00  0.00     0.060 A 
ATOM     38  C   UNL A   1      45.635  21.750  25.785  1.00  0.00     0.016 A 
ATOM     39  C   UNL A   1      44.050  22.301  23.993  1.00  0.00     0.016 A 
ATOM     40  C   UNL A   1      45.297  22.921  26.408  1.00  0.00     0.010 A 
ATOM     41  C   UNL A   1      43.711  23.476  24.623  1.00  0.00     0.010 A 
ATOM     42  C   UNL A   1      44.295  23.735  25.854  1.00  0.00    -0.014 A 
BRANCH  42  43
ATOM     43  C   UNL A   1      44.027  24.955  26.570  1.00  0.00     0.031 A 
ATOM     44  C   UNL A   1      45.113  25.938  26.420  1.00  0.00     0.074 A 
ATOM     45  C   UNL A   1      42.957  25.168  27.348  1.00  0.00     0.049 A 
ATOM     46  N   UNL A   1      46.028  26.206  27.286  1.00  0.00    -0.248 NA
ATOM     47  C   UNL A   1      45.321  26.531  25.093  1.00  0.00     0.031 C 
ATOM     48  C   UNL A   1      41.694  24.438  27.411  1.00  0.00     0.029 A 
ATOM     49  N   UNL A   1      42.783  26.187  28.226  1.00  0.00    -0.354 N 
ATOM     50  C   UNL A   1      46.846  27.147  26.681  1.00  0.00     0.074 A 
ATOM     51  C   UNL A   1      46.465  27.185  25.290  1.00  0.00     0.031 C 
ATOM     52  C   UNL A   1      40.804  25.173  28.120  1.00  0.00     0.029 A 
ATOM     53  C   UNL A   1      41.484  26.337  28.671  1.00  0.00     0.049 A 
ATOM     54  H   UNL A   1      43.520  26.770  28.521  1.00  0.00     0.167 HD
ATOM     55  C   UNL A   1      47.596  27.998  27.426  1.00  0.00     0.031 A 
ATOM     56  C   UNL A   1      41.014  27.392  29.378  1.00  0.00     0.031 A 
ATOM     57  C   UNL A   1      47.767  27.524  28.778  1.00  0.00     0.049 A 
ATOM     58  C   UNL A   1      42.171  28.070  30.015  1.00  0.00     0.074 A 
ATOM     59  C   UNL A   1      48.308  26.389  29.350  1.00  0.00     0.029 A 
ATOM     60  N   UNL A   1      46.993  28.107  29.753  1.00  0.00    -0.354 N 
ATOM     61  N   UNL A   1      42.847  27.561  31.004  1.00  0.00    -0.248 NA
ATOM     62  C   UNL A   1      42.845  29.136  29.287  1.00  0.00     0.031 C 
ATOM     63  C   UNL A   1      47.477  26.106  30.473  1.00  0.00     0.029 A 
ATOM     64  C   UNL A   1      46.506  27.105  30.551  1.00  0.00     0.049 A 
ATOM     65  H   UNL A   1      46.820  29.071  29.860  1.00  0.00     0.167 HD
ATOM     66  C   UNL A   1      44.165  27.918  30.756  1.00  0.00     0.074 A 
ATOM     67  C   UNL A   1      44.087  28.979  29.755  1.00  0.00     0.031 C 
ATOM     68  C   UNL A   1      45.202  27.135  31.178  1.00  0.00     0.031 A 
BRANCH  55  69
ATOM     69  C   UNL A   1      47.760  29.448  27.050  1.00  0.00    -0.014 A 
ATOM     70  C   UNL A   1      49.023  30.041  27.207  1.00  0.00     0.009 A 
ATOM     71  C   UNL A   1      46.671  30.318  26.842  1.00  0.00     0.009 A 
ATOM     72  C   UNL A   1      49.168  31.431  27.252  1.00  0.00     0.001 A 
ATOM     73  C   UNL A   1      46.819  31.704  26.843  1.00  0.00     0.001 A 
ATOM     74  C   UNL A   1      48.064  32.261  27.083  1.00  0.00     0.000 A 
ENDBRANCH  55  69
BRANCH  56  75
ATOM     75  C   UNL A   1      39.675  28.007  29.317  1.00  0.00    -0.014 A 
ATOM     76  C   UNL A   1      38.891  28.121  30.474  1.00  0.00     0.009 A 
ATOM     77  C   UNL A   1      39.275  28.729  28.178  1.00  0.00     0.009 A 
ATOM     78  C   UNL A   1      37.774  28.965  30.504  1.00  0.00     0.001 A 
ATOM     79  C   UNL A   1      38.156  29.565  28.204  1.00  0.00     0.001 A 
ATOM     80  C   UNL A   1      37.415  29.696  29.374  1.00  0.00     0.000 A 
ENDBRANCH  56  75
BRANCH  68  81
ATOM     81  C   UNL A   1      44.907  26.043  32.176  1.00  0.00    -0.014 A 
ATOM     82  C   UNL A   1      44.423  24.774  31.812  1.00  0.00     0.009 A 
ATOM     83  C   UNL A   1      45.252  26.260  33.519  1.00  0.00     0.009 A 
ATOM     84  C   UNL A   1      44.247  23.772  32.772  1.00  0.00     0.001 A 
ATOM     85  C   UNL A   1      45.101  25.252  34.473  1.00  0.00     0.001 A 
ATOM     86  C   UNL A   1      44.590  24.011  34.101  1.00  0.00     0.000 A 
ENDBRANCH  68  81
ENDBRANCH  42  43
ENDBRANCH  35  37
ENDBRANCH  34  35
ENDBRANCH  33  34
ENDBRANCH  32  33
ENDBRANCH  31  32
ENDBRANCH  30  31
ENDBRANCH  29  30
ENDBRANCH  28  29
ENDBRANCH   1  28
TORSDOF 23
ENDMDL
MODEL 2
REMARK VINA RESULT:      -9.4      1.360      2.478
REMARK SMILES Cc1nn(C)c2c1nc(SCC(=O)OCCOCCOCCOCCOC(=O)c1ccc(-c3c4nc(c(-c5ccccc5)c5ccc([nH]5)c(-c5ccccc5)c5nc(c(-c6ccccc6)c6ccc3[nH]6)C=C5)C=C4)cc1)n2[C@H]1CC[N@@H+](C)C1
REMARK SMILES IDX 19 1 18 2 17 3 16 4 15 5 14 6 12 7 13 8 11 9 10 10 9 11 1 12
REMARK SMILES IDX 2 13 3 14 7 15 4 16 6 17 8 18 5 19 77 20 78 21 79 22 83 23
REMARK SMILES IDX 80 24 81 25 82 26 20 28 21 29 22 30 23 31 24 32 25 33 26 34
REMARK SMILES IDX 27 35 28 36 29 37 30 38 76 39 31 40 75 41 32 42 33 43 34 44
REMARK SMILES IDX 69 45 35 46 74 47 68 48 70 49 36 50 73 51 67 52 66 53 37 55
REMARK SMILES IDX 59 56 44 57 58 58 45 59 48 60 57 61 71 62 46 63 47 64 56 66
REMARK SMILES IDX 72 67 49 68 38 69 39 70 43 71 40 72 42 73 41 74 60 75 61 76
REMARK SMILES IDX 65 77 62 78 64 79 63 80 50 81 51 82 55 83 52 84 54 85 53 86
REMARK H PARENT 81 27 70 54 48 65
REMARK Flexibility Score: inf
ROOT
ATOM      1  C   UNL A   1      38.897  20.635  25.713  1.00  0.00     0.188 C 
ENDROOT
BRANCH   1   2
ATOM      2  C   UNL A   1      37.597  20.760  24.875  1.00  0.00     0.188 C 
BRANCH   2   3
ATOM      3  O   UNL A   1      36.331  20.979  25.496  1.00  0.00    -0.376 OA
BRANCH   3   4
ATOM      4  C   UNL A   1      35.153  20.715  24.755  1.00  0.00     0.202 C 
BRANCH   4   5
ATOM      5  C   UNL A   1      34.098  21.835  24.694  1.00  0.00     0.261 C 
BRANCH   5   6
ATOM      6  O   UNL A   1      33.126  21.832  25.765  1.00  0.00    -0.463 OA
BRANCH   6   7
ATOM      7  C   UNL A   1      33.179  22.860  26.650  1.00  0.00     0.316 C 
ATOM      8  O   UNL A   1      34.236  23.364  27.029  1.00  0.00    -0.251 OA
BRANCH   7   9
ATOM      9  C   UNL A   1      31.837  23.417  27.123  1.00  0.00     0.200 C 
BRANCH   9  10
ATOM     10  S   UNL A   1      30.642  23.995  25.893  1.00  0.00    -0.076 SA
BRANCH  10  11
ATOM     11  C   UNL A   1      31.555  24.778  24.611  1.00  0.00     0.171 A 
ATOM     12  C   UNL A   1      32.833  24.956  20.199  1.00  0.00     0.071 C 
ATOM     13  C   UNL A   1      32.832  25.700  21.477  1.00  0.00     0.087 A 
ATOM     14  N   UNL A   1      33.215  26.991  21.462  1.00  0.00    -0.174 NA
ATOM     15  C   UNL A   1      32.375  25.361  22.759  1.00  0.00     0.132 A 
ATOM     16  N   UNL A   1      32.905  27.461  22.695  1.00  0.00    -0.250 N 
ATOM     17  C   UNL A   1      32.487  26.468  23.533  1.00  0.00     0.159 A 
ATOM     18  N   UNL A   1      31.773  24.320  23.387  1.00  0.00    -0.219 NA
ATOM     19  C   UNL A   1      32.770  28.894  22.814  1.00  0.00     0.176 C 
ATOM     20  N   UNL A   1      32.084  26.074  24.780  1.00  0.00    -0.295 N 
BRANCH  20  21
ATOM     21  C   UNL A   1      32.364  26.665  26.086  1.00  0.00     0.152 C 
ATOM     22  C   UNL A   1      33.855  27.013  26.203  1.00  0.00     0.093 C 
ATOM     23  C   UNL A   1      31.664  27.979  26.473  1.00  0.00     0.288 C 
ATOM     24  C   UNL A   1      33.891  28.510  25.960  1.00  0.00     0.264 C 
ATOM     25  N   UNL A   1      32.728  28.960  26.720  1.00  0.00    -0.336 N 
ATOM     26  C   UNL A   1      32.354  30.329  26.398  1.00  0.00     0.332 C 
ATOM     27  H   UNL A   1      32.932  29.000  27.720  1.00  0.00     0.347 HD
ENDBRANCH  20  21
ENDBRANCH  10  11
ENDBRANCH   9  10
ENDBRANCH   7   9
ENDBRANCH   6   7
ENDBRANCH   5   6
ENDBRANCH   4   5
ENDBRANCH   3   4
ENDBRANCH   2   3
ENDBRANCH   1   2
BRANCH   1  28
ATOM     28  O   UNL A   1      39.642  21.826  25.915  1.00  0.00    -0.377 OA
BRANCH  28  29
ATOM     29  C   UNL A   1      41.032  21.655  26.137  1.00  0.00     0.188 C 
BRANCH  29  30
ATOM     30  C   UNL A   1      41.415  20.841  27.381  1.00  0.00     0.188 C 
BRANCH  30  31
ATOM     31  O   UNL A   1      42.384  19.828  27.148  1.00  0.00    -0.376 OA
BRANCH  31  32
ATOM     32  C   UNL A   1      42.424  19.184  25.886  1.00  0.00     0.202 C 
BRANCH  32  33
ATOM     33  C   UNL A   1      43.802  18.705  25.457  1.00  0.00     0.261 C 
BRANCH  33  34
ATOM     34  O   UNL A   1      44.811  19.696  25.431  1.00  0.00    -0.460 OA
BRANCH  34  35
ATOM     35  C   UNL A   1      44.798  20.479  24.350  1.00  0.00     0.338 C 
ATOM     36  O   UNL A   1      44.888  20.137  23.174  1.00  0.00    -0.246 OA
BRANCH  35  37
ATOM     37  C   UNL A   1      44.883  21.861  24.801  1.00  0.00     0.060 A 
ATOM     38  C   UNL A   1      45.464  22.045  26.050  1.00  0.00     0.016 A 
ATOM     39  C   UNL A   1      44.147  22.874  24.152  1.00  0.00     0.016 A 
ATOM     40  C   UNL A   1      45.143  23.186  26.737  1.00  0.00     0.010 A 
ATOM     41  C   UNL A   1      43.824  24.017  24.844  1.00  0.00     0.010 A 
ATOM     42  C   UNL A   1      44.276  24.124  26.151  1.00  0.00    -0.014 A 
BRANCH  42  43
ATOM     43  C   UNL A   1      44.018  25.299  26.942  1.00  0.00     0.031 A 
ATOM     44  C   UNL A   1      45.162  26.226  26.951  1.00  0.00     0.074 A 
ATOM     45  C   UNL A   1      42.904  25.513  27.655  1.00  0.00     0.049 A 
ATOM     46  N   UNL A   1      46.020  26.375  27.900  1.00  0.00    -0.248 NA
ATOM     47  C   UNL A   1      45.501  26.905  25.694  1.00  0.00     0.031 C 
ATOM     48  C   UNL A   1      41.603  24.855  27.567  1.00  0.00     0.029 A 
ATOM     49  N   UNL A   1      42.715  26.471  28.597  1.00  0.00    -0.354 N 
ATOM     50  C   UNL A   1      46.929  27.310  27.433  1.00  0.00     0.074 A 
ATOM     51  C   UNL A   1      46.659  27.476  26.026  1.00  0.00     0.031 C 
ATOM     52  C   UNL A   1      40.701  25.583  28.266  1.00  0.00     0.029 A 
ATOM     53  C   UNL A   1      41.396  26.660  28.957  1.00  0.00     0.049 A 
ATOM     54  H   UNL A   1      43.457  26.986  28.990  1.00  0.00     0.167 HD
ATOM     55  C   UNL A   1      47.663  28.057  28.297  1.00  0.00     0.031 A 
ATOM     56  C   UNL A   1      40.928  27.684  29.710  1.00  0.00     0.031 A 
ATOM     57  C   UNL A   1      47.705  27.473  29.615  1.00  0.00     0.049 A 
ATOM     58  C   UNL A   1      42.066  28.243  30.482  1.00  0.00     0.074 A 
ATOM     59  C   UNL A   1      48.141  26.268  30.131  1.00  0.00     0.029 A 
ATOM     60  N   UNL A   1      46.890  28.023  30.575  1.00  0.00    -0.354 N 
ATOM     61  N   UNL A   1      42.637  27.623  31.473  1.00  0.00    -0.248 NA
ATOM     62  C   UNL A   1      42.848  29.321  29.892  1.00  0.00     0.031 C 
ATOM     63  C   UNL A   1      47.212  25.948  31.165  1.00  0.00     0.029 A 
ATOM     64  C   UNL A   1      46.291  26.993  31.253  1.00  0.00     0.049 A 
ATOM     65  H   UNL A   1      46.759  28.984  30.746  1.00  0.00     0.167 HD
ATOM     66  C   UNL A   1      43.987  27.921  31.352  1.00  0.00     0.074 A 
ATOM     67  C   UNL A   1      44.040  29.058  30.436  1.00  0.00     0.031 C 
ATOM     68  C   UNL A   1      44.946  27.050  31.784  1.00  0.00     0.031 A 
BRANCH  55  69
ATOM     69  C   UNL A   1      47.931  29.520  28.052  1.00  0.00    -0.014 A 
ATOM     70  C   UNL A   1      46.923  30.293  27.454  1.00  0.00     0.009 A 
ATOM     71  C   UNL A   1      49.220  30.087  28.104  1.00  0.00     0.009 A 
ATOM     72  C   UNL A   1      47.215  31.522  26.853  1.00  0.00     0.001 A 
ATOM     73  C   UNL A   1      49.506  31.331  27.544  1.00  0.00     0.001 A 
ATOM     74  C   UNL A   1      48.509  32.034  26.888  1.00  0.00     0.000 A 
ENDBRANCH  55  69
BRANCH  56  75
ATOM     75  C   UNL A   1      39.631  28.378  29.602  1.00  0.00    -0.014 A 
ATOM     76  C   UNL A   1      38.567  28.032  30.446  1.00  0.00     0.009 A 
ATOM     77  C   UNL A   1      39.520  29.566  28.856  1.00  0.00     0.009 A 
ATOM     78  C   UNL A   1      37.451  28.869  30.575  1.00  0.00     0.001 A 
ATOM     79  C   UNL A   1      38.404  30.398  28.978  1.00  0.00     0.001 A 
ATOM     80  C   UNL A   1      37.377  30.057  29.851  1.00  0.00     0.000 A 
ENDBRANCH  56  75
BRANCH  68  81
ATOM     81  C   UNL A   1      44.519  25.903  32.667  1.00  0.00    -0.014 A 
ATOM     82  C   UNL A   1      44.384  24.582  32.205  1.00  0.00     0.009 A 
ATOM     83  C   UNL A   1      44.373  26.143  34.041  1.00  0.00     0.009 A 
ATOM     84  C   UNL A   1      44.066  23.544  33.088  1.00  0.00     0.001 A 
ATOM     85  C   UNL A   1      44.082  25.104  34.926  1.00  0.00     0.001 A 
ATOM     86  C   UNL A   1      43.919  23.806  34.448  1.00  0.00     0.000 A 
ENDBRANCH  68  81
ENDBRANCH  42  43
ENDBRANCH  35  37
ENDBRANCH  34  35
ENDBRANCH  33  34
ENDBRANCH  32  33
ENDBRANCH  31  32
ENDBRANCH  30  31
ENDBRANCH  29  30
ENDBRANCH  28  29
ENDBRANCH   1  28
TORSDOF 23
ENDMDL
MODEL 3
REMARK VINA RESULT:      -9.3      5.430     10.246
REMARK SMILES Cc1nn(C)c2c1nc(SCC(=O)OCCOCCOCCOCCOC(=O)c1ccc(-c3c4nc(c(-c5ccccc5)c5ccc([nH]5)c(-c5ccccc5)c5nc(c(-c6ccccc6)c6ccc3[nH]6)C=C5)C=C4)cc1)n2[C@H]1CC[N@@H+](C)C1
REMARK SMILES IDX 19 1 18 2 17 3 16 4 15 5 14 6 12 7 13 8 11 9 10 10 9 11 1 12
REMARK SMILES IDX 2 13 3 14 7 15 4 16 6 17 8 18 5 19 77 20 78 21 79 22 83 23
REMARK SMILES IDX 80 24 81 25 82 26 20 28 21 29 22 30 23 31 24 32 25 33 26 34
REMARK SMILES IDX 27 35 28 36 29 37 30 38 76 39 31 40 75 41 32 42 33 43 34 44
REMARK SMILES IDX 69 45 35 46 74 47 68 48 70 49 36 50 73 51 67 52 66 53 37 55
REMARK SMILES IDX 59 56 44 57 58 58 45 59 48 60 57 61 71 62 46 63 47 64 56 66
REMARK SMILES IDX 72 67 49 68 38 69 39 70 43 71 40 72 42 73 41 74 60 75 61 76
REMARK SMILES IDX 65 77 62 78 64 79 63 80 50 81 51 82 55 83 52 84 54 85 53 86
REMARK H PARENT 81 27 70 54 48 65
REMARK Flexibility Score: inf
ROOT
ATOM      1  C   UNL A   1      34.464  32.334  28.912  1.00  0.00     0.188 C 
ENDROOT
BRANCH   1   2
ATOM      2  C   UNL A   1      35.065  31.469  27.773  1.00  0.00     0.188 C 
BRANCH   2   3
ATOM      3  O   UNL A   1      35.069  30.044  27.844  1.00  0.00    -0.376 OA
BRANCH   3   4
ATOM      4  C   UNL A   1      34.442  29.307  26.810  1.00  0.00     0.202 C 
BRANCH   4   5
ATOM      5  C   UNL A   1      33.256  29.979  26.092  1.00  0.00     0.261 C 
BRANCH   5   6
ATOM      6  O   UNL A   1      31.948  29.653  26.617  1.00  0.00    -0.463 OA
BRANCH   6   7
ATOM      7  C   UNL A   1      31.450  28.427  26.318  1.00  0.00     0.316 C 
ATOM      8  O   UNL A   1      31.348  27.525  27.149  1.00  0.00    -0.251 OA
BRANCH   7   9
ATOM      9  C   UNL A   1      30.954  28.227  24.887  1.00  0.00     0.200 C 
BRANCH   9  10
ATOM     10  S   UNL A   1      31.767  26.996  23.839  1.00  0.00    -0.076 SA
BRANCH  10  11
ATOM     11  C   UNL A   1      31.658  25.453  24.672  1.00  0.00     0.171 A 
ATOM     12  C   UNL A   1      29.160  22.381  27.008  1.00  0.00     0.071 C 
ATOM     13  C   UNL A   1      30.445  22.598  26.312  1.00  0.00     0.087 A 
ATOM     14  N   UNL A   1      31.241  21.532  26.098  1.00  0.00    -0.174 NA
ATOM     15  C   UNL A   1      30.992  23.725  25.681  1.00  0.00     0.132 A 
ATOM     16  N   UNL A   1      32.211  21.983  25.265  1.00  0.00    -0.250 N 
ATOM     17  C   UNL A   1      32.140  23.333  25.077  1.00  0.00     0.159 A 
ATOM     18  N   UNL A   1      30.654  25.014  25.418  1.00  0.00    -0.219 NA
ATOM     19  C   UNL A   1      32.918  20.976  24.508  1.00  0.00     0.176 C 
ATOM     20  N   UNL A   1      32.661  24.472  24.526  1.00  0.00    -0.295 N 
BRANCH  20  21
ATOM     21  C   UNL A   1      34.032  24.777  24.125  1.00  0.00     0.152 C 
ATOM     22  C   UNL A   1      34.902  25.037  25.363  1.00  0.00     0.093 C 
ATOM     23  C   UNL A   1      34.832  23.719  23.347  1.00  0.00     0.288 C 
ATOM     24  C   UNL A   1      35.664  23.738  25.541  1.00  0.00     0.264 C 
ATOM     25  N   UNL A   1      36.015  23.411  24.161  1.00  0.00    -0.336 N 
ATOM     26  C   UNL A   1      36.486  22.042  24.021  1.00  0.00     0.332 C 
ATOM     27  H   UNL A   1      36.808  23.968  23.838  1.00  0.00     0.347 HD
ENDBRANCH  20  21
ENDBRANCH  10  11
ENDBRANCH   9  10
ENDBRANCH   7   9
ENDBRANCH   6   7
ENDBRANCH   5   6
ENDBRANCH   4   5
ENDBRANCH   3   4
ENDBRANCH   2   3
ENDBRANCH   1   2
BRANCH   1  28
ATOM     28  O   UNL A   1      34.475  33.740  28.717  1.00  0.00    -0.377 OA
BRANCH  28  29
ATOM     29  C   UNL A   1      33.205  34.352  28.569  1.00  0.00     0.188 C 
BRANCH  29  30
ATOM     30  C   UNL A   1      33.179  35.881  28.721  1.00  0.00     0.188 C 
BRANCH  30  31
ATOM     31  O   UNL A   1      32.310  36.358  29.738  1.00  0.00    -0.376 OA
BRANCH  31  32
ATOM     32  C   UNL A   1      32.840  36.671  31.014  1.00  0.00     0.202 C 
BRANCH  32  33
ATOM     33  C   UNL A   1      32.625  35.603  32.075  1.00  0.00     0.261 C 
BRANCH  33  34
ATOM     34  O   UNL A   1      33.705  34.708  32.267  1.00  0.00    -0.460 OA
BRANCH  34  35
ATOM     35  C   UNL A   1      34.597  35.098  33.179  1.00  0.00     0.338 C 
ATOM     36  O   UNL A   1      34.680  36.193  33.729  1.00  0.00    -0.246 OA
BRANCH  35  37
ATOM     37  C   UNL A   1      35.623  34.068  33.266  1.00  0.00     0.060 A 
ATOM     38  C   UNL A   1      36.933  34.528  33.226  1.00  0.00     0.016 A 
ATOM     39  C   UNL A   1      35.292  32.709  33.086  1.00  0.00     0.016 A 
ATOM     40  C   UNL A   1      37.901  33.653  32.811  1.00  0.00     0.010 A 
ATOM     41  C   UNL A   1      36.265  31.832  32.667  1.00  0.00     0.010 A 
ATOM     42  C   UNL A   1      37.543  32.336  32.475  1.00  0.00    -0.014 A 
BRANCH  42  43
ATOM     43  C   UNL A   1      38.632  31.486  32.072  1.00  0.00     0.031 A 
ATOM     44  C   UNL A   1      39.536  31.172  33.192  1.00  0.00     0.074 A 
ATOM     45  C   UNL A   1      38.861  31.076  30.817  1.00  0.00     0.049 A 
ATOM     46  N   UNL A   1      40.685  31.709  33.422  1.00  0.00    -0.248 NA
ATOM     47  C   UNL A   1      39.017  30.326  34.273  1.00  0.00     0.031 C 
ATOM     48  C   UNL A   1      37.965  31.071  29.664  1.00  0.00     0.029 A 
ATOM     49  N   UNL A   1      39.990  30.489  30.348  1.00  0.00    -0.354 N 
ATOM     50  C   UNL A   1      41.129  31.136  34.603  1.00  0.00     0.074 A 
ATOM     51  C   UNL A   1      40.005  30.426  35.162  1.00  0.00     0.031 C 
ATOM     52  C   UNL A   1      38.515  30.305  28.691  1.00  0.00     0.029 A 
ATOM     53  C   UNL A   1      39.851  29.900  29.107  1.00  0.00     0.049 A 
ATOM     54  H   UNL A   1      40.838  30.484  30.851  1.00  0.00     0.167 HD
ATOM     55  C   UNL A   1      42.454  31.083  34.894  1.00  0.00     0.031 A 
ATOM     56  C   UNL A   1      40.756  29.080  28.522  1.00  0.00     0.031 A 
ATOM     57  C   UNL A   1      43.216  32.026  34.113  1.00  0.00     0.049 A 
ATOM     58  C   UNL A   1      42.075  29.325  29.158  1.00  0.00     0.074 A 
ATOM     59  C   UNL A   1      43.203  33.400  33.960  1.00  0.00     0.029 A 
ATOM     60  N   UNL A   1      43.917  31.533  33.038  1.00  0.00    -0.354 N 
ATOM     61  N   UNL A   1      42.770  30.411  28.979  1.00  0.00    -0.248 NA
ATOM     62  C   UNL A   1      42.444  28.539  30.328  1.00  0.00     0.031 C 
ATOM     63  C   UNL A   1      43.493  33.624  32.583  1.00  0.00     0.029 A 
ATOM     64  C   UNL A   1      43.713  32.383  31.982  1.00  0.00     0.049 A 
ATOM     65  H   UNL A   1      44.468  30.717  33.028  1.00  0.00     0.167 HD
ATOM     66  C   UNL A   1      43.346  30.674  30.214  1.00  0.00     0.074 A 
ATOM     67  C   UNL A   1      43.204  29.431  30.969  1.00  0.00     0.031 C 
ATOM     68  C   UNL A   1      43.632  31.952  30.603  1.00  0.00     0.031 A 
BRANCH  55  69
ATOM     69  C   UNL A   1      43.079  29.869  35.532  1.00  0.00    -0.014 A 
ATOM     70  C   UNL A   1      43.633  29.999  36.815  1.00  0.00     0.009 A 
ATOM     71  C   UNL A   1      43.410  28.704  34.811  1.00  0.00     0.009 A 
ATOM     72  C   UNL A   1      44.547  29.060  37.305  1.00  0.00     0.001 A 
ATOM     73  C   UNL A   1      44.287  27.745  35.314  1.00  0.00     0.001 A 
ATOM     74  C   UNL A   1      44.883  27.941  36.549  1.00  0.00     0.000 A 
ENDBRANCH  55  69
BRANCH  56  75
ATOM     75  C   UNL A   1      40.505  27.920  27.648  1.00  0.00    -0.014 A 
ATOM     76  C   UNL A   1      41.276  27.718  26.494  1.00  0.00     0.009 A 
ATOM     77  C   UNL A   1      39.690  26.860  28.089  1.00  0.00     0.009 A 
ATOM     78  C   UNL A   1      41.268  26.484  25.833  1.00  0.00     0.001 A 
ATOM     79  C   UNL A   1      39.676  25.631  27.424  1.00  0.00     0.001 A 
ATOM     80  C   UNL A   1      40.478  25.438  26.305  1.00  0.00     0.000 A 
ENDBRANCH  56  75
BRANCH  68  81
ATOM     81  C   UNL A   1      43.598  33.038  29.557  1.00  0.00    -0.014 A 
ATOM     82  C   UNL A   1      42.511  33.915  29.389  1.00  0.00     0.009 A 
ATOM     83  C   UNL A   1      44.757  33.266  28.799  1.00  0.00     0.009 A 
ATOM     84  C   UNL A   1      42.570  34.957  28.458  1.00  0.00     0.001 A 
ATOM     85  C   UNL A   1      44.825  34.322  27.888  1.00  0.00     0.001 A 
ATOM     86  C   UNL A   1      43.727  35.162  27.711  1.00  0.00     0.000 A 
ENDBRANCH  68  81
ENDBRANCH  42  43
ENDBRANCH  35  37
ENDBRANCH  34  35
ENDBRANCH  33  34
ENDBRANCH  32  33
ENDBRANCH  31  32
ENDBRANCH  30  31
ENDBRANCH  29  30
ENDBRANCH  28  29
ENDBRANCH   1  28
TORSDOF 23
ENDMDL
