MODEL 1
REMARK VINA RESULT:     -12.3      0.000      0.000
REMARK SMILES O=C(OCCOCCOCCOCCOC(=O)c1ccccc1C(=O)Nc1ccc(N2C(=O)[C@H]3[C@@H]4CC[C@@H](C4)[C@@H]3C2=O)cc1)c1ccc(-c2c3nc(c(-c4ccccc4)c4ccc([nH]4)c(-c4ccccc4)c4nc(c(-c5ccccc5)c5ccc2[nH]5)C=C4)C=C3)cc1
REMARK SMILES IDX 10 1 9 2 8 3 7 4 6 5 5 6 4 7 3 8 2 9 1 10 45 11 46 12 92 13
REMARK SMILES IDX 47 14 91 15 48 16 49 17 50 18 85 19 51 20 90 21 84 22 86 23
REMARK SMILES IDX 52 24 89 25 83 26 82 27 53 29 75 30 60 31 74 32 61 33 64 34
REMARK SMILES IDX 73 35 87 36 62 37 63 38 72 40 88 41 65 42 54 43 55 44 59 45
REMARK SMILES IDX 56 46 58 47 57 48 76 49 77 50 81 51 78 52 80 53 79 54 66 55
REMARK SMILES IDX 67 56 71 57 68 58 70 59 69 60 11 61 12 62 13 63 14 64 15 65
REMARK SMILES IDX 16 66 17 67 18 68 19 69 23 70 20 71 22 72 21 73 24 74 25 75
REMARK SMILES IDX 26 76 27 78 28 79 44 80 29 81 43 82 30 83 31 84 32 85 41 86
REMARK SMILES IDX 33 87 34 88 40 89 42 90 35 91 38 92 36 93 39 94 37 95
REMARK H PARENT 86 28 64 39 26 77
REMARK Flexibility Score: inf
ROOT
ATOM      1  C   UNL A   1      33.857  31.248  27.495  1.00  0.00     0.188 C 
ENDROOT
BRANCH   1   2
ATOM      2  O   UNL A   1      33.917  32.204  28.525  1.00  0.00    -0.377 OA
BRANCH   2   3
ATOM      3  C   UNL A   1      34.219  33.511  28.076  1.00  0.00     0.188 C 
BRANCH   3   4
ATOM      4  C   UNL A   1      33.738  34.627  29.008  1.00  0.00     0.188 C 
BRANCH   4   5
ATOM      5  O   UNL A   1      33.679  34.250  30.379  1.00  0.00    -0.376 OA
BRANCH   5   6
ATOM      6  C   UNL A   1      34.864  33.895  31.093  1.00  0.00     0.202 C 
BRANCH   6   7
ATOM      7  C   UNL A   1      34.686  32.726  32.044  1.00  0.00     0.261 C 
BRANCH   7   8
ATOM      8  O   UNL A   1      35.526  31.609  31.702  1.00  0.00    -0.460 OA
BRANCH   8   9
ATOM      9  C   UNL A   1      36.582  31.302  32.499  1.00  0.00     0.338 C 
ATOM     10  O   UNL A   1      36.712  31.575  33.678  1.00  0.00    -0.246 OA
BRANCH   9  11
ATOM     11  C   UNL A   1      37.431  30.358  31.738  1.00  0.00     0.060 A 
ATOM     12  C   UNL A   1      38.419  29.606  32.376  1.00  0.00     0.016 A 
ATOM     13  C   UNL A   1      37.328  30.317  30.351  1.00  0.00     0.016 A 
ATOM     14  C   UNL A   1      39.405  28.975  31.654  1.00  0.00     0.010 A 
ATOM     15  C   UNL A   1      38.326  29.673  29.612  1.00  0.00     0.010 A 
ATOM     16  C   UNL A   1      39.416  29.079  30.269  1.00  0.00    -0.014 A 
BRANCH  16  17
ATOM     17  C   UNL A   1      40.702  28.798  29.596  1.00  0.00     0.031 A 
ATOM     18  C   UNL A   1      40.868  27.456  28.933  1.00  0.00     0.074 A 
ATOM     19  C   UNL A   1      41.585  29.783  29.357  1.00  0.00     0.049 A 
ATOM     20  N   UNL A   1      41.895  26.970  28.289  1.00  0.00    -0.248 NA
ATOM     21  C   UNL A   1      39.706  26.550  28.978  1.00  0.00     0.031 C 
ATOM     22  C   UNL A   1      41.392  31.191  29.704  1.00  0.00     0.029 A 
ATOM     23  N   UNL A   1      42.774  29.765  28.676  1.00  0.00    -0.354 N 
ATOM     24  C   UNL A   1      41.538  25.672  27.940  1.00  0.00     0.074 A 
ATOM     25  C   UNL A   1      40.182  25.465  28.389  1.00  0.00     0.031 C 
ATOM     26  C   UNL A   1      42.379  31.915  29.149  1.00  0.00     0.029 A 
ATOM     27  C   UNL A   1      43.329  31.011  28.506  1.00  0.00     0.049 A 
ATOM     28  H   UNL A   1      43.192  28.939  28.341  1.00  0.00     0.167 HD
ATOM     29  C   UNL A   1      42.298  24.723  27.346  1.00  0.00     0.031 A 
ATOM     30  C   UNL A   1      44.473  31.371  27.892  1.00  0.00     0.031 A 
ATOM     31  C   UNL A   1      43.647  24.951  26.905  1.00  0.00     0.049 A 
ATOM     32  C   UNL A   1      45.350  30.282  27.330  1.00  0.00     0.074 A 
ATOM     33  C   UNL A   1      44.560  24.041  26.405  1.00  0.00     0.029 A 
ATOM     34  N   UNL A   1      44.271  26.189  26.910  1.00  0.00    -0.354 N 
ATOM     35  N   UNL A   1      45.083  29.009  27.153  1.00  0.00    -0.248 NA
ATOM     36  C   UNL A   1      46.706  30.674  26.921  1.00  0.00     0.031 C 
ATOM     37  C   UNL A   1      45.765  24.718  26.184  1.00  0.00     0.029 A 
ATOM     38  C   UNL A   1      45.572  26.063  26.457  1.00  0.00     0.049 A 
ATOM     39  H   UNL A   1      43.849  27.032  27.194  1.00  0.00     0.167 HD
ATOM     40  C   UNL A   1      46.239  28.449  26.619  1.00  0.00     0.074 A 
ATOM     41  C   UNL A   1      47.188  29.531  26.455  1.00  0.00     0.031 C 
ATOM     42  C   UNL A   1      46.502  27.154  26.313  1.00  0.00     0.031 A 
BRANCH  29  43
ATOM     43  C   UNL A   1      41.740  23.327  27.316  1.00  0.00    -0.014 A 
ATOM     44  C   UNL A   1      42.053  22.360  28.282  1.00  0.00     0.009 A 
ATOM     45  C   UNL A   1      40.911  22.965  26.240  1.00  0.00     0.009 A 
ATOM     46  C   UNL A   1      41.592  21.047  28.139  1.00  0.00     0.001 A 
ATOM     47  C   UNL A   1      40.421  21.665  26.120  1.00  0.00     0.001 A 
ATOM     48  C   UNL A   1      40.777  20.702  27.060  1.00  0.00     0.000 A 
ENDBRANCH  29  43
BRANCH  30  49
ATOM     49  C   UNL A   1      44.895  32.799  27.827  1.00  0.00    -0.014 A 
ATOM     50  C   UNL A   1      44.873  33.503  26.612  1.00  0.00     0.009 A 
ATOM     51  C   UNL A   1      45.368  33.459  28.974  1.00  0.00     0.009 A 
ATOM     52  C   UNL A   1      45.342  34.819  26.545  1.00  0.00     0.001 A 
ATOM     53  C   UNL A   1      45.791  34.788  28.913  1.00  0.00     0.001 A 
ATOM     54  C   UNL A   1      45.793  35.462  27.696  1.00  0.00     0.000 A 
ENDBRANCH  30  49
BRANCH  42  55
ATOM     55  C   UNL A   1      47.866  26.833  25.763  1.00  0.00    -0.014 A 
ATOM     56  C   UNL A   1      48.149  26.951  24.393  1.00  0.00     0.009 A 
ATOM     57  C   UNL A   1      48.903  26.475  26.640  1.00  0.00     0.009 A 
ATOM     58  C   UNL A   1      49.431  26.681  23.910  1.00  0.00     0.001 A 
ATOM     59  C   UNL A   1      50.192  26.242  26.160  1.00  0.00     0.001 A 
ATOM     60  C   UNL A   1      50.451  26.335  24.794  1.00  0.00     0.000 A 
ENDBRANCH  42  55
ENDBRANCH  16  17
ENDBRANCH   9  11
ENDBRANCH   8   9
ENDBRANCH   7   8
ENDBRANCH   6   7
ENDBRANCH   5   6
ENDBRANCH   4   5
ENDBRANCH   3   4
ENDBRANCH   2   3
ENDBRANCH   1   2
BRANCH   1  61
ATOM     61  C   UNL A   1      34.935  30.151  27.493  1.00  0.00     0.188 C 
BRANCH  61  62
ATOM     62  O   UNL A   1      34.417  28.789  27.558  1.00  0.00    -0.376 OA
BRANCH  62  63
ATOM     63  C   UNL A   1      33.422  28.213  26.644  1.00  0.00     0.202 C 
BRANCH  63  64
ATOM     64  C   UNL A   1      33.617  26.658  25.743  1.00  0.00     0.261 C 
BRANCH  64  65
ATOM     65  O   UNL A   1      33.688  24.829  26.590  1.00  0.00    -0.460 OA
BRANCH  65  66
ATOM     66  C   UNL A   1      34.044  23.451  26.793  1.00  0.00     0.339 C 
ATOM     67  O   UNL A   1      33.427  22.791  27.628  1.00  0.00    -0.246 OA
BRANCH  66  68
ATOM     68  C   UNL A   1      35.036  22.671  25.926  1.00  0.00     0.072 A 
ATOM     69  C   UNL A   1      36.390  23.036  26.154  1.00  0.00     0.016 A 
ATOM     70  C   UNL A   1      34.748  21.738  24.895  1.00  0.00     0.054 A 
ATOM     71  C   UNL A   1      37.413  22.644  25.288  1.00  0.00     0.001 A 
ATOM     72  C   UNL A   1      35.804  21.400  24.009  1.00  0.00     0.015 A 
ATOM     73  C   UNL A   1      37.107  21.878  24.175  1.00  0.00     0.001 A 
BRANCH  70  74
ATOM     74  C   UNL A   1      33.454  20.993  24.596  1.00  0.00     0.256 C 
ATOM     75  O   UNL A   1      33.419  19.767  24.725  1.00  0.00    -0.269 OA
ATOM     76  N   UNL A   1      32.300  21.618  24.177  1.00  0.00    -0.322 N 
ATOM     77  H   UNL A   1      31.597  21.067  23.762  1.00  0.00     0.170 HD
BRANCH  76  78
ATOM     78  C   UNL A   1      32.074  22.972  24.305  1.00  0.00     0.041 A 
ATOM     79  C   UNL A   1      32.659  23.972  22.954  1.00  0.00     0.028 A 
ATOM     80  C   UNL A   1      30.815  23.629  25.393  1.00  0.00     0.028 A 
ATOM     81  C   UNL A   1      31.888  25.624  22.666  1.00  0.00     0.029 A 
ATOM     82  C   UNL A   1      30.097  25.258  25.096  1.00  0.00     0.029 A 
ATOM     83  C   UNL A   1      30.629  26.270  23.728  1.00  0.00     0.052 A 
BRANCH  83  84
ATOM     84  N   UNL A   1      30.223  27.587  23.361  1.00  0.00    -0.250 N 
ATOM     85  C   UNL A   1      30.983  28.751  23.152  1.00  0.00     0.237 C 
ATOM     86  C   UNL A   1      28.861  27.917  23.177  1.00  0.00     0.237 C 
ATOM     87  O   UNL A   1      32.177  28.897  22.980  1.00  0.00    -0.274 OA
ATOM     88  C   UNL A   1      29.904  29.840  23.237  1.00  0.00     0.095 C 
ATOM     89  C   UNL A   1      28.909  29.125  22.334  1.00  0.00     0.095 C 
ATOM     90  O   UNL A   1      27.819  27.481  23.636  1.00  0.00    -0.274 OA
ATOM     91  C   UNL A   1      29.528  31.298  22.956  1.00  0.00     0.002 C 
ATOM     92  C   UNL A   1      27.831  30.145  22.038  1.00  0.00     0.002 C 
ATOM     93  C   UNL A   1      28.294  31.587  23.889  1.00  0.00     0.005 C 
ATOM     94  C   UNL A   1      28.766  31.290  21.625  1.00  0.00     0.009 C 
ATOM     95  C   UNL A   1      27.176  30.701  23.298  1.00  0.00     0.005 C 
ENDBRANCH  83  84
ENDBRANCH  76  78
ENDBRANCH  70  74
ENDBRANCH  66  68
ENDBRANCH  65  66
ENDBRANCH  64  65
ENDBRANCH  63  64
ENDBRANCH  62  63
ENDBRANCH  61  62
ENDBRANCH   1  61
TORSDOF 23
ENDMDL
MODEL 2
REMARK VINA RESULT:     -11.3      0.941      5.505
REMARK SMILES O=C(OCCOCCOCCOCCOC(=O)c1ccccc1C(=O)Nc1ccc(N2C(=O)[C@H]3[C@@H]4CC[C@@H](C4)[C@@H]3C2=O)cc1)c1ccc(-c2c3nc(c(-c4ccccc4)c4ccc([nH]4)c(-c4ccccc4)c4nc(c(-c5ccccc5)c5ccc2[nH]5)C=C4)C=C3)cc1
REMARK SMILES IDX 10 1 9 2 8 3 7 4 6 5 5 6 4 7 3 8 2 9 1 10 45 11 46 12 92 13
REMARK SMILES IDX 47 14 91 15 48 16 49 17 50 18 85 19 51 20 90 21 84 22 86 23
REMARK SMILES IDX 52 24 89 25 83 26 82 27 53 29 75 30 60 31 74 32 61 33 64 34
REMARK SMILES IDX 73 35 87 36 62 37 63 38 72 40 88 41 65 42 54 43 55 44 59 45
REMARK SMILES IDX 56 46 58 47 57 48 76 49 77 50 81 51 78 52 80 53 79 54 66 55
REMARK SMILES IDX 67 56 71 57 68 58 70 59 69 60 11 61 12 62 13 63 14 64 15 65
REMARK SMILES IDX 16 66 17 67 18 68 19 69 23 70 20 71 22 72 21 73 24 74 25 75
REMARK SMILES IDX 26 76 27 78 28 79 44 80 29 81 43 82 30 83 31 84 32 85 41 86
REMARK SMILES IDX 33 87 34 88 40 89 42 90 35 91 38 92 36 93 39 94 37 95
REMARK H PARENT 86 28 64 39 26 77
REMARK Flexibility Score: inf
ROOT
ATOM      1  C   UNL A   1      33.288  31.348  27.240  1.00  0.00     0.188 C 
ENDROOT
BRANCH   1   2
ATOM      2  O   UNL A   1      33.580  32.140  28.365  1.00  0.00    -0.377 OA
BRANCH   2   3
ATOM      3  C   UNL A   1      34.045  33.438  28.048  1.00  0.00     0.188 C 
BRANCH   3   4
ATOM      4  C   UNL A   1      33.432  34.555  28.898  1.00  0.00     0.188 C 
BRANCH   4   5
ATOM      5  O   UNL A   1      33.338  34.242  30.283  1.00  0.00    -0.376 OA
BRANCH   5   6
ATOM      6  C   UNL A   1      34.514  34.042  31.070  1.00  0.00     0.202 C 
BRANCH   6   7
ATOM      7  C   UNL A   1      34.833  32.583  31.341  1.00  0.00     0.261 C 
BRANCH   7   8
ATOM      8  O   UNL A   1      35.366  32.375  32.661  1.00  0.00    -0.460 OA
BRANCH   8   9
ATOM      9  C   UNL A   1      36.708  32.445  32.856  1.00  0.00     0.338 C 
ATOM     10  O   UNL A   1      37.287  33.027  33.754  1.00  0.00    -0.246 OA
BRANCH   9  11
ATOM     11  C   UNL A   1      37.326  31.474  31.924  1.00  0.00     0.060 A 
ATOM     12  C   UNL A   1      38.129  30.435  32.398  1.00  0.00     0.016 A 
ATOM     13  C   UNL A   1      37.208  31.679  30.554  1.00  0.00     0.016 A 
ATOM     14  C   UNL A   1      38.949  29.731  31.548  1.00  0.00     0.010 A 
ATOM     15  C   UNL A   1      38.037  30.962  29.683  1.00  0.00     0.010 A 
ATOM     16  C   UNL A   1      38.974  30.050  30.196  1.00  0.00    -0.014 A 
BRANCH  16  17
ATOM     17  C   UNL A   1      40.164  29.610  29.437  1.00  0.00     0.031 A 
ATOM     18  C   UNL A   1      41.373  30.507  29.444  1.00  0.00     0.074 A 
ATOM     19  C   UNL A   1      40.261  28.350  28.976  1.00  0.00     0.049 A 
ATOM     20  N   UNL A   1      42.528  30.349  28.854  1.00  0.00    -0.248 NA
ATOM     21  C   UNL A   1      41.276  31.736  30.252  1.00  0.00     0.031 C 
ATOM     22  C   UNL A   1      39.257  27.302  29.169  1.00  0.00     0.029 A 
ATOM     23  N   UNL A   1      41.294  27.712  28.343  1.00  0.00    -0.354 N 
ATOM     24  C   UNL A   1      43.254  31.500  29.140  1.00  0.00     0.074 A 
ATOM     25  C   UNL A   1      42.437  32.320  30.002  1.00  0.00     0.031 C 
ATOM     26  C   UNL A   1      39.765  26.131  28.750  1.00  0.00     0.029 A 
ATOM     27  C   UNL A   1      41.081  26.366  28.160  1.00  0.00     0.049 A 
ATOM     28  H   UNL A   1      42.112  28.173  28.046  1.00  0.00     0.167 HD
ATOM     29  C   UNL A   1      44.473  31.860  28.675  1.00  0.00     0.031 A 
ATOM     30  C   UNL A   1      41.869  25.437  27.585  1.00  0.00     0.031 A 
ATOM     31  C   UNL A   1      45.271  31.027  27.818  1.00  0.00     0.049 A 
ATOM     32  C   UNL A   1      43.176  25.887  26.985  1.00  0.00     0.074 A 
ATOM     33  C   UNL A   1      46.461  31.326  27.182  1.00  0.00     0.029 A 
ATOM     34  N   UNL A   1      44.952  29.719  27.484  1.00  0.00    -0.354 N 
ATOM     35  N   UNL A   1      43.793  27.039  27.107  1.00  0.00    -0.248 NA
ATOM     36  C   UNL A   1      43.876  24.918  26.130  1.00  0.00     0.031 C 
ATOM     37  C   UNL A   1      46.820  30.225  26.397  1.00  0.00     0.029 A 
ATOM     38  C   UNL A   1      45.903  29.209  26.619  1.00  0.00     0.049 A 
ATOM     39  H   UNL A   1      44.165  29.228  27.814  1.00  0.00     0.167 HD
ATOM     40  C   UNL A   1      44.948  26.934  26.340  1.00  0.00     0.074 A 
ATOM     41  C   UNL A   1      44.969  25.590  25.800  1.00  0.00     0.031 C 
ATOM     42  C   UNL A   1      45.896  27.870  26.085  1.00  0.00     0.031 A 
BRANCH  29  43
ATOM     43  C   UNL A   1      44.912  33.273  28.944  1.00  0.00    -0.014 A 
ATOM     44  C   UNL A   1      44.530  34.356  28.138  1.00  0.00     0.009 A 
ATOM     45  C   UNL A   1      45.786  33.505  30.019  1.00  0.00     0.009 A 
ATOM     46  C   UNL A   1      45.060  35.629  28.373  1.00  0.00     0.001 A 
ATOM     47  C   UNL A   1      46.284  34.782  30.274  1.00  0.00     0.001 A 
ATOM     48  C   UNL A   1      45.934  35.840  29.440  1.00  0.00     0.000 A 
ENDBRANCH  29  43
BRANCH  30  49
ATOM     49  C   UNL A   1      41.434  24.015  27.486  1.00  0.00    -0.014 A 
ATOM     50  C   UNL A   1      40.466  23.619  26.548  1.00  0.00     0.009 A 
ATOM     51  C   UNL A   1      41.951  23.045  28.362  1.00  0.00     0.009 A 
ATOM     52  C   UNL A   1      40.009  22.298  26.512  1.00  0.00     0.001 A 
ATOM     53  C   UNL A   1      41.527  21.717  28.293  1.00  0.00     0.001 A 
ATOM     54  C   UNL A   1      40.545  21.348  27.378  1.00  0.00     0.000 A 
ENDBRANCH  30  49
BRANCH  42  55
ATOM     55  C   UNL A   1      47.040  27.476  25.189  1.00  0.00    -0.014 A 
ATOM     56  C   UNL A   1      47.042  27.793  23.822  1.00  0.00     0.009 A 
ATOM     57  C   UNL A   1      48.164  26.838  25.738  1.00  0.00     0.009 A 
ATOM     58  C   UNL A   1      48.128  27.446  23.017  1.00  0.00     0.001 A 
ATOM     59  C   UNL A   1      49.265  26.527  24.939  1.00  0.00     0.001 A 
ATOM     60  C   UNL A   1      49.241  26.822  23.578  1.00  0.00     0.000 A 
ENDBRANCH  42  55
ENDBRANCH  16  17
ENDBRANCH   9  11
ENDBRANCH   8   9
ENDBRANCH   7   8
ENDBRANCH   6   7
ENDBRANCH   5   6
ENDBRANCH   4   5
ENDBRANCH   3   4
ENDBRANCH   2   3
ENDBRANCH   1   2
BRANCH   1  61
ATOM     61  C   UNL A   1      34.274  30.218  26.903  1.00  0.00     0.188 C 
BRANCH  61  62
ATOM     62  O   UNL A   1      34.037  28.970  27.621  1.00  0.00    -0.376 OA
BRANCH  62  63
ATOM     63  C   UNL A   1      32.826  28.144  27.515  1.00  0.00     0.202 C 
BRANCH  63  64
ATOM     64  C   UNL A   1      32.581  26.811  26.321  1.00  0.00     0.261 C 
BRANCH  64  65
ATOM     65  O   UNL A   1      32.976  24.862  26.662  1.00  0.00    -0.460 OA
BRANCH  65  66
ATOM     66  C   UNL A   1      33.676  23.606  26.645  1.00  0.00     0.339 C 
ATOM     67  O   UNL A   1      33.327  22.717  27.421  1.00  0.00    -0.246 OA
BRANCH  66  68
ATOM     68  C   UNL A   1      34.733  23.212  25.611  1.00  0.00     0.072 A 
ATOM     69  C   UNL A   1      36.031  23.702  25.918  1.00  0.00     0.016 A 
ATOM     70  C   UNL A   1      34.540  22.526  24.382  1.00  0.00     0.054 A 
ATOM     71  C   UNL A   1      37.066  23.684  24.979  1.00  0.00     0.001 A 
ATOM     72  C   UNL A   1      35.598  22.571  23.437  1.00  0.00     0.015 A 
ATOM     73  C   UNL A   1      36.826  23.176  23.713  1.00  0.00     0.001 A 
BRANCH  70  74
ATOM     74  C   UNL A   1      33.352  21.698  23.913  1.00  0.00     0.256 C 
ATOM     75  O   UNL A   1      33.443  20.468  23.893  1.00  0.00    -0.269 OA
ATOM     76  N   UNL A   1      32.161  22.250  23.495  1.00  0.00    -0.322 N 
ATOM     77  H   UNL A   1      31.545  21.687  22.972  1.00  0.00     0.170 HD
BRANCH  76  78
ATOM     78  C   UNL A   1      31.783  23.548  23.766  1.00  0.00     0.041 A 
ATOM     79  C   UNL A   1      32.055  24.711  22.447  1.00  0.00     0.028 A 
ATOM     80  C   UNL A   1      30.603  23.947  25.050  1.00  0.00     0.028 A 
ATOM     81  C   UNL A   1      31.050  26.258  22.398  1.00  0.00     0.029 A 
ATOM     82  C   UNL A   1      29.651  25.479  24.984  1.00  0.00     0.029 A 
ATOM     83  C   UNL A   1      29.868  26.649  23.656  1.00  0.00     0.052 A 
BRANCH  83  84
ATOM     84  N   UNL A   1      29.253  27.920  23.456  1.00  0.00    -0.250 N 
ATOM     85  C   UNL A   1      27.897  28.267  23.324  1.00  0.00     0.237 C 
ATOM     86  C   UNL A   1      30.019  29.100  23.320  1.00  0.00     0.237 C 
ATOM     87  O   UNL A   1      26.890  27.641  23.590  1.00  0.00    -0.274 OA
ATOM     88  C   UNL A   1      27.998  29.666  22.700  1.00  0.00     0.095 C 
ATOM     89  C   UNL A   1      29.067  30.172  23.659  1.00  0.00     0.095 C 
ATOM     90  O   UNL A   1      31.147  29.330  22.917  1.00  0.00    -0.274 OA
ATOM     91  C   UNL A   1      27.282  30.980  22.373  1.00  0.00     0.002 C 
ATOM     92  C   UNL A   1      29.155  31.662  23.412  1.00  0.00     0.002 C 
ATOM     93  C   UNL A   1      28.150  31.646  21.242  1.00  0.00     0.005 C 
ATOM     94  C   UNL A   1      27.650  31.955  23.498  1.00  0.00     0.009 C 
ATOM     95  C   UNL A   1      29.468  32.007  21.960  1.00  0.00     0.005 C 
ENDBRANCH  83  84
ENDBRANCH  76  78
ENDBRANCH  70  74
ENDBRANCH  66  68
ENDBRANCH  65  66
ENDBRANCH  64  65
ENDBRANCH  63  64
ENDBRANCH  62  63
ENDBRANCH  61  62
ENDBRANCH   1  61
TORSDOF 23
ENDMDL
MODEL 3
REMARK VINA RESULT:     -11.1      4.432      7.984
REMARK SMILES O=C(OCCOCCOCCOCCOC(=O)c1ccccc1C(=O)Nc1ccc(N2C(=O)[C@H]3[C@@H]4CC[C@@H](C4)[C@@H]3C2=O)cc1)c1ccc(-c2c3nc(c(-c4ccccc4)c4ccc([nH]4)c(-c4ccccc4)c4nc(c(-c5ccccc5)c5ccc2[nH]5)C=C4)C=C3)cc1
REMARK SMILES IDX 10 1 9 2 8 3 7 4 6 5 5 6 4 7 3 8 2 9 1 10 45 11 46 12 92 13
REMARK SMILES IDX 47 14 91 15 48 16 49 17 50 18 85 19 51 20 90 21 84 22 86 23
REMARK SMILES IDX 52 24 89 25 83 26 82 27 53 29 75 30 60 31 74 32 61 33 64 34
REMARK SMILES IDX 73 35 87 36 62 37 63 38 72 40 88 41 65 42 54 43 55 44 59 45
REMARK SMILES IDX 56 46 58 47 57 48 76 49 77 50 81 51 78 52 80 53 79 54 66 55
REMARK SMILES IDX 67 56 71 57 68 58 70 59 69 60 11 61 12 62 13 63 14 64 15 65
REMARK SMILES IDX 16 66 17 67 18 68 19 69 23 70 20 71 22 72 21 73 24 74 25 75
REMARK SMILES IDX 26 76 27 78 28 79 44 80 29 81 43 82 30 83 31 84 32 85 41 86
REMARK SMILES IDX 33 87 34 88 40 89 42 90 35 91 38 92 36 93 39 94 37 95
REMARK H PARENT 86 28 64 39 26 77
REMARK Flexibility Score: inf
ROOT
ATOM      1  C   UNL A   1      32.629  30.263  26.175  1.00  0.00     0.188 C 
ENDROOT
BRANCH   1   2
ATOM      2  O   UNL A   1      32.703  31.413  26.982  1.00  0.00    -0.377 OA
BRANCH   2   3
ATOM      3  C   UNL A   1      33.765  31.390  27.917  1.00  0.00     0.188 C 
BRANCH   3   4
ATOM      4  C   UNL A   1      34.561  32.696  28.003  1.00  0.00     0.188 C 
BRANCH   4   5
ATOM      5  O   UNL A   1      33.750  33.864  28.065  1.00  0.00    -0.376 OA
BRANCH   5   6
ATOM      6  C   UNL A   1      34.319  35.135  28.382  1.00  0.00     0.202 C 
BRANCH   6   7
ATOM      7  C   UNL A   1      33.529  35.928  29.406  1.00  0.00     0.261 C 
BRANCH   7   8
ATOM      8  O   UNL A   1      32.970  35.090  30.434  1.00  0.00    -0.460 OA
BRANCH   8   9
ATOM      9  C   UNL A   1      32.738  35.612  31.666  1.00  0.00     0.338 C 
ATOM     10  O   UNL A   1      31.765  36.253  32.017  1.00  0.00    -0.246 OA
BRANCH   9  11
ATOM     11  C   UNL A   1      33.764  35.044  32.570  1.00  0.00     0.060 A 
ATOM     12  C   UNL A   1      34.902  35.776  32.914  1.00  0.00     0.016 A 
ATOM     13  C   UNL A   1      33.653  33.719  32.976  1.00  0.00     0.016 A 
ATOM     14  C   UNL A   1      35.992  35.161  33.482  1.00  0.00     0.010 A 
ATOM     15  C   UNL A   1      34.758  33.089  33.559  1.00  0.00     0.010 A 
ATOM     16  C   UNL A   1      35.961  33.795  33.727  1.00  0.00    -0.014 A 
BRANCH  16  17
ATOM     17  C   UNL A   1      37.269  33.123  33.890  1.00  0.00     0.031 A 
ATOM     18  C   UNL A   1      37.906  33.149  35.255  1.00  0.00     0.074 A 
ATOM     19  C   UNL A   1      37.747  32.303  32.938  1.00  0.00     0.049 A 
ATOM     20  N   UNL A   1      39.043  32.643  35.650  1.00  0.00    -0.248 NA
ATOM     21  C   UNL A   1      37.140  33.812  36.327  1.00  0.00     0.031 C 
ATOM     22  C   UNL A   1      37.063  31.976  31.686  1.00  0.00     0.029 A 
ATOM     23  N   UNL A   1      38.869  31.518  32.922  1.00  0.00    -0.354 N 
ATOM     24  C   UNL A   1      39.172  33.010  36.985  1.00  0.00     0.074 A 
ATOM     25  C   UNL A   1      37.975  33.728  37.350  1.00  0.00     0.031 C 
ATOM     26  C   UNL A   1      37.733  30.988  31.070  1.00  0.00     0.029 A 
ATOM     27  C   UNL A   1      38.947  30.691  31.827  1.00  0.00     0.049 A 
ATOM     28  H   UNL A   1      39.555  31.543  33.628  1.00  0.00     0.167 HD
ATOM     29  C   UNL A   1      40.224  32.810  37.812  1.00  0.00     0.031 A 
ATOM     30  C   UNL A   1      39.893  29.795  31.486  1.00  0.00     0.031 A 
ATOM     31  C   UNL A   1      41.407  32.090  37.429  1.00  0.00     0.049 A 
ATOM     32  C   UNL A   1      41.104  29.668  32.375  1.00  0.00     0.074 A 
ATOM     33  C   UNL A   1      42.588  31.927  38.129  1.00  0.00     0.029 A 
ATOM     34  N   UNL A   1      41.551  31.407  36.230  1.00  0.00    -0.354 N 
ATOM     35  N   UNL A   1      41.307  30.157  33.575  1.00  0.00    -0.248 NA
ATOM     36  C   UNL A   1      42.235  28.898  31.840  1.00  0.00     0.031 C 
ATOM     37  C   UNL A   1      43.476  31.212  37.317  1.00  0.00     0.029 A 
ATOM     38  C   UNL A   1      42.815  30.852  36.153  1.00  0.00     0.049 A 
ATOM     39  H   UNL A   1      40.856  31.330  35.537  1.00  0.00     0.167 HD
ATOM     40  C   UNL A   1      42.591  29.759  33.935  1.00  0.00     0.074 A 
ATOM     41  C   UNL A   1      43.095  28.947  32.846  1.00  0.00     0.031 C 
ATOM     42  C   UNL A   1      43.299  30.056  35.053  1.00  0.00     0.031 A 
BRANCH  29  43
ATOM     43  C   UNL A   1      40.199  33.534  39.130  1.00  0.00    -0.014 A 
ATOM     44  C   UNL A   1      40.694  34.836  39.294  1.00  0.00     0.009 A 
ATOM     45  C   UNL A   1      39.705  32.851  40.254  1.00  0.00     0.009 A 
ATOM     46  C   UNL A   1      40.744  35.414  40.567  1.00  0.00     0.001 A 
ATOM     47  C   UNL A   1      39.722  33.444  41.517  1.00  0.00     0.001 A 
ATOM     48  C   UNL A   1      40.257  34.719  41.675  1.00  0.00     0.000 A 
ENDBRANCH  29  43
BRANCH  30  49
ATOM     49  C   UNL A   1      39.781  28.996  30.233  1.00  0.00    -0.014 A 
ATOM     50  C   UNL A   1      40.085  29.565  28.985  1.00  0.00     0.009 A 
ATOM     51  C   UNL A   1      39.323  27.668  30.268  1.00  0.00     0.009 A 
ATOM     52  C   UNL A   1      39.905  28.832  27.807  1.00  0.00     0.001 A 
ATOM     53  C   UNL A   1      39.188  26.924  29.094  1.00  0.00     0.001 A 
ATOM     54  C   UNL A   1      39.464  27.512  27.864  1.00  0.00     0.000 A 
ENDBRANCH  30  49
BRANCH  42  55
ATOM     55  C   UNL A   1      44.692  29.496  35.163  1.00  0.00    -0.014 A 
ATOM     56  C   UNL A   1      44.930  28.230  35.719  1.00  0.00     0.009 A 
ATOM     57  C   UNL A   1      45.775  30.219  34.636  1.00  0.00     0.009 A 
ATOM     58  C   UNL A   1      46.227  27.717  35.780  1.00  0.00     0.001 A 
ATOM     59  C   UNL A   1      47.065  29.688  34.663  1.00  0.00     0.001 A 
ATOM     60  C   UNL A   1      47.290  28.442  35.245  1.00  0.00     0.000 A 
ENDBRANCH  42  55
ENDBRANCH  16  17
ENDBRANCH   9  11
ENDBRANCH   8   9
ENDBRANCH   7   8
ENDBRANCH   6   7
ENDBRANCH   5   6
ENDBRANCH   4   5
ENDBRANCH   3   4
ENDBRANCH   2   3
ENDBRANCH   1   2
BRANCH   1  61
ATOM     61  C   UNL A   1      33.891  29.389  26.084  1.00  0.00     0.188 C 
BRANCH  61  62
ATOM     62  O   UNL A   1      33.717  28.020  26.558  1.00  0.00    -0.376 OA
BRANCH  62  63
ATOM     63  C   UNL A   1      32.450  27.432  27.014  1.00  0.00     0.202 C 
BRANCH  63  64
ATOM     64  C   UNL A   1      31.907  25.743  26.670  1.00  0.00     0.261 C 
BRANCH  64  65
ATOM     65  O   UNL A   1      32.927  24.075  27.163  1.00  0.00    -0.460 OA
BRANCH  65  66
ATOM     66  C   UNL A   1      33.729  22.891  27.009  1.00  0.00     0.339 C 
ATOM     67  O   UNL A   1      33.408  21.869  27.615  1.00  0.00    -0.246 OA
BRANCH  66  68
ATOM     68  C   UNL A   1      34.879  22.742  26.011  1.00  0.00     0.072 A 
ATOM     69  C   UNL A   1      35.875  23.747  26.144  1.00  0.00     0.016 A 
ATOM     70  C   UNL A   1      34.997  21.806  24.948  1.00  0.00     0.054 A 
ATOM     71  C   UNL A   1      36.855  23.946  25.168  1.00  0.00     0.001 A 
ATOM     72  C   UNL A   1      35.974  22.070  23.954  1.00  0.00     0.015 A 
ATOM     73  C   UNL A   1      36.862  23.145  24.038  1.00  0.00     0.001 A 
BRANCH  70  74
ATOM     74  C   UNL A   1      34.239  20.507  24.715  1.00  0.00     0.256 C 
ATOM     75  O   UNL A   1      34.617  19.477  25.277  1.00  0.00    -0.269 OA
ATOM     76  N   UNL A   1      33.139  20.410  23.892  1.00  0.00    -0.322 N 
ATOM     77  H   UNL A   1      32.862  19.515  23.588  1.00  0.00     0.170 HD
BRANCH  76  78
ATOM     78  C   UNL A   1      32.402  21.496  23.467  1.00  0.00     0.041 A 
ATOM     79  C   UNL A   1      31.175  22.080  24.616  1.00  0.00     0.028 A 
ATOM     80  C   UNL A   1      32.981  22.593  22.178  1.00  0.00     0.028 A 
ATOM     81  C   UNL A   1      30.599  23.829  24.496  1.00  0.00     0.029 A 
ATOM     82  C   UNL A   1      32.380  24.292  22.075  1.00  0.00     0.029 A 
ATOM     83  C   UNL A   1      31.182  24.924  23.234  1.00  0.00     0.052 A 
BRANCH  83  84
ATOM     84  N   UNL A   1      30.558  26.205  23.287  1.00  0.00    -0.250 N 
ATOM     85  C   UNL A   1      29.321  26.595  23.830  1.00  0.00     0.237 C 
ATOM     86  C   UNL A   1      31.159  27.346  22.710  1.00  0.00     0.237 C 
ATOM     87  O   UNL A   1      28.581  26.023  24.606  1.00  0.00    -0.274 OA
ATOM     88  C   UNL A   1      29.103  27.954  23.151  1.00  0.00     0.095 C 
ATOM     89  C   UNL A   1      30.513  28.469  23.410  1.00  0.00     0.095 C 
ATOM     90  O   UNL A   1      31.932  27.512  21.782  1.00  0.00    -0.274 OA
ATOM     91  C   UNL A   1      28.328  29.275  23.142  1.00  0.00     0.002 C 
ATOM     92  C   UNL A   1      30.473  29.941  23.056  1.00  0.00     0.002 C 
ATOM     93  C   UNL A   1      28.513  29.846  21.689  1.00  0.00     0.005 C 
ATOM     94  C   UNL A   1      29.218  30.294  23.865  1.00  0.00     0.009 C 
ATOM     95  C   UNL A   1      30.016  30.195  21.623  1.00  0.00     0.005 C 
ENDBRANCH  83  84
ENDBRANCH  76  78
ENDBRANCH  70  74
ENDBRANCH  66  68
ENDBRANCH  65  66
ENDBRANCH  64  65
ENDBRANCH  63  64
ENDBRANCH  62  63
ENDBRANCH  61  62
ENDBRANCH   1  61
TORSDOF 23
ENDMDL
