MODEL 1
REMARK VINA RESULT:      -9.7      0.000      0.000
REMARK SMILES C[C@H](CNC(=O)N1C[C@H]2CCCC[N@@H+]2C[C@@H]1C)C(=O)OCCOCCOCCOCCOC(=O)c1ccc(-c2c3nc(c(-c4ccccc4)c4ccc([nH]4)c(-c4ccccc4)c4nc(c(-c5ccccc5)c5ccc2[nH]5)C=C4)C=C3)cc1
REMARK SMILES IDX 25 1 24 2 23 3 22 4 21 5 20 6 18 7 19 8 2 9 1 10 3 11 4 12
REMARK SMILES IDX 5 13 6 15 7 16 8 17 16 18 9 19 15 20 17 21 10 22 14 23 11 24
REMARK SMILES IDX 13 25 12 27 26 28 27 29 28 30 29 31 30 32 31 33 32 34 33 35
REMARK SMILES IDX 34 36 35 37 36 38 82 39 37 40 81 41 38 42 39 43 40 44 75 45
REMARK SMILES IDX 41 46 80 47 74 48 76 49 42 50 79 51 73 52 72 53 43 55 65 56
REMARK SMILES IDX 50 57 64 58 51 59 54 60 63 61 77 62 52 63 53 64 62 66 78 67
REMARK SMILES IDX 55 68 44 69 45 70 49 71 46 72 48 73 47 74 66 75 67 76 71 77
REMARK SMILES IDX 68 78 70 79 69 80 56 81 57 82 61 83 58 84 60 85 59 86
REMARK H PARENT 4 14 14 26 76 54 54 65
REMARK Flexibility Score: inf
ROOT
ATOM      1  C   UNL A   1      42.764  18.225  26.153  1.00  0.00     0.188 C 
ENDROOT
BRANCH   1   2
ATOM      2  C   UNL A   1      42.680  19.229  27.307  1.00  0.00     0.188 C 
BRANCH   2   3
ATOM      3  O   UNL A   1      41.407  19.841  27.396  1.00  0.00    -0.376 OA
BRANCH   3   4
ATOM      4  C   UNL A   1      41.294  21.194  26.986  1.00  0.00     0.202 C 
BRANCH   4   5
ATOM      5  C   UNL A   1      40.271  21.572  25.900  1.00  0.00     0.261 C 
BRANCH   5   6
ATOM      6  O   UNL A   1      38.915  21.763  26.331  1.00  0.00    -0.463 OA
BRANCH   6   7
ATOM      7  C   UNL A   1      37.971  21.758  25.369  1.00  0.00     0.310 C 
ATOM      8  O   UNL A   1      37.606  20.747  24.775  1.00  0.00    -0.252 OA
BRANCH   7   9
ATOM      9  C   UNL A   1      37.391  23.125  25.069  1.00  0.00     0.115 C 
ATOM     10  C   UNL A   1      37.791  24.081  26.190  1.00  0.00     0.022 C 
BRANCH   9  11
ATOM     11  C   UNL A   1      35.911  23.282  24.706  1.00  0.00     0.132 C 
BRANCH  11  12
ATOM     12  N   UNL A   1      35.085  24.221  25.432  1.00  0.00    -0.337 N 
ATOM     13  C   UNL A   1      33.728  24.218  25.597  1.00  0.00     0.318 C 
ATOM     14  H   UNL A   1      35.566  24.962  25.867  1.00  0.00     0.165 HD
ATOM     15  O   UNL A   1      33.168  25.165  26.140  1.00  0.00    -0.249 OA
BRANCH  13  16
ATOM     16  N   UNL A   1      33.058  23.162  25.032  1.00  0.00    -0.311 N 
ATOM     17  C   UNL A   1      32.799  21.953  25.814  1.00  0.00     0.186 C 
ATOM     18  C   UNL A   1      32.170  23.325  23.876  1.00  0.00     0.139 C 
ATOM     19  C   UNL A   1      33.014  20.720  24.923  1.00  0.00     0.203 C 
ATOM     20  C   UNL A   1      32.157  22.008  23.026  1.00  0.00     0.287 C 
ATOM     21  C   UNL A   1      32.608  24.469  22.949  1.00  0.00     0.037 C 
ATOM     22  C   UNL A   1      32.898  19.414  25.714  1.00  0.00     0.067 C 
ATOM     23  N   UNL A   1      32.109  20.708  23.752  1.00  0.00    -0.329 N 
ATOM     24  C   UNL A   1      33.323  18.250  24.823  1.00  0.00     0.012 C 
ATOM     25  C   UNL A   1      32.527  19.625  22.836  1.00  0.00     0.262 C 
ATOM     26  H   UNL A   1      31.154  20.556  24.077  1.00  0.00     0.348 HD
ATOM     27  C   UNL A   1      32.533  18.253  23.517  1.00  0.00     0.062 C 
ENDBRANCH  13  16
ENDBRANCH  11  12
ENDBRANCH   9  11
ENDBRANCH   7   9
ENDBRANCH   6   7
ENDBRANCH   5   6
ENDBRANCH   4   5
ENDBRANCH   3   4
ENDBRANCH   2   3
ENDBRANCH   1   2
BRANCH   1  28
ATOM     28  O   UNL A   1      43.644  18.535  25.083  1.00  0.00    -0.377 OA
BRANCH  28  29
ATOM     29  C   UNL A   1      45.035  18.707  25.366  1.00  0.00     0.188 C 
BRANCH  29  30
ATOM     30  C   UNL A   1      45.881  19.803  24.669  1.00  0.00     0.188 C 
BRANCH  30  31
ATOM     31  O   UNL A   1      46.072  20.999  25.404  1.00  0.00    -0.376 OA
BRANCH  31  32
ATOM     32  C   UNL A   1      44.927  21.808  25.640  1.00  0.00     0.202 C 
BRANCH  32  33
ATOM     33  C   UNL A   1      44.380  22.576  24.429  1.00  0.00     0.261 C 
BRANCH  33  34
ATOM     34  O   UNL A   1      43.724  23.818  24.733  1.00  0.00    -0.460 OA
BRANCH  34  35
ATOM     35  C   UNL A   1      44.491  24.855  25.134  1.00  0.00     0.338 C 
ATOM     36  O   UNL A   1      45.517  25.266  24.624  1.00  0.00    -0.246 OA
BRANCH  35  37
ATOM     37  C   UNL A   1      43.761  25.546  26.213  1.00  0.00     0.060 A 
ATOM     38  C   UNL A   1      44.038  26.895  26.469  1.00  0.00     0.016 A 
ATOM     39  C   UNL A   1      42.793  24.864  26.952  1.00  0.00     0.016 A 
ATOM     40  C   UNL A   1      43.348  27.566  27.477  1.00  0.00     0.010 A 
ATOM     41  C   UNL A   1      42.124  25.530  27.979  1.00  0.00     0.010 A 
ATOM     42  C   UNL A   1      42.410  26.878  28.258  1.00  0.00    -0.014 A 
BRANCH  42  43
ATOM     43  C   UNL A   1      41.833  27.521  29.460  1.00  0.00     0.031 A 
ATOM     44  C   UNL A   1      40.527  28.253  29.327  1.00  0.00     0.074 A 
ATOM     45  C   UNL A   1      42.459  27.460  30.648  1.00  0.00     0.049 A 
ATOM     46  N   UNL A   1      39.869  28.943  30.224  1.00  0.00    -0.248 NA
ATOM     47  C   UNL A   1      39.875  28.200  28.008  1.00  0.00     0.031 C 
ATOM     48  C   UNL A   1      43.709  26.749  30.913  1.00  0.00     0.029 A 
ATOM     49  N   UNL A   1      42.127  28.022  31.856  1.00  0.00    -0.354 N 
ATOM     50  C   UNL A   1      38.734  29.413  29.576  1.00  0.00     0.074 A 
ATOM     51  C   UNL A   1      38.798  28.945  28.209  1.00  0.00     0.031 C 
ATOM     52  C   UNL A   1      44.047  26.932  32.202  1.00  0.00     0.029 A 
ATOM     53  C   UNL A   1      43.062  27.803  32.838  1.00  0.00     0.049 A 
ATOM     54  H   UNL A   1      41.300  28.533  32.004  1.00  0.00     0.167 HD
ATOM     55  C   UNL A   1      37.729  30.167  30.077  1.00  0.00     0.031 A 
ATOM     56  C   UNL A   1      43.130  28.283  34.096  1.00  0.00     0.031 A 
ATOM     57  C   UNL A   1      37.673  30.646  31.431  1.00  0.00     0.049 A 
ATOM     58  C   UNL A   1      42.043  29.199  34.596  1.00  0.00     0.074 A 
ATOM     59  C   UNL A   1      36.681  31.398  32.037  1.00  0.00     0.029 A 
ATOM     60  N   UNL A   1      38.656  30.436  32.384  1.00  0.00    -0.354 N 
ATOM     61  N   UNL A   1      40.950  29.599  33.991  1.00  0.00    -0.248 NA
ATOM     62  C   UNL A   1      42.201  29.733  35.959  1.00  0.00     0.031 C 
ATOM     63  C   UNL A   1      37.096  31.699  33.337  1.00  0.00     0.029 A 
ATOM     64  C   UNL A   1      38.314  31.078  33.562  1.00  0.00     0.049 A 
ATOM     65  H   UNL A   1      39.476  29.908  32.244  1.00  0.00     0.167 HD
ATOM     66  C   UNL A   1      40.282  30.406  34.906  1.00  0.00     0.074 A 
ATOM     67  C   UNL A   1      41.078  30.420  36.114  1.00  0.00     0.031 C 
ATOM     68  C   UNL A   1      39.116  31.081  34.756  1.00  0.00     0.031 A 
BRANCH  55  69
ATOM     69  C   UNL A   1      36.618  30.558  29.145  1.00  0.00    -0.014 A 
ATOM     70  C   UNL A   1      36.537  31.853  28.608  1.00  0.00     0.009 A 
ATOM     71  C   UNL A   1      35.676  29.595  28.749  1.00  0.00     0.009 A 
ATOM     72  C   UNL A   1      35.523  32.179  27.705  1.00  0.00     0.001 A 
ATOM     73  C   UNL A   1      34.679  29.918  27.826  1.00  0.00     0.001 A 
ATOM     74  C   UNL A   1      34.601  31.209  27.309  1.00  0.00     0.000 A 
ENDBRANCH  55  69
BRANCH  56  75
ATOM     75  C   UNL A   1      44.293  27.959  34.967  1.00  0.00    -0.014 A 
ATOM     76  C   UNL A   1      44.313  26.782  35.733  1.00  0.00     0.009 A 
ATOM     77  C   UNL A   1      45.365  28.859  35.083  1.00  0.00     0.009 A 
ATOM     78  C   UNL A   1      45.361  26.534  36.623  1.00  0.00     0.001 A 
ATOM     79  C   UNL A   1      46.428  28.591  35.948  1.00  0.00     0.001 A 
ATOM     80  C   UNL A   1      46.418  27.437  36.728  1.00  0.00     0.000 A 
ENDBRANCH  56  75
BRANCH  68  81
ATOM     81  C   UNL A   1      38.614  31.865  35.939  1.00  0.00    -0.014 A 
ATOM     82  C   UNL A   1      38.775  33.257  36.012  1.00  0.00     0.009 A 
ATOM     83  C   UNL A   1      37.929  31.205  36.972  1.00  0.00     0.009 A 
ATOM     84  C   UNL A   1      38.291  33.967  37.113  1.00  0.00     0.001 A 
ATOM     85  C   UNL A   1      37.417  31.921  38.054  1.00  0.00     0.001 A 
ATOM     86  C   UNL A   1      37.608  33.299  38.129  1.00  0.00     0.000 A 
ENDBRANCH  68  81
ENDBRANCH  42  43
ENDBRANCH  35  37
ENDBRANCH  34  35
ENDBRANCH  33  34
ENDBRANCH  32  33
ENDBRANCH  31  32
ENDBRANCH  30  31
ENDBRANCH  29  30
ENDBRANCH  28  29
ENDBRANCH   1  28
TORSDOF 23
ENDMDL
MODEL 2
REMARK VINA RESULT:      -9.3      4.716     10.634
REMARK SMILES C[C@H](CNC(=O)N1C[C@H]2CCCC[N@@H+]2C[C@@H]1C)C(=O)OCCOCCOCCOCCOC(=O)c1ccc(-c2c3nc(c(-c4ccccc4)c4ccc([nH]4)c(-c4ccccc4)c4nc(c(-c5ccccc5)c5ccc2[nH]5)C=C4)C=C3)cc1
REMARK SMILES IDX 25 1 24 2 23 3 22 4 21 5 20 6 18 7 19 8 2 9 1 10 3 11 4 12
REMARK SMILES IDX 5 13 6 15 7 16 8 17 16 18 9 19 15 20 17 21 10 22 14 23 11 24
REMARK SMILES IDX 13 25 12 27 26 28 27 29 28 30 29 31 30 32 31 33 32 34 33 35
REMARK SMILES IDX 34 36 35 37 36 38 82 39 37 40 81 41 38 42 39 43 40 44 75 45
REMARK SMILES IDX 41 46 80 47 74 48 76 49 42 50 79 51 73 52 72 53 43 55 65 56
REMARK SMILES IDX 50 57 64 58 51 59 54 60 63 61 77 62 52 63 53 64 62 66 78 67
REMARK SMILES IDX 55 68 44 69 45 70 49 71 46 72 48 73 47 74 66 75 67 76 71 77
REMARK SMILES IDX 68 78 70 79 69 80 56 81 57 82 61 83 58 84 60 85 59 86
REMARK H PARENT 4 14 14 26 76 54 54 65
REMARK Flexibility Score: inf
ROOT
ATOM      1  C   UNL A   1      34.664  31.361  27.681  1.00  0.00     0.188 C 
ENDROOT
BRANCH   1   2
ATOM      2  C   UNL A   1      35.120  29.927  27.395  1.00  0.00     0.188 C 
BRANCH   2   3
ATOM      3  O   UNL A   1      34.091  29.140  26.825  1.00  0.00    -0.376 OA
BRANCH   3   4
ATOM      4  C   UNL A   1      33.256  29.749  25.853  1.00  0.00     0.202 C 
BRANCH   4   5
ATOM      5  C   UNL A   1      31.807  29.258  25.687  1.00  0.00     0.261 C 
BRANCH   5   6
ATOM      6  O   UNL A   1      31.625  27.999  25.023  1.00  0.00    -0.463 OA
BRANCH   6   7
ATOM      7  C   UNL A   1      31.101  27.000  25.761  1.00  0.00     0.310 C 
ATOM      8  O   UNL A   1      31.337  26.836  26.955  1.00  0.00    -0.252 OA
BRANCH   7   9
ATOM      9  C   UNL A   1      30.187  26.075  24.983  1.00  0.00     0.115 C 
ATOM     10  C   UNL A   1      29.377  25.243  25.975  1.00  0.00     0.022 C 
BRANCH   9  11
ATOM     11  C   UNL A   1      30.738  25.206  23.848  1.00  0.00     0.132 C 
BRANCH  11  12
ATOM     12  N   UNL A   1      31.620  25.785  22.860  1.00  0.00    -0.337 N 
ATOM     13  C   UNL A   1      32.910  25.445  22.559  1.00  0.00     0.318 C 
ATOM     14  H   UNL A   1      31.241  26.525  22.332  1.00  0.00     0.165 HD
ATOM     15  O   UNL A   1      33.564  26.125  21.775  1.00  0.00    -0.249 OA
BRANCH  13  16
ATOM     16  N   UNL A   1      33.428  24.385  23.260  1.00  0.00    -0.311 N 
ATOM     17  C   UNL A   1      33.364  23.034  22.703  1.00  0.00     0.186 C 
ATOM     18  C   UNL A   1      34.457  24.555  24.292  1.00  0.00     0.139 C 
ATOM     19  C   UNL A   1      33.023  22.041  23.825  1.00  0.00     0.203 C 
ATOM     20  C   UNL A   1      34.318  23.428  25.372  1.00  0.00     0.287 C 
ATOM     21  C   UNL A   1      34.351  25.906  25.017  1.00  0.00     0.037 C 
ATOM     22  C   UNL A   1      32.800  20.624  23.289  1.00  0.00     0.067 C 
ATOM     23  N   UNL A   1      34.037  22.042  24.904  1.00  0.00    -0.329 N 
ATOM     24  C   UNL A   1      32.267  19.741  24.414  1.00  0.00     0.012 C 
ATOM     25  C   UNL A   1      33.530  21.240  26.038  1.00  0.00     0.262 C 
ATOM     26  H   UNL A   1      34.903  21.644  24.540  1.00  0.00     0.348 HD
ATOM     27  C   UNL A   1      33.187  19.803  25.631  1.00  0.00     0.062 C 
ENDBRANCH  13  16
ENDBRANCH  11  12
ENDBRANCH   9  11
ENDBRANCH   7   9
ENDBRANCH   6   7
ENDBRANCH   5   6
ENDBRANCH   4   5
ENDBRANCH   3   4
ENDBRANCH   2   3
ENDBRANCH   1   2
BRANCH   1  28
ATOM     28  O   UNL A   1      34.558  31.752  29.042  1.00  0.00    -0.377 OA
BRANCH  28  29
ATOM     29  C   UNL A   1      34.949  33.078  29.409  1.00  0.00     0.188 C 
BRANCH  29  30
ATOM     30  C   UNL A   1      33.931  34.245  29.464  1.00  0.00     0.188 C 
BRANCH  30  31
ATOM     31  O   UNL A   1      34.035  35.105  30.586  1.00  0.00    -0.376 OA
BRANCH  31  32
ATOM     32  C   UNL A   1      34.104  34.495  31.868  1.00  0.00     0.202 C 
BRANCH  32  33
ATOM     33  C   UNL A   1      35.214  35.003  32.799  1.00  0.00     0.261 C 
BRANCH  33  34
ATOM     34  O   UNL A   1      36.505  34.402  32.603  1.00  0.00    -0.460 OA
BRANCH  34  35
ATOM     35  C   UNL A   1      36.762  33.239  33.239  1.00  0.00     0.338 C 
ATOM     36  O   UNL A   1      36.194  32.778  34.213  1.00  0.00    -0.246 OA
BRANCH  35  37
ATOM     37  C   UNL A   1      37.750  32.506  32.427  1.00  0.00     0.060 A 
ATOM     38  C   UNL A   1      38.600  31.585  33.052  1.00  0.00     0.016 A 
ATOM     39  C   UNL A   1      37.818  32.717  31.049  1.00  0.00     0.016 A 
ATOM     40  C   UNL A   1      39.532  30.876  32.296  1.00  0.00     0.010 A 
ATOM     41  C   UNL A   1      38.769  32.025  30.298  1.00  0.00     0.010 A 
ATOM     42  C   UNL A   1      39.642  31.116  30.920  1.00  0.00    -0.014 A 
BRANCH  42  43
ATOM     43  C   UNL A   1      40.763  30.527  30.153  1.00  0.00     0.031 A 
ATOM     44  C   UNL A   1      41.990  31.361  29.919  1.00  0.00     0.074 A 
ATOM     45  C   UNL A   1      40.690  29.274  29.669  1.00  0.00     0.049 A 
ATOM     46  N   UNL A   1      43.063  31.080  29.224  1.00  0.00    -0.248 NA
ATOM     47  C   UNL A   1      42.013  32.690  30.552  1.00  0.00     0.031 C 
ATOM     48  C   UNL A   1      39.571  28.354  29.863  1.00  0.00     0.029 A 
ATOM     49  N   UNL A   1      41.582  28.567  28.900  1.00  0.00    -0.354 N 
ATOM     50  C   UNL A   1      43.881  32.197  29.328  1.00  0.00     0.074 A 
ATOM     51  C   UNL A   1      43.178  33.167  30.138  1.00  0.00     0.031 C 
ATOM     52  C   UNL A   1      39.837  27.205  29.214  1.00  0.00     0.029 A 
ATOM     53  C   UNL A   1      41.122  27.327  28.529  1.00  0.00     0.049 A 
ATOM     54  H   UNL A   1      42.464  28.915  28.640  1.00  0.00     0.167 HD
ATOM     55  C   UNL A   1      45.109  32.395  28.796  1.00  0.00     0.031 A 
ATOM     56  C   UNL A   1      41.663  26.412  27.701  1.00  0.00     0.031 A 
ATOM     57  C   UNL A   1      45.801  31.439  27.976  1.00  0.00     0.049 A 
ATOM     58  C   UNL A   1      42.989  26.702  27.046  1.00  0.00     0.074 A 
ATOM     59  C   UNL A   1      47.060  31.542  27.411  1.00  0.00     0.029 A 
ATOM     60  N   UNL A   1      45.287  30.211  27.591  1.00  0.00    -0.354 N 
ATOM     61  N   UNL A   1      43.777  27.741  27.190  1.00  0.00    -0.248 NA
ATOM     62  C   UNL A   1      43.503  25.688  26.111  1.00  0.00     0.031 C 
ATOM     63  C   UNL A   1      47.281  30.405  26.629  1.00  0.00     0.029 A 
ATOM     64  C   UNL A   1      46.188  29.564  26.762  1.00  0.00     0.049 A 
ATOM     65  H   UNL A   1      44.412  29.852  27.867  1.00  0.00     0.167 HD
ATOM     66  C   UNL A   1      44.884  27.493  26.385  1.00  0.00     0.074 A 
ATOM     67  C   UNL A   1      44.680  26.196  25.777  1.00  0.00     0.031 C 
ATOM     68  C   UNL A   1      45.971  28.273  26.165  1.00  0.00     0.031 A 
BRANCH  55  69
ATOM     69  C   UNL A   1      45.774  33.718  29.048  1.00  0.00    -0.014 A 
ATOM     70  C   UNL A   1      46.639  33.906  30.137  1.00  0.00     0.009 A 
ATOM     71  C   UNL A   1      45.580  34.774  28.142  1.00  0.00     0.009 A 
ATOM     72  C   UNL A   1      47.284  35.130  30.322  1.00  0.00     0.001 A 
ATOM     73  C   UNL A   1      46.246  35.988  28.316  1.00  0.00     0.001 A 
ATOM     74  C   UNL A   1      47.093  36.166  29.408  1.00  0.00     0.000 A 
ENDBRANCH  55  69
BRANCH  56  75
ATOM     75  C   UNL A   1      40.937  25.150  27.389  1.00  0.00    -0.014 A 
ATOM     76  C   UNL A   1      39.926  25.124  26.416  1.00  0.00     0.009 A 
ATOM     77  C   UNL A   1      41.211  23.977  28.110  1.00  0.00     0.009 A 
ATOM     78  C   UNL A   1      39.180  23.962  26.199  1.00  0.00     0.001 A 
ATOM     79  C   UNL A   1      40.488  22.808  27.867  1.00  0.00     0.001 A 
ATOM     80  C   UNL A   1      39.464  22.805  26.924  1.00  0.00     0.000 A 
ENDBRANCH  56  75
BRANCH  68  81
ATOM     81  C   UNL A   1      47.039  27.731  25.254  1.00  0.00    -0.014 A 
ATOM     82  C   UNL A   1      48.027  26.856  25.729  1.00  0.00     0.009 A 
ATOM     83  C   UNL A   1      47.026  28.065  23.890  1.00  0.00     0.009 A 
ATOM     84  C   UNL A   1      49.002  26.354  24.864  1.00  0.00     0.001 A 
ATOM     85  C   UNL A   1      47.981  27.537  23.021  1.00  0.00     0.001 A 
ATOM     86  C   UNL A   1      48.974  26.690  23.511  1.00  0.00     0.000 A 
ENDBRANCH  68  81
ENDBRANCH  42  43
ENDBRANCH  35  37
ENDBRANCH  34  35
ENDBRANCH  33  34
ENDBRANCH  32  33
ENDBRANCH  31  32
ENDBRANCH  30  31
ENDBRANCH  29  30
ENDBRANCH  28  29
ENDBRANCH   1  28
TORSDOF 23
ENDMDL
MODEL 3
REMARK VINA RESULT:      -9.2      4.712     10.294
REMARK SMILES C[C@H](CNC(=O)N1C[C@H]2CCCC[N@@H+]2C[C@@H]1C)C(=O)OCCOCCOCCOCCOC(=O)c1ccc(-c2c3nc(c(-c4ccccc4)c4ccc([nH]4)c(-c4ccccc4)c4nc(c(-c5ccccc5)c5ccc2[nH]5)C=C4)C=C3)cc1
REMARK SMILES IDX 25 1 24 2 23 3 22 4 21 5 20 6 18 7 19 8 2 9 1 10 3 11 4 12
REMARK SMILES IDX 5 13 6 15 7 16 8 17 16 18 9 19 15 20 17 21 10 22 14 23 11 24
REMARK SMILES IDX 13 25 12 27 26 28 27 29 28 30 29 31 30 32 31 33 32 34 33 35
REMARK SMILES IDX 34 36 35 37 36 38 82 39 37 40 81 41 38 42 39 43 40 44 75 45
REMARK SMILES IDX 41 46 80 47 74 48 76 49 42 50 79 51 73 52 72 53 43 55 65 56
REMARK SMILES IDX 50 57 64 58 51 59 54 60 63 61 77 62 52 63 53 64 62 66 78 67
REMARK SMILES IDX 55 68 44 69 45 70 49 71 46 72 48 73 47 74 66 75 67 76 71 77
REMARK SMILES IDX 68 78 70 79 69 80 56 81 57 82 61 83 58 84 60 85 59 86
REMARK H PARENT 4 14 14 26 76 54 54 65
REMARK Flexibility Score: inf
ROOT
ATOM      1  C   UNL A   1      35.255  31.391  27.772  1.00  0.00     0.188 C 
ENDROOT
BRANCH   1   2
ATOM      2  C   UNL A   1      35.557  29.895  27.636  1.00  0.00     0.188 C 
BRANCH   2   3
ATOM      3  O   UNL A   1      34.380  29.109  27.628  1.00  0.00    -0.376 OA
BRANCH   3   4
ATOM      4  C   UNL A   1      33.688  28.967  26.398  1.00  0.00     0.202 C 
BRANCH   4   5
ATOM      5  C   UNL A   1      32.153  29.074  26.377  1.00  0.00     0.261 C 
BRANCH   5   6
ATOM      6  O   UNL A   1      31.509  28.863  25.112  1.00  0.00    -0.463 OA
BRANCH   6   7
ATOM      7  C   UNL A   1      30.728  27.770  25.009  1.00  0.00     0.310 C 
ATOM      8  O   UNL A   1      30.658  26.896  25.869  1.00  0.00    -0.252 OA
BRANCH   7   9
ATOM      9  C   UNL A   1      29.934  27.700  23.719  1.00  0.00     0.115 C 
ATOM     10  C   UNL A   1      28.789  26.708  23.905  1.00  0.00     0.022 C 
BRANCH   9  11
ATOM     11  C   UNL A   1      30.642  27.488  22.378  1.00  0.00     0.132 C 
BRANCH  11  12
ATOM     12  N   UNL A   1      31.912  28.131  22.122  1.00  0.00    -0.337 N 
ATOM     13  C   UNL A   1      33.173  27.618  22.253  1.00  0.00     0.318 C 
ATOM     14  H   UNL A   1      31.862  29.064  21.812  1.00  0.00     0.165 HD
ATOM     15  O   UNL A   1      34.154  28.342  22.116  1.00  0.00    -0.249 OA
BRANCH  13  16
ATOM     16  N   UNL A   1      33.247  26.304  22.640  1.00  0.00    -0.311 N 
ATOM     17  C   UNL A   1      33.445  25.964  24.050  1.00  0.00     0.186 C 
ATOM     18  C   UNL A   1      32.672  25.217  21.842  1.00  0.00     0.139 C 
ATOM     19  C   UNL A   1      34.425  24.784  24.151  1.00  0.00     0.203 C 
ATOM     20  C   UNL A   1      33.490  23.899  22.069  1.00  0.00     0.287 C 
ATOM     21  C   UNL A   1      32.688  25.516  20.335  1.00  0.00     0.037 C 
ATOM     22  C   UNL A   1      34.789  24.466  25.604  1.00  0.00     0.067 C 
ATOM     23  N   UNL A   1      33.924  23.577  23.457  1.00  0.00    -0.329 N 
ATOM     24  C   UNL A   1      35.912  23.432  25.623  1.00  0.00     0.012 C 
ATOM     25  C   UNL A   1      35.006  22.571  23.406  1.00  0.00     0.262 C 
ATOM     26  H   UNL A   1      33.119  23.214  23.969  1.00  0.00     0.348 HD
ATOM     27  C   UNL A   1      35.531  22.205  24.798  1.00  0.00     0.062 C 
ENDBRANCH  13  16
ENDBRANCH  11  12
ENDBRANCH   9  11
ENDBRANCH   7   9
ENDBRANCH   6   7
ENDBRANCH   5   6
ENDBRANCH   4   5
ENDBRANCH   3   4
ENDBRANCH   2   3
ENDBRANCH   1   2
BRANCH   1  28
ATOM     28  O   UNL A   1      35.076  31.903  29.084  1.00  0.00    -0.377 OA
BRANCH  28  29
ATOM     29  C   UNL A   1      35.166  33.316  29.287  1.00  0.00     0.188 C 
BRANCH  29  30
ATOM     30  C   UNL A   1      34.673  34.328  28.223  1.00  0.00     0.188 C 
BRANCH  30  31
ATOM     31  O   UNL A   1      34.379  35.631  28.696  1.00  0.00    -0.376 OA
BRANCH  31  32
ATOM     32  C   UNL A   1      33.050  35.879  29.136  1.00  0.00     0.202 C 
BRANCH  32  33
ATOM     33  C   UNL A   1      32.881  36.985  30.187  1.00  0.00     0.261 C 
BRANCH  33  34
ATOM     34  O   UNL A   1      33.486  36.718  31.464  1.00  0.00    -0.460 OA
BRANCH  34  35
ATOM     35  C   UNL A   1      33.036  35.657  32.166  1.00  0.00     0.338 C 
ATOM     36  O   UNL A   1      31.884  35.283  32.299  1.00  0.00    -0.246 OA
BRANCH  35  37
ATOM     37  C   UNL A   1      34.217  34.891  32.605  1.00  0.00     0.060 A 
ATOM     38  C   UNL A   1      35.494  35.422  32.389  1.00  0.00     0.016 A 
ATOM     39  C   UNL A   1      34.055  33.663  33.247  1.00  0.00     0.016 A 
ATOM     40  C   UNL A   1      36.620  34.716  32.809  1.00  0.00     0.010 A 
ATOM     41  C   UNL A   1      35.183  32.945  33.643  1.00  0.00     0.010 A 
ATOM     42  C   UNL A   1      36.471  33.459  33.410  1.00  0.00    -0.014 A 
BRANCH  42  43
ATOM     43  C   UNL A   1      37.660  32.614  33.664  1.00  0.00     0.031 A 
ATOM     44  C   UNL A   1      38.459  32.854  34.914  1.00  0.00     0.074 A 
ATOM     45  C   UNL A   1      38.026  31.652  32.798  1.00  0.00     0.049 A 
ATOM     46  N   UNL A   1      39.568  32.284  35.310  1.00  0.00    -0.248 NA
ATOM     47  C   UNL A   1      37.939  33.873  35.841  1.00  0.00     0.031 C 
ATOM     48  C   UNL A   1      37.311  31.298  31.573  1.00  0.00     0.029 A 
ATOM     49  N   UNL A   1      39.106  30.805  32.818  1.00  0.00    -0.354 N 
ATOM     50  C   UNL A   1      39.883  32.880  36.524  1.00  0.00     0.074 A 
ATOM     51  C   UNL A   1      38.860  33.866  36.794  1.00  0.00     0.031 C 
ATOM     52  C   UNL A   1      37.983  30.314  30.948  1.00  0.00     0.029 A 
ATOM     53  C   UNL A   1      39.192  30.001  31.707  1.00  0.00     0.049 A 
ATOM     54  H   UNL A   1      39.756  30.777  33.555  1.00  0.00     0.167 HD
ATOM     55  C   UNL A   1      40.932  32.627  37.340  1.00  0.00     0.031 A 
ATOM     56  C   UNL A   1      40.156  29.137  31.333  1.00  0.00     0.031 A 
ATOM     57  C   UNL A   1      41.959  31.659  37.064  1.00  0.00     0.049 A 
ATOM     58  C   UNL A   1      41.361  28.947  32.217  1.00  0.00     0.074 A 
ATOM     59  C   UNL A   1      43.049  31.316  37.845  1.00  0.00     0.029 A 
ATOM     60  N   UNL A   1      42.032  30.892  35.913  1.00  0.00    -0.354 N 
ATOM     61  N   UNL A   1      41.626  29.480  33.387  1.00  0.00    -0.248 NA
ATOM     62  C   UNL A   1      42.405  28.032  31.728  1.00  0.00     0.031 C 
ATOM     63  C   UNL A   1      43.818  30.390  37.136  1.00  0.00     0.029 A 
ATOM     64  C   UNL A   1      43.171  30.107  35.944  1.00  0.00     0.049 A 
ATOM     65  H   UNL A   1      41.371  30.905  35.182  1.00  0.00     0.167 HD
ATOM     66  C   UNL A   1      42.849  28.947  33.780  1.00  0.00     0.074 A 
ATOM     67  C   UNL A   1      43.262  28.030  32.739  1.00  0.00     0.031 C 
ATOM     68  C   UNL A   1      43.568  29.198  34.901  1.00  0.00     0.031 A 
BRANCH  55  69
ATOM     69  C   UNL A   1      41.049  33.439  38.599  1.00  0.00    -0.014 A 
ATOM     70  C   UNL A   1      40.466  33.011  39.802  1.00  0.00     0.009 A 
ATOM     71  C   UNL A   1      41.811  34.619  38.592  1.00  0.00     0.009 A 
ATOM     72  C   UNL A   1      40.631  33.758  40.970  1.00  0.00     0.001 A 
ATOM     73  C   UNL A   1      41.995  35.349  39.767  1.00  0.00     0.001 A 
ATOM     74  C   UNL A   1      41.401  34.921  40.953  1.00  0.00     0.000 A 
ENDBRANCH  55  69
BRANCH  56  75
ATOM     75  C   UNL A   1      40.064  28.418  30.032  1.00  0.00    -0.014 A 
ATOM     76  C   UNL A   1      40.528  29.012  28.848  1.00  0.00     0.009 A 
ATOM     77  C   UNL A   1      39.454  27.156  29.961  1.00  0.00     0.009 A 
ATOM     78  C   UNL A   1      40.348  28.374  27.617  1.00  0.00     0.001 A 
ATOM     79  C   UNL A   1      39.306  26.506  28.734  1.00  0.00     0.001 A 
ATOM     80  C   UNL A   1      39.739  27.121  27.562  1.00  0.00     0.000 A 
ENDBRANCH  56  75
BRANCH  68  81
ATOM     81  C   UNL A   1      44.860  28.448  35.077  1.00  0.00    -0.014 A 
ATOM     82  C   UNL A   1      46.083  28.995  34.660  1.00  0.00     0.009 A 
ATOM     83  C   UNL A   1      44.858  27.194  35.710  1.00  0.00     0.009 A 
ATOM     84  C   UNL A   1      47.273  28.287  34.843  1.00  0.00     0.001 A 
ATOM     85  C   UNL A   1      46.051  26.504  35.922  1.00  0.00     0.001 A 
ATOM     86  C   UNL A   1      47.256  27.045  35.479  1.00  0.00     0.000 A 
ENDBRANCH  68  81
ENDBRANCH  42  43
ENDBRANCH  35  37
ENDBRANCH  34  35
ENDBRANCH  33  34
ENDBRANCH  32  33
ENDBRANCH  31  32
ENDBRANCH  30  31
ENDBRANCH  29  30
ENDBRANCH  28  29
ENDBRANCH   1  28
TORSDOF 23
ENDMDL
