MODEL 1
REMARK VINA RESULT:     -10.0      0.000      0.000
REMARK SMILES CS(=O)(=O)c1ccc(/C=C(/C(=O)OCCOCCOCCOCCOC(=O)c2ccc(-c3c4nc(c(-c5ccccc5)c5ccc([nH]5)c(-c5ccccc5)c5nc(c(-c6ccccc6)c6ccc3[nH]6)C=C5)C=C4)cc2)c2cccc(Br)c2)cc1
REMARK SMILES IDX 19 1 18 2 17 3 16 4 15 5 14 6 13 7 11 8 12 9 10 10 9 11 8 12
REMARK SMILES IDX 5 13 6 14 84 15 7 16 83 17 2 18 1 19 3 20 4 21 76 22 77 23
REMARK SMILES IDX 82 24 78 25 80 26 79 27 81 28 20 29 21 30 22 31 23 32 24 33
REMARK SMILES IDX 25 34 26 35 27 36 28 37 29 38 75 39 30 40 74 41 31 42 32 43
REMARK SMILES IDX 33 44 68 45 34 46 73 47 67 48 69 49 35 50 72 51 66 52 65 53
REMARK SMILES IDX 36 55 58 56 43 57 57 58 44 59 47 60 56 61 70 62 45 63 46 64
REMARK SMILES IDX 55 66 71 67 48 68 37 69 38 70 42 71 39 72 41 73 40 74 59 75
REMARK SMILES IDX 60 76 64 77 61 78 63 79 62 80 49 81 50 82 54 83 51 84 53 85
REMARK SMILES IDX 52 86
REMARK H PARENT 69 54 47 65
REMARK Flexibility Score: inf
ROOT
ATOM      1  O   UNL A   1      42.305  21.841  27.378  1.00  0.00    -0.377 OA
ENDROOT
BRANCH   1   2
ATOM      2  C   UNL A   1      40.976  21.426  27.643  1.00  0.00     0.188 C 
BRANCH   2   3
ATOM      3  C   UNL A   1      40.091  20.953  26.467  1.00  0.00     0.188 C 
BRANCH   3   4
ATOM      4  O   UNL A   1      39.494  22.009  25.732  1.00  0.00    -0.376 OA
BRANCH   4   5
ATOM      5  C   UNL A   1      38.077  22.069  25.739  1.00  0.00     0.202 C 
BRANCH   5   6
ATOM      6  C   UNL A   1      37.344  21.172  24.729  1.00  0.00     0.261 C 
BRANCH   6   7
ATOM      7  O   UNL A   1      36.033  21.615  24.340  1.00  0.00    -0.460 OA
BRANCH   7   8
ATOM      8  C   UNL A   1      35.956  22.761  23.623  1.00  0.00     0.338 C 
ATOM      9  O   UNL A   1      36.639  23.023  22.644  1.00  0.00    -0.246 OA
BRANCH   8  10
ATOM     10  C   UNL A   1      34.813  23.616  24.100  1.00  0.00     0.067 C 
ATOM     11  C   UNL A   1      34.463  24.712  23.381  1.00  0.00     0.024 C 
BRANCH  11  12
ATOM     12  C   UNL A   1      33.262  25.570  23.530  1.00  0.00    -0.025 A 
ATOM     13  C   UNL A   1      31.318  27.587  23.426  1.00  0.00     0.067 A 
ATOM     14  C   UNL A   1      31.099  26.377  22.770  1.00  0.00     0.021 A 
ATOM     15  C   UNL A   1      32.426  27.744  24.258  1.00  0.00     0.021 A 
ATOM     16  C   UNL A   1      32.052  25.361  22.859  1.00  0.00     0.009 A 
ATOM     17  C   UNL A   1      33.390  26.731  24.310  1.00  0.00     0.009 A 
BRANCH  13  18
ATOM     18  S   UNL A   1      30.225  28.942  23.077  1.00  0.00     0.175 S 
ATOM     19  C   UNL A   1      28.580  28.298  23.150  1.00  0.00     0.163 C 
ATOM     20  O   UNL A   1      30.465  29.340  21.703  1.00  0.00    -0.224 OA
ATOM     21  O   UNL A   1      30.384  29.883  24.170  1.00  0.00    -0.224 OA
ENDBRANCH  13  18
ENDBRANCH  11  12
BRANCH  10  22
ATOM     22  C   UNL A   1      34.113  23.191  25.333  1.00  0.00    -0.010 A 
ATOM     23  C   UNL A   1      34.828  23.070  26.540  1.00  0.00     0.009 A 
ATOM     24  C   UNL A   1      32.729  22.999  25.346  1.00  0.00     0.024 A 
ATOM     25  C   UNL A   1      34.180  22.757  27.734  1.00  0.00     0.002 A 
ATOM     26  C   UNL A   1      32.083  22.711  26.551  1.00  0.00     0.018 A 
ATOM     27  C   UNL A   1      32.801  22.583  27.740  1.00  0.00     0.016 A 
ATOM     28  Br  UNL A   1      30.202  22.541  26.579  1.00  0.00    -0.051 Br
ENDBRANCH  10  22
ENDBRANCH   8  10
ENDBRANCH   7   8
ENDBRANCH   6   7
ENDBRANCH   5   6
ENDBRANCH   4   5
ENDBRANCH   3   4
ENDBRANCH   2   3
ENDBRANCH   1   2
BRANCH   1  29
ATOM     29  C   UNL A   1      42.840  21.658  26.071  1.00  0.00     0.188 C 
BRANCH  29  30
ATOM     30  C   UNL A   1      42.882  22.829  25.058  1.00  0.00     0.188 C 
BRANCH  30  31
ATOM     31  O   UNL A   1      43.820  22.672  24.006  1.00  0.00    -0.376 OA
BRANCH  31  32
ATOM     32  C   UNL A   1      45.071  22.084  24.313  1.00  0.00     0.202 C 
BRANCH  32  33
ATOM     33  C   UNL A   1      46.193  23.034  24.754  1.00  0.00     0.261 C 
BRANCH  33  34
ATOM     34  O   UNL A   1      45.817  24.075  25.664  1.00  0.00    -0.460 OA
BRANCH  34  35
ATOM     35  C   UNL A   1      45.954  25.352  25.251  1.00  0.00     0.338 C 
ATOM     36  O   UNL A   1      46.601  25.764  24.303  1.00  0.00    -0.246 OA
BRANCH  35  37
ATOM     37  C   UNL A   1      45.022  26.163  26.058  1.00  0.00     0.060 A 
ATOM     38  C   UNL A   1      44.911  27.542  25.821  1.00  0.00     0.016 A 
ATOM     39  C   UNL A   1      44.230  25.540  27.023  1.00  0.00     0.016 A 
ATOM     40  C   UNL A   1      44.020  28.309  26.575  1.00  0.00     0.010 A 
ATOM     41  C   UNL A   1      43.365  26.310  27.795  1.00  0.00     0.010 A 
ATOM     42  C   UNL A   1      43.282  27.701  27.598  1.00  0.00    -0.014 A 
BRANCH  42  43
ATOM     43  C   UNL A   1      42.620  28.517  28.639  1.00  0.00     0.031 A 
ATOM     44  C   UNL A   1      43.381  28.761  29.913  1.00  0.00     0.074 A 
ATOM     45  C   UNL A   1      41.369  28.984  28.491  1.00  0.00     0.049 A 
ATOM     46  N   UNL A   1      42.975  29.286  31.038  1.00  0.00    -0.248 NA
ATOM     47  C   UNL A   1      44.793  28.337  29.916  1.00  0.00     0.031 C 
ATOM     48  C   UNL A   1      40.551  28.864  27.287  1.00  0.00     0.029 A 
ATOM     49  N   UNL A   1      40.561  29.638  29.387  1.00  0.00    -0.354 N 
ATOM     50  C   UNL A   1      44.071  29.230  31.890  1.00  0.00     0.074 A 
ATOM     51  C   UNL A   1      45.151  28.605  31.161  1.00  0.00     0.031 C 
ATOM     52  C   UNL A   1      39.345  29.408  27.527  1.00  0.00     0.029 A 
ATOM     53  C   UNL A   1      39.292  29.868  28.914  1.00  0.00     0.049 A 
ATOM     54  H   UNL A   1      40.861  29.915  30.283  1.00  0.00     0.167 HD
ATOM     55  C   UNL A   1      44.169  29.661  33.169  1.00  0.00     0.031 A 
ATOM     56  C   UNL A   1      38.207  30.356  29.546  1.00  0.00     0.031 A 
ATOM     57  C   UNL A   1      43.085  30.262  33.895  1.00  0.00     0.049 A 
ATOM     58  C   UNL A   1      38.312  30.748  30.999  1.00  0.00     0.074 A 
ATOM     59  C   UNL A   1      43.079  30.740  35.194  1.00  0.00     0.029 A 
ATOM     60  N   UNL A   1      41.813  30.463  33.385  1.00  0.00    -0.354 N 
ATOM     61  N   UNL A   1      39.353  30.703  31.797  1.00  0.00    -0.248 NA
ATOM     62  C   UNL A   1      37.092  31.260  31.639  1.00  0.00     0.031 C 
ATOM     63  C   UNL A   1      41.784  31.171  35.490  1.00  0.00     0.029 A 
ATOM     64  C   UNL A   1      41.004  31.035  34.351  1.00  0.00     0.049 A 
ATOM     65  H   UNL A   1      41.526  30.232  32.472  1.00  0.00     0.167 HD
ATOM     66  C   UNL A   1      38.924  31.221  33.014  1.00  0.00     0.074 A 
ATOM     67  C   UNL A   1      37.530  31.575  32.849  1.00  0.00     0.031 C 
ATOM     68  C   UNL A   1      39.623  31.396  34.162  1.00  0.00     0.031 A 
BRANCH  55  69
ATOM     69  C   UNL A   1      45.479  29.445  33.872  1.00  0.00    -0.014 A 
ATOM     70  C   UNL A   1      46.530  30.370  33.766  1.00  0.00     0.009 A 
ATOM     71  C   UNL A   1      45.658  28.303  34.667  1.00  0.00     0.009 A 
ATOM     72  C   UNL A   1      47.746  30.136  34.413  1.00  0.00     0.001 A 
ATOM     73  C   UNL A   1      46.862  28.088  35.341  1.00  0.00     0.001 A 
ATOM     74  C   UNL A   1      47.907  29.000  35.204  1.00  0.00     0.000 A 
ENDBRANCH  55  69
BRANCH  56  75
ATOM     75  C   UNL A   1      36.912  30.482  28.825  1.00  0.00    -0.014 A 
ATOM     76  C   UNL A   1      36.169  29.340  28.486  1.00  0.00     0.009 A 
ATOM     77  C   UNL A   1      36.425  31.742  28.444  1.00  0.00     0.009 A 
ATOM     78  C   UNL A   1      34.983  29.456  27.757  1.00  0.00     0.001 A 
ATOM     79  C   UNL A   1      35.223  31.857  27.742  1.00  0.00     0.001 A 
ATOM     80  C   UNL A   1      34.508  30.714  27.389  1.00  0.00     0.000 A 
ENDBRANCH  56  75
BRANCH  68  81
ATOM     81  C   UNL A   1      38.922  32.064  35.314  1.00  0.00    -0.014 A 
ATOM     82  C   UNL A   1      38.352  31.327  36.361  1.00  0.00     0.009 A 
ATOM     83  C   UNL A   1      38.902  33.468  35.381  1.00  0.00     0.009 A 
ATOM     84  C   UNL A   1      37.751  31.982  37.439  1.00  0.00     0.001 A 
ATOM     85  C   UNL A   1      38.331  34.120  36.474  1.00  0.00     0.001 A 
ATOM     86  C   UNL A   1      37.748  33.376  37.498  1.00  0.00     0.000 A 
ENDBRANCH  68  81
ENDBRANCH  42  43
ENDBRANCH  35  37
ENDBRANCH  34  35
ENDBRANCH  33  34
ENDBRANCH  32  33
ENDBRANCH  31  32
ENDBRANCH  30  31
ENDBRANCH  29  30
ENDBRANCH   1  29
TORSDOF 23
ENDMDL
MODEL 2
REMARK VINA RESULT:      -9.7      1.699      6.014
REMARK SMILES CS(=O)(=O)c1ccc(/C=C(/C(=O)OCCOCCOCCOCCOC(=O)c2ccc(-c3c4nc(c(-c5ccccc5)c5ccc([nH]5)c(-c5ccccc5)c5nc(c(-c6ccccc6)c6ccc3[nH]6)C=C5)C=C4)cc2)c2cccc(Br)c2)cc1
REMARK SMILES IDX 19 1 18 2 17 3 16 4 15 5 14 6 13 7 11 8 12 9 10 10 9 11 8 12
REMARK SMILES IDX 5 13 6 14 84 15 7 16 83 17 2 18 1 19 3 20 4 21 76 22 77 23
REMARK SMILES IDX 82 24 78 25 80 26 79 27 81 28 20 29 21 30 22 31 23 32 24 33
REMARK SMILES IDX 25 34 26 35 27 36 28 37 29 38 75 39 30 40 74 41 31 42 32 43
REMARK SMILES IDX 33 44 68 45 34 46 73 47 67 48 69 49 35 50 72 51 66 52 65 53
REMARK SMILES IDX 36 55 58 56 43 57 57 58 44 59 47 60 56 61 70 62 45 63 46 64
REMARK SMILES IDX 55 66 71 67 48 68 37 69 38 70 42 71 39 72 41 73 40 74 59 75
REMARK SMILES IDX 60 76 64 77 61 78 63 79 62 80 49 81 50 82 54 83 51 84 53 85
REMARK SMILES IDX 52 86
REMARK H PARENT 69 54 47 65
REMARK Flexibility Score: inf
ROOT
ATOM      1  O   UNL A   1      40.356  22.801  26.362  1.00  0.00    -0.377 OA
ENDROOT
BRANCH   1   2
ATOM      2  C   UNL A   1      39.480  23.610  27.130  1.00  0.00     0.188 C 
BRANCH   2   3
ATOM      3  C   UNL A   1      38.155  24.089  26.496  1.00  0.00     0.188 C 
BRANCH   3   4
ATOM      4  O   UNL A   1      37.724  23.303  25.395  1.00  0.00    -0.376 OA
BRANCH   4   5
ATOM      5  C   UNL A   1      37.146  22.044  25.698  1.00  0.00     0.202 C 
BRANCH   5   6
ATOM      6  C   UNL A   1      35.612  21.989  25.770  1.00  0.00     0.261 C 
BRANCH   6   7
ATOM      7  O   UNL A   1      35.008  22.786  26.802  1.00  0.00    -0.460 OA
BRANCH   7   8
ATOM      8  C   UNL A   1      33.706  22.544  27.088  1.00  0.00     0.338 C 
ATOM      9  O   UNL A   1      33.309  21.823  27.991  1.00  0.00    -0.246 OA
BRANCH   8  10
ATOM     10  C   UNL A   1      32.804  23.397  26.237  1.00  0.00     0.067 C 
ATOM     11  C   UNL A   1      32.097  24.397  26.822  1.00  0.00     0.024 C 
BRANCH  11  12
ATOM     12  C   UNL A   1      31.323  25.482  26.172  1.00  0.00    -0.025 A 
ATOM     13  C   UNL A   1      30.292  27.459  24.472  1.00  0.00     0.067 A 
ATOM     14  C   UNL A   1      29.594  26.267  24.654  1.00  0.00     0.021 A 
ATOM     15  C   UNL A   1      31.419  27.739  25.245  1.00  0.00     0.021 A 
ATOM     16  C   UNL A   1      30.091  25.303  25.533  1.00  0.00     0.009 A 
ATOM     17  C   UNL A   1      31.925  26.750  26.096  1.00  0.00     0.009 A 
BRANCH  13  18
ATOM     18  S   UNL A   1      29.782  28.540  23.159  1.00  0.00     0.175 S 
ATOM     19  C   UNL A   1      28.021  28.422  23.061  1.00  0.00     0.163 C 
ATOM     20  O   UNL A   1      30.314  27.994  21.925  1.00  0.00    -0.224 OA
ATOM     21  O   UNL A   1      30.115  29.885  23.589  1.00  0.00    -0.224 OA
ENDBRANCH  13  18
ENDBRANCH  11  12
BRANCH  10  22
ATOM     22  C   UNL A   1      32.758  23.104  24.788  1.00  0.00    -0.010 A 
ATOM     23  C   UNL A   1      32.431  21.809  24.343  1.00  0.00     0.009 A 
ATOM     24  C   UNL A   1      32.938  24.116  23.842  1.00  0.00     0.024 A 
ATOM     25  C   UNL A   1      32.294  21.525  22.985  1.00  0.00     0.002 A 
ATOM     26  C   UNL A   1      32.774  23.831  22.484  1.00  0.00     0.018 A 
ATOM     27  C   UNL A   1      32.460  22.542  22.052  1.00  0.00     0.016 A 
ATOM     28  Br  UNL A   1      32.931  25.223  21.216  1.00  0.00    -0.051 Br
ENDBRANCH  10  22
ENDBRANCH   8  10
ENDBRANCH   7   8
ENDBRANCH   6   7
ENDBRANCH   5   6
ENDBRANCH   4   5
ENDBRANCH   3   4
ENDBRANCH   2   3
ENDBRANCH   1   2
BRANCH   1  29
ATOM     29  C   UNL A   1      41.136  21.807  27.019  1.00  0.00     0.188 C 
BRANCH  29  30
ATOM     30  C   UNL A   1      42.126  20.920  26.225  1.00  0.00     0.188 C 
BRANCH  30  31
ATOM     31  O   UNL A   1      43.465  21.387  26.212  1.00  0.00    -0.376 OA
BRANCH  31  32
ATOM     32  C   UNL A   1      43.974  21.912  25.000  1.00  0.00     0.202 C 
BRANCH  32  33
ATOM     33  C   UNL A   1      43.533  23.331  24.620  1.00  0.00     0.261 C 
BRANCH  33  34
ATOM     34  O   UNL A   1      44.519  24.360  24.772  1.00  0.00    -0.460 OA
BRANCH  34  35
ATOM     35  C   UNL A   1      45.196  24.416  25.938  1.00  0.00     0.338 C 
ATOM     36  O   UNL A   1      46.337  24.048  26.156  1.00  0.00    -0.246 OA
BRANCH  35  37
ATOM     37  C   UNL A   1      44.356  25.178  26.883  1.00  0.00     0.060 A 
ATOM     38  C   UNL A   1      44.445  26.578  26.924  1.00  0.00     0.016 A 
ATOM     39  C   UNL A   1      43.451  24.497  27.699  1.00  0.00     0.016 A 
ATOM     40  C   UNL A   1      43.642  27.301  27.808  1.00  0.00     0.010 A 
ATOM     41  C   UNL A   1      42.673  25.217  28.600  1.00  0.00     0.010 A 
ATOM     42  C   UNL A   1      42.791  26.617  28.684  1.00  0.00    -0.014 A 
BRANCH  42  43
ATOM     43  C   UNL A   1      42.211  27.300  29.861  1.00  0.00     0.031 A 
ATOM     44  C   UNL A   1      40.900  28.011  29.670  1.00  0.00     0.074 A 
ATOM     45  C   UNL A   1      42.842  27.339  31.046  1.00  0.00     0.049 A 
ATOM     46  N   UNL A   1      40.268  28.823  30.475  1.00  0.00    -0.248 NA
ATOM     47  C   UNL A   1      40.219  27.783  28.382  1.00  0.00     0.031 C 
ATOM     48  C   UNL A   1      44.085  26.645  31.372  1.00  0.00     0.029 A 
ATOM     49  N   UNL A   1      42.523  28.023  32.192  1.00  0.00    -0.354 N 
ATOM     50  C   UNL A   1      39.131  29.222  29.782  1.00  0.00     0.074 A 
ATOM     51  C   UNL A   1      39.170  28.582  28.487  1.00  0.00     0.031 C 
ATOM     52  C   UNL A   1      44.436  26.956  32.633  1.00  0.00     0.029 A 
ATOM     53  C   UNL A   1      43.471  27.909  33.180  1.00  0.00     0.049 A 
ATOM     54  H   UNL A   1      41.695  28.545  32.297  1.00  0.00     0.167 HD
ATOM     55  C   UNL A   1      38.144  30.052  30.188  1.00  0.00     0.031 A 
ATOM     56  C   UNL A   1      43.561  28.534  34.370  1.00  0.00     0.031 A 
ATOM     57  C   UNL A   1      38.121  30.703  31.468  1.00  0.00     0.049 A 
ATOM     58  C   UNL A   1      42.495  29.524  34.767  1.00  0.00     0.074 A 
ATOM     59  C   UNL A   1      37.163  31.558  31.983  1.00  0.00     0.029 A 
ATOM     60  N   UNL A   1      39.107  30.572  32.433  1.00  0.00    -0.354 N 
ATOM     61  N   UNL A   1      41.418  29.890  34.113  1.00  0.00    -0.248 NA
ATOM     62  C   UNL A   1      42.656  30.186  36.070  1.00  0.00     0.031 C 
ATOM     63  C   UNL A   1      37.603  31.996  33.235  1.00  0.00     0.029 A 
ATOM     64  C   UNL A   1      38.795  31.352  33.532  1.00  0.00     0.049 A 
ATOM     65  H   UNL A   1      39.911  30.010  32.349  1.00  0.00     0.167 HD
ATOM     66  C   UNL A   1      40.755  30.788  34.942  1.00  0.00     0.074 A 
ATOM     67  C   UNL A   1      41.549  30.910  36.147  1.00  0.00     0.031 C 
ATOM     68  C   UNL A   1      39.588  31.446  34.730  1.00  0.00     0.031 A 
BRANCH  55  69
ATOM     69  C   UNL A   1      37.038  30.338  29.212  1.00  0.00    -0.014 A 
ATOM     70  C   UNL A   1      36.196  29.319  28.737  1.00  0.00     0.009 A 
ATOM     71  C   UNL A   1      36.823  31.653  28.773  1.00  0.00     0.009 A 
ATOM     72  C   UNL A   1      35.188  29.607  27.814  1.00  0.00     0.001 A 
ATOM     73  C   UNL A   1      35.793  31.944  27.878  1.00  0.00     0.001 A 
ATOM     74  C   UNL A   1      34.984  30.919  27.391  1.00  0.00     0.000 A 
ENDBRANCH  55  69
BRANCH  56  75
ATOM     75  C   UNL A   1      44.717  28.271  35.269  1.00  0.00    -0.014 A 
ATOM     76  C   UNL A   1      45.929  28.957  35.095  1.00  0.00     0.009 A 
ATOM     77  C   UNL A   1      44.625  27.309  36.289  1.00  0.00     0.009 A 
ATOM     78  C   UNL A   1      47.031  28.665  35.904  1.00  0.00     0.001 A 
ATOM     79  C   UNL A   1      45.718  27.043  37.115  1.00  0.00     0.001 A 
ATOM     80  C   UNL A   1      46.924  27.712  36.915  1.00  0.00     0.000 A 
ENDBRANCH  56  75
BRANCH  68  81
ATOM     81  C   UNL A   1      39.054  32.302  35.846  1.00  0.00    -0.014 A 
ATOM     82  C   UNL A   1      38.240  31.774  36.857  1.00  0.00     0.009 A 
ATOM     83  C   UNL A   1      39.441  33.652  35.918  1.00  0.00     0.009 A 
ATOM     84  C   UNL A   1      37.800  32.588  37.905  1.00  0.00     0.001 A 
ATOM     85  C   UNL A   1      39.029  34.453  36.983  1.00  0.00     0.001 A 
ATOM     86  C   UNL A   1      38.202  33.923  37.971  1.00  0.00     0.000 A 
ENDBRANCH  68  81
ENDBRANCH  42  43
ENDBRANCH  35  37
ENDBRANCH  34  35
ENDBRANCH  33  34
ENDBRANCH  32  33
ENDBRANCH  31  32
ENDBRANCH  30  31
ENDBRANCH  29  30
ENDBRANCH   1  29
TORSDOF 23
ENDMDL
MODEL 3
REMARK VINA RESULT:      -9.6      5.101      9.901
REMARK SMILES CS(=O)(=O)c1ccc(/C=C(/C(=O)OCCOCCOCCOCCOC(=O)c2ccc(-c3c4nc(c(-c5ccccc5)c5ccc([nH]5)c(-c5ccccc5)c5nc(c(-c6ccccc6)c6ccc3[nH]6)C=C5)C=C4)cc2)c2cccc(Br)c2)cc1
REMARK SMILES IDX 19 1 18 2 17 3 16 4 15 5 14 6 13 7 11 8 12 9 10 10 9 11 8 12
REMARK SMILES IDX 5 13 6 14 84 15 7 16 83 17 2 18 1 19 3 20 4 21 76 22 77 23
REMARK SMILES IDX 82 24 78 25 80 26 79 27 81 28 20 29 21 30 22 31 23 32 24 33
REMARK SMILES IDX 25 34 26 35 27 36 28 37 29 38 75 39 30 40 74 41 31 42 32 43
REMARK SMILES IDX 33 44 68 45 34 46 73 47 67 48 69 49 35 50 72 51 66 52 65 53
REMARK SMILES IDX 36 55 58 56 43 57 57 58 44 59 47 60 56 61 70 62 45 63 46 64
REMARK SMILES IDX 55 66 71 67 48 68 37 69 38 70 42 71 39 72 41 73 40 74 59 75
REMARK SMILES IDX 60 76 64 77 61 78 63 79 62 80 49 81 50 82 54 83 51 84 53 85
REMARK SMILES IDX 52 86
REMARK H PARENT 69 54 47 65
REMARK Flexibility Score: inf
ROOT
ATOM      1  O   UNL A   1      44.930  21.422  34.454  1.00  0.00    -0.377 OA
ENDROOT
BRANCH   1   2
ATOM      2  C   UNL A   1      44.167  22.604  34.633  1.00  0.00     0.188 C 
BRANCH   2   3
ATOM      3  C   UNL A   1      44.185  23.680  33.524  1.00  0.00     0.188 C 
BRANCH   3   4
ATOM      4  O   UNL A   1      45.476  23.949  33.000  1.00  0.00    -0.376 OA
BRANCH   4   5
ATOM      5  C   UNL A   1      46.239  24.942  33.665  1.00  0.00     0.202 C 
BRANCH   5   6
ATOM      6  C   UNL A   1      46.957  25.970  32.777  1.00  0.00     0.261 C 
BRANCH   6   7
ATOM      7  O   UNL A   1      46.205  26.454  31.652  1.00  0.00    -0.460 OA
BRANCH   7   8
ATOM      8  C   UNL A   1      46.834  26.479  30.453  1.00  0.00     0.338 C 
ATOM      9  O   UNL A   1      47.987  26.843  30.273  1.00  0.00    -0.246 OA
BRANCH   8  10
ATOM     10  C   UNL A   1      45.975  25.859  29.384  1.00  0.00     0.067 C 
ATOM     11  C   UNL A   1      45.178  24.808  29.705  1.00  0.00     0.024 C 
BRANCH  11  12
ATOM     12  C   UNL A   1      44.107  24.181  28.893  1.00  0.00    -0.025 A 
ATOM     13  C   UNL A   1      42.521  22.533  27.272  1.00  0.00     0.067 A 
ATOM     14  C   UNL A   1      42.235  22.652  28.631  1.00  0.00     0.021 A 
ATOM     15  C   UNL A   1      43.492  23.344  26.684  1.00  0.00     0.021 A 
ATOM     16  C   UNL A   1      43.002  23.505  29.425  1.00  0.00     0.009 A 
ATOM     17  C   UNL A   1      44.276  24.168  27.499  1.00  0.00     0.009 A 
BRANCH  13  18
ATOM     18  S   UNL A   1      41.709  21.250  26.351  1.00  0.00     0.175 S 
ATOM     19  C   UNL A   1      41.263  19.996  27.514  1.00  0.00     0.163 C 
ATOM     20  O   UNL A   1      42.698  20.672  25.461  1.00  0.00    -0.224 OA
ATOM     21  O   UNL A   1      40.485  21.835  25.835  1.00  0.00    -0.224 OA
ENDBRANCH  13  18
ENDBRANCH  11  12
BRANCH  10  22
ATOM     22  C   UNL A   1      46.035  26.455  28.032  1.00  0.00    -0.010 A 
ATOM     23  C   UNL A   1      45.213  27.554  27.711  1.00  0.00     0.009 A 
ATOM     24  C   UNL A   1      46.965  26.012  27.089  1.00  0.00     0.024 A 
ATOM     25  C   UNL A   1      45.311  28.192  26.475  1.00  0.00     0.002 A 
ATOM     26  C   UNL A   1      47.076  26.672  25.863  1.00  0.00     0.018 A 
ATOM     27  C   UNL A   1      46.251  27.753  25.550  1.00  0.00     0.016 A 
ATOM     28  Br  UNL A   1      48.397  26.124  24.628  1.00  0.00    -0.051 Br
ENDBRANCH  10  22
ENDBRANCH   8  10
ENDBRANCH   7   8
ENDBRANCH   6   7
ENDBRANCH   5   6
ENDBRANCH   4   5
ENDBRANCH   3   4
ENDBRANCH   2   3
ENDBRANCH   1   2
BRANCH   1  29
ATOM     29  C   UNL A   1      45.617  20.865  35.570  1.00  0.00     0.188 C 
BRANCH  29  30
ATOM     30  C   UNL A   1      47.142  21.071  35.748  1.00  0.00     0.188 C 
BRANCH  30  31
ATOM     31  O   UNL A   1      47.590  22.402  35.554  1.00  0.00    -0.376 OA
BRANCH  31  32
ATOM     32  C   UNL A   1      47.767  23.217  36.698  1.00  0.00     0.202 C 
BRANCH  32  33
ATOM     33  C   UNL A   1      46.515  23.903  37.260  1.00  0.00     0.261 C 
BRANCH  33  34
ATOM     34  O   UNL A   1      46.487  25.334  37.174  1.00  0.00    -0.460 OA
BRANCH  34  35
ATOM     35  C   UNL A   1      45.431  25.977  37.715  1.00  0.00     0.338 C 
ATOM     36  O   UNL A   1      45.196  26.160  38.896  1.00  0.00    -0.246 OA
BRANCH  35  37
ATOM     37  C   UNL A   1      44.684  26.586  36.597  1.00  0.00     0.060 A 
ATOM     38  C   UNL A   1      45.241  27.661  35.888  1.00  0.00     0.016 A 
ATOM     39  C   UNL A   1      43.446  26.057  36.232  1.00  0.00     0.016 A 
ATOM     40  C   UNL A   1      44.541  28.230  34.823  1.00  0.00     0.010 A 
ATOM     41  C   UNL A   1      42.735  26.643  35.189  1.00  0.00     0.010 A 
ATOM     42  C   UNL A   1      43.264  27.754  34.504  1.00  0.00    -0.014 A 
BRANCH  42  43
ATOM     43  C   UNL A   1      42.355  28.546  33.647  1.00  0.00     0.031 A 
ATOM     44  C   UNL A   1      41.556  29.634  34.309  1.00  0.00     0.074 A 
ATOM     45  C   UNL A   1      42.196  28.281  32.339  1.00  0.00     0.049 A 
ATOM     46  N   UNL A   1      40.572  30.351  33.834  1.00  0.00    -0.248 NA
ATOM     47  C   UNL A   1      41.911  29.942  35.706  1.00  0.00     0.031 C 
ATOM     48  C   UNL A   1      42.950  27.294  31.572  1.00  0.00     0.029 A 
ATOM     49  N   UNL A   1      41.316  28.817  31.432  1.00  0.00    -0.354 N 
ATOM     50  C   UNL A   1      40.175  31.174  34.882  1.00  0.00     0.074 A 
ATOM     51  C   UNL A   1      41.007  30.855  36.019  1.00  0.00     0.031 C 
ATOM     52  C   UNL A   1      42.485  27.279  30.310  1.00  0.00     0.029 A 
ATOM     53  C   UNL A   1      41.370  28.219  30.198  1.00  0.00     0.049 A 
ATOM     54  H   UNL A   1      40.706  29.559  31.646  1.00  0.00     0.167 HD
ATOM     55  C   UNL A   1      39.199  32.111  34.895  1.00  0.00     0.031 A 
ATOM     56  C   UNL A   1      40.581  28.386  29.118  1.00  0.00     0.031 A 
ATOM     57  C   UNL A   1      38.360  32.408  33.767  1.00  0.00     0.049 A 
ATOM     58  C   UNL A   1      39.441  29.373  29.182  1.00  0.00     0.074 A 
ATOM     59  C   UNL A   1      37.346  33.344  33.672  1.00  0.00     0.029 A 
ATOM     60  N   UNL A   1      38.437  31.769  32.540  1.00  0.00    -0.354 N 
ATOM     61  N   UNL A   1      39.076  30.155  30.171  1.00  0.00    -0.248 NA
ATOM     62  C   UNL A   1      38.606  29.501  27.979  1.00  0.00     0.031 C 
ATOM     63  C   UNL A   1      36.766  33.226  32.406  1.00  0.00     0.029 A 
ATOM     64  C   UNL A   1      37.471  32.271  31.688  1.00  0.00     0.049 A 
ATOM     65  H   UNL A   1      39.082  31.061  32.310  1.00  0.00     0.167 HD
ATOM     66  C   UNL A   1      38.001  30.896  29.693  1.00  0.00     0.074 A 
ATOM     67  C   UNL A   1      37.774  30.472  28.328  1.00  0.00     0.031 C 
ATOM     68  C   UNL A   1      37.272  31.849  30.326  1.00  0.00     0.031 A 
BRANCH  55  69
ATOM     69  C   UNL A   1      38.959  32.839  36.186  1.00  0.00    -0.014 A 
ATOM     70  C   UNL A   1      38.144  32.298  37.194  1.00  0.00     0.009 A 
ATOM     71  C   UNL A   1      39.573  34.081  36.407  1.00  0.00     0.009 A 
ATOM     72  C   UNL A   1      37.920  33.004  38.378  1.00  0.00     0.001 A 
ATOM     73  C   UNL A   1      39.376  34.769  37.605  1.00  0.00     0.001 A 
ATOM     74  C   UNL A   1      38.541  34.235  38.584  1.00  0.00     0.000 A 
ENDBRANCH  55  69
BRANCH  56  75
ATOM     75  C   UNL A   1      40.815  27.586  27.886  1.00  0.00    -0.014 A 
ATOM     76  C   UNL A   1      40.263  26.302  27.753  1.00  0.00     0.009 A 
ATOM     77  C   UNL A   1      41.617  28.088  26.849  1.00  0.00     0.009 A 
ATOM     78  C   UNL A   1      40.533  25.529  26.620  1.00  0.00     0.001 A 
ATOM     79  C   UNL A   1      41.859  27.325  25.705  1.00  0.00     0.001 A 
ATOM     80  C   UNL A   1      41.327  26.042  25.596  1.00  0.00     0.000 A 
ENDBRANCH  56  75
BRANCH  68  81
ATOM     81  C   UNL A   1      36.207  32.556  29.533  1.00  0.00    -0.014 A 
ATOM     82  C   UNL A   1      36.490  33.692  28.761  1.00  0.00     0.009 A 
ATOM     83  C   UNL A   1      34.907  32.022  29.505  1.00  0.00     0.009 A 
ATOM     84  C   UNL A   1      35.486  34.295  27.999  1.00  0.00     0.001 A 
ATOM     85  C   UNL A   1      33.915  32.606  28.718  1.00  0.00     0.001 A 
ATOM     86  C   UNL A   1      34.203  33.747  27.972  1.00  0.00     0.000 A 
ENDBRANCH  68  81
ENDBRANCH  42  43
ENDBRANCH  35  37
ENDBRANCH  34  35
ENDBRANCH  33  34
ENDBRANCH  32  33
ENDBRANCH  31  32
ENDBRANCH  30  31
ENDBRANCH  29  30
ENDBRANCH   1  29
TORSDOF 23
ENDMDL
