MODEL 1
REMARK VINA RESULT:     -10.4      0.000      0.000
REMARK SMILES Cc1ccc(F)cc1S(=O)(=O)Nc1cc(C(=O)OCCOCCOCCOCCOC(=O)c2ccc(-c3c4nc(c(-c5ccccc5)c5ccc([nH]5)c(-c5ccccc5)c5nc(c(-c6ccccc6)c6ccc3[nH]6)C=C5)C=C4)cc2)ccc1N(C)Cc1ccccc1
REMARK SMILES IDX 23 1 22 2 21 3 20 4 19 5 18 6 16 7 17 8 15 9 13 10 14 11
REMARK SMILES IDX 83 12 82 13 81 14 12 15 9 17 10 18 11 19 8 20 1 21 2 22 3 23
REMARK SMILES IDX 4 24 7 25 5 26 6 27 84 28 85 29 86 30 87 31 88 32 92 33
REMARK SMILES IDX 89 34 91 35 90 36 24 37 25 38 26 39 27 40 28 41 29 42 30 43
REMARK SMILES IDX 31 44 32 45 33 46 34 47 80 48 35 49 79 50 36 51 37 52 38 53
REMARK SMILES IDX 73 54 39 55 78 56 72 57 74 58 40 59 77 60 71 61 70 62 41 64
REMARK SMILES IDX 63 65 48 66 62 67 49 68 52 69 61 70 75 71 50 72 51 73 60 75
REMARK SMILES IDX 76 76 53 77 42 78 43 79 47 80 44 81 46 82 45 83 64 84 65 85
REMARK SMILES IDX 69 86 66 87 68 88 67 89 54 90 55 91 59 92 56 93 58 94 57 95
REMARK H PARENT 12 16 74 63 52 74
REMARK Flexibility Score: inf
ROOT
ATOM      1  C   UNL A   1      33.650  28.154  24.217  1.00  0.00     0.188 C 
ENDROOT
BRANCH   1   2
ATOM      2  C   UNL A   1      32.950  28.065  22.844  1.00  0.00     0.188 C 
BRANCH   2   3
ATOM      3  O   UNL A   1      31.930  29.010  22.613  1.00  0.00    -0.376 OA
BRANCH   3   4
ATOM      4  C   UNL A   1      31.024  29.359  23.646  1.00  0.00     0.202 C 
BRANCH   4   5
ATOM      5  C   UNL A   1      29.862  28.470  24.150  1.00  0.00     0.261 C 
BRANCH   5   6
ATOM      6  O   UNL A   1      29.895  27.061  23.823  1.00  0.00    -0.460 OA
BRANCH   6   7
ATOM      7  C   UNL A   1      30.455  26.288  24.784  1.00  0.00     0.338 C 
ATOM      8  O   UNL A   1      30.640  26.688  25.925  1.00  0.00    -0.246 OA
BRANCH   7   9
ATOM      9  C   UNL A   1      30.589  24.822  24.460  1.00  0.00     0.062 A 
ATOM     10  C   UNL A   1      31.299  22.681  25.445  1.00  0.00     0.073 A 
ATOM     11  C   UNL A   1      30.714  23.970  25.557  1.00  0.00     0.044 A 
ATOM     12  C   UNL A   1      31.589  22.056  24.225  1.00  0.00     0.061 A 
ATOM     13  C   UNL A   1      31.263  22.896  23.106  1.00  0.00     0.029 A 
ATOM     14  C   UNL A   1      30.819  24.265  23.212  1.00  0.00     0.018 A 
BRANCH  10  15
ATOM     15  N   UNL A   1      32.044  22.262  26.588  1.00  0.00    -0.277 N 
ATOM     16  H   UNL A   1      31.780  21.534  27.197  1.00  0.00     0.180 HD
BRANCH  15  17
ATOM     17  S   UNL A   1      33.483  23.221  26.748  1.00  0.00     0.262 S 
ATOM     18  O   UNL A   1      34.016  23.015  28.062  1.00  0.00    -0.201 OA
ATOM     19  O   UNL A   1      33.039  24.575  26.449  1.00  0.00    -0.201 OA
BRANCH  17  20
ATOM     20  C   UNL A   1      34.720  22.672  25.499  1.00  0.00     0.093 A 
ATOM     21  C   UNL A   1      34.415  24.611  23.885  1.00  0.00     0.046 C 
ATOM     22  C   UNL A   1      35.122  23.407  24.387  1.00  0.00    -0.030 A 
ATOM     23  C   UNL A   1      36.245  22.988  23.619  1.00  0.00     0.008 A 
ATOM     24  C   UNL A   1      36.941  21.818  23.894  1.00  0.00     0.039 A 
ATOM     25  C   UNL A   1      35.371  21.451  25.646  1.00  0.00     0.061 A 
ATOM     26  C   UNL A   1      36.462  21.025  24.897  1.00  0.00     0.124 A 
ATOM     27  F   UNL A   1      37.018  19.830  25.146  1.00  0.00    -0.207 F 
ENDBRANCH  17  20
ENDBRANCH  15  17
ENDBRANCH  10  15
BRANCH  12  28
ATOM     28  N   UNL A   1      32.305  20.822  24.133  1.00  0.00    -0.369 N 
ATOM     29  C   UNL A   1      32.735  20.464  22.771  1.00  0.00     0.144 C 
BRANCH  28  30
ATOM     30  C   UNL A   1      32.319  19.606  25.116  1.00  0.00     0.151 C 
BRANCH  30  31
ATOM     31  C   UNL A   1      33.142  18.251  25.016  1.00  0.00    -0.029 A 
ATOM     32  C   UNL A   1      34.383  17.956  24.399  1.00  0.00     0.005 A 
ATOM     33  C   UNL A   1      32.489  17.092  25.490  1.00  0.00     0.005 A 
ATOM     34  C   UNL A   1      35.081  16.743  24.619  1.00  0.00     0.000 A 
ATOM     35  C   UNL A   1      33.128  15.837  25.606  1.00  0.00     0.000 A 
ATOM     36  C   UNL A   1      34.463  15.690  25.268  1.00  0.00     0.000 A 
ENDBRANCH  30  31
ENDBRANCH  28  30
ENDBRANCH  12  28
ENDBRANCH   7   9
ENDBRANCH   6   7
ENDBRANCH   5   6
ENDBRANCH   4   5
ENDBRANCH   3   4
ENDBRANCH   2   3
ENDBRANCH   1   2
BRANCH   1  37
ATOM     37  O   UNL A   1      33.650  29.385  24.911  1.00  0.00    -0.377 OA
BRANCH  37  38
ATOM     38  C   UNL A   1      33.821  29.391  26.320  1.00  0.00     0.188 C 
BRANCH  38  39
ATOM     39  C   UNL A   1      32.986  30.316  27.236  1.00  0.00     0.188 C 
BRANCH  39  40
ATOM     40  O   UNL A   1      31.762  30.783  26.699  1.00  0.00    -0.376 OA
BRANCH  40  41
ATOM     41  C   UNL A   1      31.484  32.175  26.747  1.00  0.00     0.202 C 
BRANCH  41  42
ATOM     42  C   UNL A   1      32.569  33.122  27.288  1.00  0.00     0.261 C 
BRANCH  42  43
ATOM     43  O   UNL A   1      32.266  33.792  28.519  1.00  0.00    -0.460 OA
BRANCH  43  44
ATOM     44  C   UNL A   1      32.945  34.931  28.770  1.00  0.00     0.338 C 
ATOM     45  O   UNL A   1      32.562  36.071  28.602  1.00  0.00    -0.246 OA
BRANCH  44  46
ATOM     46  C   UNL A   1      34.186  34.565  29.482  1.00  0.00     0.060 A 
ATOM     47  C   UNL A   1      35.394  34.573  28.771  1.00  0.00     0.016 A 
ATOM     48  C   UNL A   1      34.158  34.223  30.836  1.00  0.00     0.016 A 
ATOM     49  C   UNL A   1      36.572  34.179  29.397  1.00  0.00     0.010 A 
ATOM     50  C   UNL A   1      35.335  33.799  31.456  1.00  0.00     0.010 A 
ATOM     51  C   UNL A   1      36.533  33.726  30.721  1.00  0.00    -0.014 A 
BRANCH  51  52
ATOM     52  C   UNL A   1      37.663  32.915  31.229  1.00  0.00     0.031 A 
ATOM     53  C   UNL A   1      38.283  33.326  32.538  1.00  0.00     0.074 A 
ATOM     54  C   UNL A   1      38.095  31.816  30.589  1.00  0.00     0.049 A 
ATOM     55  N   UNL A   1      39.277  32.787  33.196  1.00  0.00    -0.248 NA
ATOM     56  C   UNL A   1      37.696  34.508  33.192  1.00  0.00     0.031 C 
ATOM     57  C   UNL A   1      37.533  31.277  29.353  1.00  0.00     0.029 A 
ATOM     58  N   UNL A   1      39.112  30.953  30.908  1.00  0.00    -0.354 N 
ATOM     59  C   UNL A   1      39.438  33.570  34.333  1.00  0.00     0.074 A 
ATOM     60  C   UNL A   1      38.474  34.644  34.254  1.00  0.00     0.031 C 
ATOM     61  C   UNL A   1      38.213  30.166  29.020  1.00  0.00     0.029 A 
ATOM     62  C   UNL A   1      39.275  29.939  29.998  1.00  0.00     0.049 A 
ATOM     63  H   UNL A   1      39.670  31.051  31.712  1.00  0.00     0.167 HD
ATOM     64  C   UNL A   1      40.306  33.407  35.359  1.00  0.00     0.031 A 
ATOM     65  C   UNL A   1      40.189  28.950  29.960  1.00  0.00     0.031 A 
ATOM     66  C   UNL A   1      41.285  32.358  35.423  1.00  0.00     0.049 A 
ATOM     67  C   UNL A   1      41.216  28.850  31.056  1.00  0.00     0.074 A 
ATOM     68  C   UNL A   1      42.218  32.106  36.412  1.00  0.00     0.029 A 
ATOM     69  N   UNL A   1      41.464  31.391  34.446  1.00  0.00    -0.354 N 
ATOM     70  N   UNL A   1      41.358  29.588  32.132  1.00  0.00    -0.248 NA
ATOM     71  C   UNL A   1      42.204  27.768  30.937  1.00  0.00     0.031 C 
ATOM     72  C   UNL A   1      43.005  31.024  36.002  1.00  0.00     0.029 A 
ATOM     73  C   UNL A   1      42.511  30.554  34.796  1.00  0.00     0.049 A 
ATOM     74  H   UNL A   1      40.926  31.310  33.625  1.00  0.00     0.167 HD
ATOM     75  C   UNL A   1      42.420  29.034  32.838  1.00  0.00     0.074 A 
ATOM     76  C   UNL A   1      42.881  27.895  32.069  1.00  0.00     0.031 C 
ATOM     77  C   UNL A   1      42.959  29.425  34.020  1.00  0.00     0.031 A 
BRANCH  64  78
ATOM     78  C   UNL A   1      40.256  34.432  36.460  1.00  0.00    -0.014 A 
ATOM     79  C   UNL A   1      40.985  35.632  36.383  1.00  0.00     0.009 A 
ATOM     80  C   UNL A   1      39.483  34.184  37.605  1.00  0.00     0.009 A 
ATOM     81  C   UNL A   1      40.984  36.531  37.451  1.00  0.00     0.001 A 
ATOM     82  C   UNL A   1      39.454  35.102  38.655  1.00  0.00     0.001 A 
ATOM     83  C   UNL A   1      40.216  36.268  38.585  1.00  0.00     0.000 A 
ENDBRANCH  64  78
BRANCH  65  84
ATOM     84  C   UNL A   1      40.172  27.967  28.844  1.00  0.00    -0.014 A 
ATOM     85  C   UNL A   1      39.507  26.738  28.985  1.00  0.00     0.009 A 
ATOM     86  C   UNL A   1      40.832  28.245  27.636  1.00  0.00     0.009 A 
ATOM     87  C   UNL A   1      39.521  25.803  27.949  1.00  0.00     0.001 A 
ATOM     88  C   UNL A   1      40.818  27.319  26.591  1.00  0.00     0.001 A 
ATOM     89  C   UNL A   1      40.170  26.096  26.751  1.00  0.00     0.000 A 
ENDBRANCH  65  84
BRANCH  77  90
ATOM     90  C   UNL A   1      44.070  28.581  34.588  1.00  0.00    -0.014 A 
ATOM     91  C   UNL A   1      45.403  28.738  34.180  1.00  0.00     0.009 A 
ATOM     92  C   UNL A   1      43.773  27.636  35.585  1.00  0.00     0.009 A 
ATOM     93  C   UNL A   1      46.408  27.937  34.727  1.00  0.00     0.001 A 
ATOM     94  C   UNL A   1      44.784  26.862  36.156  1.00  0.00     0.001 A 
ATOM     95  C   UNL A   1      46.099  27.004  35.717  1.00  0.00     0.000 A 
ENDBRANCH  77  90
ENDBRANCH  51  52
ENDBRANCH  44  46
ENDBRANCH  43  44
ENDBRANCH  42  43
ENDBRANCH  41  42
ENDBRANCH  40  41
ENDBRANCH  39  40
ENDBRANCH  38  39
ENDBRANCH  37  38
ENDBRANCH   1  37
TORSDOF 26
ENDMDL
MODEL 2
REMARK VINA RESULT:     -10.3      5.755     11.125
REMARK SMILES Cc1ccc(F)cc1S(=O)(=O)Nc1cc(C(=O)OCCOCCOCCOCCOC(=O)c2ccc(-c3c4nc(c(-c5ccccc5)c5ccc([nH]5)c(-c5ccccc5)c5nc(c(-c6ccccc6)c6ccc3[nH]6)C=C5)C=C4)cc2)ccc1N(C)Cc1ccccc1
REMARK SMILES IDX 23 1 22 2 21 3 20 4 19 5 18 6 16 7 17 8 15 9 13 10 14 11
REMARK SMILES IDX 83 12 82 13 81 14 12 15 9 17 10 18 11 19 8 20 1 21 2 22 3 23
REMARK SMILES IDX 4 24 7 25 5 26 6 27 84 28 85 29 86 30 87 31 88 32 92 33
REMARK SMILES IDX 89 34 91 35 90 36 24 37 25 38 26 39 27 40 28 41 29 42 30 43
REMARK SMILES IDX 31 44 32 45 33 46 34 47 80 48 35 49 79 50 36 51 37 52 38 53
REMARK SMILES IDX 73 54 39 55 78 56 72 57 74 58 40 59 77 60 71 61 70 62 41 64
REMARK SMILES IDX 63 65 48 66 62 67 49 68 52 69 61 70 75 71 50 72 51 73 60 75
REMARK SMILES IDX 76 76 53 77 42 78 43 79 47 80 44 81 46 82 45 83 64 84 65 85
REMARK SMILES IDX 69 86 66 87 68 88 67 89 54 90 55 91 59 92 56 93 58 94 57 95
REMARK H PARENT 12 16 74 63 52 74
REMARK Flexibility Score: inf
ROOT
ATOM      1  C   UNL A   1      36.465  21.695  25.491  1.00  0.00     0.188 C 
ENDROOT
BRANCH   1   2
ATOM      2  C   UNL A   1      35.509  22.836  25.085  1.00  0.00     0.188 C 
BRANCH   2   3
ATOM      3  O   UNL A   1      34.862  23.502  26.145  1.00  0.00    -0.376 OA
BRANCH   3   4
ATOM      4  C   UNL A   1      34.533  22.808  27.337  1.00  0.00     0.202 C 
BRANCH   4   5
ATOM      5  C   UNL A   1      33.121  22.295  27.709  1.00  0.00     0.261 C 
BRANCH   5   6
ATOM      6  O   UNL A   1      31.985  23.115  27.348  1.00  0.00    -0.460 OA
BRANCH   6   7
ATOM      7  C   UNL A   1      31.505  22.870  26.105  1.00  0.00     0.338 C 
ATOM      8  O   UNL A   1      31.528  21.758  25.598  1.00  0.00    -0.246 OA
BRANCH   7   9
ATOM      9  C   UNL A   1      30.692  23.975  25.480  1.00  0.00     0.062 A 
ATOM     10  C   UNL A   1      30.446  25.250  23.388  1.00  0.00     0.073 A 
ATOM     11  C   UNL A   1      30.745  24.051  24.088  1.00  0.00     0.044 A 
ATOM     12  C   UNL A   1      29.862  26.377  23.980  1.00  0.00     0.061 A 
ATOM     13  C   UNL A   1      29.643  26.186  25.387  1.00  0.00     0.029 A 
ATOM     14  C   UNL A   1      30.088  25.036  26.137  1.00  0.00     0.018 A 
BRANCH  10  15
ATOM     15  N   UNL A   1      31.216  25.457  22.205  1.00  0.00    -0.277 N 
ATOM     16  H   UNL A   1      30.840  25.664  21.318  1.00  0.00     0.180 HD
BRANCH  15  17
ATOM     17  S   UNL A   1      32.909  25.292  22.555  1.00  0.00     0.262 S 
ATOM     18  O   UNL A   1      33.637  25.439  21.330  1.00  0.00    -0.201 OA
ATOM     19  O   UNL A   1      33.010  23.991  23.202  1.00  0.00    -0.201 OA
BRANCH  17  20
ATOM     20  C   UNL A   1      33.418  26.620  23.726  1.00  0.00     0.093 A 
ATOM     21  C   UNL A   1      34.293  28.252  21.986  1.00  0.00     0.046 C 
ATOM     22  C   UNL A   1      33.877  27.883  23.362  1.00  0.00    -0.030 A 
ATOM     23  C   UNL A   1      34.024  28.903  24.343  1.00  0.00     0.008 A 
ATOM     24  C   UNL A   1      33.784  28.678  25.693  1.00  0.00     0.039 A 
ATOM     25  C   UNL A   1      33.320  26.419  25.100  1.00  0.00     0.061 A 
ATOM     26  C   UNL A   1      33.471  27.404  26.070  1.00  0.00     0.124 A 
ATOM     27  F   UNL A   1      33.333  27.090  27.367  1.00  0.00    -0.207 F 
ENDBRANCH  17  20
ENDBRANCH  15  17
ENDBRANCH  10  15
BRANCH  12  28
ATOM     28  N   UNL A   1      29.699  27.620  23.295  1.00  0.00    -0.369 N 
ATOM     29  C   UNL A   1      30.837  28.545  23.425  1.00  0.00     0.144 C 
BRANCH  28  30
ATOM     30  C   UNL A   1      28.388  28.331  22.823  1.00  0.00     0.151 C 
BRANCH  30  31
ATOM     31  C   UNL A   1      28.134  29.873  22.540  1.00  0.00    -0.029 A 
ATOM     32  C   UNL A   1      27.815  30.941  23.413  1.00  0.00     0.005 A 
ATOM     33  C   UNL A   1      28.070  30.252  21.181  1.00  0.00     0.005 A 
ATOM     34  C   UNL A   1      27.862  32.300  23.014  1.00  0.00     0.000 A 
ATOM     35  C   UNL A   1      27.994  31.598  20.756  1.00  0.00     0.000 A 
ATOM     36  C   UNL A   1      27.998  32.631  21.679  1.00  0.00     0.000 A 
ENDBRANCH  30  31
ENDBRANCH  28  30
ENDBRANCH  12  28
ENDBRANCH   7   9
ENDBRANCH   6   7
ENDBRANCH   5   6
ENDBRANCH   4   5
ENDBRANCH   3   4
ENDBRANCH   2   3
ENDBRANCH   1   2
BRANCH   1  37
ATOM     37  O   UNL A   1      37.636  21.474  24.730  1.00  0.00    -0.377 OA
BRANCH  37  38
ATOM     38  C   UNL A   1      38.802  20.978  25.370  1.00  0.00     0.188 C 
BRANCH  38  39
ATOM     39  C   UNL A   1      38.999  19.469  25.645  1.00  0.00     0.188 C 
BRANCH  39  40
ATOM     40  O   UNL A   1      40.324  18.984  25.529  1.00  0.00    -0.376 OA
BRANCH  40  41
ATOM     41  C   UNL A   1      41.347  19.608  26.291  1.00  0.00     0.202 C 
BRANCH  41  42
ATOM     42  C   UNL A   1      42.814  19.291  25.949  1.00  0.00     0.261 C 
BRANCH  42  43
ATOM     43  O   UNL A   1      43.254  19.673  24.640  1.00  0.00    -0.460 OA
BRANCH  43  44
ATOM     44  C   UNL A   1      44.588  19.751  24.449  1.00  0.00     0.338 C 
ATOM     45  O   UNL A   1      45.316  18.904  23.973  1.00  0.00    -0.246 OA
BRANCH  44  46
ATOM     46  C   UNL A   1      45.002  21.138  24.740  1.00  0.00     0.060 A 
ATOM     47  C   UNL A   1      45.727  21.389  25.914  1.00  0.00     0.016 A 
ATOM     48  C   UNL A   1      44.685  22.178  23.863  1.00  0.00     0.016 A 
ATOM     49  C   UNL A   1      46.083  22.692  26.246  1.00  0.00     0.010 A 
ATOM     50  C   UNL A   1      45.017  23.488  24.211  1.00  0.00     0.010 A 
ATOM     51  C   UNL A   1      45.669  23.751  25.429  1.00  0.00    -0.014 A 
BRANCH  51  52
ATOM     52  C   UNL A   1      45.662  25.121  25.991  1.00  0.00     0.031 A 
ATOM     53  C   UNL A   1      46.956  25.889  25.974  1.00  0.00     0.074 A 
ATOM     54  C   UNL A   1      44.538  25.696  26.450  1.00  0.00     0.049 A 
ATOM     55  N   UNL A   1      47.216  27.098  26.401  1.00  0.00    -0.248 NA
ATOM     56  C   UNL A   1      48.117  25.192  25.393  1.00  0.00     0.031 C 
ATOM     57  C   UNL A   1      43.212  25.084  26.456  1.00  0.00     0.029 A 
ATOM     58  N   UNL A   1      44.344  26.940  26.995  1.00  0.00    -0.354 N 
ATOM     59  C   UNL A   1      48.567  27.300  26.148  1.00  0.00     0.074 A 
ATOM     60  C   UNL A   1      49.083  26.078  25.574  1.00  0.00     0.031 C 
ATOM     61  C   UNL A   1      42.335  25.960  26.977  1.00  0.00     0.029 A 
ATOM     62  C   UNL A   1      43.046  27.176  27.371  1.00  0.00     0.049 A 
ATOM     63  H   UNL A   1      45.066  27.599  27.106  1.00  0.00     0.167 HD
ATOM     64  C   UNL A   1      49.315  28.407  26.365  1.00  0.00     0.031 A 
ATOM     65  C   UNL A   1      42.501  28.250  27.975  1.00  0.00     0.031 A 
ATOM     66  C   UNL A   1      48.809  29.611  26.964  1.00  0.00     0.049 A 
ATOM     67  C   UNL A   1      43.374  29.432  28.307  1.00  0.00     0.074 A 
ATOM     68  C   UNL A   1      49.482  30.789  27.236  1.00  0.00     0.029 A 
ATOM     69  N   UNL A   1      47.503  29.786  27.394  1.00  0.00    -0.354 N 
ATOM     70  N   UNL A   1      44.648  29.620  28.057  1.00  0.00    -0.248 NA
ATOM     71  C   UNL A   1      42.725  30.558  28.994  1.00  0.00     0.031 C 
ATOM     72  C   UNL A   1      48.598  31.653  27.892  1.00  0.00     0.029 A 
ATOM     73  C   UNL A   1      47.355  31.043  27.956  1.00  0.00     0.049 A 
ATOM     74  H   UNL A   1      46.786  29.116  27.313  1.00  0.00     0.167 HD
ATOM     75  C   UNL A   1      44.943  30.899  28.517  1.00  0.00     0.074 A 
ATOM     76  C   UNL A   1      43.711  31.441  29.054  1.00  0.00     0.031 C 
ATOM     77  C   UNL A   1      46.122  31.569  28.487  1.00  0.00     0.031 A 
BRANCH  64  78
ATOM     78  C   UNL A   1      50.772  28.327  25.997  1.00  0.00    -0.014 A 
ATOM     79  C   UNL A   1      51.215  28.579  24.687  1.00  0.00     0.009 A 
ATOM     80  C   UNL A   1      51.715  27.973  26.974  1.00  0.00     0.009 A 
ATOM     81  C   UNL A   1      52.562  28.421  24.353  1.00  0.00     0.001 A 
ATOM     82  C   UNL A   1      53.067  27.854  26.645  1.00  0.00     0.001 A 
ATOM     83  C   UNL A   1      53.487  28.063  25.332  1.00  0.00     0.000 A 
ENDBRANCH  64  78
BRANCH  65  84
ATOM     84  C   UNL A   1      41.051  28.264  28.301  1.00  0.00    -0.014 A 
ATOM     85  C   UNL A   1      40.133  28.897  27.448  1.00  0.00     0.009 A 
ATOM     86  C   UNL A   1      40.576  27.654  29.474  1.00  0.00     0.009 A 
ATOM     87  C   UNL A   1      38.775  28.937  27.774  1.00  0.00     0.001 A 
ATOM     88  C   UNL A   1      39.214  27.670  29.781  1.00  0.00     0.001 A 
ATOM     89  C   UNL A   1      38.317  28.318  28.935  1.00  0.00     0.000 A 
ENDBRANCH  65  84
BRANCH  77  90
ATOM     90  C   UNL A   1      46.128  32.986  28.997  1.00  0.00    -0.014 A 
ATOM     91  C   UNL A   1      45.795  34.073  28.174  1.00  0.00     0.009 A 
ATOM     92  C   UNL A   1      46.436  33.229  30.347  1.00  0.00     0.009 A 
ATOM     93  C   UNL A   1      45.813  35.374  28.680  1.00  0.00     0.001 A 
ATOM     94  C   UNL A   1      46.418  34.527  30.859  1.00  0.00     0.001 A 
ATOM     95  C   UNL A   1      46.119  35.599  30.022  1.00  0.00     0.000 A 
ENDBRANCH  77  90
ENDBRANCH  51  52
ENDBRANCH  44  46
ENDBRANCH  43  44
ENDBRANCH  42  43
ENDBRANCH  41  42
ENDBRANCH  40  41
ENDBRANCH  39  40
ENDBRANCH  38  39
ENDBRANCH  37  38
ENDBRANCH   1  37
TORSDOF 26
ENDMDL
MODEL 3
REMARK VINA RESULT:     -10.2      0.847      5.435
REMARK SMILES Cc1ccc(F)cc1S(=O)(=O)Nc1cc(C(=O)OCCOCCOCCOCCOC(=O)c2ccc(-c3c4nc(c(-c5ccccc5)c5ccc([nH]5)c(-c5ccccc5)c5nc(c(-c6ccccc6)c6ccc3[nH]6)C=C5)C=C4)cc2)ccc1N(C)Cc1ccccc1
REMARK SMILES IDX 23 1 22 2 21 3 20 4 19 5 18 6 16 7 17 8 15 9 13 10 14 11
REMARK SMILES IDX 83 12 82 13 81 14 12 15 9 17 10 18 11 19 8 20 1 21 2 22 3 23
REMARK SMILES IDX 4 24 7 25 5 26 6 27 84 28 85 29 86 30 87 31 88 32 92 33
REMARK SMILES IDX 89 34 91 35 90 36 24 37 25 38 26 39 27 40 28 41 29 42 30 43
REMARK SMILES IDX 31 44 32 45 33 46 34 47 80 48 35 49 79 50 36 51 37 52 38 53
REMARK SMILES IDX 73 54 39 55 78 56 72 57 74 58 40 59 77 60 71 61 70 62 41 64
REMARK SMILES IDX 63 65 48 66 62 67 49 68 52 69 61 70 75 71 50 72 51 73 60 75
REMARK SMILES IDX 76 76 53 77 42 78 43 79 47 80 44 81 46 82 45 83 64 84 65 85
REMARK SMILES IDX 69 86 66 87 68 88 67 89 54 90 55 91 59 92 56 93 58 94 57 95
REMARK H PARENT 12 16 74 63 52 74
REMARK Flexibility Score: inf
ROOT
ATOM      1  C   UNL A   1      33.987  28.361  23.950  1.00  0.00     0.188 C 
ENDROOT
BRANCH   1   2
ATOM      2  C   UNL A   1      33.211  27.897  22.699  1.00  0.00     0.188 C 
BRANCH   2   3
ATOM      3  O   UNL A   1      32.068  28.653  22.369  1.00  0.00    -0.376 OA
BRANCH   3   4
ATOM      4  C   UNL A   1      31.320  29.306  23.381  1.00  0.00     0.202 C 
BRANCH   4   5
ATOM      5  C   UNL A   1      30.220  28.642  24.244  1.00  0.00     0.261 C 
BRANCH   5   6
ATOM      6  O   UNL A   1      29.939  27.240  24.025  1.00  0.00    -0.460 OA
BRANCH   6   7
ATOM      7  C   UNL A   1      30.674  26.406  24.799  1.00  0.00     0.338 C 
ATOM      8  O   UNL A   1      31.048  26.710  25.923  1.00  0.00    -0.246 OA
BRANCH   7   9
ATOM      9  C   UNL A   1      30.780  24.981  24.320  1.00  0.00     0.062 A 
ATOM     10  C   UNL A   1      31.026  22.676  25.150  1.00  0.00     0.073 A 
ATOM     11  C   UNL A   1      30.533  24.001  25.283  1.00  0.00     0.044 A 
ATOM     12  C   UNL A   1      31.591  22.165  23.974  1.00  0.00     0.061 A 
ATOM     13  C   UNL A   1      31.650  23.157  22.937  1.00  0.00     0.029 A 
ATOM     14  C   UNL A   1      31.300  24.546  23.111  1.00  0.00     0.018 A 
BRANCH  10  15
ATOM     15  N   UNL A   1      31.394  22.050  26.378  1.00  0.00    -0.277 N 
ATOM     16  H   UNL A   1      31.001  21.217  26.726  1.00  0.00     0.180 HD
BRANCH  15  17
ATOM     17  S   UNL A   1      32.636  22.971  27.170  1.00  0.00     0.262 S 
ATOM     18  O   UNL A   1      32.882  22.383  28.453  1.00  0.00    -0.201 OA
ATOM     19  O   UNL A   1      32.112  24.329  27.185  1.00  0.00    -0.201 OA
BRANCH  17  20
ATOM     20  C   UNL A   1      34.178  22.901  26.164  1.00  0.00     0.093 A 
ATOM     21  C   UNL A   1      34.148  25.317  25.378  1.00  0.00     0.046 C 
ATOM     22  C   UNL A   1      34.790  23.991  25.551  1.00  0.00    -0.030 A 
ATOM     23  C   UNL A   1      36.093  23.861  24.994  1.00  0.00     0.008 A 
ATOM     24  C   UNL A   1      36.779  22.652  24.976  1.00  0.00     0.039 A 
ATOM     25  C   UNL A   1      34.854  21.695  26.001  1.00  0.00     0.061 A 
ATOM     26  C   UNL A   1      36.122  21.553  25.449  1.00  0.00     0.124 A 
ATOM     27  F   UNL A   1      36.680  20.336  25.363  1.00  0.00    -0.207 F 
ENDBRANCH  17  20
ENDBRANCH  15  17
ENDBRANCH  10  15
BRANCH  12  28
ATOM     28  N   UNL A   1      32.207  20.878  23.902  1.00  0.00    -0.369 N 
ATOM     29  C   UNL A   1      32.154  20.246  22.573  1.00  0.00     0.144 C 
BRANCH  28  30
ATOM     30  C   UNL A   1      32.520  19.860  25.048  1.00  0.00     0.151 C 
BRANCH  30  31
ATOM     31  C   UNL A   1      33.267  18.461  24.964  1.00  0.00    -0.029 A 
ATOM     32  C   UNL A   1      34.512  18.101  24.393  1.00  0.00     0.005 A 
ATOM     33  C   UNL A   1      32.531  17.337  25.399  1.00  0.00     0.005 A 
ATOM     34  C   UNL A   1      35.130  16.847  24.626  1.00  0.00     0.000 A 
ATOM     35  C   UNL A   1      33.091  16.046  25.525  1.00  0.00     0.000 A 
ATOM     36  C   UNL A   1      34.429  15.825  25.238  1.00  0.00     0.000 A 
ENDBRANCH  30  31
ENDBRANCH  28  30
ENDBRANCH  12  28
ENDBRANCH   7   9
ENDBRANCH   6   7
ENDBRANCH   5   6
ENDBRANCH   4   5
ENDBRANCH   3   4
ENDBRANCH   2   3
ENDBRANCH   1   2
BRANCH   1  37
ATOM     37  O   UNL A   1      33.431  29.370  24.770  1.00  0.00    -0.377 OA
BRANCH  37  38
ATOM     38  C   UNL A   1      33.848  29.477  26.123  1.00  0.00     0.188 C 
BRANCH  38  39
ATOM     39  C   UNL A   1      33.084  30.356  27.141  1.00  0.00     0.188 C 
BRANCH  39  40
ATOM     40  O   UNL A   1      31.729  30.629  26.835  1.00  0.00    -0.376 OA
BRANCH  40  41
ATOM     41  C   UNL A   1      31.339  31.975  26.608  1.00  0.00     0.202 C 
BRANCH  41  42
ATOM     42  C   UNL A   1      32.363  33.092  26.877  1.00  0.00     0.261 C 
BRANCH  42  43
ATOM     43  O   UNL A   1      32.154  33.868  28.063  1.00  0.00    -0.460 OA
BRANCH  43  44
ATOM     44  C   UNL A   1      33.152  34.703  28.424  1.00  0.00     0.338 C 
ATOM     45  O   UNL A   1      33.091  35.906  28.570  1.00  0.00    -0.246 OA
BRANCH  44  46
ATOM     46  C   UNL A   1      34.312  33.874  28.809  1.00  0.00     0.060 A 
ATOM     47  C   UNL A   1      34.094  32.751  29.621  1.00  0.00     0.016 A 
ATOM     48  C   UNL A   1      35.598  34.197  28.371  1.00  0.00     0.016 A 
ATOM     49  C   UNL A   1      35.171  31.982  30.048  1.00  0.00     0.010 A 
ATOM     50  C   UNL A   1      36.681  33.443  28.824  1.00  0.00     0.010 A 
ATOM     51  C   UNL A   1      36.473  32.367  29.706  1.00  0.00    -0.014 A 
BRANCH  51  52
ATOM     52  C   UNL A   1      37.604  31.830  30.498  1.00  0.00     0.031 A 
ATOM     53  C   UNL A   1      38.396  30.697  29.902  1.00  0.00     0.074 A 
ATOM     54  C   UNL A   1      37.960  32.360  31.679  1.00  0.00     0.049 A 
ATOM     55  N   UNL A   1      39.426  30.054  30.388  1.00  0.00    -0.248 NA
ATOM     56  C   UNL A   1      37.963  30.229  28.575  1.00  0.00     0.031 C 
ATOM     57  C   UNL A   1      37.317  33.500  32.328  1.00  0.00     0.029 A 
ATOM     58  N   UNL A   1      38.967  32.001  32.538  1.00  0.00    -0.354 N 
ATOM     59  C   UNL A   1      39.756  29.102  29.431  1.00  0.00     0.074 A 
ATOM     60  C   UNL A   1      38.792  29.221  28.360  1.00  0.00     0.031 C 
ATOM     61  C   UNL A   1      37.952  33.752  33.486  1.00  0.00     0.029 A 
ATOM     62  C   UNL A   1      39.019  32.770  33.673  1.00  0.00     0.049 A 
ATOM     63  H   UNL A   1      39.592  31.263  32.358  1.00  0.00     0.167 HD
ATOM     64  C   UNL A   1      40.776  28.212  29.434  1.00  0.00     0.031 A 
ATOM     65  C   UNL A   1      39.832  32.679  34.744  1.00  0.00     0.031 A 
ATOM     66  C   UNL A   1      41.715  28.074  30.512  1.00  0.00     0.049 A 
ATOM     67  C   UNL A   1      40.893  31.611  34.778  1.00  0.00     0.074 A 
ATOM     68  C   UNL A   1      42.781  27.199  30.622  1.00  0.00     0.029 A 
ATOM     69  N   UNL A   1      41.692  28.827  31.677  1.00  0.00    -0.354 N 
ATOM     70  N   UNL A   1      41.204  30.720  33.866  1.00  0.00    -0.248 NA
ATOM     71  C   UNL A   1      41.724  31.545  35.988  1.00  0.00     0.031 C 
ATOM     72  C   UNL A   1      43.363  27.379  31.882  1.00  0.00     0.029 A 
ATOM     73  C   UNL A   1      42.709  28.419  32.523  1.00  0.00     0.049 A 
ATOM     74  H   UNL A   1      41.048  29.545  31.872  1.00  0.00     0.167 HD
ATOM     75  C   UNL A   1      42.293  30.019  34.373  1.00  0.00     0.074 A 
ATOM     76  C   UNL A   1      42.589  30.593  35.670  1.00  0.00     0.031 C 
ATOM     77  C   UNL A   1      42.991  29.000  33.812  1.00  0.00     0.031 A 
BRANCH  64  78
ATOM     78  C   UNL A   1      40.877  27.289  28.250  1.00  0.00    -0.014 A 
ATOM     79  C   UNL A   1      41.637  27.625  27.117  1.00  0.00     0.009 A 
ATOM     80  C   UNL A   1      40.182  26.070  28.260  1.00  0.00     0.009 A 
ATOM     81  C   UNL A   1      41.652  26.787  26.000  1.00  0.00     0.001 A 
ATOM     82  C   UNL A   1      40.229  25.216  27.157  1.00  0.00     0.001 A 
ATOM     83  C   UNL A   1      40.951  25.582  26.022  1.00  0.00     0.000 A 
ENDBRANCH  64  78
BRANCH  65  84
ATOM     84  C   UNL A   1      39.680  33.633  35.875  1.00  0.00    -0.014 A 
ATOM     85  C   UNL A   1      40.348  34.867  35.863  1.00  0.00     0.009 A 
ATOM     86  C   UNL A   1      38.876  33.309  36.980  1.00  0.00     0.009 A 
ATOM     87  C   UNL A   1      40.231  35.746  36.941  1.00  0.00     0.001 A 
ATOM     88  C   UNL A   1      38.736  34.204  38.042  1.00  0.00     0.001 A 
ATOM     89  C   UNL A   1      39.421  35.418  38.026  1.00  0.00     0.000 A 
ENDBRANCH  65  84
BRANCH  77  90
ATOM     90  C   UNL A   1      44.183  28.477  34.570  1.00  0.00    -0.014 A 
ATOM     91  C   UNL A   1      44.084  27.384  35.445  1.00  0.00     0.009 A 
ATOM     92  C   UNL A   1      45.440  29.071  34.368  1.00  0.00     0.009 A 
ATOM     93  C   UNL A   1      45.210  26.927  36.134  1.00  0.00     0.001 A 
ATOM     94  C   UNL A   1      46.571  28.589  35.029  1.00  0.00     0.001 A 
ATOM     95  C   UNL A   1      46.452  27.526  35.921  1.00  0.00     0.000 A 
ENDBRANCH  77  90
ENDBRANCH  51  52
ENDBRANCH  44  46
ENDBRANCH  43  44
ENDBRANCH  42  43
ENDBRANCH  41  42
ENDBRANCH  40  41
ENDBRANCH  39  40
ENDBRANCH  38  39
ENDBRANCH  37  38
ENDBRANCH   1  37
TORSDOF 26
ENDMDL
