MODEL 1
REMARK VINA RESULT:     -10.1      0.000      0.000
REMARK SMILES Cc1ccn2c([C@@H]3CCCC[C@@H]3C(=O)OCCOCCOCCOCCOC(=O)c3ccc(-c4c5nc(c(-c6ccccc6)c6ccc([nH]6)c(-c6ccccc6)c6nc(c(-c7ccccc7)c7ccc4[nH]7)C=C6)C=C5)cc3)nnc2c1
REMARK SMILES IDX 22 1 21 2 20 3 19 4 18 5 17 6 16 7 15 8 13 9 14 10 12 11
REMARK SMILES IDX 7 12 8 13 9 14 11 15 10 16 6 17 1 18 2 19 3 20 81 21 4 22
REMARK SMILES IDX 80 23 5 24 79 25 78 26 23 27 24 28 25 29 26 30 27 31 28 32
REMARK SMILES IDX 29 33 30 34 31 35 77 36 32 37 76 38 33 39 34 40 35 41 70 42
REMARK SMILES IDX 36 43 75 44 69 45 71 46 37 47 74 48 68 49 67 50 38 52 60 53
REMARK SMILES IDX 45 54 59 55 46 56 49 57 58 58 72 59 47 60 48 61 57 63 73 64
REMARK SMILES IDX 50 65 39 66 40 67 44 68 41 69 43 70 42 71 61 72 62 73 66 74
REMARK SMILES IDX 63 75 65 76 64 77 51 78 52 79 56 80 53 81 55 82 54 83
REMARK H PARENT 71 51 49 62
REMARK Flexibility Score: inf
ROOT
ATOM      1  C   UNL A   1      38.211  22.212  25.776  1.00  0.00     0.188 C 
ENDROOT
BRANCH   1   2
ATOM      2  O   UNL A   1      37.452  21.285  25.010  1.00  0.00    -0.377 OA
BRANCH   2   3
ATOM      3  C   UNL A   1      36.243  21.837  24.526  1.00  0.00     0.188 C 
BRANCH   3   4
ATOM      4  C   UNL A   1      35.948  23.139  25.236  1.00  0.00     0.188 C 
BRANCH   4   5
ATOM      5  O   UNL A   1      34.700  23.739  24.932  1.00  0.00    -0.376 OA
BRANCH   5   6
ATOM      6  C   UNL A   1      34.256  24.827  25.738  1.00  0.00     0.202 C 
BRANCH   6   7
ATOM      7  C   UNL A   1      34.029  26.211  25.105  1.00  0.00     0.261 C 
BRANCH   7   8
ATOM      8  O   UNL A   1      33.344  26.225  23.836  1.00  0.00    -0.463 OA
BRANCH   8   9
ATOM      9  C   UNL A   1      32.544  27.288  23.550  1.00  0.00     0.309 C 
ATOM     10  O   UNL A   1      32.537  27.872  22.479  1.00  0.00    -0.252 OA
BRANCH   9  11
ATOM     11  C   UNL A   1      31.590  27.539  24.733  1.00  0.00     0.110 C 
ATOM     12  C   UNL A   1      30.346  26.615  24.820  1.00  0.00     0.072 C 
ATOM     13  C   UNL A   1      29.453  26.745  23.596  1.00  0.00     0.012 C 
ATOM     14  C   UNL A   1      29.088  28.222  23.362  1.00  0.00     0.001 C 
ATOM     15  C   UNL A   1      31.145  28.999  24.645  1.00  0.00     0.016 C 
ATOM     16  C   UNL A   1      30.262  29.205  23.420  1.00  0.00     0.001 C 
BRANCH  12  17
ATOM     17  C   UNL A   1      30.495  25.215  25.400  1.00  0.00     0.141 A 
ATOM     18  C   UNL A   1      32.822  20.271  24.135  1.00  0.00     0.044 C 
ATOM     19  C   UNL A   1      32.037  21.525  24.408  1.00  0.00    -0.046 A 
ATOM     20  C   UNL A   1      31.828  22.450  23.294  1.00  0.00     0.022 A 
ATOM     21  C   UNL A   1      31.580  21.836  25.638  1.00  0.00     0.053 A 
ATOM     22  C   UNL A   1      31.267  23.656  23.518  1.00  0.00     0.095 A 
ATOM     23  C   UNL A   1      30.989  23.111  25.875  1.00  0.00     0.161 A 
ATOM     24  N   UNL A   1      30.893  24.013  24.812  1.00  0.00    -0.286 N 
ATOM     25  N   UNL A   1      30.587  23.685  26.982  1.00  0.00    -0.130 NA
ATOM     26  N   UNL A   1      30.285  24.987  26.690  1.00  0.00    -0.134 NA
ENDBRANCH  12  17
ENDBRANCH   9  11
ENDBRANCH   8   9
ENDBRANCH   7   8
ENDBRANCH   6   7
ENDBRANCH   5   6
ENDBRANCH   4   5
ENDBRANCH   3   4
ENDBRANCH   2   3
ENDBRANCH   1   2
BRANCH   1  27
ATOM     27  C   UNL A   1      39.666  21.816  26.094  1.00  0.00     0.188 C 
BRANCH  27  28
ATOM     28  O   UNL A   1      40.024  22.000  27.454  1.00  0.00    -0.376 OA
BRANCH  28  29
ATOM     29  C   UNL A   1      41.318  21.539  27.826  1.00  0.00     0.202 C 
BRANCH  29  30
ATOM     30  C   UNL A   1      42.397  21.409  26.731  1.00  0.00     0.261 C 
BRANCH  30  31
ATOM     31  O   UNL A   1      43.287  22.543  26.591  1.00  0.00    -0.460 OA
BRANCH  31  32
ATOM     32  C   UNL A   1      43.247  23.320  25.478  1.00  0.00     0.338 C 
ATOM     33  O   UNL A   1      43.025  22.950  24.352  1.00  0.00    -0.246 OA
BRANCH  32  34
ATOM     34  C   UNL A   1      43.145  24.746  25.956  1.00  0.00     0.060 A 
ATOM     35  C   UNL A   1      43.819  25.199  27.096  1.00  0.00     0.016 A 
ATOM     36  C   UNL A   1      42.065  25.495  25.456  1.00  0.00     0.016 A 
ATOM     37  C   UNL A   1      43.277  26.264  27.829  1.00  0.00     0.010 A 
ATOM     38  C   UNL A   1      41.543  26.578  26.181  1.00  0.00     0.010 A 
ATOM     39  C   UNL A   1      42.105  26.936  27.406  1.00  0.00    -0.014 A 
BRANCH  39  40
ATOM     40  C   UNL A   1      41.670  28.109  28.200  1.00  0.00     0.031 A 
ATOM     41  C   UNL A   1      42.590  29.278  28.053  1.00  0.00     0.074 A 
ATOM     42  C   UNL A   1      40.518  28.350  28.870  1.00  0.00     0.049 A 
ATOM     43  N   UNL A   1      43.220  29.941  28.968  1.00  0.00    -0.248 NA
ATOM     44  C   UNL A   1      42.907  29.680  26.674  1.00  0.00     0.031 C 
ATOM     45  C   UNL A   1      39.282  27.570  28.894  1.00  0.00     0.029 A 
ATOM     46  N   UNL A   1      40.188  29.467  29.606  1.00  0.00    -0.354 N 
ATOM     47  C   UNL A   1      43.960  30.907  28.289  1.00  0.00     0.074 A 
ATOM     48  C   UNL A   1      43.809  30.634  26.882  1.00  0.00     0.031 C 
ATOM     49  C   UNL A   1      38.283  28.337  29.396  1.00  0.00     0.029 A 
ATOM     50  C   UNL A   1      38.826  29.615  29.834  1.00  0.00     0.049 A 
ATOM     51  H   UNL A   1      40.859  30.104  29.943  1.00  0.00     0.167 HD
ATOM     52  C   UNL A   1      44.577  31.955  28.898  1.00  0.00     0.031 A 
ATOM     53  C   UNL A   1      38.184  30.732  30.264  1.00  0.00     0.031 A 
ATOM     54  C   UNL A   1      44.709  31.786  30.315  1.00  0.00     0.049 A 
ATOM     55  C   UNL A   1      39.170  31.646  30.882  1.00  0.00     0.074 A 
ATOM     56  C   UNL A   1      45.356  30.874  31.123  1.00  0.00     0.029 A 
ATOM     57  N   UNL A   1      43.855  32.475  31.141  1.00  0.00    -0.354 N 
ATOM     58  N   UNL A   1      39.740  31.450  32.035  1.00  0.00    -0.248 NA
ATOM     59  C   UNL A   1      39.780  32.672  30.052  1.00  0.00     0.031 C 
ATOM     60  C   UNL A   1      44.519  30.732  32.266  1.00  0.00     0.029 A 
ATOM     61  C   UNL A   1      43.428  31.584  32.093  1.00  0.00     0.049 A 
ATOM     62  H   UNL A   1      43.599  33.422  31.064  1.00  0.00     0.167 HD
ATOM     63  C   UNL A   1      41.004  32.004  31.905  1.00  0.00     0.074 A 
ATOM     64  C   UNL A   1      40.922  32.849  30.717  1.00  0.00     0.031 C 
ATOM     65  C   UNL A   1      42.072  31.514  32.600  1.00  0.00     0.031 A 
BRANCH  52  66
ATOM     66  C   UNL A   1      44.871  33.249  28.197  1.00  0.00    -0.014 A 
ATOM     67  C   UNL A   1      46.121  33.521  27.604  1.00  0.00     0.009 A 
ATOM     68  C   UNL A   1      43.831  34.154  27.933  1.00  0.00     0.009 A 
ATOM     69  C   UNL A   1      46.340  34.659  26.826  1.00  0.00     0.001 A 
ATOM     70  C   UNL A   1      44.034  35.270  27.112  1.00  0.00     0.001 A 
ATOM     71  C   UNL A   1      45.289  35.526  26.566  1.00  0.00     0.000 A 
ENDBRANCH  52  66
BRANCH  53  72
ATOM     72  C   UNL A   1      36.812  31.204  29.951  1.00  0.00    -0.014 A 
ATOM     73  C   UNL A   1      36.406  31.365  28.615  1.00  0.00     0.009 A 
ATOM     74  C   UNL A   1      35.994  31.763  30.949  1.00  0.00     0.009 A 
ATOM     75  C   UNL A   1      35.252  32.082  28.283  1.00  0.00     0.001 A 
ATOM     76  C   UNL A   1      34.841  32.490  30.617  1.00  0.00     0.001 A 
ATOM     77  C   UNL A   1      34.479  32.660  29.284  1.00  0.00     0.000 A 
ENDBRANCH  53  72
BRANCH  65  78
ATOM     78  C   UNL A   1      41.831  30.568  33.759  1.00  0.00    -0.014 A 
ATOM     79  C   UNL A   1      41.990  31.057  35.067  1.00  0.00     0.009 A 
ATOM     80  C   UNL A   1      41.606  29.191  33.602  1.00  0.00     0.009 A 
ATOM     81  C   UNL A   1      41.945  30.202  36.173  1.00  0.00     0.001 A 
ATOM     82  C   UNL A   1      41.506  28.344  34.712  1.00  0.00     0.001 A 
ATOM     83  C   UNL A   1      41.698  28.845  35.994  1.00  0.00     0.000 A 
ENDBRANCH  65  78
ENDBRANCH  39  40
ENDBRANCH  32  34
ENDBRANCH  31  32
ENDBRANCH  30  31
ENDBRANCH  29  30
ENDBRANCH  28  29
ENDBRANCH  27  28
ENDBRANCH   1  27
TORSDOF 21
ENDMDL
MODEL 2
REMARK VINA RESULT:     -10.0      2.065      4.082
REMARK SMILES Cc1ccn2c([C@@H]3CCCC[C@@H]3C(=O)OCCOCCOCCOCCOC(=O)c3ccc(-c4c5nc(c(-c6ccccc6)c6ccc([nH]6)c(-c6ccccc6)c6nc(c(-c7ccccc7)c7ccc4[nH]7)C=C6)C=C5)cc3)nnc2c1
REMARK SMILES IDX 22 1 21 2 20 3 19 4 18 5 17 6 16 7 15 8 13 9 14 10 12 11
REMARK SMILES IDX 7 12 8 13 9 14 11 15 10 16 6 17 1 18 2 19 3 20 81 21 4 22
REMARK SMILES IDX 80 23 5 24 79 25 78 26 23 27 24 28 25 29 26 30 27 31 28 32
REMARK SMILES IDX 29 33 30 34 31 35 77 36 32 37 76 38 33 39 34 40 35 41 70 42
REMARK SMILES IDX 36 43 75 44 69 45 71 46 37 47 74 48 68 49 67 50 38 52 60 53
REMARK SMILES IDX 45 54 59 55 46 56 49 57 58 58 72 59 47 60 48 61 57 63 73 64
REMARK SMILES IDX 50 65 39 66 40 67 44 68 41 69 43 70 42 71 61 72 62 73 66 74
REMARK SMILES IDX 63 75 65 76 64 77 51 78 52 79 56 80 53 81 55 82 54 83
REMARK H PARENT 71 51 49 62
REMARK Flexibility Score: inf
ROOT
ATOM      1  C   UNL A   1      42.346  18.992  26.669  1.00  0.00     0.188 C 
ENDROOT
BRANCH   1   2
ATOM      2  O   UNL A   1      41.436  19.165  25.591  1.00  0.00    -0.377 OA
BRANCH   2   3
ATOM      3  C   UNL A   1      40.244  19.818  25.981  1.00  0.00     0.188 C 
BRANCH   3   4
ATOM      4  C   UNL A   1      40.539  20.827  27.067  1.00  0.00     0.188 C 
BRANCH   4   5
ATOM      5  O   UNL A   1      40.775  22.155  26.628  1.00  0.00    -0.376 OA
BRANCH   5   6
ATOM      6  C   UNL A   1      40.161  23.225  27.340  1.00  0.00     0.202 C 
BRANCH   6   7
ATOM      7  C   UNL A   1      38.935  23.941  26.748  1.00  0.00     0.261 C 
BRANCH   7   8
ATOM      8  O   UNL A   1      38.294  23.286  25.634  1.00  0.00    -0.463 OA
BRANCH   8   9
ATOM      9  C   UNL A   1      36.935  23.319  25.566  1.00  0.00     0.309 C 
ATOM     10  O   UNL A   1      36.218  23.797  26.429  1.00  0.00    -0.252 OA
BRANCH   9  11
ATOM     11  C   UNL A   1      36.481  22.777  24.198  1.00  0.00     0.110 C 
ATOM     12  C   UNL A   1      34.958  22.839  23.906  1.00  0.00     0.072 C 
ATOM     13  C   UNL A   1      34.152  22.026  24.907  1.00  0.00     0.012 C 
ATOM     14  C   UNL A   1      34.691  20.586  24.975  1.00  0.00     0.001 C 
ATOM     15  C   UNL A   1      36.966  21.331  24.108  1.00  0.00     0.016 C 
ATOM     16  C   UNL A   1      36.214  20.461  25.108  1.00  0.00     0.001 C 
BRANCH  12  17
ATOM     17  C   UNL A   1      34.338  24.153  23.451  1.00  0.00     0.141 A 
ATOM     18  C   UNL A   1      33.289  29.306  25.402  1.00  0.00     0.044 C 
ATOM     19  C   UNL A   1      33.391  27.884  24.923  1.00  0.00    -0.046 A 
ATOM     20  C   UNL A   1      33.639  26.847  25.924  1.00  0.00     0.022 A 
ATOM     21  C   UNL A   1      33.318  27.556  23.617  1.00  0.00     0.053 A 
ATOM     22  C   UNL A   1      33.892  25.582  25.533  1.00  0.00     0.095 A 
ATOM     23  C   UNL A   1      33.586  26.220  23.203  1.00  0.00     0.161 A 
ATOM     24  N   UNL A   1      33.918  25.272  24.174  1.00  0.00    -0.286 N 
ATOM     25  N   UNL A   1      33.695  25.690  22.009  1.00  0.00    -0.130 NA
ATOM     26  N   UNL A   1      34.164  24.413  22.162  1.00  0.00    -0.134 NA
ENDBRANCH  12  17
ENDBRANCH   9  11
ENDBRANCH   8   9
ENDBRANCH   7   8
ENDBRANCH   6   7
ENDBRANCH   5   6
ENDBRANCH   4   5
ENDBRANCH   3   4
ENDBRANCH   2   3
ENDBRANCH   1   2
BRANCH   1  27
ATOM     27  C   UNL A   1      43.614  18.165  26.378  1.00  0.00     0.188 C 
BRANCH  27  28
ATOM     28  O   UNL A   1      44.097  18.309  25.053  1.00  0.00    -0.376 OA
BRANCH  28  29
ATOM     29  C   UNL A   1      45.184  19.211  24.881  1.00  0.00     0.202 C 
BRANCH  29  30
ATOM     30  C   UNL A   1      44.918  20.561  24.183  1.00  0.00     0.261 C 
BRANCH  30  31
ATOM     31  O   UNL A   1      44.340  21.594  25.016  1.00  0.00    -0.460 OA
BRANCH  31  32
ATOM     32  C   UNL A   1      44.679  22.898  24.839  1.00  0.00     0.338 C 
ATOM     33  O   UNL A   1      45.329  23.352  23.930  1.00  0.00    -0.246 OA
BRANCH  32  34
ATOM     34  C   UNL A   1      43.783  23.700  25.747  1.00  0.00     0.060 A 
ATOM     35  C   UNL A   1      42.888  24.656  25.254  1.00  0.00     0.016 A 
ATOM     36  C   UNL A   1      44.146  23.737  27.105  1.00  0.00     0.016 A 
ATOM     37  C   UNL A   1      42.539  25.745  26.067  1.00  0.00     0.010 A 
ATOM     38  C   UNL A   1      43.770  24.816  27.921  1.00  0.00     0.010 A 
ATOM     39  C   UNL A   1      43.014  25.862  27.394  1.00  0.00    -0.014 A 
BRANCH  39  40
ATOM     40  C   UNL A   1      42.509  26.999  28.200  1.00  0.00     0.031 A 
ATOM     41  C   UNL A   1      43.435  28.173  28.184  1.00  0.00     0.074 A 
ATOM     42  C   UNL A   1      41.304  27.212  28.779  1.00  0.00     0.049 A 
ATOM     43  N   UNL A   1      43.983  28.794  29.177  1.00  0.00    -0.248 NA
ATOM     44  C   UNL A   1      43.867  28.636  26.856  1.00  0.00     0.031 C 
ATOM     45  C   UNL A   1      40.072  26.433  28.663  1.00  0.00     0.029 A 
ATOM     46  N   UNL A   1      40.909  28.294  29.534  1.00  0.00    -0.354 N 
ATOM     47  C   UNL A   1      44.775  29.788  28.608  1.00  0.00     0.074 A 
ATOM     48  C   UNL A   1      44.745  29.578  27.182  1.00  0.00     0.031 C 
ATOM     49  C   UNL A   1      39.032  27.177  29.111  1.00  0.00     0.029 A 
ATOM     50  C   UNL A   1      39.532  28.433  29.651  1.00  0.00     0.049 A 
ATOM     51  H   UNL A   1      41.547  28.915  29.954  1.00  0.00     0.167 HD
ATOM     52  C   UNL A   1      45.335  30.808  29.313  1.00  0.00     0.031 A 
ATOM     53  C   UNL A   1      38.852  29.530  30.074  1.00  0.00     0.031 A 
ATOM     54  C   UNL A   1      45.346  30.576  30.727  1.00  0.00     0.049 A 
ATOM     55  C   UNL A   1      39.780  30.416  30.814  1.00  0.00     0.074 A 
ATOM     56  C   UNL A   1      45.925  29.628  31.546  1.00  0.00     0.029 A 
ATOM     57  N   UNL A   1      44.423  31.228  31.507  1.00  0.00    -0.354 N 
ATOM     58  N   UNL A   1      40.250  30.168  32.001  1.00  0.00    -0.248 NA
ATOM     59  C   UNL A   1      40.455  31.477  30.085  1.00  0.00     0.031 C 
ATOM     60  C   UNL A   1      44.994  29.435  32.606  1.00  0.00     0.029 A 
ATOM     61  C   UNL A   1      43.920  30.295  32.379  1.00  0.00     0.049 A 
ATOM     62  H   UNL A   1      44.172  32.178  31.451  1.00  0.00     0.167 HD
ATOM     63  C   UNL A   1      41.518  30.726  32.004  1.00  0.00     0.074 A 
ATOM     64  C   UNL A   1      41.536  31.622  30.853  1.00  0.00     0.031 C 
ATOM     65  C   UNL A   1      42.525  30.205  32.765  1.00  0.00     0.031 A 
BRANCH  52  66
ATOM     66  C   UNL A   1      45.684  32.132  28.698  1.00  0.00    -0.014 A 
ATOM     67  C   UNL A   1      46.967  32.705  28.815  1.00  0.00     0.009 A 
ATOM     68  C   UNL A   1      44.791  32.747  27.808  1.00  0.00     0.009 A 
ATOM     69  C   UNL A   1      47.330  33.858  28.117  1.00  0.00     0.001 A 
ATOM     70  C   UNL A   1      45.168  33.875  27.069  1.00  0.00     0.001 A 
ATOM     71  C   UNL A   1      46.433  34.434  27.230  1.00  0.00     0.000 A 
ENDBRANCH  52  66
BRANCH  53  72
ATOM     72  C   UNL A   1      37.511  30.017  29.666  1.00  0.00    -0.014 A 
ATOM     73  C   UNL A   1      37.019  29.743  28.378  1.00  0.00     0.009 A 
ATOM     74  C   UNL A   1      36.830  30.983  30.428  1.00  0.00     0.009 A 
ATOM     75  C   UNL A   1      35.915  30.426  27.857  1.00  0.00     0.001 A 
ATOM     76  C   UNL A   1      35.728  31.676  29.903  1.00  0.00     0.001 A 
ATOM     77  C   UNL A   1      35.280  31.405  28.613  1.00  0.00     0.000 A 
ENDBRANCH  53  72
BRANCH  65  78
ATOM     78  C   UNL A   1      42.189  29.208  33.856  1.00  0.00    -0.014 A 
ATOM     79  C   UNL A   1      42.287  29.622  35.196  1.00  0.00     0.009 A 
ATOM     80  C   UNL A   1      41.932  27.849  33.613  1.00  0.00     0.009 A 
ATOM     81  C   UNL A   1      42.152  28.713  36.249  1.00  0.00     0.001 A 
ATOM     82  C   UNL A   1      41.742  26.949  34.668  1.00  0.00     0.001 A 
ATOM     83  C   UNL A   1      41.875  27.376  35.984  1.00  0.00     0.000 A 
ENDBRANCH  65  78
ENDBRANCH  39  40
ENDBRANCH  32  34
ENDBRANCH  31  32
ENDBRANCH  30  31
ENDBRANCH  29  30
ENDBRANCH  28  29
ENDBRANCH  27  28
ENDBRANCH   1  27
TORSDOF 21
ENDMDL
MODEL 3
REMARK VINA RESULT:      -9.9      2.837      8.324
REMARK SMILES Cc1ccn2c([C@@H]3CCCC[C@@H]3C(=O)OCCOCCOCCOCCOC(=O)c3ccc(-c4c5nc(c(-c6ccccc6)c6ccc([nH]6)c(-c6ccccc6)c6nc(c(-c7ccccc7)c7ccc4[nH]7)C=C6)C=C5)cc3)nnc2c1
REMARK SMILES IDX 22 1 21 2 20 3 19 4 18 5 17 6 16 7 15 8 13 9 14 10 12 11
REMARK SMILES IDX 7 12 8 13 9 14 11 15 10 16 6 17 1 18 2 19 3 20 81 21 4 22
REMARK SMILES IDX 80 23 5 24 79 25 78 26 23 27 24 28 25 29 26 30 27 31 28 32
REMARK SMILES IDX 29 33 30 34 31 35 77 36 32 37 76 38 33 39 34 40 35 41 70 42
REMARK SMILES IDX 36 43 75 44 69 45 71 46 37 47 74 48 68 49 67 50 38 52 60 53
REMARK SMILES IDX 45 54 59 55 46 56 49 57 58 58 72 59 47 60 48 61 57 63 73 64
REMARK SMILES IDX 50 65 39 66 40 67 44 68 41 69 43 70 42 71 61 72 62 73 66 74
REMARK SMILES IDX 63 75 65 76 64 77 51 78 52 79 56 80 53 81 55 82 54 83
REMARK H PARENT 71 51 49 62
REMARK Flexibility Score: inf
ROOT
ATOM      1  C   UNL A   1      31.743  28.681  24.199  1.00  0.00     0.188 C 
ENDROOT
BRANCH   1   2
ATOM      2  O   UNL A   1      31.320  27.407  23.728  1.00  0.00    -0.377 OA
BRANCH   2   3
ATOM      3  C   UNL A   1      30.376  26.794  24.582  1.00  0.00     0.188 C 
BRANCH   3   4
ATOM      4  C   UNL A   1      31.083  25.926  25.597  1.00  0.00     0.188 C 
BRANCH   4   5
ATOM      5  O   UNL A   1      30.244  25.173  26.457  1.00  0.00    -0.376 OA
BRANCH   5   6
ATOM      6  C   UNL A   1      30.545  23.796  26.666  1.00  0.00     0.202 C 
BRANCH   6   7
ATOM      7  C   UNL A   1      31.973  23.369  27.043  1.00  0.00     0.261 C 
BRANCH   7   8
ATOM      8  O   UNL A   1      32.856  23.061  25.944  1.00  0.00    -0.463 OA
BRANCH   8   9
ATOM      9  C   UNL A   1      34.117  22.640  26.233  1.00  0.00     0.309 C 
ATOM     10  O   UNL A   1      34.760  23.014  27.199  1.00  0.00    -0.252 OA
BRANCH   9  11
ATOM     11  C   UNL A   1      34.530  21.547  25.229  1.00  0.00     0.110 C 
ATOM     12  C   UNL A   1      35.779  21.851  24.358  1.00  0.00     0.072 C 
ATOM     13  C   UNL A   1      35.583  23.087  23.493  1.00  0.00     0.012 C 
ATOM     14  C   UNL A   1      34.292  22.954  22.665  1.00  0.00     0.001 C 
ATOM     15  C   UNL A   1      33.323  21.288  24.329  1.00  0.00     0.016 C 
ATOM     16  C   UNL A   1      33.054  22.503  23.449  1.00  0.00     0.001 C 
BRANCH  12  17
ATOM     17  C   UNL A   1      37.168  21.657  24.951  1.00  0.00     0.141 A 
ATOM     18  C   UNL A   1      40.773  24.249  28.377  1.00  0.00     0.044 C 
ATOM     19  C   UNL A   1      39.905  23.630  27.316  1.00  0.00    -0.046 A 
ATOM     20  C   UNL A   1      38.850  24.459  26.735  1.00  0.00     0.022 A 
ATOM     21  C   UNL A   1      40.037  22.342  26.938  1.00  0.00     0.053 A 
ATOM     22  C   UNL A   1      37.949  23.909  25.896  1.00  0.00     0.095 A 
ATOM     23  C   UNL A   1      39.084  21.760  26.053  1.00  0.00     0.161 A 
ATOM     24  N   UNL A   1      38.029  22.551  25.591  1.00  0.00    -0.286 N 
ATOM     25  N   UNL A   1      38.928  20.526  25.641  1.00  0.00    -0.130 NA
ATOM     26  N   UNL A   1      37.741  20.460  24.963  1.00  0.00    -0.134 NA
ENDBRANCH  12  17
ENDBRANCH   9  11
ENDBRANCH   8   9
ENDBRANCH   7   8
ENDBRANCH   6   7
ENDBRANCH   5   6
ENDBRANCH   4   5
ENDBRANCH   3   4
ENDBRANCH   2   3
ENDBRANCH   1   2
BRANCH   1  27
ATOM     27  C   UNL A   1      33.264  28.925  24.260  1.00  0.00     0.188 C 
BRANCH  27  28
ATOM     28  O   UNL A   1      33.705  29.474  25.491  1.00  0.00    -0.376 OA
BRANCH  28  29
ATOM     29  C   UNL A   1      32.683  29.911  26.380  1.00  0.00     0.202 C 
BRANCH  29  30
ATOM     30  C   UNL A   1      32.999  31.068  27.352  1.00  0.00     0.261 C 
BRANCH  30  31
ATOM     31  O   UNL A   1      34.371  31.529  27.354  1.00  0.00    -0.460 OA
BRANCH  31  32
ATOM     32  C   UNL A   1      35.036  31.719  28.522  1.00  0.00     0.338 C 
ATOM     33  O   UNL A   1      34.542  31.944  29.600  1.00  0.00    -0.246 OA
BRANCH  32  34
ATOM     34  C   UNL A   1      36.441  31.220  28.302  1.00  0.00     0.060 A 
ATOM     35  C   UNL A   1      36.705  29.953  27.770  1.00  0.00     0.016 A 
ATOM     36  C   UNL A   1      37.459  31.898  28.995  1.00  0.00     0.016 A 
ATOM     37  C   UNL A   1      37.899  29.304  28.117  1.00  0.00     0.010 A 
ATOM     38  C   UNL A   1      38.664  31.252  29.316  1.00  0.00     0.010 A 
ATOM     39  C   UNL A   1      38.872  29.928  28.934  1.00  0.00    -0.014 A 
BRANCH  39  40
ATOM     40  C   UNL A   1      40.140  29.195  29.162  1.00  0.00     0.031 A 
ATOM     41  C   UNL A   1      40.341  28.825  30.596  1.00  0.00     0.074 A 
ATOM     42  C   UNL A   1      41.029  28.664  28.289  1.00  0.00     0.049 A 
ATOM     43  N   UNL A   1      41.332  29.104  31.380  1.00  0.00    -0.248 NA
ATOM     44  C   UNL A   1      39.221  28.127  31.246  1.00  0.00     0.031 C 
ATOM     45  C   UNL A   1      40.930  28.529  26.837  1.00  0.00     0.029 A 
ATOM     46  N   UNL A   1      42.204  28.006  28.577  1.00  0.00    -0.354 N 
ATOM     47  C   UNL A   1      41.002  28.547  32.614  1.00  0.00     0.074 A 
ATOM     48  C   UNL A   1      39.653  28.051  32.500  1.00  0.00     0.031 C 
ATOM     49  C   UNL A   1      41.860  27.641  26.409  1.00  0.00     0.029 A 
ATOM     50  C   UNL A   1      42.693  27.233  27.532  1.00  0.00     0.049 A 
ATOM     51  H   UNL A   1      42.659  28.079  29.447  1.00  0.00     0.167 HD
ATOM     52  C   UNL A   1      41.879  28.416  33.645  1.00  0.00     0.031 A 
ATOM     53  C   UNL A   1      43.646  26.268  27.603  1.00  0.00     0.031 A 
ATOM     54  C   UNL A   1      43.057  29.218  33.489  1.00  0.00     0.049 A 
ATOM     55  C   UNL A   1      44.416  26.443  28.855  1.00  0.00     0.074 A 
ATOM     56  C   UNL A   1      43.297  30.574  33.394  1.00  0.00     0.029 A 
ATOM     57  N   UNL A   1      44.222  28.606  33.096  1.00  0.00    -0.354 N 
ATOM     58  N   UNL A   1      45.273  27.397  29.069  1.00  0.00    -0.248 NA
ATOM     59  C   UNL A   1      43.997  25.705  30.036  1.00  0.00     0.031 C 
ATOM     60  C   UNL A   1      44.398  30.694  32.500  1.00  0.00     0.029 A 
ATOM     61  C   UNL A   1      44.775  29.404  32.126  1.00  0.00     0.049 A 
ATOM     62  H   UNL A   1      44.587  27.760  33.442  1.00  0.00     0.167 HD
ATOM     63  C   UNL A   1      45.179  27.661  30.426  1.00  0.00     0.074 A 
ATOM     64  C   UNL A   1      44.478  26.509  30.984  1.00  0.00     0.031 C 
ATOM     65  C   UNL A   1      45.423  28.907  30.929  1.00  0.00     0.031 A 
BRANCH  52  66
ATOM     66  C   UNL A   1      41.740  27.367  34.709  1.00  0.00    -0.014 A 
ATOM     67  C   UNL A   1      41.853  25.990  34.432  1.00  0.00     0.009 A 
ATOM     68  C   UNL A   1      41.695  27.743  36.061  1.00  0.00     0.009 A 
ATOM     69  C   UNL A   1      41.874  25.029  35.445  1.00  0.00     0.001 A 
ATOM     70  C   UNL A   1      41.766  26.786  37.080  1.00  0.00     0.001 A 
ATOM     71  C   UNL A   1      41.847  25.431  36.772  1.00  0.00     0.000 A 
ENDBRANCH  52  66
BRANCH  53  72
ATOM     72  C   UNL A   1      43.785  25.027  26.800  1.00  0.00    -0.014 A 
ATOM     73  C   UNL A   1      43.175  24.928  25.538  1.00  0.00     0.009 A 
ATOM     74  C   UNL A   1      44.274  23.843  27.380  1.00  0.00     0.009 A 
ATOM     75  C   UNL A   1      43.027  23.695  24.893  1.00  0.00     0.001 A 
ATOM     76  C   UNL A   1      44.118  22.604  26.738  1.00  0.00     0.001 A 
ATOM     77  C   UNL A   1      43.483  22.531  25.501  1.00  0.00     0.000 A 
ENDBRANCH  53  72
BRANCH  65  78
ATOM     78  C   UNL A   1      46.109  29.938  30.054  1.00  0.00    -0.014 A 
ATOM     79  C   UNL A   1      45.347  30.601  29.076  1.00  0.00     0.009 A 
ATOM     80  C   UNL A   1      47.495  30.161  30.060  1.00  0.00     0.009 A 
ATOM     81  C   UNL A   1      45.948  31.438  28.131  1.00  0.00     0.001 A 
ATOM     82  C   UNL A   1      48.089  31.042  29.149  1.00  0.00     0.001 A 
ATOM     83  C   UNL A   1      47.320  31.661  28.171  1.00  0.00     0.000 A 
ENDBRANCH  65  78
ENDBRANCH  39  40
ENDBRANCH  32  34
ENDBRANCH  31  32
ENDBRANCH  30  31
ENDBRANCH  29  30
ENDBRANCH  28  29
ENDBRANCH  27  28
ENDBRANCH   1  27
TORSDOF 21
ENDMDL
