MODEL 1
REMARK VINA RESULT:      -7.1      0.000      0.000
REMARK SMILES O=C(OCCOCCOCCOCCOC(=O)c1ccc(-c2c3nc(c(-c4ccccc4)c4ccc([nH]4)c(-c4ccccc4)c4nc(c(-c5ccccc5)c5ccc2[nH]5)C=C4)C=C3)cc1)C1=Cc2cc(Cl)cc(-c3ccc(CO)cc3)c2O[C@@H]1C(F)(F)F
REMARK SMILES IDX 8 1 7 2 6 3 5 4 4 5 3 6 2 7 1 8 66 9 67 10 84 11 68 12 83 13
REMARK SMILES IDX 69 14 82 15 70 16 73 17 71 18 72 19 85 20 86 21 87 22 88 23
REMARK SMILES IDX 74 24 75 25 81 26 76 27 80 28 77 29 78 30 79 31 9 33 10 34
REMARK SMILES IDX 11 35 12 36 13 37 14 38 15 39 16 40 17 41 18 42 19 43 65 44
REMARK SMILES IDX 20 45 64 46 21 47 22 48 23 49 58 50 24 51 63 52 57 53 59 54
REMARK SMILES IDX 25 55 62 56 56 57 55 58 26 60 48 61 33 62 47 63 34 64 37 65
REMARK SMILES IDX 46 66 60 67 35 68 36 69 45 71 61 72 38 73 27 74 28 75 32 76
REMARK SMILES IDX 29 77 31 78 30 79 49 80 50 81 54 82 51 83 53 84 52 85 39 86
REMARK SMILES IDX 40 87 44 88 41 89 43 90 42 91
REMARK H PARENT 79 32 59 59 37 70
REMARK Flexibility Score: inf
ROOT
ATOM      1  C   UNL A   1      44.577  19.020  23.963  1.00  0.00     0.188 C 
ENDROOT
BRANCH   1   2
ATOM      2  C   UNL A   1      44.215  18.709  25.413  1.00  0.00     0.188 C 
BRANCH   2   3
ATOM      3  O   UNL A   1      42.910  18.888  26.054  1.00  0.00    -0.376 OA
BRANCH   3   4
ATOM      4  C   UNL A   1      42.106  20.122  26.811  1.00  0.00     0.202 C 
BRANCH   4   5
ATOM      5  C   UNL A   1      41.612  22.062  25.980  1.00  0.00     0.261 C 
BRANCH   5   6
ATOM      6  O   UNL A   1      42.517  23.289  25.935  1.00  0.00    -0.460 OA
BRANCH   6   7
ATOM      7  C   UNL A   1      41.930  24.370  26.463  1.00  0.00     0.338 C 
ATOM      8  O   UNL A   1      40.869  24.864  26.176  1.00  0.00    -0.246 OA
BRANCH   7   9
ATOM      9  C   UNL A   1      43.127  24.942  27.056  1.00  0.00     0.087 C 
ATOM     10  C   UNL A   1      43.539  26.211  26.473  1.00  0.00     0.027 C 
ATOM     11  C   UNL A   1      42.495  24.717  28.855  1.00  0.00     0.316 C 
ATOM     12  C   UNL A   1      43.298  27.809  27.253  1.00  0.00     0.019 A 
ATOM     13  O   UNL A   1      42.082  26.445  29.679  1.00  0.00    -0.475 OA
ATOM     14  C   UNL A   1      43.732  28.907  26.555  1.00  0.00     0.032 A 
ATOM     15  C   UNL A   1      42.463  28.006  28.770  1.00  0.00     0.135 A 
ATOM     16  C   UNL A   1      43.441  30.138  27.145  1.00  0.00     0.042 A 
ATOM     17  C   UNL A   1      42.137  29.292  29.217  1.00  0.00     0.026 A 
ATOM     18  Cl  UNL A   1      44.022  31.559  26.343  1.00  0.00    -0.084 Cl
ATOM     19  C   UNL A   1      42.687  30.313  28.365  1.00  0.00     0.033 A 
BRANCH  11  20
ATOM     20  C   UNL A   1      43.720  23.521  29.078  1.00  0.00     0.430 C 
ATOM     21  F   UNL A   1      44.823  23.520  28.308  1.00  0.00    -0.167 F 
ATOM     22  F   UNL A   1      44.224  23.730  30.337  1.00  0.00    -0.167 F 
ATOM     23  F   UNL A   1      43.266  22.241  29.109  1.00  0.00    -0.167 F 
ENDBRANCH  11  20
BRANCH  17  24
ATOM     24  C   UNL A   1      41.386  29.792  30.371  1.00  0.00    -0.015 A 
ATOM     25  C   UNL A   1      40.084  30.316  30.305  1.00  0.00     0.009 A 
ATOM     26  C   UNL A   1      42.052  29.992  31.567  1.00  0.00     0.009 A 
ATOM     27  C   UNL A   1      39.421  30.804  31.457  1.00  0.00     0.007 A 
ATOM     28  C   UNL A   1      41.352  30.312  32.727  1.00  0.00     0.007 A 
ATOM     29  C   UNL A   1      40.026  30.711  32.707  1.00  0.00    -0.023 A 
BRANCH  29  30
ATOM     30  C   UNL A   1      39.340  31.020  34.013  1.00  0.00     0.191 C 
BRANCH  30  31
ATOM     31  O   UNL A   1      39.648  30.103  35.048  1.00  0.00    -0.392 OA
ATOM     32  H   UNL A   1      38.930  29.457  35.132  1.00  0.00     0.211 HD
ENDBRANCH  30  31
ENDBRANCH  29  30
ENDBRANCH  17  24
ENDBRANCH   7   9
ENDBRANCH   6   7
ENDBRANCH   5   6
ENDBRANCH   4   5
ENDBRANCH   3   4
ENDBRANCH   2   3
ENDBRANCH   1   2
BRANCH   1  33
ATOM     33  O   UNL A   1      44.527  20.387  23.654  1.00  0.00    -0.377 OA
BRANCH  33  34
ATOM     34  C   UNL A   1      45.037  21.148  24.723  1.00  0.00     0.188 C 
BRANCH  34  35
ATOM     35  C   UNL A   1      46.331  21.919  24.459  1.00  0.00     0.188 C 
BRANCH  35  36
ATOM     36  O   UNL A   1      46.132  23.291  24.211  1.00  0.00    -0.376 OA
BRANCH  36  37
ATOM     37  C   UNL A   1      47.185  24.197  24.502  1.00  0.00     0.202 C 
BRANCH  37  38
ATOM     38  C   UNL A   1      47.251  24.947  25.848  1.00  0.00     0.261 C 
BRANCH  38  39
ATOM     39  O   UNL A   1      47.698  24.202  27.003  1.00  0.00    -0.460 OA
BRANCH  39  40
ATOM     40  C   UNL A   1      48.594  24.767  27.842  1.00  0.00     0.338 C 
ATOM     41  O   UNL A   1      49.801  24.614  27.834  1.00  0.00    -0.246 OA
BRANCH  40  42
ATOM     42  C   UNL A   1      47.885  25.792  28.658  1.00  0.00     0.060 A 
ATOM     43  C   UNL A   1      48.629  26.690  29.443  1.00  0.00     0.016 A 
ATOM     44  C   UNL A   1      46.496  25.906  28.615  1.00  0.00     0.016 A 
ATOM     45  C   UNL A   1      47.990  27.692  30.200  1.00  0.00     0.010 A 
ATOM     46  C   UNL A   1      45.863  26.913  29.361  1.00  0.00     0.010 A 
ATOM     47  C   UNL A   1      46.595  27.805  30.186  1.00  0.00    -0.014 A 
BRANCH  47  48
ATOM     48  C   UNL A   1      45.846  28.694  31.134  1.00  0.00     0.031 A 
ATOM     49  C   UNL A   1      45.644  30.127  30.703  1.00  0.00     0.074 A 
ATOM     50  C   UNL A   1      45.420  28.328  32.365  1.00  0.00     0.049 A 
ATOM     51  N   UNL A   1      45.100  31.124  31.353  1.00  0.00    -0.248 NA
ATOM     52  C   UNL A   1      46.136  30.485  29.359  1.00  0.00     0.031 C 
ATOM     53  C   UNL A   1      45.529  27.002  32.967  1.00  0.00     0.029 A 
ATOM     54  N   UNL A   1      44.877  29.091  33.382  1.00  0.00    -0.354 N 
ATOM     55  C   UNL A   1      45.158  32.201  30.480  1.00  0.00     0.074 A 
ATOM     56  C   UNL A   1      45.929  31.788  29.334  1.00  0.00     0.031 C 
ATOM     57  C   UNL A   1      45.183  27.067  34.268  1.00  0.00     0.029 A 
ATOM     58  C   UNL A   1      44.760  28.427  34.585  1.00  0.00     0.049 A 
ATOM     59  H   UNL A   1      44.597  30.026  33.257  1.00  0.00     0.167 HD
ATOM     60  C   UNL A   1      44.543  33.403  30.562  1.00  0.00     0.031 A 
ATOM     61  C   UNL A   1      44.351  28.858  35.798  1.00  0.00     0.031 A 
ATOM     62  C   UNL A   1      43.795  33.850  31.698  1.00  0.00     0.049 A 
ATOM     63  C   UNL A   1      43.788  30.254  35.937  1.00  0.00     0.074 A 
ATOM     64  C   UNL A   1      43.091  35.028  31.859  1.00  0.00     0.029 A 
ATOM     65  N   UNL A   1      43.675  33.141  32.881  1.00  0.00    -0.354 N 
ATOM     66  N   UNL A   1      43.699  31.204  35.037  1.00  0.00    -0.248 NA
ATOM     67  C   UNL A   1      43.195  30.608  37.238  1.00  0.00     0.031 C 
ATOM     68  C   UNL A   1      42.598  35.063  33.166  1.00  0.00     0.029 A 
ATOM     69  C   UNL A   1      42.928  33.870  33.790  1.00  0.00     0.049 A 
ATOM     70  H   UNL A   1      44.061  32.251  33.051  1.00  0.00     0.167 HD
ATOM     71  C   UNL A   1      42.978  32.231  35.639  1.00  0.00     0.074 A 
ATOM     72  C   UNL A   1      42.654  31.788  36.977  1.00  0.00     0.031 C 
ATOM     73  C   UNL A   1      42.598  33.424  35.118  1.00  0.00     0.031 A 
BRANCH  60  74
ATOM     74  C   UNL A   1      44.624  34.276  29.342  1.00  0.00    -0.014 A 
ATOM     75  C   UNL A   1      43.626  34.206  28.352  1.00  0.00     0.009 A 
ATOM     76  C   UNL A   1      45.699  35.153  29.162  1.00  0.00     0.009 A 
ATOM     77  C   UNL A   1      43.733  34.953  27.181  1.00  0.00     0.001 A 
ATOM     78  C   UNL A   1      45.784  35.931  28.006  1.00  0.00     0.001 A 
ATOM     79  C   UNL A   1      44.811  35.819  27.012  1.00  0.00     0.000 A 
ENDBRANCH  60  74
BRANCH  61  80
ATOM     80  C   UNL A   1      44.381  27.963  36.996  1.00  0.00    -0.014 A 
ATOM     81  C   UNL A   1      45.473  27.983  37.881  1.00  0.00     0.009 A 
ATOM     82  C   UNL A   1      43.371  27.010  37.202  1.00  0.00     0.009 A 
ATOM     83  C   UNL A   1      45.583  27.035  38.904  1.00  0.00     0.001 A 
ATOM     84  C   UNL A   1      43.468  26.083  38.247  1.00  0.00     0.001 A 
ATOM     85  C   UNL A   1      44.580  26.086  39.087  1.00  0.00     0.000 A 
ENDBRANCH  61  80
BRANCH  73  86
ATOM     86  C   UNL A   1      41.723  34.312  35.962  1.00  0.00    -0.014 A 
ATOM     87  C   UNL A   1      40.323  34.247  35.908  1.00  0.00     0.009 A 
ATOM     88  C   UNL A   1      42.324  35.210  36.861  1.00  0.00     0.009 A 
ATOM     89  C   UNL A   1      39.545  35.096  36.698  1.00  0.00     0.001 A 
ATOM     90  C   UNL A   1      41.545  36.026  37.681  1.00  0.00     0.001 A 
ATOM     91  C   UNL A   1      40.155  35.979  37.588  1.00  0.00     0.000 A 
ENDBRANCH  73  86
ENDBRANCH  47  48
ENDBRANCH  40  42
ENDBRANCH  39  40
ENDBRANCH  38  39
ENDBRANCH  37  38
ENDBRANCH  36  37
ENDBRANCH  35  36
ENDBRANCH  34  35
ENDBRANCH  33  34
ENDBRANCH   1  33
TORSDOF 24
ENDMDL
MODEL 2
REMARK VINA RESULT:      -7.1      6.228     12.086
REMARK SMILES O=C(OCCOCCOCCOCCOC(=O)c1ccc(-c2c3nc(c(-c4ccccc4)c4ccc([nH]4)c(-c4ccccc4)c4nc(c(-c5ccccc5)c5ccc2[nH]5)C=C4)C=C3)cc1)C1=Cc2cc(Cl)cc(-c3ccc(CO)cc3)c2O[C@@H]1C(F)(F)F
REMARK SMILES IDX 8 1 7 2 6 3 5 4 4 5 3 6 2 7 1 8 66 9 67 10 84 11 68 12 83 13
REMARK SMILES IDX 69 14 82 15 70 16 73 17 71 18 72 19 85 20 86 21 87 22 88 23
REMARK SMILES IDX 74 24 75 25 81 26 76 27 80 28 77 29 78 30 79 31 9 33 10 34
REMARK SMILES IDX 11 35 12 36 13 37 14 38 15 39 16 40 17 41 18 42 19 43 65 44
REMARK SMILES IDX 20 45 64 46 21 47 22 48 23 49 58 50 24 51 63 52 57 53 59 54
REMARK SMILES IDX 25 55 62 56 56 57 55 58 26 60 48 61 33 62 47 63 34 64 37 65
REMARK SMILES IDX 46 66 60 67 35 68 36 69 45 71 61 72 38 73 27 74 28 75 32 76
REMARK SMILES IDX 29 77 31 78 30 79 49 80 50 81 54 82 51 83 53 84 52 85 39 86
REMARK SMILES IDX 40 87 44 88 41 89 43 90 42 91
REMARK H PARENT 79 32 59 59 37 70
REMARK Flexibility Score: inf
ROOT
ATOM      1  C   UNL A   1      40.906  36.867  42.997  1.00  0.00     0.188 C 
ENDROOT
BRANCH   1   2
ATOM      2  C   UNL A   1      39.468  36.358  43.048  1.00  0.00     0.188 C 
BRANCH   2   3
ATOM      3  O   UNL A   1      38.600  36.048  41.909  1.00  0.00    -0.376 OA
BRANCH   3   4
ATOM      4  C   UNL A   1      38.738  35.196  40.495  1.00  0.00     0.202 C 
BRANCH   4   5
ATOM      5  C   UNL A   1      40.004  33.474  40.127  1.00  0.00     0.261 C 
BRANCH   5   6
ATOM      6  O   UNL A   1      39.840  32.449  39.010  1.00  0.00    -0.460 OA
BRANCH   6   7
ATOM      7  C   UNL A   1      38.808  32.736  38.206  1.00  0.00     0.338 C 
ATOM      8  O   UNL A   1      37.630  32.597  38.418  1.00  0.00    -0.246 OA
BRANCH   7   9
ATOM      9  C   UNL A   1      39.563  32.775  36.966  1.00  0.00     0.087 C 
ATOM     10  C   UNL A   1      39.393  31.600  36.121  1.00  0.00     0.027 C 
ATOM     11  C   UNL A   1      38.971  34.544  36.513  1.00  0.00     0.316 C 
ATOM     12  C   UNL A   1      38.391  31.560  34.634  1.00  0.00     0.019 A 
ATOM     13  O   UNL A   1      37.753  34.509  34.979  1.00  0.00    -0.475 OA
ATOM     14  C   UNL A   1      38.326  30.364  33.967  1.00  0.00     0.032 A 
ATOM     15  C   UNL A   1      37.446  32.920  34.090  1.00  0.00     0.135 A 
ATOM     16  C   UNL A   1      37.462  30.341  32.871  1.00  0.00     0.042 A 
ATOM     17  C   UNL A   1      36.536  32.755  33.040  1.00  0.00     0.026 A 
ATOM     18  Cl  UNL A   1      37.388  28.876  31.949  1.00  0.00    -0.084 Cl
ATOM     19  C   UNL A   1      36.621  31.441  32.458  1.00  0.00     0.033 A 
BRANCH  11  20
ATOM     20  C   UNL A   1      40.586  35.094  36.776  1.00  0.00     0.430 C 
ATOM     21  F   UNL A   1      41.613  34.225  36.773  1.00  0.00    -0.167 F 
ATOM     22  F   UNL A   1      40.878  35.919  35.719  1.00  0.00    -0.167 F 
ATOM     23  F   UNL A   1      40.747  35.883  37.869  1.00  0.00    -0.167 F 
ENDBRANCH  11  20
BRANCH  17  24
ATOM     24  C   UNL A   1      35.555  33.643  32.413  1.00  0.00    -0.015 A 
ATOM     25  C   UNL A   1      34.740  34.547  33.114  1.00  0.00     0.009 A 
ATOM     26  C   UNL A   1      35.220  33.440  31.087  1.00  0.00     0.009 A 
ATOM     27  C   UNL A   1      33.795  35.365  32.449  1.00  0.00     0.007 A 
ATOM     28  C   UNL A   1      34.417  34.352  30.407  1.00  0.00     0.007 A 
ATOM     29  C   UNL A   1      33.699  35.340  31.061  1.00  0.00    -0.023 A 
BRANCH  29  30
ATOM     30  C   UNL A   1      32.870  36.297  30.244  1.00  0.00     0.191 C 
BRANCH  30  31
ATOM     31  O   UNL A   1      33.372  37.621  30.237  1.00  0.00    -0.392 OA
ATOM     32  H   UNL A   1      32.683  38.230  30.546  1.00  0.00     0.211 HD
ENDBRANCH  30  31
ENDBRANCH  29  30
ENDBRANCH  17  24
ENDBRANCH   7   9
ENDBRANCH   6   7
ENDBRANCH   5   6
ENDBRANCH   4   5
ENDBRANCH   3   4
ENDBRANCH   2   3
ENDBRANCH   1   2
BRANCH   1  33
ATOM     33  O   UNL A   1      41.012  38.259  43.128  1.00  0.00    -0.377 OA
BRANCH  33  34
ATOM     34  C   UNL A   1      42.163  38.726  42.463  1.00  0.00     0.188 C 
BRANCH  34  35
ATOM     35  C   UNL A   1      42.220  38.499  40.952  1.00  0.00     0.188 C 
BRANCH  35  36
ATOM     36  O   UNL A   1      43.320  37.723  40.538  1.00  0.00    -0.376 OA
BRANCH  36  37
ATOM     37  C   UNL A   1      43.094  36.388  40.117  1.00  0.00     0.202 C 
BRANCH  37  38
ATOM     38  C   UNL A   1      43.201  35.205  41.102  1.00  0.00     0.261 C 
BRANCH  38  39
ATOM     39  O   UNL A   1      43.528  33.909  40.551  1.00  0.00    -0.460 OA
BRANCH  39  40
ATOM     40  C   UNL A   1      44.722  33.738  39.941  1.00  0.00     0.338 C 
ATOM     41  O   UNL A   1      45.819  34.017  40.387  1.00  0.00    -0.246 OA
BRANCH  40  42
ATOM     42  C   UNL A   1      44.500  32.945  38.700  1.00  0.00     0.060 A 
ATOM     43  C   UNL A   1      43.425  32.040  38.638  1.00  0.00     0.016 A 
ATOM     44  C   UNL A   1      45.311  33.123  37.580  1.00  0.00     0.016 A 
ATOM     45  C   UNL A   1      43.168  31.300  37.468  1.00  0.00     0.010 A 
ATOM     46  C   UNL A   1      45.044  32.394  36.411  1.00  0.00     0.010 A 
ATOM     47  C   UNL A   1      43.986  31.451  36.343  1.00  0.00    -0.014 A 
BRANCH  47  48
ATOM     48  C   UNL A   1      43.906  30.538  35.155  1.00  0.00     0.031 A 
ATOM     49  C   UNL A   1      42.993  30.966  34.032  1.00  0.00     0.074 A 
ATOM     50  C   UNL A   1      44.519  29.336  35.060  1.00  0.00     0.049 A 
ATOM     51  N   UNL A   1      42.679  30.339  32.927  1.00  0.00    -0.248 NA
ATOM     52  C   UNL A   1      42.334  32.278  34.184  1.00  0.00     0.031 C 
ATOM     53  C   UNL A   1      45.428  28.740  36.037  1.00  0.00     0.029 A 
ATOM     54  N   UNL A   1      44.391  28.344  34.106  1.00  0.00    -0.354 N 
ATOM     55  C   UNL A   1      41.823  31.197  32.252  1.00  0.00     0.074 A 
ATOM     56  C   UNL A   1      41.537  32.303  33.133  1.00  0.00     0.031 C 
ATOM     57  C   UNL A   1      45.678  27.460  35.698  1.00  0.00     0.029 A 
ATOM     58  C   UNL A   1      45.004  27.155  34.441  1.00  0.00     0.049 A 
ATOM     59  H   UNL A   1      43.904  28.475  33.261  1.00  0.00     0.167 HD
ATOM     60  C   UNL A   1      41.385  31.139  30.974  1.00  0.00     0.031 A 
ATOM     61  C   UNL A   1      45.031  25.962  33.807  1.00  0.00     0.031 A 
ATOM     62  C   UNL A   1      41.630  30.042  30.087  1.00  0.00     0.049 A 
ATOM     63  C   UNL A   1      44.420  25.843  32.429  1.00  0.00     0.074 A 
ATOM     64  C   UNL A   1      41.274  29.910  28.758  1.00  0.00     0.029 A 
ATOM     65  N   UNL A   1      42.278  28.874  30.451  1.00  0.00    -0.354 N 
ATOM     66  N   UNL A   1      43.755  26.737  31.738  1.00  0.00    -0.248 NA
ATOM     67  C   UNL A   1      44.632  24.574  31.713  1.00  0.00     0.031 C 
ATOM     68  C   UNL A   1      41.650  28.632  28.335  1.00  0.00     0.029 A 
ATOM     69  C   UNL A   1      42.309  28.002  29.378  1.00  0.00     0.049 A 
ATOM     70  H   UNL A   1      42.660  28.691  31.340  1.00  0.00     0.167 HD
ATOM     71  C   UNL A   1      43.541  26.168  30.486  1.00  0.00     0.074 A 
ATOM     72  C   UNL A   1      44.144  24.853  30.514  1.00  0.00     0.031 C 
ATOM     73  C   UNL A   1      42.919  26.698  29.404  1.00  0.00     0.031 A 
BRANCH  60  74
ATOM     74  C   UNL A   1      40.645  32.345  30.469  1.00  0.00    -0.014 A 
ATOM     75  C   UNL A   1      39.249  32.298  30.295  1.00  0.00     0.009 A 
ATOM     76  C   UNL A   1      41.331  33.520  30.146  1.00  0.00     0.009 A 
ATOM     77  C   UNL A   1      38.564  33.384  29.754  1.00  0.00     0.001 A 
ATOM     78  C   UNL A   1      40.638  34.622  29.642  1.00  0.00     0.001 A 
ATOM     79  C   UNL A   1      39.260  34.547  29.432  1.00  0.00     0.000 A 
ENDBRANCH  60  74
BRANCH  61  80
ATOM     80  C   UNL A   1      45.709  24.773  34.407  1.00  0.00    -0.014 A 
ATOM     81  C   UNL A   1      47.056  24.489  34.116  1.00  0.00     0.009 A 
ATOM     82  C   UNL A   1      44.988  23.857  35.188  1.00  0.00     0.009 A 
ATOM     83  C   UNL A   1      47.643  23.293  34.539  1.00  0.00     0.001 A 
ATOM     84  C   UNL A   1      45.588  22.675  35.639  1.00  0.00     0.001 A 
ATOM     85  C   UNL A   1      46.909  22.386  35.301  1.00  0.00     0.000 A 
ENDBRANCH  61  80
BRANCH  73  86
ATOM     86  C   UNL A   1      42.922  25.896  28.130  1.00  0.00    -0.014 A 
ATOM     87  C   UNL A   1      43.835  26.145  27.094  1.00  0.00     0.009 A 
ATOM     88  C   UNL A   1      42.006  24.839  27.984  1.00  0.00     0.009 A 
ATOM     89  C   UNL A   1      43.798  25.387  25.922  1.00  0.00     0.001 A 
ATOM     90  C   UNL A   1      42.000  24.055  26.831  1.00  0.00     0.001 A 
ATOM     91  C   UNL A   1      42.887  24.340  25.794  1.00  0.00     0.000 A 
ENDBRANCH  73  86
ENDBRANCH  47  48
ENDBRANCH  40  42
ENDBRANCH  39  40
ENDBRANCH  38  39
ENDBRANCH  37  38
ENDBRANCH  36  37
ENDBRANCH  35  36
ENDBRANCH  34  35
ENDBRANCH  33  34
ENDBRANCH   1  33
TORSDOF 24
ENDMDL
MODEL 3
REMARK VINA RESULT:      -7.0      2.921     10.660
REMARK SMILES O=C(OCCOCCOCCOCCOC(=O)c1ccc(-c2c3nc(c(-c4ccccc4)c4ccc([nH]4)c(-c4ccccc4)c4nc(c(-c5ccccc5)c5ccc2[nH]5)C=C4)C=C3)cc1)C1=Cc2cc(Cl)cc(-c3ccc(CO)cc3)c2O[C@@H]1C(F)(F)F
REMARK SMILES IDX 8 1 7 2 6 3 5 4 4 5 3 6 2 7 1 8 66 9 67 10 84 11 68 12 83 13
REMARK SMILES IDX 69 14 82 15 70 16 73 17 71 18 72 19 85 20 86 21 87 22 88 23
REMARK SMILES IDX 74 24 75 25 81 26 76 27 80 28 77 29 78 30 79 31 9 33 10 34
REMARK SMILES IDX 11 35 12 36 13 37 14 38 15 39 16 40 17 41 18 42 19 43 65 44
REMARK SMILES IDX 20 45 64 46 21 47 22 48 23 49 58 50 24 51 63 52 57 53 59 54
REMARK SMILES IDX 25 55 62 56 56 57 55 58 26 60 48 61 33 62 47 63 34 64 37 65
REMARK SMILES IDX 46 66 60 67 35 68 36 69 45 71 61 72 38 73 27 74 28 75 32 76
REMARK SMILES IDX 29 77 31 78 30 79 49 80 50 81 54 82 51 83 53 84 52 85 39 86
REMARK SMILES IDX 40 87 44 88 41 89 43 90 42 91
REMARK H PARENT 79 32 59 59 37 70
REMARK Flexibility Score: inf
ROOT
ATOM      1  C   UNL A   1      36.765  29.893  29.938  1.00  0.00     0.188 C 
ENDROOT
BRANCH   1   2
ATOM      2  C   UNL A   1      37.096  29.437  28.521  1.00  0.00     0.188 C 
BRANCH   2   3
ATOM      3  O   UNL A   1      38.427  29.335  27.915  1.00  0.00    -0.376 OA
BRANCH   3   4
ATOM      4  C   UNL A   1      39.650  28.219  27.892  1.00  0.00     0.202 C 
BRANCH   4   5
ATOM      5  C   UNL A   1      41.590  28.427  26.946  1.00  0.00     0.261 C 
BRANCH   5   6
ATOM      6  O   UNL A   1      42.947  28.410  27.642  1.00  0.00    -0.460 OA
BRANCH   6   7
ATOM      7  C   UNL A   1      43.847  29.177  27.015  1.00  0.00     0.338 C 
ATOM      8  O   UNL A   1      43.664  29.992  26.146  1.00  0.00    -0.246 OA
BRANCH   7   9
ATOM      9  C   UNL A   1      45.015  28.384  27.357  1.00  0.00     0.087 C 
ATOM     10  C   UNL A   1      45.003  27.848  28.712  1.00  0.00     0.027 C 
ATOM     11  C   UNL A   1      44.919  27.323  25.759  1.00  0.00     0.316 C 
ATOM     12  C   UNL A   1      44.652  26.137  29.120  1.00  0.00     0.019 A 
ATOM     13  O   UNL A   1      44.391  25.481  26.166  1.00  0.00    -0.475 OA
ATOM     14  C   UNL A   1      44.665  25.807  30.451  1.00  0.00     0.032 A 
ATOM     15  C   UNL A   1      44.208  24.949  27.925  1.00  0.00     0.135 A 
ATOM     16  C   UNL A   1      44.293  24.493  30.740  1.00  0.00     0.042 A 
ATOM     17  C   UNL A   1      43.754  23.690  28.336  1.00  0.00     0.026 A 
ATOM     18  Cl  UNL A   1      44.354  23.996  32.398  1.00  0.00    -0.084 Cl
ATOM     19  C   UNL A   1      43.853  23.523  29.762  1.00  0.00     0.033 A 
BRANCH  11  20
ATOM     20  C   UNL A   1      46.375  28.085  25.230  1.00  0.00     0.430 C 
ATOM     21  F   UNL A   1      46.853  29.166  25.873  1.00  0.00    -0.167 F 
ATOM     22  F   UNL A   1      47.370  27.157  25.406  1.00  0.00    -0.167 F 
ATOM     23  F   UNL A   1      46.417  28.371  23.903  1.00  0.00    -0.167 F 
ENDBRANCH  11  20
BRANCH  17  24
ATOM     24  C   UNL A   1      43.236  22.526  27.615  1.00  0.00    -0.015 A 
ATOM     25  C   UNL A   1      43.831  21.973  26.468  1.00  0.00     0.009 A 
ATOM     26  C   UNL A   1      41.966  22.065  27.911  1.00  0.00     0.009 A 
ATOM     27  C   UNL A   1      43.267  20.857  25.804  1.00  0.00     0.007 A 
ATOM     28  C   UNL A   1      41.496  20.873  27.368  1.00  0.00     0.007 A 
ATOM     29  C   UNL A   1      42.134  20.233  26.318  1.00  0.00    -0.023 A 
BRANCH  29  30
ATOM     30  C   UNL A   1      41.566  18.935  25.805  1.00  0.00     0.191 C 
BRANCH  30  31
ATOM     31  O   UNL A   1      40.150  18.893  25.808  1.00  0.00    -0.392 OA
ATOM     32  H   UNL A   1      39.841  18.320  25.089  1.00  0.00     0.211 HD
ENDBRANCH  30  31
ENDBRANCH  29  30
ENDBRANCH  17  24
ENDBRANCH   7   9
ENDBRANCH   6   7
ENDBRANCH   5   6
ENDBRANCH   4   5
ENDBRANCH   3   4
ENDBRANCH   2   3
ENDBRANCH   1   2
BRANCH   1  33
ATOM     33  O   UNL A   1      36.760  31.287  30.091  1.00  0.00    -0.377 OA
BRANCH  33  34
ATOM     34  C   UNL A   1      35.951  31.658  31.182  1.00  0.00     0.188 C 
BRANCH  34  35
ATOM     35  C   UNL A   1      34.743  32.541  30.871  1.00  0.00     0.188 C 
BRANCH  35  36
ATOM     36  O   UNL A   1      33.998  32.904  32.009  1.00  0.00    -0.376 OA
BRANCH  36  37
ATOM     37  C   UNL A   1      34.228  34.174  32.599  1.00  0.00     0.202 C 
BRANCH  37  38
ATOM     38  C   UNL A   1      35.172  34.340  33.808  1.00  0.00     0.261 C 
BRANCH  38  39
ATOM     39  O   UNL A   1      35.615  33.137  34.475  1.00  0.00    -0.460 OA
BRANCH  39  40
ATOM     40  C   UNL A   1      36.555  33.230  35.442  1.00  0.00     0.338 C 
ATOM     41  O   UNL A   1      36.375  33.502  36.614  1.00  0.00    -0.246 OA
BRANCH  40  42
ATOM     42  C   UNL A   1      37.844  32.732  34.886  1.00  0.00     0.060 A 
ATOM     43  C   UNL A   1      39.040  33.400  35.203  1.00  0.00     0.016 A 
ATOM     44  C   UNL A   1      37.888  31.584  34.096  1.00  0.00     0.016 A 
ATOM     45  C   UNL A   1      40.279  32.934  34.721  1.00  0.00     0.010 A 
ATOM     46  C   UNL A   1      39.125  31.116  33.628  1.00  0.00     0.010 A 
ATOM     47  C   UNL A   1      40.338  31.796  33.909  1.00  0.00    -0.014 A 
BRANCH  47  48
ATOM     48  C   UNL A   1      41.584  31.383  33.184  1.00  0.00     0.031 A 
ATOM     49  C   UNL A   1      42.435  30.327  33.847  1.00  0.00     0.074 A 
ATOM     50  C   UNL A   1      42.035  31.942  32.038  1.00  0.00     0.049 A 
ATOM     51  N   UNL A   1      43.593  29.838  33.482  1.00  0.00    -0.248 NA
ATOM     52  C   UNL A   1      41.912  29.754  35.103  1.00  0.00     0.031 C 
ATOM     53  C   UNL A   1      41.369  32.978  31.252  1.00  0.00     0.029 A 
ATOM     54  N   UNL A   1      43.235  31.768  31.373  1.00  0.00    -0.354 N 
ATOM     55  C   UNL A   1      43.905  28.886  34.442  1.00  0.00     0.074 A 
ATOM     56  C   UNL A   1      42.910  28.979  35.483  1.00  0.00     0.031 C 
ATOM     57  C   UNL A   1      42.205  33.427  30.295  1.00  0.00     0.029 A 
ATOM     58  C   UNL A   1      43.449  32.666  30.349  1.00  0.00     0.049 A 
ATOM     59  H   UNL A   1      43.879  31.064  31.611  1.00  0.00     0.167 HD
ATOM     60  C   UNL A   1      44.870  27.939  34.426  1.00  0.00     0.031 A 
ATOM     61  C   UNL A   1      44.515  32.849  29.540  1.00  0.00     0.031 A 
ATOM     62  C   UNL A   1      45.885  27.840  33.422  1.00  0.00     0.049 A 
ATOM     63  C   UNL A   1      45.671  31.876  29.607  1.00  0.00     0.074 A 
ATOM     64  C   UNL A   1      46.876  26.886  33.288  1.00  0.00     0.029 A 
ATOM     65  N   UNL A   1      46.051  28.745  32.388  1.00  0.00    -0.354 N 
ATOM     66  N   UNL A   1      45.859  30.869  30.425  1.00  0.00    -0.248 NA
ATOM     67  C   UNL A   1      46.723  32.018  28.586  1.00  0.00     0.031 C 
ATOM     68  C   UNL A   1      47.685  27.251  32.208  1.00  0.00     0.029 A 
ATOM     69  C   UNL A   1      47.148  28.388  31.624  1.00  0.00     0.049 A 
ATOM     70  H   UNL A   1      45.476  29.526  32.221  1.00  0.00     0.167 HD
ATOM     71  C   UNL A   1      47.002  30.218  29.970  1.00  0.00     0.074 A 
ATOM     72  C   UNL A   1      47.463  30.943  28.807  1.00  0.00     0.031 C 
ATOM     73  C   UNL A   1      47.600  29.104  30.461  1.00  0.00     0.031 A 
BRANCH  60  74
ATOM     74  C   UNL A   1      44.808  26.908  35.517  1.00  0.00    -0.014 A 
ATOM     75  C   UNL A   1      43.873  25.858  35.449  1.00  0.00     0.009 A 
ATOM     76  C   UNL A   1      45.660  26.988  36.624  1.00  0.00     0.009 A 
ATOM     77  C   UNL A   1      43.755  24.943  36.493  1.00  0.00     0.001 A 
ATOM     78  C   UNL A   1      45.568  26.046  37.651  1.00  0.00     0.001 A 
ATOM     79  C   UNL A   1      44.607  25.036  37.591  1.00  0.00     0.000 A 
ENDBRANCH  60  74
BRANCH  61  80
ATOM     80  C   UNL A   1      44.552  33.954  28.534  1.00  0.00    -0.014 A 
ATOM     81  C   UNL A   1      45.030  35.230  28.883  1.00  0.00     0.009 A 
ATOM     82  C   UNL A   1      44.010  33.771  27.252  1.00  0.00     0.009 A 
ATOM     83  C   UNL A   1      44.911  36.306  27.998  1.00  0.00     0.001 A 
ATOM     84  C   UNL A   1      43.922  34.844  26.356  1.00  0.00     0.001 A 
ATOM     85  C   UNL A   1      44.357  36.112  26.734  1.00  0.00     0.000 A 
ENDBRANCH  61  80
BRANCH  73  86
ATOM     86  C   UNL A   1      48.775  28.547  29.703  1.00  0.00    -0.014 A 
ATOM     87  C   UNL A   1      48.616  27.675  28.616  1.00  0.00     0.009 A 
ATOM     88  C   UNL A   1      50.075  28.940  30.069  1.00  0.00     0.009 A 
ATOM     89  C   UNL A   1      49.733  27.170  27.945  1.00  0.00     0.001 A 
ATOM     90  C   UNL A   1      51.186  28.469  29.370  1.00  0.00     0.001 A 
ATOM     91  C   UNL A   1      51.014  27.572  28.318  1.00  0.00     0.000 A 
ENDBRANCH  73  86
ENDBRANCH  47  48
ENDBRANCH  40  42
ENDBRANCH  39  40
ENDBRANCH  38  39
ENDBRANCH  37  38
ENDBRANCH  36  37
ENDBRANCH  35  36
ENDBRANCH  34  35
ENDBRANCH  33  34
ENDBRANCH   1  33
TORSDOF 24
ENDMDL
