MODEL 1
REMARK VINA RESULT:     -10.2      0.000      0.000
REMARK SMILES Cc1ccc(Nc2c(C)cccc2Cl)c(CC(=O)OCCOCCOCCOCCOC(=O)c2ccc(-c3c4nc(c(-c5ccccc5)c5ccc([nH]5)c(-c5ccccc5)c5nc(c(-c6ccccc6)c6ccc3[nH]6)C=C5)C=C4)cc2)c1
REMARK SMILES IDX 24 1 23 2 22 3 21 4 20 5 19 6 17 7 18 8 16 9 15 10 1 11 2 12
REMARK SMILES IDX 3 13 82 14 4 15 5 16 6 17 7 19 8 20 13 21 9 22 10 23 12 24
REMARK SMILES IDX 14 25 11 26 25 27 26 28 27 29 28 30 29 31 30 32 31 33 32 34
REMARK SMILES IDX 33 35 34 36 35 37 81 38 36 39 80 40 37 41 38 42 39 43 74 44
REMARK SMILES IDX 40 45 79 46 73 47 75 48 41 49 78 50 72 51 71 52 42 54 64 55
REMARK SMILES IDX 49 56 63 57 50 58 53 59 62 60 76 61 51 62 52 63 61 65 77 66
REMARK SMILES IDX 54 67 43 68 44 69 48 70 45 71 47 72 46 73 65 74 66 75 70 76
REMARK SMILES IDX 67 77 69 78 68 79 55 80 56 81 60 82 57 83 59 84 58 85
REMARK H PARENT 6 18 75 53 53 64
REMARK Flexibility Score: inf
ROOT
ATOM      1  C   UNL A   1      35.391  23.050  26.051  1.00  0.00     0.188 C 
ENDROOT
BRANCH   1   2
ATOM      2  C   UNL A   1      34.374  24.159  26.127  1.00  0.00     0.188 C 
BRANCH   2   3
ATOM      3  O   UNL A   1      34.650  25.462  25.663  1.00  0.00    -0.376 OA
BRANCH   3   4
ATOM      4  C   UNL A   1      33.702  26.395  26.123  1.00  0.00     0.202 C 
BRANCH   4   5
ATOM      5  C   UNL A   1      34.038  27.898  26.107  1.00  0.00     0.261 C 
BRANCH   5   6
ATOM      6  O   UNL A   1      33.110  28.746  26.801  1.00  0.00    -0.463 OA
BRANCH   6   7
ATOM      7  C   UNL A   1      32.570  29.728  26.039  1.00  0.00     0.310 C 
ATOM      8  O   UNL A   1      32.164  30.809  26.488  1.00  0.00    -0.252 OA
BRANCH   7   9
ATOM      9  C   UNL A   1      32.426  29.390  24.576  1.00  0.00     0.160 C 
BRANCH   9  10
ATOM     10  C   UNL A   1      31.115  28.824  24.053  1.00  0.00    -0.013 A 
ATOM     11  C   UNL A   1      27.817  30.481  22.945  1.00  0.00     0.044 C 
ATOM     12  C   UNL A   1      28.850  29.441  23.269  1.00  0.00    -0.051 A 
ATOM     13  C   UNL A   1      28.623  28.108  22.959  1.00  0.00     0.005 A 
ATOM     14  C   UNL A   1      30.083  29.784  23.830  1.00  0.00     0.009 A 
ATOM     15  C   UNL A   1      29.599  27.137  23.235  1.00  0.00     0.026 A 
ATOM     16  C   UNL A   1      30.871  27.447  23.769  1.00  0.00     0.042 A 
BRANCH  16  17
ATOM     17  N   UNL A   1      31.839  26.396  24.007  1.00  0.00    -0.354 N 
ATOM     18  H   UNL A   1      32.556  26.608  24.646  1.00  0.00     0.167 HD
BRANCH  17  19
ATOM     19  C   UNL A   1      31.883  25.077  23.422  1.00  0.00     0.060 A 
ATOM     20  C   UNL A   1      31.482  23.959  24.173  1.00  0.00    -0.026 A 
ATOM     21  C   UNL A   1      32.501  24.792  22.175  1.00  0.00     0.064 A 
ATOM     22  C   UNL A   1      30.433  24.100  25.241  1.00  0.00     0.046 C 
ATOM     23  C   UNL A   1      31.944  22.669  23.845  1.00  0.00     0.005 A 
ATOM     24  C   UNL A   1      33.016  23.517  21.882  1.00  0.00     0.023 A 
ATOM     25  Cl  UNL A   1      32.499  25.914  20.847  1.00  0.00    -0.082 Cl
ATOM     26  C   UNL A   1      32.773  22.459  22.747  1.00  0.00     0.002 A 
ENDBRANCH  17  19
ENDBRANCH  16  17
ENDBRANCH   9  10
ENDBRANCH   7   9
ENDBRANCH   6   7
ENDBRANCH   5   6
ENDBRANCH   4   5
ENDBRANCH   3   4
ENDBRANCH   2   3
ENDBRANCH   1   2
BRANCH   1  27
ATOM     27  O   UNL A   1      35.802  22.875  24.690  1.00  0.00    -0.377 OA
BRANCH  27  28
ATOM     28  C   UNL A   1      37.170  22.503  24.563  1.00  0.00     0.188 C 
BRANCH  28  29
ATOM     29  C   UNL A   1      37.999  22.668  25.818  1.00  0.00     0.188 C 
BRANCH  29  30
ATOM     30  O   UNL A   1      38.786  21.501  25.990  1.00  0.00    -0.376 OA
BRANCH  30  31
ATOM     31  C   UNL A   1      38.257  20.344  25.384  1.00  0.00     0.202 C 
BRANCH  31  32
ATOM     32  C   UNL A   1      39.291  19.231  25.477  1.00  0.00     0.261 C 
BRANCH  32  33
ATOM     33  O   UNL A   1      40.391  19.572  26.360  1.00  0.00    -0.460 OA
BRANCH  33  34
ATOM     34  C   UNL A   1      41.661  19.889  25.992  1.00  0.00     0.338 C 
ATOM     35  O   UNL A   1      42.417  19.012  25.568  1.00  0.00    -0.246 OA
BRANCH  34  36
ATOM     36  C   UNL A   1      42.280  21.188  26.383  1.00  0.00     0.060 A 
ATOM     37  C   UNL A   1      42.196  21.573  27.736  1.00  0.00     0.016 A 
ATOM     38  C   UNL A   1      42.967  22.015  25.504  1.00  0.00     0.016 A 
ATOM     39  C   UNL A   1      42.628  22.839  28.168  1.00  0.00     0.010 A 
ATOM     40  C   UNL A   1      43.383  23.282  25.937  1.00  0.00     0.010 A 
ATOM     41  C   UNL A   1      43.134  23.753  27.247  1.00  0.00    -0.014 A 
BRANCH  41  42
ATOM     42  C   UNL A   1      43.188  25.226  27.500  1.00  0.00     0.031 A 
ATOM     43  C   UNL A   1      41.963  26.089  27.409  1.00  0.00     0.074 A 
ATOM     44  C   UNL A   1      44.272  25.718  28.164  1.00  0.00     0.049 A 
ATOM     45  N   UNL A   1      41.933  27.364  27.654  1.00  0.00    -0.248 NA
ATOM     46  C   UNL A   1      40.660  25.591  26.965  1.00  0.00     0.031 C 
ATOM     47  C   UNL A   1      44.301  26.821  29.130  1.00  0.00     0.029 A 
ATOM     48  N   UNL A   1      45.598  25.292  28.188  1.00  0.00    -0.354 N 
ATOM     49  C   UNL A   1      40.609  27.748  27.751  1.00  0.00     0.074 A 
ATOM     50  C   UNL A   1      39.874  26.657  27.160  1.00  0.00     0.031 C 
ATOM     51  C   UNL A   1      45.523  26.969  29.655  1.00  0.00     0.029 A 
ATOM     52  C   UNL A   1      46.398  26.304  28.736  1.00  0.00     0.049 A 
ATOM     53  H   UNL A   1      45.922  24.418  27.870  1.00  0.00     0.167 HD
ATOM     54  C   UNL A   1      40.251  28.850  28.482  1.00  0.00     0.031 A 
ATOM     55  C   UNL A   1      47.342  26.971  28.009  1.00  0.00     0.031 A 
ATOM     56  C   UNL A   1      41.395  29.680  28.928  1.00  0.00     0.049 A 
ATOM     57  C   UNL A   1      46.949  28.433  27.749  1.00  0.00     0.074 A 
ATOM     58  C   UNL A   1      41.690  30.422  30.063  1.00  0.00     0.029 A 
ATOM     59  N   UNL A   1      42.544  29.763  28.141  1.00  0.00    -0.354 N 
ATOM     60  N   UNL A   1      45.805  28.972  28.108  1.00  0.00    -0.248 NA
ATOM     61  C   UNL A   1      47.787  29.400  27.051  1.00  0.00     0.031 C 
ATOM     62  C   UNL A   1      43.020  30.924  29.952  1.00  0.00     0.029 A 
ATOM     63  C   UNL A   1      43.516  30.549  28.716  1.00  0.00     0.049 A 
ATOM     64  H   UNL A   1      42.648  29.309  27.273  1.00  0.00     0.167 HD
ATOM     65  C   UNL A   1      45.718  30.271  27.687  1.00  0.00     0.074 A 
ATOM     66  C   UNL A   1      46.990  30.487  27.017  1.00  0.00     0.031 C 
ATOM     67  C   UNL A   1      44.612  31.051  27.892  1.00  0.00     0.031 A 
BRANCH  54  68
ATOM     68  C   UNL A   1      38.830  29.064  29.034  1.00  0.00    -0.014 A 
ATOM     69  C   UNL A   1      37.874  29.780  28.284  1.00  0.00     0.009 A 
ATOM     70  C   UNL A   1      38.425  28.731  30.344  1.00  0.00     0.009 A 
ATOM     71  C   UNL A   1      36.637  30.185  28.820  1.00  0.00     0.001 A 
ATOM     72  C   UNL A   1      37.164  29.074  30.865  1.00  0.00     0.001 A 
ATOM     73  C   UNL A   1      36.278  29.825  30.110  1.00  0.00     0.000 A 
ENDBRANCH  54  68
BRANCH  55  74
ATOM     74  C   UNL A   1      48.153  26.010  27.197  1.00  0.00    -0.014 A 
ATOM     75  C   UNL A   1      48.289  26.389  25.839  1.00  0.00     0.009 A 
ATOM     76  C   UNL A   1      49.212  25.304  27.796  1.00  0.00     0.009 A 
ATOM     77  C   UNL A   1      49.533  26.333  25.204  1.00  0.00     0.001 A 
ATOM     78  C   UNL A   1      50.453  25.226  27.138  1.00  0.00     0.001 A 
ATOM     79  C   UNL A   1      50.628  25.800  25.876  1.00  0.00     0.000 A 
ENDBRANCH  55  74
BRANCH  67  80
ATOM     80  C   UNL A   1      44.353  32.411  27.277  1.00  0.00    -0.014 A 
ATOM     81  C   UNL A   1      44.182  33.597  27.987  1.00  0.00     0.009 A 
ATOM     82  C   UNL A   1      44.210  32.491  25.866  1.00  0.00     0.009 A 
ATOM     83  C   UNL A   1      43.972  34.812  27.315  1.00  0.00     0.001 A 
ATOM     84  C   UNL A   1      43.964  33.687  25.197  1.00  0.00     0.001 A 
ATOM     85  C   UNL A   1      43.871  34.858  25.925  1.00  0.00     0.000 A 
ENDBRANCH  67  80
ENDBRANCH  41  42
ENDBRANCH  34  36
ENDBRANCH  33  34
ENDBRANCH  32  33
ENDBRANCH  31  32
ENDBRANCH  30  31
ENDBRANCH  29  30
ENDBRANCH  28  29
ENDBRANCH  27  28
ENDBRANCH   1  27
TORSDOF 23
ENDMDL
MODEL 2
REMARK VINA RESULT:      -9.5      2.911      4.861
REMARK SMILES Cc1ccc(Nc2c(C)cccc2Cl)c(CC(=O)OCCOCCOCCOCCOC(=O)c2ccc(-c3c4nc(c(-c5ccccc5)c5ccc([nH]5)c(-c5ccccc5)c5nc(c(-c6ccccc6)c6ccc3[nH]6)C=C5)C=C4)cc2)c1
REMARK SMILES IDX 24 1 23 2 22 3 21 4 20 5 19 6 17 7 18 8 16 9 15 10 1 11 2 12
REMARK SMILES IDX 3 13 82 14 4 15 5 16 6 17 7 19 8 20 13 21 9 22 10 23 12 24
REMARK SMILES IDX 14 25 11 26 25 27 26 28 27 29 28 30 29 31 30 32 31 33 32 34
REMARK SMILES IDX 33 35 34 36 35 37 81 38 36 39 80 40 37 41 38 42 39 43 74 44
REMARK SMILES IDX 40 45 79 46 73 47 75 48 41 49 78 50 72 51 71 52 42 54 64 55
REMARK SMILES IDX 49 56 63 57 50 58 53 59 62 60 76 61 51 62 52 63 61 65 77 66
REMARK SMILES IDX 54 67 43 68 44 69 48 70 45 71 47 72 46 73 65 74 66 75 70 76
REMARK SMILES IDX 67 77 69 78 68 79 55 80 56 81 60 82 57 83 59 84 58 85
REMARK H PARENT 6 18 75 53 53 64
REMARK Flexibility Score: inf
ROOT
ATOM      1  C   UNL A   1      34.204  21.818  27.152  1.00  0.00     0.188 C 
ENDROOT
BRANCH   1   2
ATOM      2  C   UNL A   1      33.067  22.659  27.673  1.00  0.00     0.188 C 
BRANCH   2   3
ATOM      3  O   UNL A   1      31.876  22.846  26.940  1.00  0.00    -0.376 OA
BRANCH   3   4
ATOM      4  C   UNL A   1      31.872  24.073  26.250  1.00  0.00     0.202 C 
BRANCH   4   5
ATOM      5  C   UNL A   1      30.674  24.443  25.356  1.00  0.00     0.261 C 
BRANCH   5   6
ATOM      6  O   UNL A   1      29.997  25.660  25.703  1.00  0.00    -0.463 OA
BRANCH   6   7
ATOM      7  C   UNL A   1      29.488  26.340  24.647  1.00  0.00     0.310 C 
ATOM      8  O   UNL A   1      28.568  25.919  23.931  1.00  0.00    -0.252 OA
BRANCH   7   9
ATOM      9  C   UNL A   1      30.172  27.649  24.345  1.00  0.00     0.160 C 
BRANCH   9  10
ATOM     10  C   UNL A   1      31.463  27.663  23.540  1.00  0.00    -0.013 A 
ATOM     11  C   UNL A   1      32.790  25.417  20.703  1.00  0.00     0.044 C 
ATOM     12  C   UNL A   1      32.700  26.500  21.739  1.00  0.00    -0.051 A 
ATOM     13  C   UNL A   1      33.675  27.485  21.809  1.00  0.00     0.005 A 
ATOM     14  C   UNL A   1      31.615  26.586  22.616  1.00  0.00     0.009 A 
ATOM     15  C   UNL A   1      33.579  28.515  22.758  1.00  0.00     0.026 A 
ATOM     16  C   UNL A   1      32.482  28.658  23.638  1.00  0.00     0.042 A 
BRANCH  16  17
ATOM     17  N   UNL A   1      32.437  29.759  24.578  1.00  0.00    -0.354 N 
ATOM     18  H   UNL A   1      31.966  30.567  24.273  1.00  0.00     0.167 HD
BRANCH  17  19
ATOM     19  C   UNL A   1      32.999  29.819  25.906  1.00  0.00     0.060 A 
ATOM     20  C   UNL A   1      32.782  30.949  26.714  1.00  0.00    -0.026 A 
ATOM     21  C   UNL A   1      33.942  28.879  26.402  1.00  0.00     0.064 A 
ATOM     22  C   UNL A   1      31.522  31.756  26.564  1.00  0.00     0.046 C 
ATOM     23  C   UNL A   1      33.665  31.260  27.767  1.00  0.00     0.005 A 
ATOM     24  C   UNL A   1      34.860  29.220  27.411  1.00  0.00     0.023 A 
ATOM     25  Cl  UNL A   1      33.915  27.198  25.960  1.00  0.00    -0.082 Cl
ATOM     26  C   UNL A   1      34.747  30.438  28.066  1.00  0.00     0.002 A 
ENDBRANCH  17  19
ENDBRANCH  16  17
ENDBRANCH   9  10
ENDBRANCH   7   9
ENDBRANCH   6   7
ENDBRANCH   5   6
ENDBRANCH   4   5
ENDBRANCH   3   4
ENDBRANCH   2   3
ENDBRANCH   1   2
BRANCH   1  27
ATOM     27  O   UNL A   1      33.894  21.366  25.829  1.00  0.00    -0.377 OA
BRANCH  27  28
ATOM     28  C   UNL A   1      34.874  21.738  24.867  1.00  0.00     0.188 C 
BRANCH  28  29
ATOM     29  C   UNL A   1      35.751  22.906  25.263  1.00  0.00     0.188 C 
BRANCH  29  30
ATOM     30  O   UNL A   1      37.092  22.595  24.918  1.00  0.00    -0.376 OA
BRANCH  30  31
ATOM     31  C   UNL A   1      37.466  21.259  25.173  1.00  0.00     0.202 C 
BRANCH  31  32
ATOM     32  C   UNL A   1      38.903  21.246  25.675  1.00  0.00     0.261 C 
BRANCH  32  33
ATOM     33  O   UNL A   1      39.180  22.345  26.581  1.00  0.00    -0.460 OA
BRANCH  33  34
ATOM     34  C   UNL A   1      40.211  23.229  26.496  1.00  0.00     0.338 C 
ATOM     35  O   UNL A   1      41.340  22.833  26.198  1.00  0.00    -0.246 OA
BRANCH  34  36
ATOM     36  C   UNL A   1      40.102  24.602  27.064  1.00  0.00     0.060 A 
ATOM     37  C   UNL A   1      40.774  25.644  26.394  1.00  0.00     0.016 A 
ATOM     38  C   UNL A   1      39.346  24.920  28.184  1.00  0.00     0.016 A 
ATOM     39  C   UNL A   1      40.841  26.941  26.932  1.00  0.00     0.010 A 
ATOM     40  C   UNL A   1      39.427  26.212  28.724  1.00  0.00     0.010 A 
ATOM     41  C   UNL A   1      40.251  27.215  28.163  1.00  0.00    -0.014 A 
BRANCH  41  42
ATOM     42  C   UNL A   1      40.637  28.383  29.015  1.00  0.00     0.031 A 
ATOM     43  C   UNL A   1      39.767  29.601  29.127  1.00  0.00     0.074 A 
ATOM     44  C   UNL A   1      41.594  28.187  29.966  1.00  0.00     0.049 A 
ATOM     45  N   UNL A   1      40.023  30.630  29.876  1.00  0.00    -0.248 NA
ATOM     46  C   UNL A   1      38.547  29.792  28.341  1.00  0.00     0.031 C 
ATOM     47  C   UNL A   1      41.664  28.795  31.298  1.00  0.00     0.029 A 
ATOM     48  N   UNL A   1      42.695  27.335  29.990  1.00  0.00    -0.354 N 
ATOM     49  C   UNL A   1      38.880  31.403  29.943  1.00  0.00     0.074 A 
ATOM     50  C   UNL A   1      38.061  30.929  28.854  1.00  0.00     0.031 C 
ATOM     51  C   UNL A   1      42.691  28.302  31.999  1.00  0.00     0.029 A 
ATOM     52  C   UNL A   1      43.565  27.733  31.015  1.00  0.00     0.049 A 
ATOM     53  H   UNL A   1      42.840  26.573  29.383  1.00  0.00     0.167 HD
ATOM     54  C   UNL A   1      38.655  32.231  31.012  1.00  0.00     0.031 A 
ATOM     55  C   UNL A   1      44.814  28.225  30.772  1.00  0.00     0.031 A 
ATOM     56  C   UNL A   1      39.819  32.384  31.916  1.00  0.00     0.049 A 
ATOM     57  C   UNL A   1      44.922  29.723  31.096  1.00  0.00     0.074 A 
ATOM     58  C   UNL A   1      39.990  32.523  33.286  1.00  0.00     0.029 A 
ATOM     59  N   UNL A   1      41.115  32.317  31.402  1.00  0.00    -0.354 N 
ATOM     60  N   UNL A   1      43.918  30.474  31.488  1.00  0.00    -0.248 NA
ATOM     61  C   UNL A   1      46.148  30.502  30.990  1.00  0.00     0.031 C 
ATOM     62  C   UNL A   1      41.385  32.519  33.579  1.00  0.00     0.029 A 
ATOM     63  C   UNL A   1      42.073  32.448  32.380  1.00  0.00     0.049 A 
ATOM     64  H   UNL A   1      41.319  32.190  30.447  1.00  0.00     0.167 HD
ATOM     65  C   UNL A   1      44.306  31.776  31.642  1.00  0.00     0.074 A 
ATOM     66  C   UNL A   1      45.720  31.741  31.305  1.00  0.00     0.031 C 
ATOM     67  C   UNL A   1      43.444  32.777  32.001  1.00  0.00     0.031 A 
BRANCH  54  68
ATOM     68  C   UNL A   1      37.253  32.733  31.402  1.00  0.00    -0.014 A 
ATOM     69  C   UNL A   1      36.128  31.896  31.249  1.00  0.00     0.009 A 
ATOM     70  C   UNL A   1      36.956  34.063  31.766  1.00  0.00     0.009 A 
ATOM     71  C   UNL A   1      34.808  32.366  31.387  1.00  0.00     0.001 A 
ATOM     72  C   UNL A   1      35.642  34.524  31.972  1.00  0.00     0.001 A 
ATOM     73  C   UNL A   1      34.566  33.681  31.758  1.00  0.00     0.000 A 
ENDBRANCH  54  68
BRANCH  55  74
ATOM     74  C   UNL A   1      45.518  27.385  29.752  1.00  0.00    -0.014 A 
ATOM     75  C   UNL A   1      45.693  26.037  30.151  1.00  0.00     0.009 A 
ATOM     76  C   UNL A   1      45.345  27.652  28.382  1.00  0.00     0.009 A 
ATOM     77  C   UNL A   1      45.409  24.990  29.270  1.00  0.00     0.001 A 
ATOM     78  C   UNL A   1      45.089  26.590  27.495  1.00  0.00     0.001 A 
ATOM     79  C   UNL A   1      45.054  25.271  27.955  1.00  0.00     0.000 A 
ENDBRANCH  55  74
BRANCH  67  80
ATOM     80  C   UNL A   1      43.743  34.262  31.983  1.00  0.00    -0.014 A 
ATOM     81  C   UNL A   1      43.675  35.112  33.085  1.00  0.00     0.009 A 
ATOM     82  C   UNL A   1      44.063  34.866  30.737  1.00  0.00     0.009 A 
ATOM     83  C   UNL A   1      43.999  36.472  32.964  1.00  0.00     0.001 A 
ATOM     84  C   UNL A   1      44.348  36.222  30.604  1.00  0.00     0.001 A 
ATOM     85  C   UNL A   1      44.341  37.023  31.729  1.00  0.00     0.000 A 
ENDBRANCH  67  80
ENDBRANCH  41  42
ENDBRANCH  34  36
ENDBRANCH  33  34
ENDBRANCH  32  33
ENDBRANCH  31  32
ENDBRANCH  30  31
ENDBRANCH  29  30
ENDBRANCH  28  29
ENDBRANCH  27  28
ENDBRANCH   1  27
TORSDOF 23
ENDMDL
MODEL 3
REMARK VINA RESULT:      -9.4      2.452      4.329
REMARK SMILES Cc1ccc(Nc2c(C)cccc2Cl)c(CC(=O)OCCOCCOCCOCCOC(=O)c2ccc(-c3c4nc(c(-c5ccccc5)c5ccc([nH]5)c(-c5ccccc5)c5nc(c(-c6ccccc6)c6ccc3[nH]6)C=C5)C=C4)cc2)c1
REMARK SMILES IDX 24 1 23 2 22 3 21 4 20 5 19 6 17 7 18 8 16 9 15 10 1 11 2 12
REMARK SMILES IDX 3 13 82 14 4 15 5 16 6 17 7 19 8 20 13 21 9 22 10 23 12 24
REMARK SMILES IDX 14 25 11 26 25 27 26 28 27 29 28 30 29 31 30 32 31 33 32 34
REMARK SMILES IDX 33 35 34 36 35 37 81 38 36 39 80 40 37 41 38 42 39 43 74 44
REMARK SMILES IDX 40 45 79 46 73 47 75 48 41 49 78 50 72 51 71 52 42 54 64 55
REMARK SMILES IDX 49 56 63 57 50 58 53 59 62 60 76 61 51 62 52 63 61 65 77 66
REMARK SMILES IDX 54 67 43 68 44 69 48 70 45 71 47 72 46 73 65 74 66 75 70 76
REMARK SMILES IDX 67 77 69 78 68 79 55 80 56 81 60 82 57 83 59 84 58 85
REMARK H PARENT 6 18 75 53 53 64
REMARK Flexibility Score: inf
ROOT
ATOM      1  C   UNL A   1      34.120  21.847  27.259  1.00  0.00     0.188 C 
ENDROOT
BRANCH   1   2
ATOM      2  C   UNL A   1      32.928  22.472  27.936  1.00  0.00     0.188 C 
BRANCH   2   3
ATOM      3  O   UNL A   1      31.750  22.796  27.231  1.00  0.00    -0.376 OA
BRANCH   3   4
ATOM      4  C   UNL A   1      31.753  24.133  26.791  1.00  0.00     0.202 C 
BRANCH   4   5
ATOM      5  C   UNL A   1      30.825  24.560  25.638  1.00  0.00     0.261 C 
BRANCH   5   6
ATOM      6  O   UNL A   1      30.085  25.770  25.857  1.00  0.00    -0.463 OA
BRANCH   6   7
ATOM      7  C   UNL A   1      29.568  26.323  24.733  1.00  0.00     0.310 C 
ATOM      8  O   UNL A   1      28.713  25.777  24.022  1.00  0.00    -0.252 OA
BRANCH   7   9
ATOM      9  C   UNL A   1      30.164  27.655  24.349  1.00  0.00     0.160 C 
BRANCH   9  10
ATOM     10  C   UNL A   1      31.465  27.706  23.563  1.00  0.00    -0.013 A 
ATOM     11  C   UNL A   1      32.842  25.583  20.657  1.00  0.00     0.044 C 
ATOM     12  C   UNL A   1      32.733  26.623  21.734  1.00  0.00    -0.051 A 
ATOM     13  C   UNL A   1      33.702  27.608  21.858  1.00  0.00     0.005 A 
ATOM     14  C   UNL A   1      31.635  26.669  22.599  1.00  0.00     0.009 A 
ATOM     15  C   UNL A   1      33.588  28.597  22.847  1.00  0.00     0.026 A 
ATOM     16  C   UNL A   1      32.479  28.700  23.717  1.00  0.00     0.042 A 
BRANCH  16  17
ATOM     17  N   UNL A   1      32.416  29.762  24.700  1.00  0.00    -0.354 N 
ATOM     18  H   UNL A   1      31.848  30.531  24.469  1.00  0.00     0.167 HD
BRANCH  17  19
ATOM     19  C   UNL A   1      33.085  29.833  25.977  1.00  0.00     0.060 A 
ATOM     20  C   UNL A   1      32.964  30.984  26.774  1.00  0.00    -0.026 A 
ATOM     21  C   UNL A   1      34.042  28.878  26.415  1.00  0.00     0.064 A 
ATOM     22  C   UNL A   1      31.717  31.822  26.709  1.00  0.00     0.046 C 
ATOM     23  C   UNL A   1      33.937  31.292  27.745  1.00  0.00     0.005 A 
ATOM     24  C   UNL A   1      35.048  29.214  27.338  1.00  0.00     0.023 A 
ATOM     25  Cl  UNL A   1      33.937  27.190  26.014  1.00  0.00    -0.082 Cl
ATOM     26  C   UNL A   1      35.019  30.447  27.973  1.00  0.00     0.002 A 
ENDBRANCH  17  19
ENDBRANCH  16  17
ENDBRANCH   9  10
ENDBRANCH   7   9
ENDBRANCH   6   7
ENDBRANCH   5   6
ENDBRANCH   4   5
ENDBRANCH   3   4
ENDBRANCH   2   3
ENDBRANCH   1   2
BRANCH   1  27
ATOM     27  O   UNL A   1      33.812  21.606  25.881  1.00  0.00    -0.377 OA
BRANCH  27  28
ATOM     28  C   UNL A   1      34.822  22.070  24.993  1.00  0.00     0.188 C 
BRANCH  28  29
ATOM     29  C   UNL A   1      35.852  22.987  25.615  1.00  0.00     0.188 C 
BRANCH  29  30
ATOM     30  O   UNL A   1      37.137  22.584  25.168  1.00  0.00    -0.376 OA
BRANCH  30  31
ATOM     31  C   UNL A   1      37.332  21.188  25.131  1.00  0.00     0.202 C 
BRANCH  31  32
ATOM     32  C   UNL A   1      38.795  20.896  25.431  1.00  0.00     0.261 C 
BRANCH  32  33
ATOM     33  O   UNL A   1      39.317  21.731  26.497  1.00  0.00    -0.460 OA
BRANCH  33  34
ATOM     34  C   UNL A   1      40.387  22.569  26.425  1.00  0.00     0.338 C 
ATOM     35  O   UNL A   1      41.447  22.174  25.935  1.00  0.00    -0.246 OA
BRANCH  34  36
ATOM     36  C   UNL A   1      40.431  23.838  27.204  1.00  0.00     0.060 A 
ATOM     37  C   UNL A   1      39.489  24.836  26.886  1.00  0.00     0.016 A 
ATOM     38  C   UNL A   1      41.314  24.075  28.249  1.00  0.00     0.016 A 
ATOM     39  C   UNL A   1      39.544  26.112  27.473  1.00  0.00     0.010 A 
ATOM     40  C   UNL A   1      41.374  25.355  28.821  1.00  0.00     0.010 A 
ATOM     41  C   UNL A   1      40.558  26.420  28.376  1.00  0.00    -0.014 A 
BRANCH  41  42
ATOM     42  C   UNL A   1      40.974  27.821  28.695  1.00  0.00     0.031 A 
ATOM     43  C   UNL A   1      39.996  28.838  29.209  1.00  0.00     0.074 A 
ATOM     44  C   UNL A   1      42.304  28.067  28.863  1.00  0.00     0.049 A 
ATOM     45  N   UNL A   1      40.299  30.056  29.541  1.00  0.00    -0.248 NA
ATOM     46  C   UNL A   1      38.561  28.582  29.332  1.00  0.00     0.031 C 
ATOM     47  C   UNL A   1      42.926  29.004  29.805  1.00  0.00     0.029 A 
ATOM     48  N   UNL A   1      43.422  27.475  28.280  1.00  0.00    -0.354 N 
ATOM     49  C   UNL A   1      39.225  30.589  30.228  1.00  0.00     0.074 A 
ATOM     50  C   UNL A   1      38.129  29.699  29.929  1.00  0.00     0.031 C 
ATOM     51  C   UNL A   1      44.260  28.915  29.762  1.00  0.00     0.029 A 
ATOM     52  C   UNL A   1      44.544  28.285  28.506  1.00  0.00     0.049 A 
ATOM     53  H   UNL A   1      43.424  26.623  27.786  1.00  0.00     0.167 HD
ATOM     54  C   UNL A   1      39.404  31.609  31.126  1.00  0.00     0.031 A 
ATOM     55  C   UNL A   1      45.206  28.925  27.498  1.00  0.00     0.031 A 
ATOM     56  C   UNL A   1      40.757  32.211  31.098  1.00  0.00     0.049 A 
ATOM     57  C   UNL A   1      45.008  30.447  27.548  1.00  0.00     0.074 A 
ATOM     58  C   UNL A   1      41.621  32.734  32.049  1.00  0.00     0.029 A 
ATOM     59  N   UNL A   1      41.474  32.259  29.902  1.00  0.00    -0.354 N 
ATOM     60  N   UNL A   1      44.232  31.070  28.405  1.00  0.00    -0.248 NA
ATOM     61  C   UNL A   1      45.642  31.390  26.635  1.00  0.00     0.031 C 
ATOM     62  C   UNL A   1      42.853  33.071  31.416  1.00  0.00     0.029 A 
ATOM     63  C   UNL A   1      42.720  32.821  30.062  1.00  0.00     0.049 A 
ATOM     64  H   UNL A   1      41.128  31.928  29.042  1.00  0.00     0.167 HD
ATOM     65  C   UNL A   1      44.212  32.416  28.166  1.00  0.00     0.074 A 
ATOM     66  C   UNL A   1      45.110  32.563  27.032  1.00  0.00     0.031 C 
ATOM     67  C   UNL A   1      43.448  33.294  28.888  1.00  0.00     0.031 A 
BRANCH  54  68
ATOM     68  C   UNL A   1      38.400  31.920  32.251  1.00  0.00    -0.014 A 
ATOM     69  C   UNL A   1      37.363  32.853  32.044  1.00  0.00     0.009 A 
ATOM     70  C   UNL A   1      38.521  31.456  33.578  1.00  0.00     0.009 A 
ATOM     71  C   UNL A   1      36.552  33.331  33.090  1.00  0.00     0.001 A 
ATOM     72  C   UNL A   1      37.670  31.878  34.616  1.00  0.00     0.001 A 
ATOM     73  C   UNL A   1      36.700  32.836  34.377  1.00  0.00     0.000 A 
ENDBRANCH  54  68
BRANCH  55  74
ATOM     74  C   UNL A   1      45.424  27.997  26.344  1.00  0.00    -0.014 A 
ATOM     75  C   UNL A   1      46.482  27.077  26.548  1.00  0.00     0.009 A 
ATOM     76  C   UNL A   1      44.333  27.586  25.557  1.00  0.00     0.009 A 
ATOM     77  C   UNL A   1      46.320  25.723  26.239  1.00  0.00     0.001 A 
ATOM     78  C   UNL A   1      44.192  26.226  25.223  1.00  0.00     0.001 A 
ATOM     79  C   UNL A   1      45.149  25.291  25.624  1.00  0.00     0.000 A 
ENDBRANCH  55  74
BRANCH  67  80
ATOM     80  C   UNL A   1      43.207  34.751  28.552  1.00  0.00    -0.014 A 
ATOM     81  C   UNL A   1      41.999  35.287  28.109  1.00  0.00     0.009 A 
ATOM     82  C   UNL A   1      44.306  35.648  28.632  1.00  0.00     0.009 A 
ATOM     83  C   UNL A   1      41.877  36.661  27.850  1.00  0.00     0.001 A 
ATOM     84  C   UNL A   1      44.200  37.004  28.339  1.00  0.00     0.001 A 
ATOM     85  C   UNL A   1      42.971  37.518  27.972  1.00  0.00     0.000 A 
ENDBRANCH  67  80
ENDBRANCH  41  42
ENDBRANCH  34  36
ENDBRANCH  33  34
ENDBRANCH  32  33
ENDBRANCH  31  32
ENDBRANCH  30  31
ENDBRANCH  29  30
ENDBRANCH  28  29
ENDBRANCH  27  28
ENDBRANCH   1  27
TORSDOF 23
ENDMDL
