MODEL 1
REMARK VINA RESULT:     -10.7      0.000      0.000
REMARK SMILES C[C@]1(Cn2c(=O)[nH]c3cc(C(=O)OCCOCCOCCOCCOC(=O)c4ccc(-c5c6nc(c(-c7ccccc7)c7ccc([nH]7)c(-c7ccccc7)c7nc(c(-c8ccccc8)c8ccc5[nH]8)C=C7)C=C6)cc4)ccc32)CCCO1
REMARK SMILES IDX 19 1 18 2 17 3 16 4 15 5 14 6 13 7 11 8 12 9 10 10 4 11 5 12
REMARK SMILES IDX 78 13 6 14 7 15 8 16 77 17 9 19 76 20 3 21 2 22 1 23 79 24
REMARK SMILES IDX 82 25 80 26 81 27 20 28 21 29 22 30 23 31 24 32 25 33 26 34
REMARK SMILES IDX 27 35 28 36 29 37 75 38 30 39 74 40 31 41 32 42 33 43 68 44
REMARK SMILES IDX 34 45 73 46 67 47 69 48 35 49 72 50 66 51 65 52 36 54 58 55
REMARK SMILES IDX 43 56 57 57 44 58 47 59 56 60 70 61 45 62 46 63 55 65 71 66
REMARK SMILES IDX 48 67 37 68 38 69 42 70 39 71 41 72 40 73 59 74 60 75 64 76
REMARK SMILES IDX 61 77 63 78 62 79 49 80 50 81 54 82 51 83 53 84 52 85
REMARK H PARENT 7 18 69 53 47 64
REMARK Flexibility Score: inf
ROOT
ATOM      1  O   UNL A   1      33.798  36.237  29.410  1.00  0.00    -0.377 OA
ENDROOT
BRANCH   1   2
ATOM      2  C   UNL A   1      33.811  35.571  28.166  1.00  0.00     0.188 C 
BRANCH   2   3
ATOM      3  C   UNL A   1      33.370  34.101  28.208  1.00  0.00     0.188 C 
BRANCH   3   4
ATOM      4  O   UNL A   1      34.399  33.180  27.909  1.00  0.00    -0.376 OA
BRANCH   4   5
ATOM      5  C   UNL A   1      34.380  31.829  28.328  1.00  0.00     0.202 C 
BRANCH   5   6
ATOM      6  C   UNL A   1      34.464  30.611  27.392  1.00  0.00     0.261 C 
BRANCH   6   7
ATOM      7  O   UNL A   1      33.357  29.728  27.420  1.00  0.00    -0.460 OA
BRANCH   7   8
ATOM      8  C   UNL A   1      32.542  29.749  26.341  1.00  0.00     0.338 C 
ATOM      9  O   UNL A   1      31.776  30.618  26.020  1.00  0.00    -0.246 OA
BRANCH   8  10
ATOM     10  C   UNL A   1      32.936  28.594  25.495  1.00  0.00     0.062 A 
ATOM     11  N   UNL A   1      33.625  25.440  22.947  1.00  0.00    -0.289 N 
ATOM     12  C   UNL A   1      33.270  26.044  21.714  1.00  0.00     0.326 A 
ATOM     13  C   UNL A   1      33.630  26.441  23.929  1.00  0.00     0.069 A 
ATOM     14  O   UNL A   1      33.203  25.529  20.611  1.00  0.00    -0.248 OA
ATOM     15  N   UNL A   1      32.953  27.383  22.001  1.00  0.00    -0.306 N 
ATOM     16  C   UNL A   1      33.086  27.592  23.364  1.00  0.00     0.067 A 
ATOM     17  C   UNL A   1      34.031  26.435  25.241  1.00  0.00     0.029 A 
ATOM     18  H   UNL A   1      32.682  28.062  21.340  1.00  0.00     0.171 HD
ATOM     19  C   UNL A   1      32.722  28.686  24.113  1.00  0.00     0.044 A 
ATOM     20  C   UNL A   1      33.632  27.497  26.047  1.00  0.00     0.018 A 
BRANCH  11  21
ATOM     21  C   UNL A   1      33.744  24.002  23.133  1.00  0.00     0.162 C 
BRANCH  21  22
ATOM     22  C   UNL A   1      32.596  23.242  23.873  1.00  0.00     0.083 C 
ATOM     23  C   UNL A   1      31.195  23.763  23.496  1.00  0.00     0.044 C 
ATOM     24  C   UNL A   1      32.713  21.717  23.812  1.00  0.00     0.039 C 
ATOM     25  O   UNL A   1      32.698  23.476  25.307  1.00  0.00    -0.373 OA
ATOM     26  C   UNL A   1      31.822  21.280  24.954  1.00  0.00     0.031 C 
ATOM     27  C   UNL A   1      32.010  22.392  25.973  1.00  0.00     0.161 C 
ENDBRANCH  21  22
ENDBRANCH  11  21
ENDBRANCH   8  10
ENDBRANCH   7   8
ENDBRANCH   6   7
ENDBRANCH   5   6
ENDBRANCH   4   5
ENDBRANCH   3   4
ENDBRANCH   2   3
ENDBRANCH   1   2
BRANCH   1  28
ATOM     28  C   UNL A   1      32.903  35.763  30.413  1.00  0.00     0.188 C 
BRANCH  28  29
ATOM     29  C   UNL A   1      33.351  35.452  31.864  1.00  0.00     0.188 C 
BRANCH  29  30
ATOM     30  O   UNL A   1      33.607  34.085  32.094  1.00  0.00    -0.376 OA
BRANCH  30  31
ATOM     31  C   UNL A   1      34.801  33.535  31.569  1.00  0.00     0.202 C 
BRANCH  31  32
ATOM     32  C   UNL A   1      35.612  32.473  32.349  1.00  0.00     0.261 C 
BRANCH  32  33
ATOM     33  O   UNL A   1      36.734  32.954  33.114  1.00  0.00    -0.460 OA
BRANCH  33  34
ATOM     34  C   UNL A   1      37.913  33.256  32.520  1.00  0.00     0.338 C 
ATOM     35  O   UNL A   1      38.575  34.260  32.690  1.00  0.00    -0.246 OA
BRANCH  34  36
ATOM     36  C   UNL A   1      38.425  31.973  31.934  1.00  0.00     0.060 A 
ATOM     37  C   UNL A   1      38.176  30.729  32.522  1.00  0.00     0.016 A 
ATOM     38  C   UNL A   1      39.437  32.090  30.964  1.00  0.00     0.016 A 
ATOM     39  C   UNL A   1      39.018  29.649  32.216  1.00  0.00     0.010 A 
ATOM     40  C   UNL A   1      40.293  31.016  30.682  1.00  0.00     0.010 A 
ATOM     41  C   UNL A   1      40.108  29.790  31.321  1.00  0.00    -0.014 A 
BRANCH  41  42
ATOM     42  C   UNL A   1      40.724  28.546  30.793  1.00  0.00     0.031 A 
ATOM     43  C   UNL A   1      41.624  27.981  31.834  1.00  0.00     0.074 A 
ATOM     44  C   UNL A   1      40.472  27.804  29.686  1.00  0.00     0.049 A 
ATOM     45  N   UNL A   1      42.903  27.827  31.781  1.00  0.00    -0.248 NA
ATOM     46  C   UNL A   1      41.035  27.748  33.169  1.00  0.00     0.031 C 
ATOM     47  C   UNL A   1      39.375  27.980  28.736  1.00  0.00     0.029 A 
ATOM     48  N   UNL A   1      41.094  26.662  29.208  1.00  0.00    -0.354 N 
ATOM     49  C   UNL A   1      43.245  27.274  33.011  1.00  0.00     0.074 A 
ATOM     50  C   UNL A   1      42.121  27.461  33.883  1.00  0.00     0.031 C 
ATOM     51  C   UNL A   1      39.290  26.903  27.919  1.00  0.00     0.029 A 
ATOM     52  C   UNL A   1      40.372  25.983  28.221  1.00  0.00     0.049 A 
ATOM     53  H   UNL A   1      41.970  26.356  29.535  1.00  0.00     0.167 HD
ATOM     54  C   UNL A   1      44.275  26.395  33.108  1.00  0.00     0.031 A 
ATOM     55  C   UNL A   1      40.591  24.739  27.713  1.00  0.00     0.031 A 
ATOM     56  C   UNL A   1      45.172  26.513  31.991  1.00  0.00     0.049 A 
ATOM     57  C   UNL A   1      41.989  24.350  27.969  1.00  0.00     0.074 A 
ATOM     58  C   UNL A   1      46.164  27.377  31.587  1.00  0.00     0.029 A 
ATOM     59  N   UNL A   1      44.781  25.799  30.893  1.00  0.00    -0.354 N 
ATOM     60  N   UNL A   1      43.009  24.892  27.375  1.00  0.00    -0.248 NA
ATOM     61  C   UNL A   1      42.296  23.490  29.106  1.00  0.00     0.031 C 
ATOM     62  C   UNL A   1      46.291  27.215  30.175  1.00  0.00     0.029 A 
ATOM     63  C   UNL A   1      45.413  26.220  29.756  1.00  0.00     0.049 A 
ATOM     64  H   UNL A   1      44.123  25.067  30.920  1.00  0.00     0.167 HD
ATOM     65  C   UNL A   1      44.014  24.807  28.313  1.00  0.00     0.074 A 
ATOM     66  C   UNL A   1      43.585  23.790  29.263  1.00  0.00     0.031 C 
ATOM     67  C   UNL A   1      44.915  25.817  28.458  1.00  0.00     0.031 A 
BRANCH  54  68
ATOM     68  C   UNL A   1      44.153  25.103  33.894  1.00  0.00    -0.014 A 
ATOM     69  C   UNL A   1      43.963  23.835  33.306  1.00  0.00     0.009 A 
ATOM     70  C   UNL A   1      44.509  25.107  35.253  1.00  0.00     0.009 A 
ATOM     71  C   UNL A   1      44.108  22.644  34.021  1.00  0.00     0.001 A 
ATOM     72  C   UNL A   1      44.689  23.914  35.967  1.00  0.00     0.001 A 
ATOM     73  C   UNL A   1      44.488  22.683  35.351  1.00  0.00     0.000 A 
ENDBRANCH  54  68
BRANCH  55  74
ATOM     74  C   UNL A   1      39.634  23.715  27.207  1.00  0.00    -0.014 A 
ATOM     75  C   UNL A   1      40.074  22.405  26.955  1.00  0.00     0.009 A 
ATOM     76  C   UNL A   1      38.391  24.095  26.659  1.00  0.00     0.009 A 
ATOM     77  C   UNL A   1      39.344  21.538  26.130  1.00  0.00     0.001 A 
ATOM     78  C   UNL A   1      37.664  23.229  25.828  1.00  0.00     0.001 A 
ATOM     79  C   UNL A   1      38.153  21.957  25.546  1.00  0.00     0.000 A 
ENDBRANCH  55  74
BRANCH  67  80
ATOM     80  C   UNL A   1      45.260  26.657  27.264  1.00  0.00    -0.014 A 
ATOM     81  C   UNL A   1      45.689  25.976  26.113  1.00  0.00     0.009 A 
ATOM     82  C   UNL A   1      45.264  28.060  27.251  1.00  0.00     0.009 A 
ATOM     83  C   UNL A   1      46.145  26.669  24.994  1.00  0.00     0.001 A 
ATOM     84  C   UNL A   1      45.695  28.757  26.117  1.00  0.00     0.001 A 
ATOM     85  C   UNL A   1      46.148  28.062  24.996  1.00  0.00     0.000 A 
ENDBRANCH  67  80
ENDBRANCH  41  42
ENDBRANCH  34  36
ENDBRANCH  33  34
ENDBRANCH  32  33
ENDBRANCH  31  32
ENDBRANCH  30  31
ENDBRANCH  29  30
ENDBRANCH  28  29
ENDBRANCH   1  28
TORSDOF 22
ENDMDL
MODEL 2
REMARK VINA RESULT:     -10.3      1.683      2.590
REMARK SMILES C[C@]1(Cn2c(=O)[nH]c3cc(C(=O)OCCOCCOCCOCCOC(=O)c4ccc(-c5c6nc(c(-c7ccccc7)c7ccc([nH]7)c(-c7ccccc7)c7nc(c(-c8ccccc8)c8ccc5[nH]8)C=C7)C=C6)cc4)ccc32)CCCO1
REMARK SMILES IDX 19 1 18 2 17 3 16 4 15 5 14 6 13 7 11 8 12 9 10 10 4 11 5 12
REMARK SMILES IDX 78 13 6 14 7 15 8 16 77 17 9 19 76 20 3 21 2 22 1 23 79 24
REMARK SMILES IDX 82 25 80 26 81 27 20 28 21 29 22 30 23 31 24 32 25 33 26 34
REMARK SMILES IDX 27 35 28 36 29 37 75 38 30 39 74 40 31 41 32 42 33 43 68 44
REMARK SMILES IDX 34 45 73 46 67 47 69 48 35 49 72 50 66 51 65 52 36 54 58 55
REMARK SMILES IDX 43 56 57 57 44 58 47 59 56 60 70 61 45 62 46 63 55 65 71 66
REMARK SMILES IDX 48 67 37 68 38 69 42 70 39 71 41 72 40 73 59 74 60 75 64 76
REMARK SMILES IDX 61 77 63 78 62 79 49 80 50 81 54 82 51 83 53 84 52 85
REMARK H PARENT 7 18 69 53 47 64
REMARK Flexibility Score: inf
ROOT
ATOM      1  O   UNL A   1      35.336  33.172  28.969  1.00  0.00    -0.377 OA
ENDROOT
BRANCH   1   2
ATOM      2  C   UNL A   1      34.982  32.607  27.725  1.00  0.00     0.188 C 
BRANCH   2   3
ATOM      3  C   UNL A   1      33.866  31.553  27.782  1.00  0.00     0.188 C 
BRANCH   3   4
ATOM      4  O   UNL A   1      34.182  30.341  27.129  1.00  0.00    -0.376 OA
BRANCH   4   5
ATOM      5  C   UNL A   1      33.207  29.477  26.577  1.00  0.00     0.202 C 
BRANCH   5   6
ATOM      6  C   UNL A   1      32.876  29.358  25.079  1.00  0.00     0.261 C 
BRANCH   6   7
ATOM      7  O   UNL A   1      31.499  29.305  24.750  1.00  0.00    -0.460 OA
BRANCH   7   8
ATOM      8  C   UNL A   1      31.172  28.609  23.639  1.00  0.00     0.338 C 
ATOM      9  O   UNL A   1      31.149  29.009  22.505  1.00  0.00    -0.246 OA
BRANCH   8  10
ATOM     10  C   UNL A   1      31.064  27.186  24.051  1.00  0.00     0.062 A 
ATOM     11  N   UNL A   1      30.864  23.386  25.611  1.00  0.00    -0.289 N 
ATOM     12  C   UNL A   1      30.025  23.628  26.729  1.00  0.00     0.326 A 
ATOM     13  C   UNL A   1      30.895  24.554  24.837  1.00  0.00     0.069 A 
ATOM     14  O   UNL A   1      29.697  22.852  27.609  1.00  0.00    -0.248 OA
ATOM     15  N   UNL A   1      29.658  24.983  26.667  1.00  0.00    -0.306 N 
ATOM     16  C   UNL A   1      30.266  25.562  25.565  1.00  0.00     0.067 A 
ATOM     17  C   UNL A   1      31.428  24.822  23.602  1.00  0.00     0.029 A 
ATOM     18  H   UNL A   1      29.065  25.445  27.303  1.00  0.00     0.171 HD
ATOM     19  C   UNL A   1      30.331  26.888  25.207  1.00  0.00     0.044 A 
ATOM     20  C   UNL A   1      31.566  26.155  23.227  1.00  0.00     0.018 A 
BRANCH  11  21
ATOM     21  C   UNL A   1      31.681  22.192  25.462  1.00  0.00     0.162 C 
BRANCH  21  22
ATOM     22  C   UNL A   1      33.228  22.311  25.656  1.00  0.00     0.083 C 
ATOM     23  C   UNL A   1      33.629  23.509  26.538  1.00  0.00     0.044 C 
ATOM     24  C   UNL A   1      33.911  21.003  26.064  1.00  0.00     0.039 C 
ATOM     25  O   UNL A   1      33.865  22.573  24.373  1.00  0.00    -0.373 OA
ATOM     26  C   UNL A   1      35.357  21.271  25.711  1.00  0.00     0.031 C 
ATOM     27  C   UNL A   1      35.245  22.156  24.481  1.00  0.00     0.161 C 
ENDBRANCH  21  22
ENDBRANCH  11  21
ENDBRANCH   8  10
ENDBRANCH   7   8
ENDBRANCH   6   7
ENDBRANCH   5   6
ENDBRANCH   4   5
ENDBRANCH   3   4
ENDBRANCH   2   3
ENDBRANCH   1   2
BRANCH   1  28
ATOM     28  C   UNL A   1      34.421  33.030  30.053  1.00  0.00     0.188 C 
BRANCH  28  29
ATOM     29  C   UNL A   1      34.075  34.191  31.021  1.00  0.00     0.188 C 
BRANCH  29  30
ATOM     30  O   UNL A   1      33.971  33.789  32.367  1.00  0.00    -0.376 OA
BRANCH  30  31
ATOM     31  C   UNL A   1      35.063  33.092  32.939  1.00  0.00     0.202 C 
BRANCH  31  32
ATOM     32  C   UNL A   1      36.192  33.836  33.692  1.00  0.00     0.261 C 
BRANCH  32  33
ATOM     33  O   UNL A   1      37.523  33.694  33.159  1.00  0.00    -0.460 OA
BRANCH  33  34
ATOM     34  C   UNL A   1      37.739  33.576  31.828  1.00  0.00     0.338 C 
ATOM     35  O   UNL A   1      37.590  34.441  30.988  1.00  0.00    -0.246 OA
BRANCH  34  36
ATOM     36  C   UNL A   1      38.554  32.329  31.647  1.00  0.00     0.060 A 
ATOM     37  C   UNL A   1      39.951  32.331  31.712  1.00  0.00     0.016 A 
ATOM     38  C   UNL A   1      37.890  31.226  31.082  1.00  0.00     0.016 A 
ATOM     39  C   UNL A   1      40.664  31.284  31.109  1.00  0.00     0.010 A 
ATOM     40  C   UNL A   1      38.606  30.195  30.456  1.00  0.00     0.010 A 
ATOM     41  C   UNL A   1      40.000  30.224  30.442  1.00  0.00    -0.014 A 
BRANCH  41  42
ATOM     42  C   UNL A   1      40.793  29.004  30.141  1.00  0.00     0.031 A 
ATOM     43  C   UNL A   1      41.441  28.536  31.396  1.00  0.00     0.074 A 
ATOM     44  C   UNL A   1      40.860  28.210  29.044  1.00  0.00     0.049 A 
ATOM     45  N   UNL A   1      42.702  28.465  31.660  1.00  0.00    -0.248 NA
ATOM     46  C   UNL A   1      40.559  28.312  32.559  1.00  0.00     0.031 C 
ATOM     47  C   UNL A   1      40.019  28.280  27.850  1.00  0.00     0.029 A 
ATOM     48  N   UNL A   1      41.641  27.095  28.788  1.00  0.00    -0.354 N 
ATOM     49  C   UNL A   1      42.764  27.978  32.963  1.00  0.00     0.074 A 
ATOM     50  C   UNL A   1      41.451  28.122  33.527  1.00  0.00     0.031 C 
ATOM     51  C   UNL A   1      40.195  27.172  27.092  1.00  0.00     0.029 A 
ATOM     52  C   UNL A   1      41.220  26.335  27.692  1.00  0.00     0.049 A 
ATOM     53  H   UNL A   1      42.427  26.857  29.332  1.00  0.00     0.167 HD
ATOM     54  C   UNL A   1      43.785  27.173  33.349  1.00  0.00     0.031 A 
ATOM     55  C   UNL A   1      41.624  25.091  27.314  1.00  0.00     0.031 A 
ATOM     56  C   UNL A   1      44.919  27.309  32.477  1.00  0.00     0.049 A 
ATOM     57  C   UNL A   1      42.937  24.804  27.919  1.00  0.00     0.074 A 
ATOM     58  C   UNL A   1      45.931  28.222  32.281  1.00  0.00     0.029 A 
ATOM     59  N   UNL A   1      44.847  26.534  31.354  1.00  0.00    -0.354 N 
ATOM     60  N   UNL A   1      44.040  25.390  27.562  1.00  0.00    -0.248 NA
ATOM     61  C   UNL A   1      43.004  24.006  29.137  1.00  0.00     0.031 C 
ATOM     62  C   UNL A   1      46.407  28.019  30.952  1.00  0.00     0.029 A 
ATOM     63  C   UNL A   1      45.714  26.955  30.383  1.00  0.00     0.049 A 
ATOM     64  H   UNL A   1      44.244  25.762  31.257  1.00  0.00     0.167 HD
ATOM     65  C   UNL A   1      44.789  25.403  28.717  1.00  0.00     0.074 A 
ATOM     66  C   UNL A   1      44.198  24.395  29.586  1.00  0.00     0.031 C 
ATOM     67  C   UNL A   1      45.570  26.475  29.025  1.00  0.00     0.031 A 
BRANCH  54  68
ATOM     68  C   UNL A   1      43.546  25.904  34.145  1.00  0.00    -0.014 A 
ATOM     69  C   UNL A   1      44.227  24.689  33.920  1.00  0.00     0.009 A 
ATOM     70  C   UNL A   1      42.812  25.988  35.340  1.00  0.00     0.009 A 
ATOM     71  C   UNL A   1      44.178  23.620  34.819  1.00  0.00     0.001 A 
ATOM     72  C   UNL A   1      42.786  24.931  36.262  1.00  0.00     0.001 A 
ATOM     73  C   UNL A   1      43.469  23.748  36.000  1.00  0.00     0.000 A 
ENDBRANCH  54  68
BRANCH  55  74
ATOM     74  C   UNL A   1      40.877  23.990  26.644  1.00  0.00    -0.014 A 
ATOM     75  C   UNL A   1      39.473  23.976  26.669  1.00  0.00     0.009 A 
ATOM     76  C   UNL A   1      41.528  22.794  26.276  1.00  0.00     0.009 A 
ATOM     77  C   UNL A   1      38.752  22.801  26.414  1.00  0.00     0.001 A 
ATOM     78  C   UNL A   1      40.806  21.617  26.026  1.00  0.00     0.001 A 
ATOM     79  C   UNL A   1      39.418  21.616  26.118  1.00  0.00     0.000 A 
ENDBRANCH  55  74
BRANCH  67  80
ATOM     80  C   UNL A   1      46.149  27.294  27.910  1.00  0.00    -0.014 A 
ATOM     81  C   UNL A   1      45.428  28.435  27.521  1.00  0.00     0.009 A 
ATOM     82  C   UNL A   1      47.300  26.952  27.185  1.00  0.00     0.009 A 
ATOM     83  C   UNL A   1      45.818  29.194  26.420  1.00  0.00     0.001 A 
ATOM     84  C   UNL A   1      47.710  27.731  26.096  1.00  0.00     0.001 A 
ATOM     85  C   UNL A   1      46.961  28.841  25.706  1.00  0.00     0.000 A 
ENDBRANCH  67  80
ENDBRANCH  41  42
ENDBRANCH  34  36
ENDBRANCH  33  34
ENDBRANCH  32  33
ENDBRANCH  31  32
ENDBRANCH  30  31
ENDBRANCH  29  30
ENDBRANCH  28  29
ENDBRANCH   1  28
TORSDOF 22
ENDMDL
MODEL 3
REMARK VINA RESULT:     -10.2     15.318     20.150
REMARK SMILES C[C@]1(Cn2c(=O)[nH]c3cc(C(=O)OCCOCCOCCOCCOC(=O)c4ccc(-c5c6nc(c(-c7ccccc7)c7ccc([nH]7)c(-c7ccccc7)c7nc(c(-c8ccccc8)c8ccc5[nH]8)C=C7)C=C6)cc4)ccc32)CCCO1
REMARK SMILES IDX 19 1 18 2 17 3 16 4 15 5 14 6 13 7 11 8 12 9 10 10 4 11 5 12
REMARK SMILES IDX 78 13 6 14 7 15 8 16 77 17 9 19 76 20 3 21 2 22 1 23 79 24
REMARK SMILES IDX 82 25 80 26 81 27 20 28 21 29 22 30 23 31 24 32 25 33 26 34
REMARK SMILES IDX 27 35 28 36 29 37 75 38 30 39 74 40 31 41 32 42 33 43 68 44
REMARK SMILES IDX 34 45 73 46 67 47 69 48 35 49 72 50 66 51 65 52 36 54 58 55
REMARK SMILES IDX 43 56 57 57 44 58 47 59 56 60 70 61 45 62 46 63 55 65 71 66
REMARK SMILES IDX 48 67 37 68 38 69 42 70 39 71 41 72 40 73 59 74 60 75 64 76
REMARK SMILES IDX 61 77 63 78 62 79 49 80 50 81 54 82 51 83 53 84 52 85
REMARK H PARENT 7 18 69 53 47 64
REMARK Flexibility Score: inf
ROOT
ATOM      1  O   UNL A   1      44.568  42.795  21.466  1.00  0.00    -0.377 OA
ENDROOT
BRANCH   1   2
ATOM      2  C   UNL A   1      43.317  43.087  22.051  1.00  0.00     0.188 C 
BRANCH   2   3
ATOM      3  C   UNL A   1      42.114  42.383  21.405  1.00  0.00     0.188 C 
BRANCH   3   4
ATOM      4  O   UNL A   1      41.256  43.247  20.688  1.00  0.00    -0.376 OA
BRANCH   4   5
ATOM      5  C   UNL A   1      41.294  43.388  19.280  1.00  0.00     0.202 C 
BRANCH   5   6
ATOM      6  C   UNL A   1      40.482  44.415  18.473  1.00  0.00     0.261 C 
BRANCH   6   7
ATOM      7  O   UNL A   1      41.127  45.649  18.212  1.00  0.00    -0.460 OA
BRANCH   7   8
ATOM      8  C   UNL A   1      41.800  45.743  17.044  1.00  0.00     0.338 C 
ATOM      9  O   UNL A   1      41.472  45.303  15.974  1.00  0.00    -0.246 OA
BRANCH   8  10
ATOM     10  C   UNL A   1      42.917  46.692  17.278  1.00  0.00     0.062 A 
ATOM     11  N   UNL A   1      45.962  49.234  18.365  1.00  0.00    -0.289 N 
ATOM     12  C   UNL A   1      46.693  48.379  19.230  1.00  0.00     0.326 A 
ATOM     13  C   UNL A   1      44.970  48.466  17.741  1.00  0.00     0.069 A 
ATOM     14  O   UNL A   1      47.666  48.647  19.911  1.00  0.00    -0.248 OA
ATOM     15  N   UNL A   1      46.048  47.131  19.196  1.00  0.00    -0.306 N 
ATOM     16  C   UNL A   1      44.947  47.218  18.359  1.00  0.00     0.067 A 
ATOM     17  C   UNL A   1      44.091  48.753  16.727  1.00  0.00     0.029 A 
ATOM     18  H   UNL A   1      46.333  46.326  19.687  1.00  0.00     0.171 HD
ATOM     19  C   UNL A   1      43.937  46.307  18.157  1.00  0.00     0.044 A 
ATOM     20  C   UNL A   1      43.020  47.886  16.530  1.00  0.00     0.018 A 
BRANCH  11  21
ATOM     21  C   UNL A   1      46.128  50.679  18.334  1.00  0.00     0.162 C 
BRANCH  21  22
ATOM     22  C   UNL A   1      46.818  51.330  17.092  1.00  0.00     0.083 C 
ATOM     23  C   UNL A   1      45.817  52.021  16.146  1.00  0.00     0.044 C 
ATOM     24  C   UNL A   1      48.029  52.202  17.434  1.00  0.00     0.039 C 
ATOM     25  O   UNL A   1      47.437  50.295  16.276  1.00  0.00    -0.373 OA
ATOM     26  C   UNL A   1      48.751  52.284  16.107  1.00  0.00     0.031 C 
ATOM     27  C   UNL A   1      48.470  50.926  15.485  1.00  0.00     0.161 C 
ENDBRANCH  21  22
ENDBRANCH  11  21
ENDBRANCH   8  10
ENDBRANCH   7   8
ENDBRANCH   6   7
ENDBRANCH   5   6
ENDBRANCH   4   5
ENDBRANCH   3   4
ENDBRANCH   2   3
ENDBRANCH   1   2
BRANCH   1  28
ATOM     28  C   UNL A   1      44.882  43.410  20.218  1.00  0.00     0.188 C 
BRANCH  28  29
ATOM     29  C   UNL A   1      46.317  43.442  19.633  1.00  0.00     0.188 C 
BRANCH  29  30
ATOM     30  O   UNL A   1      47.292  42.916  20.505  1.00  0.00    -0.376 OA
BRANCH  30  31
ATOM     31  C   UNL A   1      48.465  43.677  20.726  1.00  0.00     0.202 C 
BRANCH  31  32
ATOM     32  C   UNL A   1      48.401  45.197  21.011  1.00  0.00     0.261 C 
BRANCH  32  33
ATOM     33  O   UNL A   1      47.996  45.587  22.337  1.00  0.00    -0.460 OA
BRANCH  33  34
ATOM     34  C   UNL A   1      46.689  45.751  22.654  1.00  0.00     0.338 C 
ATOM     35  O   UNL A   1      45.840  46.295  21.977  1.00  0.00    -0.246 OA
BRANCH  34  36
ATOM     36  C   UNL A   1      46.414  44.808  23.788  1.00  0.00     0.060 A 
ATOM     37  C   UNL A   1      45.249  44.880  24.557  1.00  0.00     0.016 A 
ATOM     38  C   UNL A   1      47.511  44.066  24.263  1.00  0.00     0.016 A 
ATOM     39  C   UNL A   1      45.239  44.308  25.838  1.00  0.00     0.010 A 
ATOM     40  C   UNL A   1      47.508  43.519  25.554  1.00  0.00     0.010 A 
ATOM     41  C   UNL A   1      46.381  43.653  26.365  1.00  0.00    -0.014 A 
BRANCH  41  42
ATOM     42  C   UNL A   1      46.183  42.791  27.558  1.00  0.00     0.031 A 
ATOM     43  C   UNL A   1      45.284  41.665  27.188  1.00  0.00     0.074 A 
ATOM     44  C   UNL A   1      46.790  42.761  28.771  1.00  0.00     0.049 A 
ATOM     45  N   UNL A   1      44.108  41.403  27.647  1.00  0.00    -0.248 NA
ATOM     46  C   UNL A   1      45.677  40.855  26.016  1.00  0.00     0.031 C 
ATOM     47  C   UNL A   1      47.957  43.533  29.194  1.00  0.00     0.029 A 
ATOM     48  N   UNL A   1      46.553  41.959  29.875  1.00  0.00    -0.354 N 
ATOM     49  C   UNL A   1      43.707  40.259  26.963  1.00  0.00     0.074 A 
ATOM     50  C   UNL A   1      44.589  40.110  25.840  1.00  0.00     0.031 C 
ATOM     51  C   UNL A   1      48.436  43.049  30.364  1.00  0.00     0.029 A 
ATOM     52  C   UNL A   1      47.573  41.977  30.831  1.00  0.00     0.049 A 
ATOM     53  H   UNL A   1      45.734  41.421  29.978  1.00  0.00     0.167 HD
ATOM     54  C   UNL A   1      42.919  39.335  27.569  1.00  0.00     0.031 A 
ATOM     55  C   UNL A   1      47.751  41.155  31.901  1.00  0.00     0.031 A 
ATOM     56  C   UNL A   1      42.222  39.897  28.694  1.00  0.00     0.049 A 
ATOM     57  C   UNL A   1      46.466  40.519  32.242  1.00  0.00     0.074 A 
ATOM     58  C   UNL A   1      41.134  40.715  28.894  1.00  0.00     0.029 A 
ATOM     59  N   UNL A   1      42.954  39.902  29.848  1.00  0.00    -0.354 N 
ATOM     60  N   UNL A   1      45.460  41.158  32.761  1.00  0.00    -0.248 NA
ATOM     61  C   UNL A   1      46.189  39.167  31.771  1.00  0.00     0.031 C 
ATOM     62  C   UNL A   1      41.290  41.286  30.192  1.00  0.00     0.029 A 
ATOM     63  C   UNL A   1      42.441  40.765  30.777  1.00  0.00     0.049 A 
ATOM     64  H   UNL A   1      43.755  39.349  29.994  1.00  0.00     0.167 HD
ATOM     65  C   UNL A   1      44.362  40.479  32.280  1.00  0.00     0.074 A 
ATOM     66  C   UNL A   1      44.858  39.181  31.843  1.00  0.00     0.031 C 
ATOM     67  C   UNL A   1      43.233  41.151  31.925  1.00  0.00     0.031 A 
BRANCH  54  68
ATOM     68  C   UNL A   1      43.216  37.849  27.482  1.00  0.00    -0.014 A 
ATOM     69  C   UNL A   1      42.393  36.917  26.815  1.00  0.00     0.009 A 
ATOM     70  C   UNL A   1      44.496  37.397  27.843  1.00  0.00     0.009 A 
ATOM     71  C   UNL A   1      42.809  35.614  26.530  1.00  0.00     0.001 A 
ATOM     72  C   UNL A   1      44.931  36.101  27.529  1.00  0.00     0.001 A 
ATOM     73  C   UNL A   1      44.087  35.211  26.874  1.00  0.00     0.000 A 
ENDBRANCH  54  68
BRANCH  55  74
ATOM     74  C   UNL A   1      48.999  40.664  32.551  1.00  0.00    -0.014 A 
ATOM     75  C   UNL A   1      50.111  40.316  31.767  1.00  0.00     0.009 A 
ATOM     76  C   UNL A   1      48.990  40.220  33.891  1.00  0.00     0.009 A 
ATOM     77  C   UNL A   1      51.132  39.500  32.272  1.00  0.00     0.001 A 
ATOM     78  C   UNL A   1      50.009  39.398  34.394  1.00  0.00     0.001 A 
ATOM     79  C   UNL A   1      51.069  39.019  33.576  1.00  0.00     0.000 A 
ENDBRANCH  55  74
BRANCH  67  80
ATOM     80  C   UNL A   1      42.902  42.434  32.627  1.00  0.00    -0.014 A 
ATOM     81  C   UNL A   1      43.347  43.621  32.022  1.00  0.00     0.009 A 
ATOM     82  C   UNL A   1      42.261  42.519  33.872  1.00  0.00     0.009 A 
ATOM     83  C   UNL A   1      43.193  44.853  32.653  1.00  0.00     0.001 A 
ATOM     84  C   UNL A   1      42.081  43.760  34.494  1.00  0.00     0.001 A 
ATOM     85  C   UNL A   1      42.560  44.923  33.891  1.00  0.00     0.000 A 
ENDBRANCH  67  80
ENDBRANCH  41  42
ENDBRANCH  34  36
ENDBRANCH  33  34
ENDBRANCH  32  33
ENDBRANCH  31  32
ENDBRANCH  30  31
ENDBRANCH  29  30
ENDBRANCH  28  29
ENDBRANCH   1  28
TORSDOF 22
ENDMDL
