MODEL 1
REMARK VINA RESULT:      -9.8      0.000      0.000
REMARK SMILES Cc1ccc([C@@H](C)Nc2ccc(N)cc2C(=O)OCCOCCOCCOCCOC(=O)c2ccc(-c3c4nc(c(-c5ccccc5)c5ccc([nH]5)c(-c5ccccc5)c5nc(c(-c6ccccc6)c6ccc3[nH]6)C=C5)C=C4)cc2)cc1F
REMARK SMILES IDX 23 1 22 2 21 3 20 4 19 5 18 6 16 7 17 8 15 9 9 10 10 11
REMARK SMILES IDX 11 12 14 13 12 14 8 15 6 17 7 18 5 19 1 20 2 21 3 22 82 23
REMARK SMILES IDX 4 24 81 25 83 26 13 27 24 30 25 31 26 32 27 33 28 34 29 35
REMARK SMILES IDX 30 36 31 37 32 38 33 39 34 40 80 41 35 42 79 43 36 44 37 45
REMARK SMILES IDX 38 46 73 47 39 48 78 49 72 50 74 51 40 52 77 53 71 54 70 55
REMARK SMILES IDX 41 57 63 58 48 59 62 60 49 61 52 62 61 63 75 64 50 65 51 66
REMARK SMILES IDX 60 68 76 69 53 70 42 71 43 72 47 73 44 74 46 75 45 76 64 77
REMARK SMILES IDX 65 78 69 79 66 80 68 81 67 82 54 83 55 84 59 85 56 86 58 87
REMARK SMILES IDX 57 88
REMARK H PARENT 8 16 13 28 13 29 74 56 52 67
REMARK Flexibility Score: inf
ROOT
ATOM      1  C   UNL A   1      34.479  29.899  26.925  1.00  0.00     0.188 C 
ENDROOT
BRANCH   1   2
ATOM      2  C   UNL A   1      33.588  28.736  26.444  1.00  0.00     0.188 C 
BRANCH   2   3
ATOM      3  O   UNL A   1      32.428  28.586  27.250  1.00  0.00    -0.376 OA
BRANCH   3   4
ATOM      4  C   UNL A   1      31.427  27.663  26.873  1.00  0.00     0.202 C 
BRANCH   4   5
ATOM      5  C   UNL A   1      31.785  26.175  26.875  1.00  0.00     0.261 C 
BRANCH   5   6
ATOM      6  O   UNL A   1      30.825  25.333  26.221  1.00  0.00    -0.460 OA
BRANCH   6   7
ATOM      7  C   UNL A   1      30.802  24.023  26.549  1.00  0.00     0.340 C 
ATOM      8  O   UNL A   1      30.000  23.483  27.294  1.00  0.00    -0.246 OA
BRANCH   7   9
ATOM      9  C   UNL A   1      31.745  23.280  25.686  1.00  0.00     0.085 A 
ATOM     10  C   UNL A   1      32.316  23.719  24.480  1.00  0.00     0.049 A 
ATOM     11  C   UNL A   1      33.204  22.799  23.863  1.00  0.00     0.029 A 
ATOM     12  C   UNL A   1      33.516  21.543  24.392  1.00  0.00     0.027 A 
ATOM     13  C   UNL A   1      32.068  22.002  26.219  1.00  0.00     0.043 A 
ATOM     14  C   UNL A   1      32.969  21.142  25.597  1.00  0.00     0.032 A 
BRANCH  10  15
ATOM     15  N   UNL A   1      32.196  24.905  23.797  1.00  0.00    -0.378 N 
ATOM     16  H   UNL A   1      32.735  25.603  24.234  1.00  0.00     0.161 HD
BRANCH  15  17
ATOM     17  C   UNL A   1      31.519  25.449  22.627  1.00  0.00     0.106 C 
ATOM     18  C   UNL A   1      32.320  25.563  21.346  1.00  0.00     0.036 C 
BRANCH  17  19
ATOM     19  C   UNL A   1      30.579  26.599  22.967  1.00  0.00    -0.023 A 
ATOM     20  C   UNL A   1      27.668  29.783  22.982  1.00  0.00     0.047 C 
ATOM     21  C   UNL A   1      28.688  28.696  23.027  1.00  0.00    -0.015 A 
ATOM     22  C   UNL A   1      29.990  28.935  22.587  1.00  0.00     0.007 A 
ATOM     23  C   UNL A   1      28.375  27.441  23.544  1.00  0.00     0.126 A 
ATOM     24  C   UNL A   1      30.924  27.900  22.557  1.00  0.00     0.006 A 
ATOM     25  C   UNL A   1      29.301  26.402  23.515  1.00  0.00     0.045 A 
ATOM     26  F   UNL A   1      27.147  27.207  24.031  1.00  0.00    -0.207 F 
ENDBRANCH  17  19
ENDBRANCH  15  17
ENDBRANCH  10  15
BRANCH  14  27
ATOM     27  N   UNL A   1      33.213  19.873  26.091  1.00  0.00    -0.399 N 
ATOM     28  H   UNL A   1      32.919  19.083  25.584  1.00  0.00     0.156 HD
ATOM     29  H   UNL A   1      33.681  19.761  26.950  1.00  0.00     0.156 HD
ENDBRANCH  14  27
ENDBRANCH   7   9
ENDBRANCH   6   7
ENDBRANCH   5   6
ENDBRANCH   4   5
ENDBRANCH   3   4
ENDBRANCH   2   3
ENDBRANCH   1   2
BRANCH   1  30
ATOM     30  O   UNL A   1      33.799  30.988  27.541  1.00  0.00    -0.377 OA
BRANCH  30  31
ATOM     31  C   UNL A   1      34.582  31.757  28.445  1.00  0.00     0.188 C 
BRANCH  31  32
ATOM     32  C   UNL A   1      34.469  33.287  28.255  1.00  0.00     0.188 C 
BRANCH  32  33
ATOM     33  O   UNL A   1      34.176  34.182  29.321  1.00  0.00    -0.376 OA
BRANCH  33  34
ATOM     34  C   UNL A   1      33.778  35.515  29.057  1.00  0.00     0.202 C 
BRANCH  34  35
ATOM     35  C   UNL A   1      32.707  36.170  29.945  1.00  0.00     0.261 C 
BRANCH  35  36
ATOM     36  O   UNL A   1      33.109  36.519  31.274  1.00  0.00    -0.460 OA
BRANCH  36  37
ATOM     37  C   UNL A   1      32.746  35.649  32.244  1.00  0.00     0.338 C 
ATOM     38  O   UNL A   1      31.628  35.407  32.653  1.00  0.00    -0.246 OA
BRANCH  37  39
ATOM     39  C   UNL A   1      33.961  34.944  32.701  1.00  0.00     0.060 A 
ATOM     40  C   UNL A   1      35.217  35.534  32.499  1.00  0.00     0.016 A 
ATOM     41  C   UNL A   1      33.858  33.684  33.286  1.00  0.00     0.016 A 
ATOM     42  C   UNL A   1      36.381  34.866  32.884  1.00  0.00     0.010 A 
ATOM     43  C   UNL A   1      35.025  33.001  33.632  1.00  0.00     0.010 A 
ATOM     44  C   UNL A   1      36.297  33.580  33.425  1.00  0.00    -0.014 A 
BRANCH  44  45
ATOM     45  C   UNL A   1      37.518  32.753  33.618  1.00  0.00     0.031 A 
ATOM     46  C   UNL A   1      38.349  33.015  34.844  1.00  0.00     0.074 A 
ATOM     47  C   UNL A   1      37.909  31.810  32.737  1.00  0.00     0.049 A 
ATOM     48  N   UNL A   1      39.490  32.486  35.205  1.00  0.00    -0.248 NA
ATOM     49  C   UNL A   1      37.822  34.017  35.786  1.00  0.00     0.031 C 
ATOM     50  C   UNL A   1      37.191  31.412  31.528  1.00  0.00     0.029 A 
ATOM     51  N   UNL A   1      39.043  31.032  32.717  1.00  0.00    -0.354 N 
ATOM     52  C   UNL A   1      39.808  33.089  36.415  1.00  0.00     0.074 A 
ATOM     53  C   UNL A   1      38.792  34.082  36.680  1.00  0.00     0.031 C 
ATOM     54  C   UNL A   1      37.925  30.505  30.856  1.00  0.00     0.029 A 
ATOM     55  C   UNL A   1      39.163  30.256  31.588  1.00  0.00     0.049 A 
ATOM     56  H   UNL A   1      39.707  31.030  33.443  1.00  0.00     0.167 HD
ATOM     57  C   UNL A   1      40.827  32.813  37.261  1.00  0.00     0.031 A 
ATOM     58  C   UNL A   1      40.162  29.444  31.186  1.00  0.00     0.031 A 
ATOM     59  C   UNL A   1      41.839  31.828  37.010  1.00  0.00     0.049 A 
ATOM     60  C   UNL A   1      41.348  29.229  32.089  1.00  0.00     0.074 A 
ATOM     61  C   UNL A   1      42.887  31.441  37.825  1.00  0.00     0.029 A 
ATOM     62  N   UNL A   1      41.930  31.077  35.850  1.00  0.00    -0.354 N 
ATOM     63  N   UNL A   1      41.596  29.748  33.268  1.00  0.00    -0.248 NA
ATOM     64  C   UNL A   1      42.375  28.283  31.623  1.00  0.00     0.031 C 
ATOM     65  C   UNL A   1      43.644  30.491  37.133  1.00  0.00     0.029 A 
ATOM     66  C   UNL A   1      43.034  30.246  35.914  1.00  0.00     0.049 A 
ATOM     67  H   UNL A   1      41.302  31.127  35.092  1.00  0.00     0.167 HD
ATOM     68  C   UNL A   1      42.769  29.148  33.709  1.00  0.00     0.074 A 
ATOM     69  C   UNL A   1      43.189  28.231  32.668  1.00  0.00     0.031 C 
ATOM     70  C   UNL A   1      43.431  29.327  34.878  1.00  0.00     0.031 A 
BRANCH  57  71
ATOM     71  C   UNL A   1      40.875  33.605  38.537  1.00  0.00    -0.014 A 
ATOM     72  C   UNL A   1      40.201  33.161  39.688  1.00  0.00     0.009 A 
ATOM     73  C   UNL A   1      41.575  34.818  38.584  1.00  0.00     0.009 A 
ATOM     74  C   UNL A   1      40.181  33.945  40.842  1.00  0.00     0.001 A 
ATOM     75  C   UNL A   1      41.582  35.584  39.750  1.00  0.00     0.001 A 
ATOM     76  C   UNL A   1      40.873  35.155  40.872  1.00  0.00     0.000 A 
ENDBRANCH  57  71
BRANCH  58  77
ATOM     77  C   UNL A   1      40.091  28.749  29.872  1.00  0.00    -0.014 A 
ATOM     78  C   UNL A   1      40.433  29.419  28.687  1.00  0.00     0.009 A 
ATOM     79  C   UNL A   1      39.625  27.427  29.790  1.00  0.00     0.009 A 
ATOM     80  C   UNL A   1      40.273  28.795  27.447  1.00  0.00     0.001 A 
ATOM     81  C   UNL A   1      39.489  26.797  28.550  1.00  0.00     0.001 A 
ATOM     82  C   UNL A   1      39.802  27.485  27.379  1.00  0.00     0.000 A 
ENDBRANCH  58  77
BRANCH  70  83
ATOM     83  C   UNL A   1      44.642  28.474  35.130  1.00  0.00    -0.014 A 
ATOM     84  C   UNL A   1      44.542  27.219  35.749  1.00  0.00     0.009 A 
ATOM     85  C   UNL A   1      45.900  28.916  34.687  1.00  0.00     0.009 A 
ATOM     86  C   UNL A   1      45.684  26.437  35.945  1.00  0.00     0.001 A 
ATOM     87  C   UNL A   1      47.032  28.119  34.855  1.00  0.00     0.001 A 
ATOM     88  C   UNL A   1      46.925  26.884  35.491  1.00  0.00     0.000 A 
ENDBRANCH  70  83
ENDBRANCH  44  45
ENDBRANCH  37  39
ENDBRANCH  36  37
ENDBRANCH  35  36
ENDBRANCH  34  35
ENDBRANCH  33  34
ENDBRANCH  32  33
ENDBRANCH  31  32
ENDBRANCH  30  31
ENDBRANCH   1  30
TORSDOF 24
ENDMDL
MODEL 2
REMARK VINA RESULT:      -9.7      5.119     10.141
REMARK SMILES Cc1ccc([C@@H](C)Nc2ccc(N)cc2C(=O)OCCOCCOCCOCCOC(=O)c2ccc(-c3c4nc(c(-c5ccccc5)c5ccc([nH]5)c(-c5ccccc5)c5nc(c(-c6ccccc6)c6ccc3[nH]6)C=C5)C=C4)cc2)cc1F
REMARK SMILES IDX 23 1 22 2 21 3 20 4 19 5 18 6 16 7 17 8 15 9 9 10 10 11
REMARK SMILES IDX 11 12 14 13 12 14 8 15 6 17 7 18 5 19 1 20 2 21 3 22 82 23
REMARK SMILES IDX 4 24 81 25 83 26 13 27 24 30 25 31 26 32 27 33 28 34 29 35
REMARK SMILES IDX 30 36 31 37 32 38 33 39 34 40 80 41 35 42 79 43 36 44 37 45
REMARK SMILES IDX 38 46 73 47 39 48 78 49 72 50 74 51 40 52 77 53 71 54 70 55
REMARK SMILES IDX 41 57 63 58 48 59 62 60 49 61 52 62 61 63 75 64 50 65 51 66
REMARK SMILES IDX 60 68 76 69 53 70 42 71 43 72 47 73 44 74 46 75 45 76 64 77
REMARK SMILES IDX 65 78 69 79 66 80 68 81 67 82 54 83 55 84 59 85 56 86 58 87
REMARK SMILES IDX 57 88
REMARK H PARENT 8 16 13 28 13 29 74 56 52 67
REMARK Flexibility Score: inf
ROOT
ATOM      1  C   UNL A   1      33.970  23.811  22.830  1.00  0.00     0.188 C 
ENDROOT
BRANCH   1   2
ATOM      2  C   UNL A   1      34.180  25.226  23.405  1.00  0.00     0.188 C 
BRANCH   2   3
ATOM      3  O   UNL A   1      33.480  26.212  22.660  1.00  0.00    -0.376 OA
BRANCH   3   4
ATOM      4  C   UNL A   1      33.638  27.578  22.983  1.00  0.00     0.202 C 
BRANCH   4   5
ATOM      5  C   UNL A   1      32.574  28.560  22.486  1.00  0.00     0.261 C 
BRANCH   5   6
ATOM      6  O   UNL A   1      31.254  28.312  22.992  1.00  0.00    -0.460 OA
BRANCH   6   7
ATOM      7  C   UNL A   1      30.728  29.204  23.858  1.00  0.00     0.340 C 
ATOM      8  O   UNL A   1      29.767  29.927  23.650  1.00  0.00    -0.246 OA
BRANCH   7   9
ATOM      9  C   UNL A   1      31.333  29.013  25.194  1.00  0.00     0.085 A 
ATOM     10  C   UNL A   1      31.294  27.852  25.984  1.00  0.00     0.049 A 
ATOM     11  C   UNL A   1      31.975  27.945  27.226  1.00  0.00     0.029 A 
ATOM     12  C   UNL A   1      32.650  29.090  27.661  1.00  0.00     0.027 A 
ATOM     13  C   UNL A   1      32.023  30.172  25.642  1.00  0.00     0.043 A 
ATOM     14  C   UNL A   1      32.705  30.212  26.855  1.00  0.00     0.032 A 
BRANCH  10  15
ATOM     15  N   UNL A   1      30.740  26.616  25.755  1.00  0.00    -0.378 N 
ATOM     16  H   UNL A   1      30.074  26.410  26.450  1.00  0.00     0.161 HD
BRANCH  15  17
ATOM     17  C   UNL A   1      30.833  25.516  24.804  1.00  0.00     0.106 C 
ATOM     18  C   UNL A   1      29.696  25.348  23.816  1.00  0.00     0.036 C 
BRANCH  17  19
ATOM     19  C   UNL A   1      31.418  24.250  25.416  1.00  0.00    -0.023 A 
ATOM     20  C   UNL A   1      33.650  20.679  26.357  1.00  0.00     0.047 C 
ATOM     21  C   UNL A   1      32.846  21.903  26.074  1.00  0.00    -0.015 A 
ATOM     22  C   UNL A   1      31.766  21.845  25.193  1.00  0.00     0.007 A 
ATOM     23  C   UNL A   1      33.129  23.109  26.709  1.00  0.00     0.126 A 
ATOM     24  C   UNL A   1      31.061  23.004  24.868  1.00  0.00     0.006 A 
ATOM     25  C   UNL A   1      32.432  24.270  26.388  1.00  0.00     0.045 A 
ATOM     26  F   UNL A   1      34.124  23.173  27.608  1.00  0.00    -0.207 F 
ENDBRANCH  17  19
ENDBRANCH  15  17
ENDBRANCH  10  15
BRANCH  14  27
ATOM     27  N   UNL A   1      33.305  31.372  27.308  1.00  0.00    -0.399 N 
ATOM     28  H   UNL A   1      34.176  31.651  26.943  1.00  0.00     0.156 HD
ATOM     29  H   UNL A   1      32.861  31.920  27.994  1.00  0.00     0.156 HD
ENDBRANCH  14  27
ENDBRANCH   7   9
ENDBRANCH   6   7
ENDBRANCH   5   6
ENDBRANCH   4   5
ENDBRANCH   3   4
ENDBRANCH   2   3
ENDBRANCH   1   2
BRANCH   1  30
ATOM     30  O   UNL A   1      34.952  22.845  23.186  1.00  0.00    -0.377 OA
BRANCH  30  31
ATOM     31  C   UNL A   1      36.074  23.354  23.897  1.00  0.00     0.188 C 
BRANCH  31  32
ATOM     32  C   UNL A   1      37.103  22.285  24.329  1.00  0.00     0.188 C 
BRANCH  32  33
ATOM     33  O   UNL A   1      36.747  20.939  24.624  1.00  0.00    -0.376 OA
BRANCH  33  34
ATOM     34  C   UNL A   1      37.741  19.979  24.932  1.00  0.00     0.202 C 
BRANCH  34  35
ATOM     35  C   UNL A   1      39.148  20.454  25.329  1.00  0.00     0.261 C 
BRANCH  35  36
ATOM     36  O   UNL A   1      39.874  19.612  26.231  1.00  0.00    -0.460 OA
BRANCH  36  37
ATOM     37  C   UNL A   1      41.220  19.632  26.097  1.00  0.00     0.338 C 
ATOM     38  O   UNL A   1      41.935  18.791  25.590  1.00  0.00    -0.246 OA
BRANCH  37  39
ATOM     39  C   UNL A   1      41.709  20.927  26.612  1.00  0.00     0.060 A 
ATOM     40  C   UNL A   1      41.488  21.261  27.956  1.00  0.00     0.016 A 
ATOM     41  C   UNL A   1      42.345  21.824  25.757  1.00  0.00     0.016 A 
ATOM     42  C   UNL A   1      41.905  22.498  28.454  1.00  0.00     0.010 A 
ATOM     43  C   UNL A   1      42.723  23.075  26.246  1.00  0.00     0.010 A 
ATOM     44  C   UNL A   1      42.497  23.428  27.596  1.00  0.00    -0.014 A 
BRANCH  44  45
ATOM     45  C   UNL A   1      42.728  24.831  28.033  1.00  0.00     0.031 A 
ATOM     46  C   UNL A   1      44.128  25.215  28.427  1.00  0.00     0.074 A 
ATOM     47  C   UNL A   1      41.740  25.745  28.108  1.00  0.00     0.049 A 
ATOM     48  N   UNL A   1      44.576  26.345  28.911  1.00  0.00    -0.248 NA
ATOM     49  C   UNL A   1      45.159  24.177  28.259  1.00  0.00     0.031 C 
ATOM     50  C   UNL A   1      40.346  25.539  27.722  1.00  0.00     0.029 A 
ATOM     51  N   UNL A   1      41.764  27.040  28.573  1.00  0.00    -0.354 N 
ATOM     52  C   UNL A   1      45.938  26.150  29.097  1.00  0.00     0.074 A 
ATOM     53  C   UNL A   1      46.225  24.774  28.761  1.00  0.00     0.031 C 
ATOM     54  C   UNL A   1      39.638  26.645  28.016  1.00  0.00     0.029 A 
ATOM     55  C   UNL A   1      40.527  27.640  28.607  1.00  0.00     0.049 A 
ATOM     56  H   UNL A   1      42.590  27.495  28.855  1.00  0.00     0.167 HD
ATOM     57  C   UNL A   1      46.883  27.045  29.467  1.00  0.00     0.031 A 
ATOM     58  C   UNL A   1      40.153  28.849  29.072  1.00  0.00     0.031 A 
ATOM     59  C   UNL A   1      46.611  28.413  29.798  1.00  0.00     0.049 A 
ATOM     60  C   UNL A   1      41.203  29.800  29.587  1.00  0.00     0.074 A 
ATOM     61  C   UNL A   1      47.504  29.412  30.142  1.00  0.00     0.029 A 
ATOM     62  N   UNL A   1      45.345  28.974  29.834  1.00  0.00    -0.354 N 
ATOM     63  N   UNL A   1      42.499  29.627  29.682  1.00  0.00    -0.248 NA
ATOM     64  C   UNL A   1      40.741  31.128  30.020  1.00  0.00     0.031 C 
ATOM     65  C   UNL A   1      46.770  30.565  30.436  1.00  0.00     0.029 A 
ATOM     66  C   UNL A   1      45.428  30.299  30.220  1.00  0.00     0.049 A 
ATOM     67  H   UNL A   1      44.509  28.499  29.617  1.00  0.00     0.167 HD
ATOM     68  C   UNL A   1      43.012  30.840  30.127  1.00  0.00     0.074 A 
ATOM     69  C   UNL A   1      41.887  31.738  30.289  1.00  0.00     0.031 C 
ATOM     70  C   UNL A   1      44.302  31.186  30.363  1.00  0.00     0.031 A 
BRANCH  57  71
ATOM     71  C   UNL A   1      48.298  26.544  29.524  1.00  0.00    -0.014 A 
ATOM     72  C   UNL A   1      49.138  26.619  28.398  1.00  0.00     0.009 A 
ATOM     73  C   UNL A   1      48.791  25.967  30.703  1.00  0.00     0.009 A 
ATOM     74  C   UNL A   1      50.421  26.075  28.436  1.00  0.00     0.001 A 
ATOM     75  C   UNL A   1      50.088  25.454  30.748  1.00  0.00     0.001 A 
ATOM     76  C   UNL A   1      50.895  25.494  29.612  1.00  0.00     0.000 A 
ENDBRANCH  57  71
BRANCH  58  77
ATOM     77  C   UNL A   1      38.722  29.256  29.061  1.00  0.00    -0.014 A 
ATOM     78  C   UNL A   1      37.916  29.071  30.195  1.00  0.00     0.009 A 
ATOM     79  C   UNL A   1      38.139  29.779  27.896  1.00  0.00     0.009 A 
ATOM     80  C   UNL A   1      36.550  29.364  30.151  1.00  0.00     0.001 A 
ATOM     81  C   UNL A   1      36.778  30.094  27.863  1.00  0.00     0.001 A 
ATOM     82  C   UNL A   1      35.982  29.875  28.986  1.00  0.00     0.000 A 
ENDBRANCH  58  77
BRANCH  70  83
ATOM     83  C   UNL A   1      44.580  32.608  30.760  1.00  0.00    -0.014 A 
ATOM     84  C   UNL A   1      44.807  33.608  29.803  1.00  0.00     0.009 A 
ATOM     85  C   UNL A   1      44.559  32.960  32.120  1.00  0.00     0.009 A 
ATOM     86  C   UNL A   1      45.036  34.928  30.203  1.00  0.00     0.001 A 
ATOM     87  C   UNL A   1      44.755  34.284  32.514  1.00  0.00     0.001 A 
ATOM     88  C   UNL A   1      45.002  35.264  31.556  1.00  0.00     0.000 A 
ENDBRANCH  70  83
ENDBRANCH  44  45
ENDBRANCH  37  39
ENDBRANCH  36  37
ENDBRANCH  35  36
ENDBRANCH  34  35
ENDBRANCH  33  34
ENDBRANCH  32  33
ENDBRANCH  31  32
ENDBRANCH  30  31
ENDBRANCH   1  30
TORSDOF 24
ENDMDL
MODEL 3
REMARK VINA RESULT:      -9.6      5.642     10.615
REMARK SMILES Cc1ccc([C@@H](C)Nc2ccc(N)cc2C(=O)OCCOCCOCCOCCOC(=O)c2ccc(-c3c4nc(c(-c5ccccc5)c5ccc([nH]5)c(-c5ccccc5)c5nc(c(-c6ccccc6)c6ccc3[nH]6)C=C5)C=C4)cc2)cc1F
REMARK SMILES IDX 23 1 22 2 21 3 20 4 19 5 18 6 16 7 17 8 15 9 9 10 10 11
REMARK SMILES IDX 11 12 14 13 12 14 8 15 6 17 7 18 5 19 1 20 2 21 3 22 82 23
REMARK SMILES IDX 4 24 81 25 83 26 13 27 24 30 25 31 26 32 27 33 28 34 29 35
REMARK SMILES IDX 30 36 31 37 32 38 33 39 34 40 80 41 35 42 79 43 36 44 37 45
REMARK SMILES IDX 38 46 73 47 39 48 78 49 72 50 74 51 40 52 77 53 71 54 70 55
REMARK SMILES IDX 41 57 63 58 48 59 62 60 49 61 52 62 61 63 75 64 50 65 51 66
REMARK SMILES IDX 60 68 76 69 53 70 42 71 43 72 47 73 44 74 46 75 45 76 64 77
REMARK SMILES IDX 65 78 69 79 66 80 68 81 67 82 54 83 55 84 59 85 56 86 58 87
REMARK SMILES IDX 57 88
REMARK H PARENT 8 16 13 28 13 29 74 56 52 67
REMARK Flexibility Score: inf
ROOT
ATOM      1  C   UNL A   1      34.233  22.990  23.087  1.00  0.00     0.188 C 
ENDROOT
BRANCH   1   2
ATOM      2  C   UNL A   1      34.345  24.521  23.237  1.00  0.00     0.188 C 
BRANCH   2   3
ATOM      3  O   UNL A   1      34.036  25.198  22.028  1.00  0.00    -0.376 OA
BRANCH   3   4
ATOM      4  C   UNL A   1      32.736  25.103  21.484  1.00  0.00     0.202 C 
BRANCH   4   5
ATOM      5  C   UNL A   1      31.638  25.981  22.091  1.00  0.00     0.261 C 
BRANCH   5   6
ATOM      6  O   UNL A   1      30.596  25.253  22.756  1.00  0.00    -0.460 OA
BRANCH   6   7
ATOM      7  C   UNL A   1      30.251  25.633  24.004  1.00  0.00     0.340 C 
ATOM      8  O   UNL A   1      29.245  26.250  24.315  1.00  0.00    -0.246 OA
BRANCH   7   9
ATOM      9  C   UNL A   1      31.150  24.987  24.985  1.00  0.00     0.085 A 
ATOM     10  C   UNL A   1      32.028  25.624  25.877  1.00  0.00     0.049 A 
ATOM     11  C   UNL A   1      32.766  24.753  26.721  1.00  0.00     0.029 A 
ATOM     12  C   UNL A   1      32.648  23.360  26.697  1.00  0.00     0.027 A 
ATOM     13  C   UNL A   1      31.034  23.570  24.968  1.00  0.00     0.043 A 
ATOM     14  C   UNL A   1      31.754  22.753  25.835  1.00  0.00     0.032 A 
BRANCH  10  15
ATOM     15  N   UNL A   1      32.281  26.955  26.109  1.00  0.00    -0.378 N 
ATOM     16  H   UNL A   1      32.141  27.165  27.061  1.00  0.00     0.161 HD
BRANCH  15  17
ATOM     17  C   UNL A   1      32.691  28.149  25.384  1.00  0.00     0.106 C 
ATOM     18  C   UNL A   1      33.696  27.976  24.263  1.00  0.00     0.036 C 
BRANCH  17  19
ATOM     19  C   UNL A   1      32.855  29.365  26.287  1.00  0.00    -0.023 A 
ATOM     20  C   UNL A   1      33.895  33.131  28.117  1.00  0.00     0.047 C 
ATOM     21  C   UNL A   1      33.511  31.815  27.531  1.00  0.00    -0.015 A 
ATOM     22  C   UNL A   1      34.377  30.726  27.623  1.00  0.00     0.007 A 
ATOM     23  C   UNL A   1      32.273  31.637  26.920  1.00  0.00     0.126 A 
ATOM     24  C   UNL A   1      34.054  29.515  27.009  1.00  0.00     0.006 A 
ATOM     25  C   UNL A   1      31.944  30.433  26.302  1.00  0.00     0.045 A 
ATOM     26  F   UNL A   1      31.398  32.653  26.875  1.00  0.00    -0.207 F 
ENDBRANCH  17  19
ENDBRANCH  15  17
ENDBRANCH  10  15
BRANCH  14  27
ATOM     27  N   UNL A   1      31.685  21.375  25.751  1.00  0.00    -0.399 N 
ATOM     28  H   UNL A   1      31.629  20.937  24.872  1.00  0.00     0.156 HD
ATOM     29  H   UNL A   1      31.693  20.831  26.572  1.00  0.00     0.156 HD
ENDBRANCH  14  27
ENDBRANCH   7   9
ENDBRANCH   6   7
ENDBRANCH   5   6
ENDBRANCH   4   5
ENDBRANCH   3   4
ENDBRANCH   2   3
ENDBRANCH   1   2
BRANCH   1  30
ATOM     30  O   UNL A   1      34.832  22.220  24.123  1.00  0.00    -0.377 OA
BRANCH  30  31
ATOM     31  C   UNL A   1      35.947  22.827  24.763  1.00  0.00     0.188 C 
BRANCH  31  32
ATOM     32  C   UNL A   1      37.087  21.852  25.135  1.00  0.00     0.188 C 
BRANCH  32  33
ATOM     33  O   UNL A   1      37.000  20.445  24.939  1.00  0.00    -0.376 OA
BRANCH  33  34
ATOM     34  C   UNL A   1      38.158  19.634  24.999  1.00  0.00     0.202 C 
BRANCH  34  35
ATOM     35  C   UNL A   1      39.463  20.226  25.557  1.00  0.00     0.261 C 
BRANCH  35  36
ATOM     36  O   UNL A   1      40.252  19.365  26.384  1.00  0.00    -0.460 OA
BRANCH  36  37
ATOM     37  C   UNL A   1      41.580  19.359  26.127  1.00  0.00     0.338 C 
ATOM     38  O   UNL A   1      42.251  18.454  25.673  1.00  0.00    -0.246 OA
BRANCH  37  39
ATOM     39  C   UNL A   1      42.105  20.709  26.418  1.00  0.00     0.060 A 
ATOM     40  C   UNL A   1      42.207  21.136  27.750  1.00  0.00     0.016 A 
ATOM     41  C   UNL A   1      42.454  21.562  25.374  1.00  0.00     0.016 A 
ATOM     42  C   UNL A   1      42.661  22.423  28.046  1.00  0.00     0.010 A 
ATOM     43  C   UNL A   1      42.867  22.862  25.671  1.00  0.00     0.010 A 
ATOM     44  C   UNL A   1      42.965  23.308  27.009  1.00  0.00    -0.014 A 
BRANCH  44  45
ATOM     45  C   UNL A   1      43.214  24.749  27.283  1.00  0.00     0.031 A 
ATOM     46  C   UNL A   1      44.615  25.260  27.091  1.00  0.00     0.074 A 
ATOM     47  C   UNL A   1      42.251  25.589  27.711  1.00  0.00     0.049 A 
ATOM     48  N   UNL A   1      45.108  26.448  27.331  1.00  0.00    -0.248 NA
ATOM     49  C   UNL A   1      45.595  24.294  26.563  1.00  0.00     0.031 C 
ATOM     50  C   UNL A   1      40.841  25.255  27.903  1.00  0.00     0.029 A 
ATOM     51  N   UNL A   1      42.331  26.907  28.094  1.00  0.00    -0.354 N 
ATOM     52  C   UNL A   1      46.449  26.368  26.978  1.00  0.00     0.074 A 
ATOM     53  C   UNL A   1      46.711  25.000  26.595  1.00  0.00     0.031 C 
ATOM     54  C   UNL A   1      40.201  26.321  28.419  1.00  0.00     0.029 A 
ATOM     55  C   UNL A   1      41.153  27.414  28.590  1.00  0.00     0.049 A 
ATOM     56  H   UNL A   1      43.155  27.440  28.020  1.00  0.00     0.167 HD
ATOM     57  C   UNL A   1      47.375  27.353  26.926  1.00  0.00     0.031 A 
ATOM     58  C   UNL A   1      40.875  28.617  29.130  1.00  0.00     0.031 A 
ATOM     59  C   UNL A   1      47.126  28.715  27.300  1.00  0.00     0.049 A 
ATOM     60  C   UNL A   1      41.949  29.675  29.170  1.00  0.00     0.074 A 
ATOM     61  C   UNL A   1      47.985  29.797  27.242  1.00  0.00     0.029 A 
ATOM     62  N   UNL A   1      45.924  29.179  27.810  1.00  0.00    -0.354 N 
ATOM     63  N   UNL A   1      43.192  29.606  28.758  1.00  0.00    -0.248 NA
ATOM     64  C   UNL A   1      41.568  30.988  29.712  1.00  0.00     0.031 C 
ATOM     65  C   UNL A   1      47.317  30.908  27.767  1.00  0.00     0.029 A 
ATOM     66  C   UNL A   1      46.026  30.529  28.097  1.00  0.00     0.049 A 
ATOM     67  H   UNL A   1      45.118  28.630  27.948  1.00  0.00     0.167 HD
ATOM     68  C   UNL A   1      43.721  30.880  28.935  1.00  0.00     0.074 A 
ATOM     69  C   UNL A   1      42.667  31.698  29.498  1.00  0.00     0.031 C 
ATOM     70  C   UNL A   1      44.964  31.335  28.642  1.00  0.00     0.031 A 
BRANCH  57  71
ATOM     71  C   UNL A   1      48.743  26.964  26.443  1.00  0.00    -0.014 A 
ATOM     72  C   UNL A   1      49.095  27.096  25.088  1.00  0.00     0.009 A 
ATOM     73  C   UNL A   1      49.681  26.436  27.341  1.00  0.00     0.009 A 
ATOM     74  C   UNL A   1      50.338  26.654  24.634  1.00  0.00     0.001 A 
ATOM     75  C   UNL A   1      50.936  26.026  26.890  1.00  0.00     0.001 A 
ATOM     76  C   UNL A   1      51.258  26.120  25.536  1.00  0.00     0.000 A 
ENDBRANCH  57  71
BRANCH  58  77
ATOM     77  C   UNL A   1      39.520  28.915  29.665  1.00  0.00    -0.014 A 
ATOM     78  C   UNL A   1      39.183  28.585  30.988  1.00  0.00     0.009 A 
ATOM     79  C   UNL A   1      38.534  29.477  28.838  1.00  0.00     0.009 A 
ATOM     80  C   UNL A   1      37.881  28.776  31.458  1.00  0.00     0.001 A 
ATOM     81  C   UNL A   1      37.239  29.689  29.318  1.00  0.00     0.001 A 
ATOM     82  C   UNL A   1      36.910  29.328  30.624  1.00  0.00     0.000 A 
ENDBRANCH  58  77
BRANCH  70  83
ATOM     83  C   UNL A   1      45.240  32.796  28.860  1.00  0.00    -0.014 A 
ATOM     84  C   UNL A   1      44.857  33.765  27.921  1.00  0.00     0.009 A 
ATOM     85  C   UNL A   1      45.845  33.210  30.058  1.00  0.00     0.009 A 
ATOM     86  C   UNL A   1      45.104  35.119  28.165  1.00  0.00     0.001 A 
ATOM     87  C   UNL A   1      46.059  34.565  30.313  1.00  0.00     0.001 A 
ATOM     88  C   UNL A   1      45.697  35.517  29.363  1.00  0.00     0.000 A 
ENDBRANCH  70  83
ENDBRANCH  44  45
ENDBRANCH  37  39
ENDBRANCH  36  37
ENDBRANCH  35  36
ENDBRANCH  34  35
ENDBRANCH  33  34
ENDBRANCH  32  33
ENDBRANCH  31  32
ENDBRANCH  30  31
ENDBRANCH   1  30
TORSDOF 24
ENDMDL
