MODEL 1
REMARK VINA RESULT:      -9.7      0.000      0.000
REMARK SMILES CC[C@@](C)([NH3+])C(=O)Nc1cc(C(=O)OCCOCCOCCOCCOC(=O)c2ccc(-c3c4nc(c(-c5ccccc5)c5ccc([nH]5)c(-c5ccccc5)c5nc(c(-c6ccccc6)c6ccc3[nH]6)C=C5)C=C4)cc2)cc(C(F)(F)F)c1
REMARK SMILES IDX 19 1 18 2 17 3 16 4 15 5 14 6 12 7 13 8 11 9 9 10 10 11
REMARK SMILES IDX 83 12 78 13 77 14 8 15 6 16 7 17 3 19 4 20 2 21 1 22 5 23
REMARK SMILES IDX 79 27 80 28 81 29 82 30 20 31 21 32 22 33 23 34 24 35 25 36
REMARK SMILES IDX 26 37 27 38 28 39 29 40 30 41 76 42 31 43 75 44 32 45 33 46
REMARK SMILES IDX 34 47 69 48 35 49 74 50 68 51 70 52 36 53 73 54 67 55 66 56
REMARK SMILES IDX 37 58 59 59 44 60 58 61 45 62 48 63 57 64 71 65 46 66 47 67
REMARK SMILES IDX 56 69 72 70 49 71 38 72 39 73 43 74 40 75 42 76 41 77 60 78
REMARK SMILES IDX 61 79 65 80 62 81 64 82 63 83 50 84 51 85 55 86 52 87 54 88
REMARK SMILES IDX 53 89
REMARK H PARENT 8 18 5 24 5 25 5 26 70 57 48 68
REMARK Flexibility Score: inf
ROOT
ATOM      1  C   UNL A   1      42.198  20.668  27.310  1.00  0.00     0.188 C 
ENDROOT
BRANCH   1   2
ATOM      2  C   UNL A   1      40.751  21.191  27.388  1.00  0.00     0.188 C 
BRANCH   2   3
ATOM      3  O   UNL A   1      40.317  21.764  26.166  1.00  0.00    -0.376 OA
BRANCH   3   4
ATOM      4  C   UNL A   1      38.948  21.700  25.807  1.00  0.00     0.202 C 
BRANCH   4   5
ATOM      5  C   UNL A   1      38.053  22.951  25.821  1.00  0.00     0.261 C 
BRANCH   5   6
ATOM      6  O   UNL A   1      36.642  22.736  25.855  1.00  0.00    -0.460 OA
BRANCH   6   7
ATOM      7  C   UNL A   1      35.912  23.082  24.775  1.00  0.00     0.338 C 
ATOM      8  O   UNL A   1      36.305  23.604  23.750  1.00  0.00    -0.246 OA
BRANCH   7   9
ATOM      9  C   UNL A   1      34.579  22.459  24.968  1.00  0.00     0.062 A 
ATOM     10  C   UNL A   1      32.254  22.739  25.522  1.00  0.00     0.042 A 
ATOM     11  C   UNL A   1      33.544  23.257  25.471  1.00  0.00     0.041 A 
ATOM     12  C   UNL A   1      31.982  21.483  24.980  1.00  0.00     0.039 A 
ATOM     13  C   UNL A   1      33.014  20.652  24.526  1.00  0.00     0.058 A 
ATOM     14  C   UNL A   1      34.323  21.154  24.520  1.00  0.00     0.029 A 
BRANCH  10  15
ATOM     15  N   UNL A   1      31.239  23.501  26.101  1.00  0.00    -0.321 N 
ATOM     16  C   UNL A   1      30.621  24.628  25.609  1.00  0.00     0.285 C 
ATOM     17  O   UNL A   1      29.942  25.279  26.413  1.00  0.00    -0.267 OA
ATOM     18  H   UNL A   1      30.924  23.191  26.981  1.00  0.00     0.170 HD
BRANCH  16  19
ATOM     19  C   UNL A   1      30.658  24.981  24.066  1.00  0.00     0.171 C 
ATOM     20  C   UNL A   1      29.762  26.192  23.746  1.00  0.00     0.090 C 
BRANCH  19  21
ATOM     21  C   UNL A   1      32.118  25.283  23.627  1.00  0.00     0.075 C 
ATOM     22  C   UNL A   1      32.347  26.650  22.989  1.00  0.00     0.011 C 
ENDBRANCH  19  21
BRANCH  19  23
ATOM     23  N   UNL A   1      30.233  23.810  23.258  1.00  0.00    -0.345 N 
ATOM     24  H   UNL A   1      30.700  23.836  22.351  1.00  0.00     0.345 HD
ATOM     25  H   UNL A   1      29.223  23.840  23.122  1.00  0.00     0.345 HD
ATOM     26  H   UNL A   1      30.485  22.951  23.747  1.00  0.00     0.345 HD
ENDBRANCH  19  23
ENDBRANCH  16  19
ENDBRANCH  10  15
BRANCH  13  27
ATOM     27  C   UNL A   1      32.717  19.252  24.049  1.00  0.00     0.416 C 
ATOM     28  F   UNL A   1      33.836  18.540  23.758  1.00  0.00    -0.166 F 
ATOM     29  F   UNL A   1      32.035  18.527  24.979  1.00  0.00    -0.166 F 
ATOM     30  F   UNL A   1      31.944  19.225  22.929  1.00  0.00    -0.166 F 
ENDBRANCH  13  27
ENDBRANCH   7   9
ENDBRANCH   6   7
ENDBRANCH   5   6
ENDBRANCH   4   5
ENDBRANCH   3   4
ENDBRANCH   2   3
ENDBRANCH   1   2
BRANCH   1  31
ATOM     31  O   UNL A   1      42.320  19.293  26.987  1.00  0.00    -0.377 OA
BRANCH  31  32
ATOM     32  C   UNL A   1      42.782  18.936  25.683  1.00  0.00     0.188 C 
BRANCH  32  33
ATOM     33  C   UNL A   1      44.280  18.956  25.277  1.00  0.00     0.188 C 
BRANCH  33  34
ATOM     34  O   UNL A   1      44.932  20.208  25.428  1.00  0.00    -0.376 OA
BRANCH  34  35
ATOM     35  C   UNL A   1      45.225  20.952  24.258  1.00  0.00     0.202 C 
BRANCH  35  36
ATOM     36  C   UNL A   1      44.375  22.210  24.042  1.00  0.00     0.261 C 
BRANCH  36  37
ATOM     37  O   UNL A   1      44.154  23.014  25.212  1.00  0.00    -0.460 OA
BRANCH  37  38
ATOM     38  C   UNL A   1      44.812  24.191  25.282  1.00  0.00     0.338 C 
ATOM     39  O   UNL A   1      45.783  24.538  24.633  1.00  0.00    -0.246 OA
BRANCH  38  40
ATOM     40  C   UNL A   1      44.033  25.079  26.167  1.00  0.00     0.060 A 
ATOM     41  C   UNL A   1      44.214  26.465  26.075  1.00  0.00     0.016 A 
ATOM     42  C   UNL A   1      43.116  24.539  27.071  1.00  0.00     0.016 A 
ATOM     43  C   UNL A   1      43.492  27.318  26.911  1.00  0.00     0.010 A 
ATOM     44  C   UNL A   1      42.411  25.392  27.921  1.00  0.00     0.010 A 
ATOM     45  C   UNL A   1      42.618  26.782  27.865  1.00  0.00    -0.014 A 
BRANCH  45  46
ATOM     46  C   UNL A   1      42.062  27.648  28.933  1.00  0.00     0.031 A 
ATOM     47  C   UNL A   1      42.816  27.749  30.230  1.00  0.00     0.074 A 
ATOM     48  C   UNL A   1      40.914  28.324  28.760  1.00  0.00     0.049 A 
ATOM     49  N   UNL A   1      42.495  28.380  31.330  1.00  0.00    -0.248 NA
ATOM     50  C   UNL A   1      44.104  27.039  30.296  1.00  0.00     0.031 C 
ATOM     51  C   UNL A   1      40.113  28.343  27.538  1.00  0.00     0.029 A 
ATOM     52  N   UNL A   1      40.216  29.120  29.635  1.00  0.00    -0.354 N 
ATOM     53  C   UNL A   1      43.531  28.129  32.221  1.00  0.00     0.074 A 
ATOM     54  C   UNL A   1      44.478  27.272  31.545  1.00  0.00     0.031 C 
ATOM     55  C   UNL A   1      39.022  29.101  27.746  1.00  0.00     0.029 A 
ATOM     56  C   UNL A   1      39.029  29.587  29.125  1.00  0.00     0.049 A 
ATOM     57  H   UNL A   1      40.535  29.336  30.541  1.00  0.00     0.167 HD
ATOM     58  C   UNL A   1      43.679  28.573  33.491  1.00  0.00     0.031 A 
ATOM     59  C   UNL A   1      38.049  30.299  29.715  1.00  0.00     0.031 A 
ATOM     60  C   UNL A   1      42.729  29.412  34.168  1.00  0.00     0.049 A 
ATOM     61  C   UNL A   1      38.200  30.714  31.157  1.00  0.00     0.074 A 
ATOM     62  C   UNL A   1      42.802  29.936  35.447  1.00  0.00     0.029 A 
ATOM     63  N   UNL A   1      41.527  29.840  33.627  1.00  0.00    -0.354 N 
ATOM     64  N   UNL A   1      39.202  30.505  31.979  1.00  0.00    -0.248 NA
ATOM     65  C   UNL A   1      37.087  31.469  31.750  1.00  0.00     0.031 C 
ATOM     66  C   UNL A   1      41.613  30.624  35.704  1.00  0.00     0.029 A 
ATOM     67  C   UNL A   1      40.832  30.590  34.559  1.00  0.00     0.049 A 
ATOM     68  H   UNL A   1      41.214  29.640  32.716  1.00  0.00     0.167 HD
ATOM     69  C   UNL A   1      38.852  31.127  33.171  1.00  0.00     0.074 A 
ATOM     70  C   UNL A   1      37.555  31.736  32.962  1.00  0.00     0.031 C 
ATOM     71  C   UNL A   1      39.542  31.192  34.336  1.00  0.00     0.031 A 
BRANCH  58  72
ATOM     72  C   UNL A   1      44.895  28.119  34.247  1.00  0.00    -0.014 A 
ATOM     73  C   UNL A   1      44.875  26.966  35.047  1.00  0.00     0.009 A 
ATOM     74  C   UNL A   1      46.094  28.837  34.124  1.00  0.00     0.009 A 
ATOM     75  C   UNL A   1      46.022  26.561  35.732  1.00  0.00     0.001 A 
ATOM     76  C   UNL A   1      47.248  28.414  34.785  1.00  0.00     0.001 A 
ATOM     77  C   UNL A   1      47.209  27.281  35.596  1.00  0.00     0.000 A 
ENDBRANCH  58  72
BRANCH  59  78
ATOM     78  C   UNL A   1      36.812  30.638  28.961  1.00  0.00    -0.014 A 
ATOM     79  C   UNL A   1      35.926  29.634  28.541  1.00  0.00     0.009 A 
ATOM     80  C   UNL A   1      36.529  31.972  28.623  1.00  0.00     0.009 A 
ATOM     81  C   UNL A   1      34.802  29.955  27.775  1.00  0.00     0.001 A 
ATOM     82  C   UNL A   1      35.388  32.293  27.887  1.00  0.00     0.001 A 
ATOM     83  C   UNL A   1      34.532  31.283  27.452  1.00  0.00     0.000 A 
ENDBRANCH  59  78
BRANCH  71  84
ATOM     84  C   UNL A   1      38.935  31.982  35.464  1.00  0.00    -0.014 A 
ATOM     85  C   UNL A   1      38.199  31.359  36.482  1.00  0.00     0.009 A 
ATOM     86  C   UNL A   1      39.153  33.367  35.534  1.00  0.00     0.009 A 
ATOM     87  C   UNL A   1      37.666  32.113  37.530  1.00  0.00     0.001 A 
ATOM     88  C   UNL A   1      38.648  34.113  36.600  1.00  0.00     0.001 A 
ATOM     89  C   UNL A   1      37.897  33.487  37.591  1.00  0.00     0.000 A 
ENDBRANCH  71  84
ENDBRANCH  45  46
ENDBRANCH  38  40
ENDBRANCH  37  38
ENDBRANCH  36  37
ENDBRANCH  35  36
ENDBRANCH  34  35
ENDBRANCH  33  34
ENDBRANCH  32  33
ENDBRANCH  31  32
ENDBRANCH   1  31
TORSDOF 25
ENDMDL
MODEL 2
REMARK VINA RESULT:      -9.2      1.757      2.910
REMARK SMILES CC[C@@](C)([NH3+])C(=O)Nc1cc(C(=O)OCCOCCOCCOCCOC(=O)c2ccc(-c3c4nc(c(-c5ccccc5)c5ccc([nH]5)c(-c5ccccc5)c5nc(c(-c6ccccc6)c6ccc3[nH]6)C=C5)C=C4)cc2)cc(C(F)(F)F)c1
REMARK SMILES IDX 19 1 18 2 17 3 16 4 15 5 14 6 12 7 13 8 11 9 9 10 10 11
REMARK SMILES IDX 83 12 78 13 77 14 8 15 6 16 7 17 3 19 4 20 2 21 1 22 5 23
REMARK SMILES IDX 79 27 80 28 81 29 82 30 20 31 21 32 22 33 23 34 24 35 25 36
REMARK SMILES IDX 26 37 27 38 28 39 29 40 30 41 76 42 31 43 75 44 32 45 33 46
REMARK SMILES IDX 34 47 69 48 35 49 74 50 68 51 70 52 36 53 73 54 67 55 66 56
REMARK SMILES IDX 37 58 59 59 44 60 58 61 45 62 48 63 57 64 71 65 46 66 47 67
REMARK SMILES IDX 56 69 72 70 49 71 38 72 39 73 43 74 40 75 42 76 41 77 60 78
REMARK SMILES IDX 61 79 65 80 62 81 64 82 63 83 50 84 51 85 55 86 52 87 54 88
REMARK SMILES IDX 53 89
REMARK H PARENT 8 18 5 24 5 25 5 26 70 57 48 68
REMARK Flexibility Score: inf
ROOT
ATOM      1  C   UNL A   1      41.835  21.399  27.741  1.00  0.00     0.188 C 
ENDROOT
BRANCH   1   2
ATOM      2  C   UNL A   1      40.440  22.039  27.607  1.00  0.00     0.188 C 
BRANCH   2   3
ATOM      3  O   UNL A   1      40.014  22.130  26.259  1.00  0.00    -0.376 OA
BRANCH   3   4
ATOM      4  C   UNL A   1      38.645  21.953  25.940  1.00  0.00     0.202 C 
BRANCH   4   5
ATOM      5  C   UNL A   1      37.742  23.145  25.578  1.00  0.00     0.261 C 
BRANCH   5   6
ATOM      6  O   UNL A   1      36.412  22.842  25.155  1.00  0.00    -0.460 OA
BRANCH   6   7
ATOM      7  C   UNL A   1      36.040  23.189  23.906  1.00  0.00     0.338 C 
ATOM      8  O   UNL A   1      36.756  23.357  22.938  1.00  0.00    -0.246 OA
BRANCH   7   9
ATOM      9  C   UNL A   1      34.562  23.066  23.872  1.00  0.00     0.062 A 
ATOM     10  C   UNL A   1      32.636  21.675  23.486  1.00  0.00     0.042 A 
ATOM     11  C   UNL A   1      34.009  21.873  23.391  1.00  0.00     0.041 A 
ATOM     12  C   UNL A   1      31.839  22.610  24.147  1.00  0.00     0.039 A 
ATOM     13  C   UNL A   1      32.367  23.833  24.582  1.00  0.00     0.058 A 
ATOM     14  C   UNL A   1      33.744  24.053  24.443  1.00  0.00     0.029 A 
BRANCH  10  15
ATOM     15  N   UNL A   1      32.075  20.525  22.931  1.00  0.00    -0.321 N 
ATOM     16  C   UNL A   1      32.323  19.209  23.246  1.00  0.00     0.285 C 
ATOM     17  O   UNL A   1      31.908  18.364  22.444  1.00  0.00    -0.267 OA
ATOM     18  H   UNL A   1      31.413  20.676  22.218  1.00  0.00     0.170 HD
BRANCH  16  19
ATOM     19  C   UNL A   1      32.969  18.800  24.632  1.00  0.00     0.171 C 
ATOM     20  C   UNL A   1      32.474  17.418  25.097  1.00  0.00     0.090 C 
BRANCH  19  21
ATOM     21  C   UNL A   1      34.519  18.783  24.509  1.00  0.00     0.075 C 
ATOM     22  C   UNL A   1      35.193  17.454  24.835  1.00  0.00     0.011 C 
ENDBRANCH  19  21
BRANCH  19  23
ATOM     23  N   UNL A   1      32.663  19.821  25.665  1.00  0.00    -0.345 N 
ATOM     24  H   UNL A   1      32.824  20.752  25.281  1.00  0.00     0.345 HD
ATOM     25  H   UNL A   1      33.267  19.677  26.474  1.00  0.00     0.345 HD
ATOM     26  H   UNL A   1      31.687  19.735  25.950  1.00  0.00     0.345 HD
ENDBRANCH  19  23
ENDBRANCH  16  19
ENDBRANCH  10  15
BRANCH  13  27
ATOM     27  C   UNL A   1      31.471  24.881  25.192  1.00  0.00     0.416 C 
ATOM     28  F   UNL A   1      31.275  24.705  26.524  1.00  0.00    -0.166 F 
ATOM     29  F   UNL A   1      31.975  26.138  25.042  1.00  0.00    -0.166 F 
ATOM     30  F   UNL A   1      30.232  24.918  24.625  1.00  0.00    -0.166 F 
ENDBRANCH  13  27
ENDBRANCH   7   9
ENDBRANCH   6   7
ENDBRANCH   5   6
ENDBRANCH   4   5
ENDBRANCH   3   4
ENDBRANCH   2   3
ENDBRANCH   1   2
BRANCH   1  31
ATOM     31  O   UNL A   1      41.984  20.149  27.089  1.00  0.00    -0.377 OA
BRANCH  31  32
ATOM     32  C   UNL A   1      42.598  20.119  25.799  1.00  0.00     0.188 C 
BRANCH  32  33
ATOM     33  C   UNL A   1      43.994  19.494  25.537  1.00  0.00     0.188 C 
BRANCH  33  34
ATOM     34  O   UNL A   1      45.022  20.419  25.214  1.00  0.00    -0.376 OA
BRANCH  34  35
ATOM     35  C   UNL A   1      45.011  21.002  23.922  1.00  0.00     0.202 C 
BRANCH  35  36
ATOM     36  C   UNL A   1      44.642  22.489  23.867  1.00  0.00     0.261 C 
BRANCH  36  37
ATOM     37  O   UNL A   1      44.597  23.160  25.136  1.00  0.00    -0.460 OA
BRANCH  37  38
ATOM     38  C   UNL A   1      45.196  24.367  25.215  1.00  0.00     0.338 C 
ATOM     39  O   UNL A   1      46.143  24.770  24.563  1.00  0.00    -0.246 OA
BRANCH  38  40
ATOM     40  C   UNL A   1      44.382  25.206  26.117  1.00  0.00     0.060 A 
ATOM     41  C   UNL A   1      44.485  26.600  26.032  1.00  0.00     0.016 A 
ATOM     42  C   UNL A   1      43.510  24.611  27.029  1.00  0.00     0.016 A 
ATOM     43  C   UNL A   1      43.728  27.406  26.884  1.00  0.00     0.010 A 
ATOM     44  C   UNL A   1      42.770  25.418  27.895  1.00  0.00     0.010 A 
ATOM     45  C   UNL A   1      42.899  26.818  27.846  1.00  0.00    -0.014 A 
BRANCH  45  46
ATOM     46  C   UNL A   1      42.312  27.645  28.927  1.00  0.00     0.031 A 
ATOM     47  C   UNL A   1      43.034  27.710  30.244  1.00  0.00     0.074 A 
ATOM     48  C   UNL A   1      41.162  28.318  28.749  1.00  0.00     0.049 A 
ATOM     49  N   UNL A   1      42.682  28.303  31.355  1.00  0.00    -0.248 NA
ATOM     50  C   UNL A   1      44.326  27.008  30.318  1.00  0.00     0.031 C 
ATOM     51  C   UNL A   1      40.390  28.369  27.510  1.00  0.00     0.029 A 
ATOM     52  N   UNL A   1      40.438  29.080  29.632  1.00  0.00    -0.354 N 
ATOM     53  C   UNL A   1      43.699  28.032  32.262  1.00  0.00     0.074 A 
ATOM     54  C   UNL A   1      44.669  27.204  31.582  1.00  0.00     0.031 C 
ATOM     55  C   UNL A   1      39.289  29.112  27.716  1.00  0.00     0.029 A 
ATOM     56  C   UNL A   1      39.259  29.554  29.110  1.00  0.00     0.049 A 
ATOM     57  H   UNL A   1      40.734  29.269  30.552  1.00  0.00     0.167 HD
ATOM     58  C   UNL A   1      43.814  28.436  33.549  1.00  0.00     0.031 A 
ATOM     59  C   UNL A   1      38.259  30.240  29.698  1.00  0.00     0.031 A 
ATOM     60  C   UNL A   1      42.842  29.246  34.230  1.00  0.00     0.049 A 
ATOM     61  C   UNL A   1      38.374  30.610  31.156  1.00  0.00     0.074 A 
ATOM     62  C   UNL A   1      42.881  29.730  35.526  1.00  0.00     0.029 A 
ATOM     63  N   UNL A   1      41.649  29.682  33.675  1.00  0.00    -0.354 N 
ATOM     64  N   UNL A   1      39.358  30.382  31.994  1.00  0.00    -0.248 NA
ATOM     65  C   UNL A   1      37.241  31.337  31.746  1.00  0.00     0.031 C 
ATOM     66  C   UNL A   1      41.680  30.401  35.777  1.00  0.00     0.029 A 
ATOM     67  C   UNL A   1      40.927  30.397  34.614  1.00  0.00     0.049 A 
ATOM     68  H   UNL A   1      41.359  29.509  32.750  1.00  0.00     0.167 HD
ATOM     69  C   UNL A   1      38.975  30.963  33.197  1.00  0.00     0.074 A 
ATOM     70  C   UNL A   1      37.679  31.568  32.976  1.00  0.00     0.031 C 
ATOM     71  C   UNL A   1      39.638  30.996  34.379  1.00  0.00     0.031 A 
BRANCH  58  72
ATOM     72  C   UNL A   1      45.016  27.967  34.319  1.00  0.00    -0.014 A 
ATOM     73  C   UNL A   1      45.023  26.736  34.993  1.00  0.00     0.009 A 
ATOM     74  C   UNL A   1      46.177  28.756  34.336  1.00  0.00     0.009 A 
ATOM     75  C   UNL A   1      46.156  26.320  35.694  1.00  0.00     0.001 A 
ATOM     76  C   UNL A   1      47.319  28.324  35.011  1.00  0.00     0.001 A 
ATOM     77  C   UNL A   1      47.305  27.111  35.697  1.00  0.00     0.000 A 
ENDBRANCH  58  72
BRANCH  59  78
ATOM     78  C   UNL A   1      37.037  30.593  28.927  1.00  0.00    -0.014 A 
ATOM     79  C   UNL A   1      36.804  31.913  28.513  1.00  0.00     0.009 A 
ATOM     80  C   UNL A   1      36.076  29.612  28.632  1.00  0.00     0.009 A 
ATOM     81  C   UNL A   1      35.621  32.249  27.848  1.00  0.00     0.001 A 
ATOM     82  C   UNL A   1      34.911  29.944  27.937  1.00  0.00     0.001 A 
ATOM     83  C   UNL A   1      34.678  31.264  27.557  1.00  0.00     0.000 A 
ENDBRANCH  59  78
BRANCH  71  84
ATOM     84  C   UNL A   1      38.998  31.745  35.517  1.00  0.00    -0.014 A 
ATOM     85  C   UNL A   1      39.090  33.141  35.620  1.00  0.00     0.009 A 
ATOM     86  C   UNL A   1      38.242  31.043  36.469  1.00  0.00     0.009 A 
ATOM     87  C   UNL A   1      38.467  33.814  36.673  1.00  0.00     0.001 A 
ATOM     88  C   UNL A   1      37.592  31.721  37.501  1.00  0.00     0.001 A 
ATOM     89  C   UNL A   1      37.713  33.104  37.608  1.00  0.00     0.000 A 
ENDBRANCH  71  84
ENDBRANCH  45  46
ENDBRANCH  38  40
ENDBRANCH  37  38
ENDBRANCH  36  37
ENDBRANCH  35  36
ENDBRANCH  34  35
ENDBRANCH  33  34
ENDBRANCH  32  33
ENDBRANCH  31  32
ENDBRANCH   1  31
TORSDOF 25
ENDMDL
MODEL 3
REMARK VINA RESULT:      -8.9      1.681      2.499
REMARK SMILES CC[C@@](C)([NH3+])C(=O)Nc1cc(C(=O)OCCOCCOCCOCCOC(=O)c2ccc(-c3c4nc(c(-c5ccccc5)c5ccc([nH]5)c(-c5ccccc5)c5nc(c(-c6ccccc6)c6ccc3[nH]6)C=C5)C=C4)cc2)cc(C(F)(F)F)c1
REMARK SMILES IDX 19 1 18 2 17 3 16 4 15 5 14 6 12 7 13 8 11 9 9 10 10 11
REMARK SMILES IDX 83 12 78 13 77 14 8 15 6 16 7 17 3 19 4 20 2 21 1 22 5 23
REMARK SMILES IDX 79 27 80 28 81 29 82 30 20 31 21 32 22 33 23 34 24 35 25 36
REMARK SMILES IDX 26 37 27 38 28 39 29 40 30 41 76 42 31 43 75 44 32 45 33 46
REMARK SMILES IDX 34 47 69 48 35 49 74 50 68 51 70 52 36 53 73 54 67 55 66 56
REMARK SMILES IDX 37 58 59 59 44 60 58 61 45 62 48 63 57 64 71 65 46 66 47 67
REMARK SMILES IDX 56 69 72 70 49 71 38 72 39 73 43 74 40 75 42 76 41 77 60 78
REMARK SMILES IDX 61 79 65 80 62 81 64 82 63 83 50 84 51 85 55 86 52 87 54 88
REMARK SMILES IDX 53 89
REMARK H PARENT 8 18 5 24 5 25 5 26 70 57 48 68
REMARK Flexibility Score: inf
ROOT
ATOM      1  C   UNL A   1      38.995  22.751  26.688  1.00  0.00     0.188 C 
ENDROOT
BRANCH   1   2
ATOM      2  C   UNL A   1      38.424  23.952  25.910  1.00  0.00     0.188 C 
BRANCH   2   3
ATOM      3  O   UNL A   1      37.122  23.702  25.408  1.00  0.00    -0.376 OA
BRANCH   3   4
ATOM      4  C   UNL A   1      36.961  23.193  24.096  1.00  0.00     0.202 C 
BRANCH   4   5
ATOM      5  C   UNL A   1      35.570  23.058  23.452  1.00  0.00     0.261 C 
BRANCH   5   6
ATOM      6  O   UNL A   1      34.774  21.945  23.861  1.00  0.00    -0.460 OA
BRANCH   6   7
ATOM      7  C   UNL A   1      34.307  21.919  25.126  1.00  0.00     0.338 C 
ATOM      8  O   UNL A   1      34.884  21.524  26.121  1.00  0.00    -0.246 OA
BRANCH   7   9
ATOM      9  C   UNL A   1      33.053  22.710  25.115  1.00  0.00     0.062 A 
ATOM     10  C   UNL A   1      31.589  24.204  23.923  1.00  0.00     0.042 A 
ATOM     11  C   UNL A   1      32.820  23.564  24.030  1.00  0.00     0.041 A 
ATOM     12  C   UNL A   1      30.568  23.912  24.828  1.00  0.00     0.039 A 
ATOM     13  C   UNL A   1      30.803  23.105  25.948  1.00  0.00     0.058 A 
ATOM     14  C   UNL A   1      32.059  22.498  26.084  1.00  0.00     0.029 A 
BRANCH  10  15
ATOM     15  N   UNL A   1      31.388  25.119  22.891  1.00  0.00    -0.321 N 
ATOM     16  C   UNL A   1      31.391  26.494  22.947  1.00  0.00     0.285 C 
ATOM     17  O   UNL A   1      30.928  27.086  21.965  1.00  0.00    -0.267 OA
ATOM     18  H   UNL A   1      31.220  24.729  22.003  1.00  0.00     0.170 HD
BRANCH  16  19
ATOM     19  C   UNL A   1      32.087  27.269  24.139  1.00  0.00     0.171 C 
ATOM     20  C   UNL A   1      31.922  28.793  23.992  1.00  0.00     0.090 C 
BRANCH  19  21
ATOM     21  C   UNL A   1      31.483  26.808  25.495  1.00  0.00     0.075 C 
ATOM     22  C   UNL A   1      31.731  27.738  26.679  1.00  0.00     0.011 C 
ENDBRANCH  19  21
BRANCH  19  23
ATOM     23  N   UNL A   1      33.529  26.922  24.208  1.00  0.00    -0.345 N 
ATOM     24  H   UNL A   1      34.041  27.683  24.656  1.00  0.00     0.345 HD
ATOM     25  H   UNL A   1      33.889  26.778  23.265  1.00  0.00     0.345 HD
ATOM     26  H   UNL A   1      33.647  26.067  24.751  1.00  0.00     0.345 HD
ENDBRANCH  19  23
ENDBRANCH  16  19
ENDBRANCH  10  15
BRANCH  13  27
ATOM     27  C   UNL A   1      29.723  22.891  26.979  1.00  0.00     0.416 C 
ATOM     28  F   UNL A   1      28.888  21.866  26.670  1.00  0.00    -0.166 F 
ATOM     29  F   UNL A   1      30.235  22.609  28.209  1.00  0.00    -0.166 F 
ATOM     30  F   UNL A   1      28.934  23.987  27.157  1.00  0.00    -0.166 F 
ENDBRANCH  13  27
ENDBRANCH   7   9
ENDBRANCH   6   7
ENDBRANCH   5   6
ENDBRANCH   4   5
ENDBRANCH   3   4
ENDBRANCH   2   3
ENDBRANCH   1   2
BRANCH   1  31
ATOM     31  O   UNL A   1      38.688  21.481  26.136  1.00  0.00    -0.377 OA
BRANCH  31  32
ATOM     32  C   UNL A   1      39.763  20.604  25.799  1.00  0.00     0.188 C 
BRANCH  32  33
ATOM     33  C   UNL A   1      41.187  20.732  26.404  1.00  0.00     0.188 C 
BRANCH  33  34
ATOM     34  O   UNL A   1      42.240  20.841  25.459  1.00  0.00    -0.376 OA
BRANCH  34  35
ATOM     35  C   UNL A   1      43.521  20.363  25.831  1.00  0.00     0.202 C 
BRANCH  35  36
ATOM     36  C   UNL A   1      44.701  21.275  25.470  1.00  0.00     0.261 C 
BRANCH  36  37
ATOM     37  O   UNL A   1      44.708  22.558  26.114  1.00  0.00    -0.460 OA
BRANCH  37  38
ATOM     38  C   UNL A   1      44.374  23.627  25.360  1.00  0.00     0.338 C 
ATOM     39  O   UNL A   1      44.473  23.742  24.150  1.00  0.00    -0.246 OA
BRANCH  38  40
ATOM     40  C   UNL A   1      43.683  24.589  26.240  1.00  0.00     0.060 A 
ATOM     41  C   UNL A   1      44.104  25.926  26.255  1.00  0.00     0.016 A 
ATOM     42  C   UNL A   1      42.613  24.171  27.033  1.00  0.00     0.016 A 
ATOM     43  C   UNL A   1      43.467  26.846  27.088  1.00  0.00     0.010 A 
ATOM     44  C   UNL A   1      41.991  25.088  27.882  1.00  0.00     0.010 A 
ATOM     45  C   UNL A   1      42.436  26.422  27.935  1.00  0.00    -0.014 A 
BRANCH  45  46
ATOM     46  C   UNL A   1      41.944  27.313  29.012  1.00  0.00     0.031 A 
ATOM     47  C   UNL A   1      42.676  27.312  30.326  1.00  0.00     0.074 A 
ATOM     48  C   UNL A   1      40.871  28.103  28.835  1.00  0.00     0.049 A 
ATOM     49  N   UNL A   1      42.395  27.946  31.434  1.00  0.00    -0.248 NA
ATOM     50  C   UNL A   1      43.888  26.478  30.399  1.00  0.00     0.031 C 
ATOM     51  C   UNL A   1      40.101  28.226  27.598  1.00  0.00     0.029 A 
ATOM     52  N   UNL A   1      40.235  28.943  29.715  1.00  0.00    -0.354 N 
ATOM     53  C   UNL A   1      43.383  27.576  32.338  1.00  0.00     0.074 A 
ATOM     54  C   UNL A   1      44.256  26.645  31.660  1.00  0.00     0.031 C 
ATOM     55  C   UNL A   1      39.086  29.083  27.804  1.00  0.00     0.029 A 
ATOM     56  C   UNL A   1      39.111  29.535  29.194  1.00  0.00     0.049 A 
ATOM     57  H   UNL A   1      40.555  29.107  30.632  1.00  0.00     0.167 HD
ATOM     58  C   UNL A   1      43.546  27.975  33.621  1.00  0.00     0.031 A 
ATOM     59  C   UNL A   1      38.192  30.326  29.783  1.00  0.00     0.031 A 
ATOM     60  C   UNL A   1      42.669  28.888  34.300  1.00  0.00     0.049 A 
ATOM     61  C   UNL A   1      38.353  30.692  31.236  1.00  0.00     0.074 A 
ATOM     62  C   UNL A   1      42.765  29.374  35.593  1.00  0.00     0.029 A 
ATOM     63  N   UNL A   1      41.526  29.443  33.748  1.00  0.00    -0.354 N 
ATOM     64  N   UNL A   1      39.311  30.368  32.072  1.00  0.00    -0.248 NA
ATOM     65  C   UNL A   1      37.306  31.539  31.827  1.00  0.00     0.031 C 
ATOM     66  C   UNL A   1      41.643  30.169  35.844  1.00  0.00     0.029 A 
ATOM     67  C   UNL A   1      40.887  30.237  34.684  1.00  0.00     0.049 A 
ATOM     68  H   UNL A   1      41.214  29.295  32.826  1.00  0.00     0.167 HD
ATOM     69  C   UNL A   1      38.998  30.995  33.272  1.00  0.00     0.074 A 
ATOM     70  C   UNL A   1      37.772  31.732  33.053  1.00  0.00     0.031 C 
ATOM     71  C   UNL A   1      39.667  30.966  34.451  1.00  0.00     0.031 A 
BRANCH  58  72
ATOM     72  C   UNL A   1      44.696  27.387  34.389  1.00  0.00    -0.014 A 
ATOM     73  C   UNL A   1      44.546  26.226  35.164  1.00  0.00     0.009 A 
ATOM     74  C   UNL A   1      45.963  27.986  34.303  1.00  0.00     0.009 A 
ATOM     75  C   UNL A   1      45.634  25.696  35.860  1.00  0.00     0.001 A 
ATOM     76  C   UNL A   1      47.055  27.437  34.975  1.00  0.00     0.001 A 
ATOM     77  C   UNL A   1      46.888  26.298  35.761  1.00  0.00     0.000 A 
ENDBRANCH  58  72
BRANCH  59  78
ATOM     78  C   UNL A   1      37.010  30.801  29.014  1.00  0.00    -0.014 A 
ATOM     79  C   UNL A   1      36.898  32.143  28.620  1.00  0.00     0.009 A 
ATOM     80  C   UNL A   1      35.965  29.916  28.701  1.00  0.00     0.009 A 
ATOM     81  C   UNL A   1      35.753  32.595  27.958  1.00  0.00     0.001 A 
ATOM     82  C   UNL A   1      34.837  30.363  28.010  1.00  0.00     0.001 A 
ATOM     83  C   UNL A   1      34.726  31.704  27.650  1.00  0.00     0.000 A 
ENDBRANCH  59  78
BRANCH  71  84
ATOM     84  C   UNL A   1      39.116  31.787  35.586  1.00  0.00    -0.014 A 
ATOM     85  C   UNL A   1      39.441  33.142  35.736  1.00  0.00     0.009 A 
ATOM     86  C   UNL A   1      38.210  31.202  36.485  1.00  0.00     0.009 A 
ATOM     87  C   UNL A   1      38.896  33.887  36.785  1.00  0.00     0.001 A 
ATOM     88  C   UNL A   1      37.641  31.956  37.513  1.00  0.00     0.001 A 
ATOM     89  C   UNL A   1      37.992  33.295  37.667  1.00  0.00     0.000 A 
ENDBRANCH  71  84
ENDBRANCH  45  46
ENDBRANCH  38  40
ENDBRANCH  37  38
ENDBRANCH  36  37
ENDBRANCH  35  36
ENDBRANCH  34  35
ENDBRANCH  33  34
ENDBRANCH  32  33
ENDBRANCH  31  32
ENDBRANCH   1  31
TORSDOF 25
ENDMDL
