MODEL 1
REMARK VINA RESULT:      -9.6      0.000      0.000
REMARK SMILES COc1cccc(-c2ccc(=O)n(CC(=O)N[C@@H](C(=O)OCCOCCOCCOCCOC(=O)c3ccc(-c4c5nc(c(-c6ccccc6)c6ccc([nH]6)c(-c6ccccc6)c6nc(c(-c7ccccc7)c7ccc4[nH]7)C=C6)C=C5)cc3)C(C)C)n2)c1
REMARK SMILES IDX 25 1 24 2 23 3 22 4 21 5 19 6 20 7 18 8 17 9 15 10 16 11
REMARK SMILES IDX 14 13 13 14 8 15 9 16 87 17 10 18 11 19 12 20 7 21 3 22 4 23
REMARK SMILES IDX 88 24 5 25 6 26 2 27 1 28 84 29 85 30 86 31 26 32 27 33
REMARK SMILES IDX 28 34 29 35 30 36 31 37 32 38 33 39 34 40 35 41 36 42 37 43
REMARK SMILES IDX 83 44 38 45 82 46 39 47 40 48 41 49 76 50 42 51 81 52 75 53
REMARK SMILES IDX 77 54 43 55 80 56 74 57 73 58 44 60 66 61 51 62 65 63 52 64
REMARK SMILES IDX 55 65 64 66 78 67 53 68 54 69 63 71 79 72 56 73 45 74 46 75
REMARK SMILES IDX 50 76 47 77 49 78 48 79 67 80 68 81 72 82 69 83 71 84 70 85
REMARK SMILES IDX 57 86 58 87 62 88 59 89 61 90 60 91
REMARK H PARENT 17 12 77 59 55 70
REMARK Flexibility Score: inf
ROOT
ATOM      1  C   UNL A   1      32.566  29.306  26.994  1.00  0.00     0.188 C 
ENDROOT
BRANCH   1   2
ATOM      2  O   UNL A   1      33.563  28.544  26.345  1.00  0.00    -0.376 OA
BRANCH   2   3
ATOM      3  C   UNL A   1      33.278  27.790  25.181  1.00  0.00     0.202 C 
BRANCH   3   4
ATOM      4  C   UNL A   1      33.893  26.426  24.805  1.00  0.00     0.261 C 
BRANCH   4   5
ATOM      5  O   UNL A   1      33.050  25.344  24.390  1.00  0.00    -0.462 OA
BRANCH   5   6
ATOM      6  C   UNL A   1      32.956  24.281  25.222  1.00  0.00     0.328 C 
ATOM      7  O   UNL A   1      32.289  24.306  26.252  1.00  0.00    -0.250 OA
BRANCH   6   8
ATOM      8  C   UNL A   1      33.698  23.012  24.708  1.00  0.00     0.194 C 
BRANCH   8   9
ATOM      9  N   UNL A   1      34.857  23.228  23.812  1.00  0.00    -0.341 N 
ATOM     10  C   UNL A   1      36.068  22.611  23.740  1.00  0.00     0.242 C 
ATOM     11  O   UNL A   1      36.678  22.715  22.671  1.00  0.00    -0.273 OA
ATOM     12  H   UNL A   1      34.729  23.946  23.151  1.00  0.00     0.164 HD
BRANCH  10  13
ATOM     13  C   UNL A   1      36.566  21.695  24.848  1.00  0.00     0.248 C 
BRANCH  13  14
ATOM     14  N   UNL A   1      37.731  22.278  25.492  1.00  0.00    -0.220 N 
ATOM     15  C   UNL A   1      39.919  22.014  26.096  1.00  0.00     0.091 A 
ATOM     16  C   UNL A   1      39.922  23.272  26.868  1.00  0.00     0.036 A 
ATOM     17  N   UNL A   1      38.900  21.556  25.439  1.00  0.00    -0.169 NA
ATOM     18  C   UNL A   1      38.797  23.989  26.842  1.00  0.00     0.075 A 
ATOM     19  C   UNL A   1      37.609  23.519  26.101  1.00  0.00     0.267 A 
ATOM     20  O   UNL A   1      36.601  24.219  26.086  1.00  0.00    -0.268 OA
BRANCH  15  21
ATOM     21  C   UNL A   1      41.174  21.231  26.089  1.00  0.00     0.006 A 
ATOM     22  C   UNL A   1      43.540  21.156  25.668  1.00  0.00     0.119 A 
ATOM     23  C   UNL A   1      43.532  19.771  25.836  1.00  0.00     0.046 A 
ATOM     24  C   UNL A   1      42.354  21.884  25.740  1.00  0.00     0.056 A 
ATOM     25  C   UNL A   1      42.350  19.118  26.170  1.00  0.00     0.005 A 
ATOM     26  C   UNL A   1      41.178  19.855  26.331  1.00  0.00     0.011 A 
BRANCH  22  27
ATOM     27  O   UNL A   1      44.745  21.739  25.394  1.00  0.00    -0.497 OA
ATOM     28  C   UNL A   1      45.235  22.491  26.505  1.00  0.00     0.278 C 
ENDBRANCH  22  27
ENDBRANCH  15  21
ENDBRANCH  13  14
ENDBRANCH  10  13
ENDBRANCH   8   9
BRANCH   8  29
ATOM     29  C   UNL A   1      32.703  22.057  23.974  1.00  0.00     0.017 C 
ATOM     30  C   UNL A   1      32.040  21.096  24.969  1.00  0.00     0.010 C 
ATOM     31  C   UNL A   1      31.610  22.787  23.187  1.00  0.00     0.010 C 
ENDBRANCH   8  29
ENDBRANCH   6   8
ENDBRANCH   5   6
ENDBRANCH   4   5
ENDBRANCH   3   4
ENDBRANCH   2   3
ENDBRANCH   1   2
BRANCH   1  32
ATOM     32  C   UNL A   1      32.732  30.828  27.080  1.00  0.00     0.188 C 
BRANCH  32  33
ATOM     33  O   UNL A   1      33.775  31.250  27.935  1.00  0.00    -0.377 OA
BRANCH  33  34
ATOM     34  C   UNL A   1      33.978  32.643  28.090  1.00  0.00     0.188 C 
BRANCH  34  35
ATOM     35  C   UNL A   1      35.122  33.136  29.000  1.00  0.00     0.188 C 
BRANCH  35  36
ATOM     36  O   UNL A   1      34.978  34.477  29.447  1.00  0.00    -0.376 OA
BRANCH  36  37
ATOM     37  C   UNL A   1      34.060  35.332  28.781  1.00  0.00     0.202 C 
BRANCH  37  38
ATOM     38  C   UNL A   1      32.884  35.905  29.588  1.00  0.00     0.261 C 
BRANCH  38  39
ATOM     39  O   UNL A   1      32.521  35.218  30.794  1.00  0.00    -0.460 OA
BRANCH  39  40
ATOM     40  C   UNL A   1      32.777  35.804  31.981  1.00  0.00     0.338 C 
ATOM     41  O   UNL A   1      32.129  36.673  32.535  1.00  0.00    -0.246 OA
BRANCH  40  42
ATOM     42  C   UNL A   1      33.894  35.061  32.602  1.00  0.00     0.060 A 
ATOM     43  C   UNL A   1      35.143  35.684  32.753  1.00  0.00     0.016 A 
ATOM     44  C   UNL A   1      33.698  33.753  33.051  1.00  0.00     0.016 A 
ATOM     45  C   UNL A   1      36.212  34.984  33.315  1.00  0.00     0.010 A 
ATOM     46  C   UNL A   1      34.773  33.045  33.586  1.00  0.00     0.010 A 
ATOM     47  C   UNL A   1      36.044  33.643  33.683  1.00  0.00    -0.014 A 
BRANCH  47  48
ATOM     48  C   UNL A   1      37.217  32.768  33.916  1.00  0.00     0.031 A 
ATOM     49  C   UNL A   1      37.987  32.974  35.192  1.00  0.00     0.074 A 
ATOM     50  C   UNL A   1      37.618  31.850  33.019  1.00  0.00     0.049 A 
ATOM     51  N   UNL A   1      39.148  32.492  35.552  1.00  0.00    -0.248 NA
ATOM     52  C   UNL A   1      37.364  33.857  36.195  1.00  0.00     0.031 C 
ATOM     53  C   UNL A   1      36.924  31.505  31.783  1.00  0.00     0.029 A 
ATOM     54  N   UNL A   1      38.739  31.056  33.013  1.00  0.00    -0.354 N 
ATOM     55  C   UNL A   1      39.399  33.025  36.809  1.00  0.00     0.074 A 
ATOM     56  C   UNL A   1      38.286  33.885  37.143  1.00  0.00     0.031 C 
ATOM     57  C   UNL A   1      37.647  30.582  31.121  1.00  0.00     0.029 A 
ATOM     58  C   UNL A   1      38.880  30.315  31.864  1.00  0.00     0.049 A 
ATOM     59  H   UNL A   1      39.380  31.021  33.759  1.00  0.00     0.167 HD
ATOM     60  C   UNL A   1      40.462  32.816  37.620  1.00  0.00     0.031 A 
ATOM     61  C   UNL A   1      39.907  29.549  31.447  1.00  0.00     0.031 A 
ATOM     62  C   UNL A   1      41.580  31.981  37.276  1.00  0.00     0.049 A 
ATOM     63  C   UNL A   1      41.138  29.429  32.315  1.00  0.00     0.074 A 
ATOM     64  C   UNL A   1      42.721  31.723  38.013  1.00  0.00     0.029 A 
ATOM     65  N   UNL A   1      41.692  31.270  36.093  1.00  0.00    -0.354 N 
ATOM     66  N   UNL A   1      41.373  29.941  33.499  1.00  0.00    -0.248 NA
ATOM     67  C   UNL A   1      42.250  28.624  31.783  1.00  0.00     0.031 C 
ATOM     68  C   UNL A   1      43.548  30.891  37.254  1.00  0.00     0.029 A 
ATOM     69  C   UNL A   1      42.888  30.578  36.076  1.00  0.00     0.049 A 
ATOM     70  H   UNL A   1      41.021  31.259  35.373  1.00  0.00     0.167 HD
ATOM     71  C   UNL A   1      42.630  29.476  33.873  1.00  0.00     0.074 A 
ATOM     72  C   UNL A   1      43.108  28.641  32.793  1.00  0.00     0.031 C 
ATOM     73  C   UNL A   1      43.326  29.715  35.011  1.00  0.00     0.031 A 
BRANCH  60  74
ATOM     74  C   UNL A   1      40.477  33.523  38.944  1.00  0.00    -0.014 A 
ATOM     75  C   UNL A   1      40.882  34.863  39.044  1.00  0.00     0.009 A 
ATOM     76  C   UNL A   1      40.039  32.856  40.098  1.00  0.00     0.009 A 
ATOM     77  C   UNL A   1      40.872  35.514  40.280  1.00  0.00     0.001 A 
ATOM     78  C   UNL A   1      40.000  33.518  41.326  1.00  0.00     0.001 A 
ATOM     79  C   UNL A   1      40.423  34.843  41.417  1.00  0.00     0.000 A 
ENDBRANCH  60  74
BRANCH  61  80
ATOM     80  C   UNL A   1      39.859  28.855  30.129  1.00  0.00    -0.014 A 
ATOM     81  C   UNL A   1      39.378  27.540  30.032  1.00  0.00     0.009 A 
ATOM     82  C   UNL A   1      40.364  29.474  28.975  1.00  0.00     0.009 A 
ATOM     83  C   UNL A   1      39.447  26.844  28.822  1.00  0.00     0.001 A 
ATOM     84  C   UNL A   1      40.400  28.789  27.757  1.00  0.00     0.001 A 
ATOM     85  C   UNL A   1      39.957  27.470  27.686  1.00  0.00     0.000 A 
ENDBRANCH  61  80
BRANCH  73  86
ATOM     86  C   UNL A   1      44.630  28.992  35.205  1.00  0.00    -0.014 A 
ATOM     87  C   UNL A   1      44.765  27.942  36.123  1.00  0.00     0.009 A 
ATOM     88  C   UNL A   1      45.722  29.323  34.383  1.00  0.00     0.009 A 
ATOM     89  C   UNL A   1      45.975  27.252  36.231  1.00  0.00     0.001 A 
ATOM     90  C   UNL A   1      46.918  28.613  34.471  1.00  0.00     0.001 A 
ATOM     91  C   UNL A   1      47.046  27.583  35.400  1.00  0.00     0.000 A 
ENDBRANCH  73  86
ENDBRANCH  47  48
ENDBRANCH  40  42
ENDBRANCH  39  40
ENDBRANCH  38  39
ENDBRANCH  37  38
ENDBRANCH  36  37
ENDBRANCH  35  36
ENDBRANCH  34  35
ENDBRANCH  33  34
ENDBRANCH  32  33
ENDBRANCH   1  32
TORSDOF 26
ENDMDL
MODEL 2
REMARK VINA RESULT:      -9.4      4.074      8.757
REMARK SMILES COc1cccc(-c2ccc(=O)n(CC(=O)N[C@@H](C(=O)OCCOCCOCCOCCOC(=O)c3ccc(-c4c5nc(c(-c6ccccc6)c6ccc([nH]6)c(-c6ccccc6)c6nc(c(-c7ccccc7)c7ccc4[nH]7)C=C6)C=C5)cc3)C(C)C)n2)c1
REMARK SMILES IDX 25 1 24 2 23 3 22 4 21 5 19 6 20 7 18 8 17 9 15 10 16 11
REMARK SMILES IDX 14 13 13 14 8 15 9 16 87 17 10 18 11 19 12 20 7 21 3 22 4 23
REMARK SMILES IDX 88 24 5 25 6 26 2 27 1 28 84 29 85 30 86 31 26 32 27 33
REMARK SMILES IDX 28 34 29 35 30 36 31 37 32 38 33 39 34 40 35 41 36 42 37 43
REMARK SMILES IDX 83 44 38 45 82 46 39 47 40 48 41 49 76 50 42 51 81 52 75 53
REMARK SMILES IDX 77 54 43 55 80 56 74 57 73 58 44 60 66 61 51 62 65 63 52 64
REMARK SMILES IDX 55 65 64 66 78 67 53 68 54 69 63 71 79 72 56 73 45 74 46 75
REMARK SMILES IDX 50 76 47 77 49 78 48 79 67 80 68 81 72 82 69 83 71 84 70 85
REMARK SMILES IDX 57 86 58 87 62 88 59 89 61 90 60 91
REMARK H PARENT 17 12 77 59 55 70
REMARK Flexibility Score: inf
ROOT
ATOM      1  C   UNL A   1      34.498  30.910  27.333  1.00  0.00     0.188 C 
ENDROOT
BRANCH   1   2
ATOM      2  O   UNL A   1      33.154  30.550  27.084  1.00  0.00    -0.376 OA
BRANCH   2   3
ATOM      3  C   UNL A   1      32.774  29.201  26.886  1.00  0.00     0.202 C 
BRANCH   3   4
ATOM      4  C   UNL A   1      31.493  28.707  26.182  1.00  0.00     0.261 C 
BRANCH   4   5
ATOM      5  O   UNL A   1      31.446  27.395  25.606  1.00  0.00    -0.462 OA
BRANCH   5   6
ATOM      6  C   UNL A   1      30.629  27.218  24.542  1.00  0.00     0.328 C 
ATOM      7  O   UNL A   1      30.085  28.154  23.965  1.00  0.00    -0.250 OA
BRANCH   6   8
ATOM      8  C   UNL A   1      30.517  25.736  24.075  1.00  0.00     0.194 C 
BRANCH   8   9
ATOM      9  N   UNL A   1      30.142  24.735  25.099  1.00  0.00    -0.341 N 
ATOM     10  C   UNL A   1      30.768  24.332  26.238  1.00  0.00     0.242 C 
ATOM     11  O   UNL A   1      30.063  23.785  27.093  1.00  0.00    -0.273 OA
ATOM     12  H   UNL A   1      29.287  24.279  24.925  1.00  0.00     0.164 HD
BRANCH  10  13
ATOM     13  C   UNL A   1      32.218  24.693  26.524  1.00  0.00     0.248 C 
BRANCH  13  14
ATOM     14  N   UNL A   1      33.106  23.846  25.747  1.00  0.00    -0.220 N 
ATOM     15  C   UNL A   1      33.457  21.797  24.798  1.00  0.00     0.091 A 
ATOM     16  C   UNL A   1      34.844  22.138  24.426  1.00  0.00     0.036 A 
ATOM     17  N   UNL A   1      32.638  22.600  25.401  1.00  0.00    -0.169 NA
ATOM     18  C   UNL A   1      35.248  23.378  24.707  1.00  0.00     0.075 A 
ATOM     19  C   UNL A   1      34.353  24.337  25.385  1.00  0.00     0.267 A 
ATOM     20  O   UNL A   1      34.757  25.475  25.606  1.00  0.00    -0.268 OA
BRANCH  15  21
ATOM     21  C   UNL A   1      32.989  20.436  24.457  1.00  0.00     0.006 A 
ATOM     22  C   UNL A   1      32.707  18.140  25.113  1.00  0.00     0.119 A 
ATOM     23  C   UNL A   1      32.338  17.807  23.811  1.00  0.00     0.046 A 
ATOM     24  C   UNL A   1      33.087  19.443  25.429  1.00  0.00     0.056 A 
ATOM     25  C   UNL A   1      32.255  18.796  22.836  1.00  0.00     0.005 A 
ATOM     26  C   UNL A   1      32.548  20.117  23.170  1.00  0.00     0.011 A 
BRANCH  22  27
ATOM     27  O   UNL A   1      32.716  17.129  26.033  1.00  0.00    -0.497 OA
ATOM     28  C   UNL A   1      33.379  15.966  25.534  1.00  0.00     0.278 C 
ENDBRANCH  22  27
ENDBRANCH  15  21
ENDBRANCH  13  14
ENDBRANCH  10  13
ENDBRANCH   8   9
BRANCH   8  29
ATOM     29  C   UNL A   1      31.856  25.266  23.422  1.00  0.00     0.017 C 
ATOM     30  C   UNL A   1      31.616  24.069  22.493  1.00  0.00     0.010 C 
ATOM     31  C   UNL A   1      32.582  26.364  22.637  1.00  0.00     0.010 C 
ENDBRANCH   8  29
ENDBRANCH   6   8
ENDBRANCH   5   6
ENDBRANCH   4   5
ENDBRANCH   3   4
ENDBRANCH   2   3
ENDBRANCH   1   2
BRANCH   1  32
ATOM     32  C   UNL A   1      34.893  31.372  28.741  1.00  0.00     0.188 C 
BRANCH  32  33
ATOM     33  O   UNL A   1      35.735  32.506  28.765  1.00  0.00    -0.377 OA
BRANCH  33  34
ATOM     34  C   UNL A   1      35.173  33.753  28.397  1.00  0.00     0.188 C 
BRANCH  34  35
ATOM     35  C   UNL A   1      34.035  34.343  29.254  1.00  0.00     0.188 C 
BRANCH  35  36
ATOM     36  O   UNL A   1      34.449  34.824  30.526  1.00  0.00    -0.376 OA
BRANCH  36  37
ATOM     37  C   UNL A   1      34.362  33.963  31.651  1.00  0.00     0.202 C 
BRANCH  37  38
ATOM     38  C   UNL A   1      35.651  33.648  32.428  1.00  0.00     0.261 C 
BRANCH  38  39
ATOM     39  O   UNL A   1      35.768  32.336  32.994  1.00  0.00    -0.460 OA
BRANCH  39  40
ATOM     40  C   UNL A   1      36.882  32.022  33.687  1.00  0.00     0.338 C 
ATOM     41  O   UNL A   1      37.053  32.096  34.891  1.00  0.00    -0.246 OA
BRANCH  40  42
ATOM     42  C   UNL A   1      37.816  31.374  32.742  1.00  0.00     0.060 A 
ATOM     43  C   UNL A   1      39.005  30.804  33.223  1.00  0.00     0.016 A 
ATOM     44  C   UNL A   1      37.504  31.316  31.382  1.00  0.00     0.016 A 
ATOM     45  C   UNL A   1      39.907  30.211  32.336  1.00  0.00     0.010 A 
ATOM     46  C   UNL A   1      38.417  30.750  30.494  1.00  0.00     0.010 A 
ATOM     47  C   UNL A   1      39.639  30.232  30.961  1.00  0.00    -0.014 A 
BRANCH  47  48
ATOM     48  C   UNL A   1      40.716  29.970  29.977  1.00  0.00     0.031 A 
ATOM     49  C   UNL A   1      40.708  28.633  29.287  1.00  0.00     0.074 A 
ATOM     50  C   UNL A   1      41.691  30.860  29.726  1.00  0.00     0.049 A 
ATOM     51  N   UNL A   1      41.625  28.075  28.540  1.00  0.00    -0.248 NA
ATOM     52  C   UNL A   1      39.500  27.809  29.475  1.00  0.00     0.031 C 
ATOM     53  C   UNL A   1      41.775  32.211  30.272  1.00  0.00     0.029 A 
ATOM     54  N   UNL A   1      42.820  30.735  28.953  1.00  0.00    -0.354 N 
ATOM     55  C   UNL A   1      41.113  26.833  28.188  1.00  0.00     0.074 A 
ATOM     56  C   UNL A   1      39.818  26.706  28.818  1.00  0.00     0.031 C 
ATOM     57  C   UNL A   1      42.912  32.787  29.836  1.00  0.00     0.029 A 
ATOM     58  C   UNL A   1      43.658  31.823  29.026  1.00  0.00     0.049 A 
ATOM     59  H   UNL A   1      43.012  29.942  28.402  1.00  0.00     0.167 HD
ATOM     60  C   UNL A   1      41.670  25.881  27.405  1.00  0.00     0.031 A 
ATOM     61  C   UNL A   1      44.899  31.995  28.531  1.00  0.00     0.031 A 
ATOM     62  C   UNL A   1      42.968  25.998  26.801  1.00  0.00     0.049 A 
ATOM     63  C   UNL A   1      45.551  30.868  27.764  1.00  0.00     0.074 A 
ATOM     64  C   UNL A   1      43.637  25.080  26.012  1.00  0.00     0.029 A 
ATOM     65  N   UNL A   1      43.791  27.105  26.921  1.00  0.00    -0.354 N 
ATOM     66  N   UNL A   1      45.066  29.693  27.440  1.00  0.00    -0.248 NA
ATOM     67  C   UNL A   1      46.929  31.093  27.295  1.00  0.00     0.031 C 
ATOM     68  C   UNL A   1      44.888  25.613  25.694  1.00  0.00     0.029 A 
ATOM     69  C   UNL A   1      44.966  26.890  26.226  1.00  0.00     0.049 A 
ATOM     70  H   UNL A   1      43.571  27.922  27.424  1.00  0.00     0.167 HD
ATOM     71  C   UNL A   1      46.054  29.067  26.687  1.00  0.00     0.074 A 
ATOM     72  C   UNL A   1      47.165  29.990  26.600  1.00  0.00     0.031 C 
ATOM     73  C   UNL A   1      46.042  27.839  26.114  1.00  0.00     0.031 A 
BRANCH  60  74
ATOM     74  C   UNL A   1      40.887  24.619  27.182  1.00  0.00    -0.014 A 
ATOM     75  C   UNL A   1      41.286  23.407  27.768  1.00  0.00     0.009 A 
ATOM     76  C   UNL A   1      39.714  24.650  26.413  1.00  0.00     0.009 A 
ATOM     77  C   UNL A   1      40.537  22.246  27.568  1.00  0.00     0.001 A 
ATOM     78  C   UNL A   1      38.950  23.495  26.241  1.00  0.00     0.001 A 
ATOM     79  C   UNL A   1      39.366  22.293  26.813  1.00  0.00     0.000 A 
ENDBRANCH  60  74
BRANCH  61  80
ATOM     80  C   UNL A   1      45.648  33.262  28.765  1.00  0.00    -0.014 A 
ATOM     81  C   UNL A   1      46.423  33.429  29.923  1.00  0.00     0.009 A 
ATOM     82  C   UNL A   1      45.532  34.338  27.871  1.00  0.00     0.009 A 
ATOM     83  C   UNL A   1      47.025  34.659  30.206  1.00  0.00     0.001 A 
ATOM     84  C   UNL A   1      46.164  35.556  28.137  1.00  0.00     0.001 A 
ATOM     85  C   UNL A   1      46.896  35.720  29.312  1.00  0.00     0.000 A 
ENDBRANCH  61  80
BRANCH  73  86
ATOM     86  C   UNL A   1      47.215  27.450  25.256  1.00  0.00    -0.014 A 
ATOM     87  C   UNL A   1      48.273  26.679  25.756  1.00  0.00     0.009 A 
ATOM     88  C   UNL A   1      47.208  27.798  23.894  1.00  0.00     0.009 A 
ATOM     89  C   UNL A   1      49.315  26.284  24.913  1.00  0.00     0.001 A 
ATOM     90  C   UNL A   1      48.233  27.375  23.048  1.00  0.00     0.001 A 
ATOM     91  C   UNL A   1      49.289  26.624  23.560  1.00  0.00     0.000 A 
ENDBRANCH  73  86
ENDBRANCH  47  48
ENDBRANCH  40  42
ENDBRANCH  39  40
ENDBRANCH  38  39
ENDBRANCH  37  38
ENDBRANCH  36  37
ENDBRANCH  35  36
ENDBRANCH  34  35
ENDBRANCH  33  34
ENDBRANCH  32  33
ENDBRANCH   1  32
TORSDOF 26
ENDMDL
MODEL 3
REMARK VINA RESULT:      -8.9      4.620     11.924
REMARK SMILES COc1cccc(-c2ccc(=O)n(CC(=O)N[C@@H](C(=O)OCCOCCOCCOCCOC(=O)c3ccc(-c4c5nc(c(-c6ccccc6)c6ccc([nH]6)c(-c6ccccc6)c6nc(c(-c7ccccc7)c7ccc4[nH]7)C=C6)C=C5)cc3)C(C)C)n2)c1
REMARK SMILES IDX 25 1 24 2 23 3 22 4 21 5 19 6 20 7 18 8 17 9 15 10 16 11
REMARK SMILES IDX 14 13 13 14 8 15 9 16 87 17 10 18 11 19 12 20 7 21 3 22 4 23
REMARK SMILES IDX 88 24 5 25 6 26 2 27 1 28 84 29 85 30 86 31 26 32 27 33
REMARK SMILES IDX 28 34 29 35 30 36 31 37 32 38 33 39 34 40 35 41 36 42 37 43
REMARK SMILES IDX 83 44 38 45 82 46 39 47 40 48 41 49 76 50 42 51 81 52 75 53
REMARK SMILES IDX 77 54 43 55 80 56 74 57 73 58 44 60 66 61 51 62 65 63 52 64
REMARK SMILES IDX 55 65 64 66 78 67 53 68 54 69 63 71 79 72 56 73 45 74 46 75
REMARK SMILES IDX 50 76 47 77 49 78 48 79 67 80 68 81 72 82 69 83 71 84 70 85
REMARK SMILES IDX 57 86 58 87 62 88 59 89 61 90 60 91
REMARK H PARENT 17 12 77 59 55 70
REMARK Flexibility Score: inf
ROOT
ATOM      1  C   UNL A   1      39.745  24.958  27.551  1.00  0.00     0.188 C 
ENDROOT
BRANCH   1   2
ATOM      2  O   UNL A   1      39.798  25.768  28.707  1.00  0.00    -0.376 OA
BRANCH   2   3
ATOM      3  C   UNL A   1      40.588  26.942  28.752  1.00  0.00     0.202 C 
BRANCH   3   4
ATOM      4  C   UNL A   1      41.103  27.647  30.024  1.00  0.00     0.261 C 
BRANCH   4   5
ATOM      5  O   UNL A   1      41.798  28.897  29.925  1.00  0.00    -0.462 OA
BRANCH   5   6
ATOM      6  C   UNL A   1      41.933  29.619  31.062  1.00  0.00     0.328 C 
ATOM      7  O   UNL A   1      42.604  30.645  31.115  1.00  0.00    -0.250 OA
BRANCH   6   8
ATOM      8  C   UNL A   1      41.095  29.075  32.256  1.00  0.00     0.194 C 
BRANCH   8   9
ATOM      9  N   UNL A   1      40.043  29.963  32.800  1.00  0.00    -0.341 N 
ATOM     10  C   UNL A   1      38.907  30.462  32.241  1.00  0.00     0.242 C 
ATOM     11  O   UNL A   1      38.028  30.843  33.022  1.00  0.00    -0.273 OA
ATOM     12  H   UNL A   1      40.192  30.244  33.732  1.00  0.00     0.164 HD
BRANCH  10  13
ATOM     13  C   UNL A   1      38.655  30.391  30.743  1.00  0.00     0.248 C 
BRANCH  13  14
ATOM     14  N   UNL A   1      38.690  31.724  30.166  1.00  0.00    -0.220 N 
ATOM     15  C   UNL A   1      39.866  33.663  29.890  1.00  0.00     0.091 A 
ATOM     16  C   UNL A   1      38.725  34.337  29.241  1.00  0.00     0.036 A 
ATOM     17  N   UNL A   1      39.857  32.437  30.308  1.00  0.00    -0.169 NA
ATOM     18  C   UNL A   1      37.629  33.599  29.049  1.00  0.00     0.075 A 
ATOM     19  C   UNL A   1      37.567  32.194  29.497  1.00  0.00     0.267 A 
ATOM     20  O   UNL A   1      36.548  31.544  29.282  1.00  0.00    -0.268 OA
BRANCH  15  21
ATOM     21  C   UNL A   1      41.097  34.463  30.073  1.00  0.00     0.006 A 
ATOM     22  C   UNL A   1      42.663  36.051  29.174  1.00  0.00     0.119 A 
ATOM     23  C   UNL A   1      43.518  35.827  30.253  1.00  0.00     0.046 A 
ATOM     24  C   UNL A   1      41.476  35.331  29.052  1.00  0.00     0.056 A 
ATOM     25  C   UNL A   1      43.146  34.948  31.265  1.00  0.00     0.005 A 
ATOM     26  C   UNL A   1      41.919  34.293  31.191  1.00  0.00     0.011 A 
BRANCH  22  27
ATOM     27  O   UNL A   1      43.067  36.966  28.243  1.00  0.00    -0.497 OA
ATOM     28  C   UNL A   1      42.153  38.060  28.145  1.00  0.00     0.278 C 
ENDBRANCH  22  27
ENDBRANCH  15  21
ENDBRANCH  13  14
ENDBRANCH  10  13
ENDBRANCH   8   9
BRANCH   8  29
ATOM     29  C   UNL A   1      42.031  28.669  33.440  1.00  0.00     0.017 C 
ATOM     30  C   UNL A   1      42.200  29.836  34.422  1.00  0.00     0.010 C 
ATOM     31  C   UNL A   1      41.552  27.436  34.214  1.00  0.00     0.010 C 
ENDBRANCH   8  29
ENDBRANCH   6   8
ENDBRANCH   5   6
ENDBRANCH   4   5
ENDBRANCH   3   4
ENDBRANCH   2   3
ENDBRANCH   1   2
BRANCH   1  32
ATOM     32  C   UNL A   1      40.100  23.470  27.670  1.00  0.00     0.188 C 
BRANCH  32  33
ATOM     33  O   UNL A   1      40.243  22.807  26.431  1.00  0.00    -0.377 OA
BRANCH  33  34
ATOM     34  C   UNL A   1      39.568  21.573  26.261  1.00  0.00     0.188 C 
BRANCH  34  35
ATOM     35  C   UNL A   1      40.374  20.262  26.341  1.00  0.00     0.188 C 
BRANCH  35  36
ATOM     36  O   UNL A   1      41.708  20.421  26.805  1.00  0.00    -0.376 OA
BRANCH  36  37
ATOM     37  C   UNL A   1      42.759  19.752  26.124  1.00  0.00     0.202 C 
BRANCH  37  38
ATOM     38  C   UNL A   1      43.765  20.599  25.328  1.00  0.00     0.261 C 
BRANCH  38  39
ATOM     39  O   UNL A   1      43.262  21.779  24.687  1.00  0.00    -0.460 OA
BRANCH  39  40
ATOM     40  C   UNL A   1      44.137  22.652  24.148  1.00  0.00     0.338 C 
ATOM     41  O   UNL A   1      44.622  22.623  23.031  1.00  0.00    -0.246 OA
BRANCH  40  42
ATOM     42  C   UNL A   1      44.262  23.783  25.092  1.00  0.00     0.060 A 
ATOM     43  C   UNL A   1      45.535  24.185  25.527  1.00  0.00     0.016 A 
ATOM     44  C   UNL A   1      43.120  24.455  25.532  1.00  0.00     0.016 A 
ATOM     45  C   UNL A   1      45.664  25.236  26.438  1.00  0.00     0.010 A 
ATOM     46  C   UNL A   1      43.248  25.485  26.462  1.00  0.00     0.010 A 
ATOM     47  C   UNL A   1      44.515  25.853  26.950  1.00  0.00    -0.014 A 
BRANCH  47  48
ATOM     48  C   UNL A   1      44.584  26.684  28.175  1.00  0.00     0.031 A 
ATOM     49  C   UNL A   1      44.772  28.166  27.991  1.00  0.00     0.074 A 
ATOM     50  C   UNL A   1      44.524  26.153  29.408  1.00  0.00     0.049 A 
ATOM     51  N   UNL A   1      45.058  29.086  28.876  1.00  0.00    -0.248 NA
ATOM     52  C   UNL A   1      44.628  28.676  26.615  1.00  0.00     0.031 C 
ATOM     53  C   UNL A   1      44.276  24.750  29.722  1.00  0.00     0.029 A 
ATOM     54  N   UNL A   1      44.699  26.750  30.633  1.00  0.00    -0.354 N 
ATOM     55  C   UNL A   1      45.144  30.274  28.162  1.00  0.00     0.074 A 
ATOM     56  C   UNL A   1      44.906  29.960  26.771  1.00  0.00     0.031 C 
ATOM     57  C   UNL A   1      44.336  24.585  31.057  1.00  0.00     0.029 A 
ATOM     58  C   UNL A   1      44.682  25.862  31.683  1.00  0.00     0.049 A 
ATOM     59  H   UNL A   1      44.824  27.720  30.749  1.00  0.00     0.167 HD
ATOM     60  C   UNL A   1      45.397  31.521  28.623  1.00  0.00     0.031 A 
ATOM     61  C   UNL A   1      44.958  26.057  32.987  1.00  0.00     0.031 A 
ATOM     62  C   UNL A   1      45.659  31.827  30.002  1.00  0.00     0.049 A 
ATOM     63  C   UNL A   1      45.360  27.436  33.459  1.00  0.00     0.074 A 
ATOM     64  C   UNL A   1      45.953  33.052  30.572  1.00  0.00     0.029 A 
ATOM     65  N   UNL A   1      45.656  30.895  31.026  1.00  0.00    -0.354 N 
ATOM     66  N   UNL A   1      45.448  28.554  32.779  1.00  0.00    -0.248 NA
ATOM     67  C   UNL A   1      45.704  27.576  34.883  1.00  0.00     0.031 C 
ATOM     68  C   UNL A   1      46.177  32.854  31.936  1.00  0.00     0.029 A 
ATOM     69  C   UNL A   1      45.952  31.517  32.225  1.00  0.00     0.049 A 
ATOM     70  H   UNL A   1      45.471  29.934  30.917  1.00  0.00     0.167 HD
ATOM     71  C   UNL A   1      45.801  29.534  33.701  1.00  0.00     0.074 A 
ATOM     72  C   UNL A   1      45.911  28.881  34.987  1.00  0.00     0.031 C 
ATOM     73  C   UNL A   1      46.012  30.857  33.502  1.00  0.00     0.031 A 
BRANCH  60  74
ATOM     74  C   UNL A   1      45.429  32.639  27.623  1.00  0.00    -0.014 A 
ATOM     75  C   UNL A   1      44.253  33.308  27.246  1.00  0.00     0.009 A 
ATOM     76  C   UNL A   1      46.654  33.060  27.083  1.00  0.00     0.009 A 
ATOM     77  C   UNL A   1      44.301  34.360  26.329  1.00  0.00     0.001 A 
ATOM     78  C   UNL A   1      46.703  34.132  26.191  1.00  0.00     0.001 A 
ATOM     79  C   UNL A   1      45.526  34.776  25.810  1.00  0.00     0.000 A 
ENDBRANCH  60  74
BRANCH  61  80
ATOM     80  C   UNL A   1      44.912  24.927  33.957  1.00  0.00    -0.014 A 
ATOM     81  C   UNL A   1      43.701  24.550  34.557  1.00  0.00     0.009 A 
ATOM     82  C   UNL A   1      46.090  24.268  34.346  1.00  0.00     0.009 A 
ATOM     83  C   UNL A   1      43.674  23.574  35.558  1.00  0.00     0.001 A 
ATOM     84  C   UNL A   1      46.057  23.268  35.321  1.00  0.00     0.001 A 
ATOM     85  C   UNL A   1      44.852  22.934  35.937  1.00  0.00     0.000 A 
ENDBRANCH  61  80
BRANCH  73  86
ATOM     86  C   UNL A   1      46.282  31.717  34.707  1.00  0.00    -0.014 A 
ATOM     87  C   UNL A   1      47.586  32.010  35.129  1.00  0.00     0.009 A 
ATOM     88  C   UNL A   1      45.199  32.312  35.377  1.00  0.00     0.009 A 
ATOM     89  C   UNL A   1      47.799  32.863  36.215  1.00  0.00     0.001 A 
ATOM     90  C   UNL A   1      45.416  33.188  36.439  1.00  0.00     0.001 A 
ATOM     91  C   UNL A   1      46.715  33.457  36.862  1.00  0.00     0.000 A 
ENDBRANCH  73  86
ENDBRANCH  47  48
ENDBRANCH  40  42
ENDBRANCH  39  40
ENDBRANCH  38  39
ENDBRANCH  37  38
ENDBRANCH  36  37
ENDBRANCH  35  36
ENDBRANCH  34  35
ENDBRANCH  33  34
ENDBRANCH  32  33
ENDBRANCH   1  32
TORSDOF 26
ENDMDL
