MODEL 1
REMARK VINA RESULT:      -8.2      0.000      0.000
REMARK SMILES Cc1cc(NC(=O)CC(C)(C)CC(=O)OCCOCCOCCOCCOC(=O)c2ccc(-c3c4nc(c(-c5ccccc5)c5ccc([nH]5)c(-c5ccccc5)c5nc(c(-c6ccccc6)c6ccc3[nH]6)C=C5)C=C4)cc2)ncc1Br
REMARK SMILES IDX 20 1 19 2 18 3 17 4 16 5 15 6 13 7 14 8 12 9 9 10 10 11
REMARK SMILES IDX 11 12 8 13 6 14 5 15 7 17 4 18 1 19 2 20 3 21 80 22 79 23
REMARK SMILES IDX 81 24 78 25 21 26 22 27 23 28 24 29 25 30 26 31 27 32 28 33
REMARK SMILES IDX 29 34 30 35 31 36 77 37 32 38 76 39 33 40 34 41 35 42 70 43
REMARK SMILES IDX 36 44 75 45 69 46 71 47 37 48 74 49 68 50 67 51 38 53 60 54
REMARK SMILES IDX 45 55 59 56 46 57 49 58 58 59 72 60 47 61 48 62 57 64 73 65
REMARK SMILES IDX 50 66 39 67 40 68 44 69 41 70 43 71 42 72 61 73 62 74 66 75
REMARK SMILES IDX 63 76 65 77 64 78 51 79 52 80 56 81 53 82 55 83 54 84
REMARK H PARENT 5 16 71 52 49 63
REMARK Flexibility Score: inf
ROOT
ATOM      1  C   UNL A   1      35.021  29.852  27.934  1.00  0.00     0.188 C 
ENDROOT
BRANCH   1   2
ATOM      2  C   UNL A   1      34.040  29.176  26.971  1.00  0.00     0.188 C 
BRANCH   2   3
ATOM      3  O   UNL A   1      33.003  28.403  27.567  1.00  0.00    -0.376 OA
BRANCH   3   4
ATOM      4  C   UNL A   1      32.292  27.493  26.724  1.00  0.00     0.202 C 
BRANCH   4   5
ATOM      5  C   UNL A   1      33.069  26.794  25.591  1.00  0.00     0.261 C 
BRANCH   5   6
ATOM      6  O   UNL A   1      33.835  25.652  26.049  1.00  0.00    -0.463 OA
BRANCH   6   7
ATOM      7  C   UNL A   1      34.184  24.733  25.121  1.00  0.00     0.306 C 
ATOM      8  O   UNL A   1      34.660  25.022  24.026  1.00  0.00    -0.252 OA
BRANCH   7   9
ATOM      9  C   UNL A   1      34.133  23.281  25.594  1.00  0.00     0.129 C 
BRANCH   9  10
ATOM     10  C   UNL A   1      32.826  22.469  25.860  1.00  0.00    -0.016 C 
ATOM     11  C   UNL A   1      32.334  22.853  27.276  1.00  0.00     0.012 C 
ATOM     12  C   UNL A   1      33.047  20.944  25.880  1.00  0.00     0.012 C 
BRANCH  10  13
ATOM     13  C   UNL A   1      31.696  22.762  24.816  1.00  0.00     0.107 C 
BRANCH  13  14
ATOM     14  C   UNL A   1      32.053  22.679  23.332  1.00  0.00     0.226 C 
ATOM     15  N   UNL A   1      31.967  23.731  22.479  1.00  0.00    -0.311 N 
ATOM     16  H   UNL A   1      32.315  23.560  21.574  1.00  0.00     0.171 HD
ATOM     17  O   UNL A   1      32.493  21.626  22.851  1.00  0.00    -0.275 OA
BRANCH  15  18
ATOM     18  C   UNL A   1      31.465  25.012  22.678  1.00  0.00     0.132 A 
ATOM     19  C   UNL A   1      28.294  26.453  24.151  1.00  0.00     0.046 C 
ATOM     20  C   UNL A   1      29.617  26.370  23.448  1.00  0.00    -0.032 A 
ATOM     21  C   UNL A   1      30.264  25.125  23.372  1.00  0.00     0.051 A 
ATOM     22  C   UNL A   1      30.258  27.476  22.885  1.00  0.00     0.039 A 
ATOM     23  C   UNL A   1      31.490  27.281  22.281  1.00  0.00     0.129 A 
ATOM     24  Br  UNL A   1      29.519  29.215  22.877  1.00  0.00    -0.049 Br
ATOM     25  N   UNL A   1      32.096  26.078  22.167  1.00  0.00    -0.238 NA
ENDBRANCH  15  18
ENDBRANCH  13  14
ENDBRANCH  10  13
ENDBRANCH   9  10
ENDBRANCH   7   9
ENDBRANCH   6   7
ENDBRANCH   5   6
ENDBRANCH   4   5
ENDBRANCH   3   4
ENDBRANCH   2   3
ENDBRANCH   1   2
BRANCH   1  26
ATOM     26  O   UNL A   1      34.533  31.080  28.446  1.00  0.00    -0.377 OA
BRANCH  26  27
ATOM     27  C   UNL A   1      34.191  32.146  27.572  1.00  0.00     0.188 C 
BRANCH  27  28
ATOM     28  C   UNL A   1      33.681  33.448  28.193  1.00  0.00     0.188 C 
BRANCH  28  29
ATOM     29  O   UNL A   1      34.470  34.042  29.226  1.00  0.00    -0.376 OA
BRANCH  29  30
ATOM     30  C   UNL A   1      35.888  33.907  29.178  1.00  0.00     0.202 C 
BRANCH  30  31
ATOM     31  C   UNL A   1      36.552  33.517  30.501  1.00  0.00     0.261 C 
BRANCH  31  32
ATOM     32  O   UNL A   1      35.935  32.370  31.108  1.00  0.00    -0.460 OA
BRANCH  32  33
ATOM     33  C   UNL A   1      35.106  32.626  32.146  1.00  0.00     0.338 C 
ATOM     34  O   UNL A   1      33.886  32.604  32.150  1.00  0.00    -0.246 OA
BRANCH  33  35
ATOM     35  C   UNL A   1      35.919  32.796  33.364  1.00  0.00     0.060 A 
ATOM     36  C   UNL A   1      36.920  31.877  33.680  1.00  0.00     0.016 A 
ATOM     37  C   UNL A   1      35.700  33.919  34.173  1.00  0.00     0.016 A 
ATOM     38  C   UNL A   1      37.727  32.101  34.794  1.00  0.00     0.010 A 
ATOM     39  C   UNL A   1      36.506  34.141  35.290  1.00  0.00     0.010 A 
ATOM     40  C   UNL A   1      37.542  33.246  35.589  1.00  0.00    -0.014 A 
BRANCH  40  41
ATOM     41  C   UNL A   1      38.554  33.592  36.613  1.00  0.00     0.031 A 
ATOM     42  C   UNL A   1      38.436  33.131  38.029  1.00  0.00     0.074 A 
ATOM     43  C   UNL A   1      39.604  34.341  36.223  1.00  0.00     0.049 A 
ATOM     44  N   UNL A   1      39.308  33.247  38.998  1.00  0.00    -0.248 NA
ATOM     45  C   UNL A   1      37.188  32.457  38.414  1.00  0.00     0.031 C 
ATOM     46  C   UNL A   1      39.794  34.869  34.870  1.00  0.00     0.029 A 
ATOM     47  N   UNL A   1      40.712  34.768  36.909  1.00  0.00    -0.354 N 
ATOM     48  C   UNL A   1      38.728  32.641  40.103  1.00  0.00     0.074 A 
ATOM     49  C   UNL A   1      37.408  32.204  39.699  1.00  0.00     0.031 C 
ATOM     50  C   UNL A   1      40.970  35.510  34.813  1.00  0.00     0.029 A 
ATOM     51  C   UNL A   1      41.600  35.470  36.130  1.00  0.00     0.049 A 
ATOM     52  H   UNL A   1      40.856  34.591  37.867  1.00  0.00     0.167 HD
ATOM     53  C   UNL A   1      39.263  32.457  41.333  1.00  0.00     0.031 A 
ATOM     54  C   UNL A   1      42.795  36.010  36.432  1.00  0.00     0.031 A 
ATOM     55  C   UNL A   1      40.570  32.928  41.724  1.00  0.00     0.049 A 
ATOM     56  C   UNL A   1      43.346  35.829  37.818  1.00  0.00     0.074 A 
ATOM     57  C   UNL A   1      41.215  32.753  42.936  1.00  0.00     0.029 A 
ATOM     58  N   UNL A   1      41.419  33.678  40.925  1.00  0.00    -0.354 N 
ATOM     59  N   UNL A   1      42.829  35.171  38.827  1.00  0.00    -0.248 NA
ATOM     60  C   UNL A   1      44.649  36.444  38.102  1.00  0.00     0.031 C 
ATOM     61  C   UNL A   1      42.415  33.464  42.899  1.00  0.00     0.029 A 
ATOM     62  C   UNL A   1      42.564  34.008  41.633  1.00  0.00     0.049 A 
ATOM     63  H   UNL A   1      41.237  33.938  39.992  1.00  0.00     0.167 HD
ATOM     64  C   UNL A   1      43.750  35.274  39.860  1.00  0.00     0.074 A 
ATOM     65  C   UNL A   1      44.868  36.039  39.347  1.00  0.00     0.031 C 
ATOM     66  C   UNL A   1      43.671  34.778  41.119  1.00  0.00     0.031 A 
BRANCH  53  67
ATOM     67  C   UNL A   1      38.454  31.711  42.362  1.00  0.00    -0.014 A 
ATOM     68  C   UNL A   1      37.689  32.420  43.302  1.00  0.00     0.009 A 
ATOM     69  C   UNL A   1      38.550  30.316  42.482  1.00  0.00     0.009 A 
ATOM     70  C   UNL A   1      37.056  31.752  44.352  1.00  0.00     0.001 A 
ATOM     71  C   UNL A   1      37.891  29.647  43.516  1.00  0.00     0.001 A 
ATOM     72  C   UNL A   1      37.155  30.366  44.456  1.00  0.00     0.000 A 
ENDBRANCH  53  67
BRANCH  54  73
ATOM     73  C   UNL A   1      43.554  36.726  35.373  1.00  0.00    -0.014 A 
ATOM     74  C   UNL A   1      43.279  38.073  35.082  1.00  0.00     0.009 A 
ATOM     75  C   UNL A   1      44.501  36.048  34.591  1.00  0.00     0.009 A 
ATOM     76  C   UNL A   1      43.907  38.714  34.013  1.00  0.00     0.001 A 
ATOM     77  C   UNL A   1      45.155  36.703  33.544  1.00  0.00     0.001 A 
ATOM     78  C   UNL A   1      44.848  38.030  33.247  1.00  0.00     0.000 A 
ENDBRANCH  54  73
BRANCH  66  79
ATOM     79  C   UNL A   1      44.824  35.034  42.054  1.00  0.00    -0.014 A 
ATOM     80  C   UNL A   1      45.859  34.090  42.159  1.00  0.00     0.009 A 
ATOM     81  C   UNL A   1      44.829  36.143  42.914  1.00  0.00     0.009 A 
ATOM     82  C   UNL A   1      46.859  34.236  43.123  1.00  0.00     0.001 A 
ATOM     83  C   UNL A   1      45.852  36.306  43.851  1.00  0.00     0.001 A 
ATOM     84  C   UNL A   1      46.857  35.346  43.965  1.00  0.00     0.000 A 
ENDBRANCH  66  79
ENDBRANCH  40  41
ENDBRANCH  33  35
ENDBRANCH  32  33
ENDBRANCH  31  32
ENDBRANCH  30  31
ENDBRANCH  29  30
ENDBRANCH  28  29
ENDBRANCH  27  28
ENDBRANCH  26  27
ENDBRANCH   1  26
TORSDOF 24
ENDMDL
MODEL 2
REMARK VINA RESULT:      -8.1      5.925      7.519
REMARK SMILES Cc1cc(NC(=O)CC(C)(C)CC(=O)OCCOCCOCCOCCOC(=O)c2ccc(-c3c4nc(c(-c5ccccc5)c5ccc([nH]5)c(-c5ccccc5)c5nc(c(-c6ccccc6)c6ccc3[nH]6)C=C5)C=C4)cc2)ncc1Br
REMARK SMILES IDX 20 1 19 2 18 3 17 4 16 5 15 6 13 7 14 8 12 9 9 10 10 11
REMARK SMILES IDX 11 12 8 13 6 14 5 15 7 17 4 18 1 19 2 20 3 21 80 22 79 23
REMARK SMILES IDX 81 24 78 25 21 26 22 27 23 28 24 29 25 30 26 31 27 32 28 33
REMARK SMILES IDX 29 34 30 35 31 36 77 37 32 38 76 39 33 40 34 41 35 42 70 43
REMARK SMILES IDX 36 44 75 45 69 46 71 47 37 48 74 49 68 50 67 51 38 53 60 54
REMARK SMILES IDX 45 55 59 56 46 57 49 58 58 59 72 60 47 61 48 62 57 64 73 65
REMARK SMILES IDX 50 66 39 67 40 68 44 69 41 70 43 71 42 72 61 73 62 74 66 75
REMARK SMILES IDX 63 76 65 77 64 78 51 79 52 80 56 81 53 82 55 83 54 84
REMARK H PARENT 5 16 71 52 49 63
REMARK Flexibility Score: inf
ROOT
ATOM      1  C   UNL A   1      35.612  30.376  28.448  1.00  0.00     0.188 C 
ENDROOT
BRANCH   1   2
ATOM      2  C   UNL A   1      35.061  29.917  27.095  1.00  0.00     0.188 C 
BRANCH   2   3
ATOM      3  O   UNL A   1      34.072  28.893  27.131  1.00  0.00    -0.376 OA
BRANCH   3   4
ATOM      4  C   UNL A   1      33.277  28.701  25.957  1.00  0.00     0.202 C 
BRANCH   4   5
ATOM      5  C   UNL A   1      34.003  28.393  24.632  1.00  0.00     0.261 C 
BRANCH   5   6
ATOM      6  O   UNL A   1      33.927  26.995  24.256  1.00  0.00    -0.463 OA
BRANCH   6   7
ATOM      7  C   UNL A   1      32.842  26.606  23.550  1.00  0.00     0.306 C 
ATOM      8  O   UNL A   1      32.416  27.214  22.570  1.00  0.00    -0.252 OA
BRANCH   7   9
ATOM      9  C   UNL A   1      32.279  25.238  23.928  1.00  0.00     0.129 C 
BRANCH   9  10
ATOM     10  C   UNL A   1      31.210  24.982  25.037  1.00  0.00    -0.016 C 
ATOM     11  C   UNL A   1      29.925  25.731  24.610  1.00  0.00     0.012 C 
ATOM     12  C   UNL A   1      31.605  25.556  26.411  1.00  0.00     0.012 C 
BRANCH  10  13
ATOM     13  C   UNL A   1      30.887  23.463  25.243  1.00  0.00     0.107 C 
BRANCH  13  14
ATOM     14  C   UNL A   1      30.869  22.923  26.672  1.00  0.00     0.226 C 
ATOM     15  N   UNL A   1      31.950  22.372  27.281  1.00  0.00    -0.311 N 
ATOM     16  H   UNL A   1      31.822  22.150  28.231  1.00  0.00     0.171 HD
ATOM     17  O   UNL A   1      29.846  23.013  27.364  1.00  0.00    -0.275 OA
BRANCH  15  18
ATOM     18  C   UNL A   1      33.210  22.072  26.777  1.00  0.00     0.132 A 
ATOM     19  C   UNL A   1      36.357  24.045  26.065  1.00  0.00     0.046 C 
ATOM     20  C   UNL A   1      35.381  22.906  26.110  1.00  0.00    -0.032 A 
ATOM     21  C   UNL A   1      34.154  23.094  26.769  1.00  0.00     0.051 A 
ATOM     22  C   UNL A   1      35.639  21.651  25.553  1.00  0.00     0.039 A 
ATOM     23  C   UNL A   1      34.670  20.669  25.678  1.00  0.00     0.129 A 
ATOM     24  Br  UNL A   1      37.225  21.235  24.614  1.00  0.00    -0.049 Br
ATOM     25  N   UNL A   1      33.470  20.858  26.271  1.00  0.00    -0.238 NA
ENDBRANCH  15  18
ENDBRANCH  13  14
ENDBRANCH  10  13
ENDBRANCH   9  10
ENDBRANCH   7   9
ENDBRANCH   6   7
ENDBRANCH   5   6
ENDBRANCH   4   5
ENDBRANCH   3   4
ENDBRANCH   2   3
ENDBRANCH   1   2
BRANCH   1  26
ATOM     26  O   UNL A   1      35.039  31.596  28.889  1.00  0.00    -0.377 OA
BRANCH  26  27
ATOM     27  C   UNL A   1      34.909  32.699  28.005  1.00  0.00     0.188 C 
BRANCH  27  28
ATOM     28  C   UNL A   1      33.500  33.181  27.660  1.00  0.00     0.188 C 
BRANCH  28  29
ATOM     29  O   UNL A   1      32.766  33.867  28.677  1.00  0.00    -0.376 OA
BRANCH  29  30
ATOM     30  C   UNL A   1      33.295  35.076  29.214  1.00  0.00     0.202 C 
BRANCH  30  31
ATOM     31  C   UNL A   1      33.834  34.975  30.643  1.00  0.00     0.261 C 
BRANCH  31  32
ATOM     32  O   UNL A   1      33.911  33.617  31.106  1.00  0.00    -0.460 OA
BRANCH  32  33
ATOM     33  C   UNL A   1      34.253  33.454  32.404  1.00  0.00     0.338 C 
ATOM     34  O   UNL A   1      33.536  33.563  33.386  1.00  0.00    -0.246 OA
BRANCH  33  35
ATOM     35  C   UNL A   1      35.641  32.958  32.465  1.00  0.00     0.060 A 
ATOM     36  C   UNL A   1      36.072  31.958  31.593  1.00  0.00     0.016 A 
ATOM     37  C   UNL A   1      36.529  33.539  33.379  1.00  0.00     0.016 A 
ATOM     38  C   UNL A   1      37.408  31.561  31.616  1.00  0.00     0.010 A 
ATOM     39  C   UNL A   1      37.865  33.139  33.404  1.00  0.00     0.010 A 
ATOM     40  C   UNL A   1      38.317  32.166  32.502  1.00  0.00    -0.014 A 
BRANCH  40  41
ATOM     41  C   UNL A   1      39.766  31.910  32.345  1.00  0.00     0.031 A 
ATOM     42  C   UNL A   1      40.456  30.800  33.071  1.00  0.00     0.074 A 
ATOM     43  C   UNL A   1      40.455  32.713  31.512  1.00  0.00     0.049 A 
ATOM     44  N   UNL A   1      41.687  30.379  32.931  1.00  0.00    -0.248 NA
ATOM     45  C   UNL A   1      39.676  30.071  34.081  1.00  0.00     0.031 C 
ATOM     46  C   UNL A   1      39.879  33.845  30.781  1.00  0.00     0.029 A 
ATOM     47  N   UNL A   1      41.769  32.694  31.120  1.00  0.00    -0.354 N 
ATOM     48  C   UNL A   1      41.826  29.320  33.817  1.00  0.00     0.074 A 
ATOM     49  C   UNL A   1      40.569  29.196  34.526  1.00  0.00     0.031 C 
ATOM     50  C   UNL A   1      40.823  34.383  29.996  1.00  0.00     0.029 A 
ATOM     51  C   UNL A   1      42.077  33.660  30.193  1.00  0.00     0.049 A 
ATOM     52  H   UNL A   1      42.428  32.052  31.470  1.00  0.00     0.167 HD
ATOM     53  C   UNL A   1      42.903  28.520  34.002  1.00  0.00     0.031 A 
ATOM     54  C   UNL A   1      43.232  33.929  29.557  1.00  0.00     0.031 A 
ATOM     55  C   UNL A   1      44.157  28.680  33.306  1.00  0.00     0.049 A 
ATOM     56  C   UNL A   1      44.425  33.052  29.813  1.00  0.00     0.074 A 
ATOM     57  C   UNL A   1      45.292  27.892  33.395  1.00  0.00     0.029 A 
ATOM     58  N   UNL A   1      44.448  29.699  32.412  1.00  0.00    -0.354 N 
ATOM     59  N   UNL A   1      44.515  31.994  30.582  1.00  0.00    -0.248 NA
ATOM     60  C   UNL A   1      45.665  33.390  29.103  1.00  0.00     0.031 C 
ATOM     61  C   UNL A   1      46.293  28.480  32.621  1.00  0.00     0.029 A 
ATOM     62  C   UNL A   1      45.759  29.583  31.975  1.00  0.00     0.049 A 
ATOM     63  H   UNL A   1      43.818  30.401  32.128  1.00  0.00     0.167 HD
ATOM     64  C   UNL A   1      45.814  31.527  30.434  1.00  0.00     0.074 A 
ATOM     65  C   UNL A   1      46.468  32.404  29.485  1.00  0.00     0.031 C 
ATOM     66  C   UNL A   1      46.406  30.466  31.035  1.00  0.00     0.031 A 
BRANCH  53  67
ATOM     67  C   UNL A   1      42.793  27.387  34.988  1.00  0.00    -0.014 A 
ATOM     68  C   UNL A   1      42.413  26.108  34.548  1.00  0.00     0.009 A 
ATOM     69  C   UNL A   1      42.937  27.613  36.366  1.00  0.00     0.009 A 
ATOM     70  C   UNL A   1      42.159  25.088  35.467  1.00  0.00     0.001 A 
ATOM     71  C   UNL A   1      42.713  26.582  37.281  1.00  0.00     0.001 A 
ATOM     72  C   UNL A   1      42.312  25.324  36.831  1.00  0.00     0.000 A 
ENDBRANCH  53  67
BRANCH  54  73
ATOM     73  C   UNL A   1      43.278  35.053  28.585  1.00  0.00    -0.014 A 
ATOM     74  C   UNL A   1      43.603  36.353  29.010  1.00  0.00     0.009 A 
ATOM     75  C   UNL A   1      42.921  34.852  27.243  1.00  0.00     0.009 A 
ATOM     76  C   UNL A   1      43.535  37.430  28.124  1.00  0.00     0.001 A 
ATOM     77  C   UNL A   1      42.889  35.927  26.350  1.00  0.00     0.001 A 
ATOM     78  C   UNL A   1      43.182  37.215  26.794  1.00  0.00     0.000 A 
ENDBRANCH  54  73
BRANCH  66  79
ATOM     79  C   UNL A   1      47.844  30.172  30.693  1.00  0.00    -0.014 A 
ATOM     80  C   UNL A   1      48.874  30.802  31.411  1.00  0.00     0.009 A 
ATOM     81  C   UNL A   1      48.179  29.371  29.591  1.00  0.00     0.009 A 
ATOM     82  C   UNL A   1      50.206  30.660  31.017  1.00  0.00     0.001 A 
ATOM     83  C   UNL A   1      49.516  29.199  29.223  1.00  0.00     0.001 A 
ATOM     84  C   UNL A   1      50.525  29.854  29.926  1.00  0.00     0.000 A 
ENDBRANCH  66  79
ENDBRANCH  40  41
ENDBRANCH  33  35
ENDBRANCH  32  33
ENDBRANCH  31  32
ENDBRANCH  30  31
ENDBRANCH  29  30
ENDBRANCH  28  29
ENDBRANCH  27  28
ENDBRANCH  26  27
ENDBRANCH   1  26
TORSDOF 24
ENDMDL
MODEL 3
REMARK VINA RESULT:      -7.9      6.886     10.506
REMARK SMILES Cc1cc(NC(=O)CC(C)(C)CC(=O)OCCOCCOCCOCCOC(=O)c2ccc(-c3c4nc(c(-c5ccccc5)c5ccc([nH]5)c(-c5ccccc5)c5nc(c(-c6ccccc6)c6ccc3[nH]6)C=C5)C=C4)cc2)ncc1Br
REMARK SMILES IDX 20 1 19 2 18 3 17 4 16 5 15 6 13 7 14 8 12 9 9 10 10 11
REMARK SMILES IDX 11 12 8 13 6 14 5 15 7 17 4 18 1 19 2 20 3 21 80 22 79 23
REMARK SMILES IDX 81 24 78 25 21 26 22 27 23 28 24 29 25 30 26 31 27 32 28 33
REMARK SMILES IDX 29 34 30 35 31 36 77 37 32 38 76 39 33 40 34 41 35 42 70 43
REMARK SMILES IDX 36 44 75 45 69 46 71 47 37 48 74 49 68 50 67 51 38 53 60 54
REMARK SMILES IDX 45 55 59 56 46 57 49 58 58 59 72 60 47 61 48 62 57 64 73 65
REMARK SMILES IDX 50 66 39 67 40 68 44 69 41 70 43 71 42 72 61 73 62 74 66 75
REMARK SMILES IDX 63 76 65 77 64 78 51 79 52 80 56 81 53 82 55 83 54 84
REMARK H PARENT 5 16 71 52 49 63
REMARK Flexibility Score: inf
ROOT
ATOM      1  C   UNL A   1      32.993  34.752  29.322  1.00  0.00     0.188 C 
ENDROOT
BRANCH   1   2
ATOM      2  C   UNL A   1      33.233  33.957  28.035  1.00  0.00     0.188 C 
BRANCH   2   3
ATOM      3  O   UNL A   1      32.073  33.457  27.377  1.00  0.00    -0.376 OA
BRANCH   3   4
ATOM      4  C   UNL A   1      32.085  32.085  26.972  1.00  0.00     0.202 C 
BRANCH   4   5
ATOM      5  C   UNL A   1      33.234  31.189  27.475  1.00  0.00     0.261 C 
BRANCH   5   6
ATOM      6  O   UNL A   1      33.557  30.113  26.560  1.00  0.00    -0.463 OA
BRANCH   6   7
ATOM      7  C   UNL A   1      32.764  29.018  26.594  1.00  0.00     0.306 C 
ATOM      8  O   UNL A   1      32.016  28.751  27.531  1.00  0.00    -0.252 OA
BRANCH   7   9
ATOM      9  C   UNL A   1      32.707  28.218  25.294  1.00  0.00     0.129 C 
BRANCH   9  10
ATOM     10  C   UNL A   1      32.729  26.660  25.196  1.00  0.00    -0.016 C 
ATOM     11  C   UNL A   1      33.910  26.168  26.066  1.00  0.00     0.012 C 
ATOM     12  C   UNL A   1      33.000  26.140  23.771  1.00  0.00     0.012 C 
BRANCH  10  13
ATOM     13  C   UNL A   1      31.401  25.993  25.690  1.00  0.00     0.107 C 
BRANCH  13  14
ATOM     14  C   UNL A   1      30.735  24.963  24.779  1.00  0.00     0.226 C 
ATOM     15  N   UNL A   1      29.854  25.286  23.798  1.00  0.00    -0.311 N 
ATOM     16  H   UNL A   1      29.574  24.533  23.229  1.00  0.00     0.171 HD
ATOM     17  O   UNL A   1      31.021  23.763  24.876  1.00  0.00    -0.275 OA
BRANCH  15  18
ATOM     18  C   UNL A   1      29.284  26.510  23.468  1.00  0.00     0.132 A 
ATOM     19  C   UNL A   1      30.544  29.736  21.947  1.00  0.00     0.046 C 
ATOM     20  C   UNL A   1      29.631  28.745  22.609  1.00  0.00    -0.032 A 
ATOM     21  C   UNL A   1      30.090  27.432  22.808  1.00  0.00     0.051 A 
ATOM     22  C   UNL A   1      28.331  29.052  23.018  1.00  0.00     0.039 A 
ATOM     23  C   UNL A   1      27.573  28.047  23.598  1.00  0.00     0.129 A 
ATOM     24  Br  UNL A   1      27.565  30.771  22.848  1.00  0.00    -0.049 Br
ATOM     25  N   UNL A   1      28.026  26.795  23.831  1.00  0.00    -0.238 NA
ENDBRANCH  15  18
ENDBRANCH  13  14
ENDBRANCH  10  13
ENDBRANCH   9  10
ENDBRANCH   7   9
ENDBRANCH   6   7
ENDBRANCH   5   6
ENDBRANCH   4   5
ENDBRANCH   3   4
ENDBRANCH   2   3
ENDBRANCH   1   2
BRANCH   1  26
ATOM     26  O   UNL A   1      33.701  34.228  30.432  1.00  0.00    -0.377 OA
BRANCH  26  27
ATOM     27  C   UNL A   1      35.074  33.880  30.320  1.00  0.00     0.188 C 
BRANCH  27  28
ATOM     28  C   UNL A   1      35.758  33.256  31.536  1.00  0.00     0.188 C 
BRANCH  28  29
ATOM     29  O   UNL A   1      36.674  34.071  32.273  1.00  0.00    -0.376 OA
BRANCH  29  30
ATOM     30  C   UNL A   1      36.195  34.806  33.396  1.00  0.00     0.202 C 
BRANCH  30  31
ATOM     31  C   UNL A   1      35.780  33.959  34.601  1.00  0.00     0.261 C 
BRANCH  31  32
ATOM     32  O   UNL A   1      36.323  32.630  34.551  1.00  0.00    -0.460 OA
BRANCH  32  33
ATOM     33  C   UNL A   1      37.417  32.410  35.316  1.00  0.00     0.338 C 
ATOM     34  O   UNL A   1      37.487  32.398  36.534  1.00  0.00    -0.246 OA
BRANCH  33  35
ATOM     35  C   UNL A   1      38.534  32.022  34.436  1.00  0.00     0.060 A 
ATOM     36  C   UNL A   1      39.830  32.469  34.700  1.00  0.00     0.016 A 
ATOM     37  C   UNL A   1      38.282  31.161  33.360  1.00  0.00     0.016 A 
ATOM     38  C   UNL A   1      40.882  32.025  33.901  1.00  0.00     0.010 A 
ATOM     39  C   UNL A   1      39.335  30.720  32.558  1.00  0.00     0.010 A 
ATOM     40  C   UNL A   1      40.645  31.129  32.843  1.00  0.00    -0.014 A 
BRANCH  40  41
ATOM     41  C   UNL A   1      41.792  30.484  32.166  1.00  0.00     0.031 A 
ATOM     42  C   UNL A   1      42.450  31.092  30.970  1.00  0.00     0.074 A 
ATOM     43  C   UNL A   1      42.238  29.317  32.671  1.00  0.00     0.049 A 
ATOM     44  N   UNL A   1      43.540  30.707  30.357  1.00  0.00    -0.248 NA
ATOM     45  C   UNL A   1      41.810  32.278  30.382  1.00  0.00     0.031 C 
ATOM     46  C   UNL A   1      41.643  28.624  33.816  1.00  0.00     0.029 A 
ATOM     47  N   UNL A   1      43.295  28.522  32.310  1.00  0.00    -0.354 N 
ATOM     48  C   UNL A   1      43.733  31.615  29.325  1.00  0.00     0.074 A 
ATOM     49  C   UNL A   1      42.620  32.540  29.363  1.00  0.00     0.031 C 
ATOM     50  C   UNL A   1      42.370  27.532  34.092  1.00  0.00     0.029 A 
ATOM     51  C   UNL A   1      43.459  27.428  33.124  1.00  0.00     0.049 A 
ATOM     52  H   UNL A   1      43.878  28.716  31.540  1.00  0.00     0.167 HD
ATOM     53  C   UNL A   1      44.759  31.671  28.443  1.00  0.00     0.031 A 
ATOM     54  C   UNL A   1      44.389  26.455  33.109  1.00  0.00     0.031 A 
ATOM     55  C   UNL A   1      45.844  30.721  28.403  1.00  0.00     0.049 A 
ATOM     56  C   UNL A   1      45.492  26.518  32.091  1.00  0.00     0.074 A 
ATOM     57  C   UNL A   1      46.951  30.720  27.572  1.00  0.00     0.029 A 
ATOM     58  N   UNL A   1      45.950  29.598  29.210  1.00  0.00    -0.354 N 
ATOM     59  N   UNL A   1      45.717  27.435  31.181  1.00  0.00    -0.248 NA
ATOM     60  C   UNL A   1      46.478  25.430  32.107  1.00  0.00     0.031 C 
ATOM     61  C   UNL A   1      47.682  29.557  27.819  1.00  0.00     0.029 A 
ATOM     62  C   UNL A   1      47.083  28.877  28.867  1.00  0.00     0.049 A 
ATOM     63  H   UNL A   1      45.317  29.350  29.922  1.00  0.00     0.167 HD
ATOM     64  C   UNL A   1      46.880  27.047  30.530  1.00  0.00     0.074 A 
ATOM     65  C   UNL A   1      47.325  25.823  31.164  1.00  0.00     0.031 C 
ATOM     66  C   UNL A   1      47.517  27.654  29.498  1.00  0.00     0.031 A 
BRANCH  53  67
ATOM     67  C   UNL A   1      44.780  32.796  27.441  1.00  0.00    -0.014 A 
ATOM     68  C   UNL A   1      44.191  32.622  26.178  1.00  0.00     0.009 A 
ATOM     69  C   UNL A   1      45.492  33.978  27.698  1.00  0.00     0.009 A 
ATOM     70  C   UNL A   1      44.334  33.595  25.187  1.00  0.00     0.001 A 
ATOM     71  C   UNL A   1      45.607  34.964  26.715  1.00  0.00     0.001 A 
ATOM     72  C   UNL A   1      45.039  34.766  25.458  1.00  0.00     0.000 A 
ENDBRANCH  53  67
BRANCH  54  73
ATOM     73  C   UNL A   1      44.325  25.376  34.130  1.00  0.00    -0.014 A 
ATOM     74  C   UNL A   1      44.940  25.541  35.383  1.00  0.00     0.009 A 
ATOM     75  C   UNL A   1      43.719  24.146  33.833  1.00  0.00     0.009 A 
ATOM     76  C   UNL A   1      44.981  24.489  36.300  1.00  0.00     0.001 A 
ATOM     77  C   UNL A   1      43.730  23.107  34.767  1.00  0.00     0.001 A 
ATOM     78  C   UNL A   1      44.373  23.274  35.993  1.00  0.00     0.000 A 
ENDBRANCH  54  73
BRANCH  66  79
ATOM     79  C   UNL A   1      48.777  27.017  28.973  1.00  0.00    -0.014 A 
ATOM     80  C   UNL A   1      48.693  25.979  28.030  1.00  0.00     0.009 A 
ATOM     81  C   UNL A   1      50.034  27.357  29.495  1.00  0.00     0.009 A 
ATOM     82  C   UNL A   1      49.835  25.278  27.640  1.00  0.00     0.001 A 
ATOM     83  C   UNL A   1      51.181  26.678  29.075  1.00  0.00     0.001 A 
ATOM     84  C   UNL A   1      51.079  25.631  28.160  1.00  0.00     0.000 A 
ENDBRANCH  66  79
ENDBRANCH  40  41
ENDBRANCH  33  35
ENDBRANCH  32  33
ENDBRANCH  31  32
ENDBRANCH  30  31
ENDBRANCH  29  30
ENDBRANCH  28  29
ENDBRANCH  27  28
ENDBRANCH  26  27
ENDBRANCH   1  26
TORSDOF 24
ENDMDL
