MODEL 1
REMARK VINA RESULT:      -8.9      0.000      0.000
REMARK SMILES CC(C)(Cn1ccnc1C(N)=S)C(=O)OCCOCCOCCOCCOC(=O)c1ccc(-c2c3nc(c(-c4ccccc4)c4ccc([nH]4)c(-c4ccccc4)c4nc(c(-c5ccccc5)c5ccc2[nH]5)C=C4)C=C3)cc1
REMARK SMILES IDX 20 1 19 2 18 3 17 4 16 5 15 6 13 7 14 8 2 9 1 10 3 11 4 12
REMARK SMILES IDX 5 13 6 14 9 15 7 16 8 17 10 18 12 19 11 20 21 23 22 24 23 25
REMARK SMILES IDX 24 26 25 27 26 28 27 29 28 30 29 31 30 32 31 33 77 34 32 35
REMARK SMILES IDX 76 36 33 37 34 38 35 39 70 40 36 41 75 42 69 43 71 44 37 45
REMARK SMILES IDX 74 46 68 47 67 48 38 50 60 51 45 52 59 53 46 54 49 55 58 56
REMARK SMILES IDX 72 57 47 58 48 59 57 61 73 62 50 63 39 64 40 65 44 66 41 67
REMARK SMILES IDX 43 68 42 69 61 70 62 71 66 72 63 73 65 74 64 75 51 76 52 77
REMARK SMILES IDX 56 78 53 79 55 80 54 81
REMARK H PARENT 11 21 11 22 71 49 49 60
REMARK Flexibility Score: inf
ROOT
ATOM      1  C   UNL A   1      34.084  30.251  27.540  1.00  0.00     0.188 C 
ENDROOT
BRANCH   1   2
ATOM      2  C   UNL A   1      33.306  29.955  26.234  1.00  0.00     0.188 C 
BRANCH   2   3
ATOM      3  O   UNL A   1      32.400  28.862  26.160  1.00  0.00    -0.376 OA
BRANCH   3   4
ATOM      4  C   UNL A   1      32.872  27.595  25.741  1.00  0.00     0.202 C 
BRANCH   4   5
ATOM      5  C   UNL A   1      33.081  27.342  24.236  1.00  0.00     0.261 C 
BRANCH   5   6
ATOM      6  O   UNL A   1      32.663  26.067  23.701  1.00  0.00    -0.463 OA
BRANCH   6   7
ATOM      7  C   UNL A   1      33.639  25.349  23.084  1.00  0.00     0.313 C 
ATOM      8  O   UNL A   1      34.033  25.585  21.947  1.00  0.00    -0.252 OA
BRANCH   7   9
ATOM      9  C   UNL A   1      34.118  24.128  23.890  1.00  0.00     0.080 C 
ATOM     10  C   UNL A   1      35.156  24.618  24.917  1.00  0.00     0.025 C 
ATOM     11  C   UNL A   1      34.873  23.283  22.832  1.00  0.00     0.025 C 
BRANCH   9  12
ATOM     12  C   UNL A   1      33.053  23.167  24.523  1.00  0.00     0.142 C 
BRANCH  12  13
ATOM     13  N   UNL A   1      32.964  22.787  25.930  1.00  0.00    -0.328 N 
ATOM     14  C   UNL A   1      33.902  22.140  26.688  1.00  0.00     0.108 A 
ATOM     15  C   UNL A   1      31.869  23.031  26.777  1.00  0.00     0.167 A 
ATOM     16  C   UNL A   1      33.371  22.006  27.944  1.00  0.00     0.131 A 
ATOM     17  N   UNL A   1      32.143  22.581  28.000  1.00  0.00    -0.235 NA
BRANCH  15  18
ATOM     18  C   UNL A   1      30.574  23.671  26.573  1.00  0.00     0.140 C 
ATOM     19  S   UNL A   1      30.299  25.102  25.780  1.00  0.00    -0.057 S 
BRANCH  18  20
ATOM     20  N   UNL A   1      29.504  22.970  27.070  1.00  0.00    -0.387 N 
ATOM     21  H   UNL A   1      29.119  23.212  27.943  1.00  0.00     0.157 HD
ATOM     22  H   UNL A   1      29.120  22.225  26.553  1.00  0.00     0.157 HD
ENDBRANCH  18  20
ENDBRANCH  15  18
ENDBRANCH  12  13
ENDBRANCH   9  12
ENDBRANCH   7   9
ENDBRANCH   6   7
ENDBRANCH   5   6
ENDBRANCH   4   5
ENDBRANCH   3   4
ENDBRANCH   2   3
ENDBRANCH   1   2
BRANCH   1  23
ATOM     23  O   UNL A   1      34.907  31.401  27.505  1.00  0.00    -0.377 OA
BRANCH  23  24
ATOM     24  C   UNL A   1      34.345  32.595  28.017  1.00  0.00     0.188 C 
BRANCH  24  25
ATOM     25  C   UNL A   1      35.234  33.858  28.078  1.00  0.00     0.188 C 
BRANCH  25  26
ATOM     26  O   UNL A   1      34.532  35.043  28.427  1.00  0.00    -0.376 OA
BRANCH  26  27
ATOM     27  C   UNL A   1      33.182  35.031  28.856  1.00  0.00     0.202 C 
BRANCH  27  28
ATOM     28  C   UNL A   1      32.919  35.557  30.267  1.00  0.00     0.261 C 
BRANCH  28  29
ATOM     29  O   UNL A   1      33.417  34.697  31.272  1.00  0.00    -0.460 OA
BRANCH  29  30
ATOM     30  C   UNL A   1      33.859  35.340  32.358  1.00  0.00     0.338 C 
ATOM     31  O   UNL A   1      33.721  36.532  32.623  1.00  0.00    -0.246 OA
BRANCH  30  32
ATOM     32  C   UNL A   1      34.649  34.406  33.159  1.00  0.00     0.060 A 
ATOM     33  C   UNL A   1      35.807  34.965  33.686  1.00  0.00     0.016 A 
ATOM     34  C   UNL A   1      34.506  33.035  32.887  1.00  0.00     0.016 A 
ATOM     35  C   UNL A   1      36.950  34.252  33.490  1.00  0.00     0.010 A 
ATOM     36  C   UNL A   1      35.653  32.321  32.692  1.00  0.00     0.010 A 
ATOM     37  C   UNL A   1      36.850  33.002  32.864  1.00  0.00    -0.014 A 
BRANCH  37  38
ATOM     38  C   UNL A   1      38.081  32.425  32.410  1.00  0.00     0.031 A 
ATOM     39  C   UNL A   1      39.106  32.423  33.464  1.00  0.00     0.074 A 
ATOM     40  C   UNL A   1      38.233  31.950  31.166  1.00  0.00     0.049 A 
ATOM     41  N   UNL A   1      40.188  33.118  33.507  1.00  0.00    -0.248 NA
ATOM     42  C   UNL A   1      38.767  31.719  34.710  1.00  0.00     0.031 C 
ATOM     43  C   UNL A   1      37.221  31.651  30.152  1.00  0.00     0.029 A 
ATOM     44  N   UNL A   1      39.378  31.504  30.601  1.00  0.00    -0.354 N 
ATOM     45  C   UNL A   1      40.762  32.818  34.733  1.00  0.00     0.074 A 
ATOM     46  C   UNL A   1      39.767  32.107  35.495  1.00  0.00     0.031 C 
ATOM     47  C   UNL A   1      37.768  30.822  29.230  1.00  0.00     0.029 A 
ATOM     48  C   UNL A   1      39.182  30.653  29.531  1.00  0.00     0.049 A 
ATOM     49  H   UNL A   1      40.272  31.763  30.923  1.00  0.00     0.167 HD
ATOM     50  C   UNL A   1      42.094  32.964  34.947  1.00  0.00     0.031 A 
ATOM     51  C   UNL A   1      40.108  29.789  29.047  1.00  0.00     0.031 A 
ATOM     52  C   UNL A   1      42.708  33.819  33.968  1.00  0.00     0.049 A 
ATOM     53  C   UNL A   1      41.438  30.233  29.550  1.00  0.00     0.074 A 
ATOM     54  C   UNL A   1      42.546  35.144  33.613  1.00  0.00     0.029 A 
ATOM     55  N   UNL A   1      43.351  33.218  32.910  1.00  0.00    -0.354 N 
ATOM     56  N   UNL A   1      42.017  31.339  29.171  1.00  0.00    -0.248 NA
ATOM     57  C   UNL A   1      41.901  29.703  30.829  1.00  0.00     0.031 C 
ATOM     58  C   UNL A   1      42.661  35.161  32.193  1.00  0.00     0.029 A 
ATOM     59  C   UNL A   1      42.940  33.860  31.769  1.00  0.00     0.049 A 
ATOM     60  H   UNL A   1      43.989  32.470  32.962  1.00  0.00     0.167 HD
ATOM     61  C   UNL A   1      42.591  31.862  30.323  1.00  0.00     0.074 A 
ATOM     62  C   UNL A   1      42.565  30.767  31.292  1.00  0.00     0.031 C 
ATOM     63  C   UNL A   1      42.765  33.208  30.489  1.00  0.00     0.031 A 
BRANCH  50  64
ATOM     64  C   UNL A   1      42.870  32.005  35.804  1.00  0.00    -0.014 A 
ATOM     65  C   UNL A   1      43.013  30.679  35.373  1.00  0.00     0.009 A 
ATOM     66  C   UNL A   1      43.235  32.285  37.138  1.00  0.00     0.009 A 
ATOM     67  C   UNL A   1      43.439  29.677  36.251  1.00  0.00     0.001 A 
ATOM     68  C   UNL A   1      43.703  31.298  38.003  1.00  0.00     0.001 A 
ATOM     69  C   UNL A   1      43.777  29.986  37.566  1.00  0.00     0.000 A 
ENDBRANCH  50  64
BRANCH  51  70
ATOM     70  C   UNL A   1      39.866  28.434  28.508  1.00  0.00    -0.014 A 
ATOM     71  C   UNL A   1      40.414  28.045  27.277  1.00  0.00     0.009 A 
ATOM     72  C   UNL A   1      39.298  27.428  29.314  1.00  0.00     0.009 A 
ATOM     73  C   UNL A   1      40.419  26.698  26.885  1.00  0.00     0.001 A 
ATOM     74  C   UNL A   1      39.295  26.086  28.921  1.00  0.00     0.001 A 
ATOM     75  C   UNL A   1      39.870  25.720  27.710  1.00  0.00     0.000 A 
ENDBRANCH  51  70
BRANCH  63  76
ATOM     76  C   UNL A   1      42.476  34.112  29.313  1.00  0.00    -0.014 A 
ATOM     77  C   UNL A   1      41.257  34.800  29.162  1.00  0.00     0.009 A 
ATOM     78  C   UNL A   1      43.524  34.424  28.434  1.00  0.00     0.009 A 
ATOM     79  C   UNL A   1      41.087  35.747  28.147  1.00  0.00     0.001 A 
ATOM     80  C   UNL A   1      43.360  35.385  27.434  1.00  0.00     0.001 A 
ATOM     81  C   UNL A   1      42.141  36.043  27.287  1.00  0.00     0.000 A 
ENDBRANCH  63  76
ENDBRANCH  37  38
ENDBRANCH  30  32
ENDBRANCH  29  30
ENDBRANCH  28  29
ENDBRANCH  27  28
ENDBRANCH  26  27
ENDBRANCH  25  26
ENDBRANCH  24  25
ENDBRANCH  23  24
ENDBRANCH   1  23
TORSDOF 24
ENDMDL
MODEL 2
REMARK VINA RESULT:      -8.9      1.453      2.010
REMARK SMILES CC(C)(Cn1ccnc1C(N)=S)C(=O)OCCOCCOCCOCCOC(=O)c1ccc(-c2c3nc(c(-c4ccccc4)c4ccc([nH]4)c(-c4ccccc4)c4nc(c(-c5ccccc5)c5ccc2[nH]5)C=C4)C=C3)cc1
REMARK SMILES IDX 20 1 19 2 18 3 17 4 16 5 15 6 13 7 14 8 2 9 1 10 3 11 4 12
REMARK SMILES IDX 5 13 6 14 9 15 7 16 8 17 10 18 12 19 11 20 21 23 22 24 23 25
REMARK SMILES IDX 24 26 25 27 26 28 27 29 28 30 29 31 30 32 31 33 77 34 32 35
REMARK SMILES IDX 76 36 33 37 34 38 35 39 70 40 36 41 75 42 69 43 71 44 37 45
REMARK SMILES IDX 74 46 68 47 67 48 38 50 60 51 45 52 59 53 46 54 49 55 58 56
REMARK SMILES IDX 72 57 47 58 48 59 57 61 73 62 50 63 39 64 40 65 44 66 41 67
REMARK SMILES IDX 43 68 42 69 61 70 62 71 66 72 63 73 65 74 64 75 51 76 52 77
REMARK SMILES IDX 56 78 53 79 55 80 54 81
REMARK H PARENT 11 21 11 22 71 49 49 60
REMARK Flexibility Score: inf
ROOT
ATOM      1  C   UNL A   1      34.347  30.468  27.528  1.00  0.00     0.188 C 
ENDROOT
BRANCH   1   2
ATOM      2  C   UNL A   1      32.972  30.470  26.815  1.00  0.00     0.188 C 
BRANCH   2   3
ATOM      3  O   UNL A   1      31.919  29.628  27.265  1.00  0.00    -0.376 OA
BRANCH   3   4
ATOM      4  C   UNL A   1      32.136  28.233  27.359  1.00  0.00     0.202 C 
BRANCH   4   5
ATOM      5  C   UNL A   1      31.320  27.292  26.452  1.00  0.00     0.261 C 
BRANCH   5   6
ATOM      6  O   UNL A   1      31.338  25.880  26.754  1.00  0.00    -0.463 OA
BRANCH   6   7
ATOM      7  C   UNL A   1      31.023  25.060  25.717  1.00  0.00     0.313 C 
ATOM      8  O   UNL A   1      30.368  25.423  24.745  1.00  0.00    -0.252 OA
BRANCH   7   9
ATOM      9  C   UNL A   1      31.450  23.596  25.927  1.00  0.00     0.080 C 
ATOM     10  C   UNL A   1      30.298  22.866  26.643  1.00  0.00     0.025 C 
ATOM     11  C   UNL A   1      32.624  23.713  26.933  1.00  0.00     0.025 C 
BRANCH   9  12
ATOM     12  C   UNL A   1      32.011  22.784  24.709  1.00  0.00     0.142 C 
BRANCH  12  13
ATOM     13  N   UNL A   1      32.773  21.541  24.780  1.00  0.00    -0.328 N 
ATOM     14  C   UNL A   1      32.304  20.279  25.030  1.00  0.00     0.108 A 
ATOM     15  C   UNL A   1      34.161  21.417  24.595  1.00  0.00     0.167 A 
ATOM     16  C   UNL A   1      33.386  19.441  24.994  1.00  0.00     0.131 A 
ATOM     17  N   UNL A   1      34.512  20.137  24.697  1.00  0.00    -0.235 NA
BRANCH  15  18
ATOM     18  C   UNL A   1      35.216  22.381  24.306  1.00  0.00     0.140 C 
ATOM     19  S   UNL A   1      36.682  22.495  25.076  1.00  0.00    -0.057 S 
BRANCH  18  20
ATOM     20  N   UNL A   1      34.944  23.234  23.266  1.00  0.00    -0.387 N 
ATOM     21  H   UNL A   1      34.053  23.231  22.847  1.00  0.00     0.157 HD
ATOM     22  H   UNL A   1      35.640  23.849  22.938  1.00  0.00     0.157 HD
ENDBRANCH  18  20
ENDBRANCH  15  18
ENDBRANCH  12  13
ENDBRANCH   9  12
ENDBRANCH   7   9
ENDBRANCH   6   7
ENDBRANCH   5   6
ENDBRANCH   4   5
ENDBRANCH   3   4
ENDBRANCH   2   3
ENDBRANCH   1   2
BRANCH   1  23
ATOM     23  O   UNL A   1      35.041  31.700  27.507  1.00  0.00    -0.377 OA
BRANCH  23  24
ATOM     24  C   UNL A   1      34.378  32.808  28.089  1.00  0.00     0.188 C 
BRANCH  24  25
ATOM     25  C   UNL A   1      35.103  34.172  28.105  1.00  0.00     0.188 C 
BRANCH  25  26
ATOM     26  O   UNL A   1      34.271  35.265  28.472  1.00  0.00    -0.376 OA
BRANCH  26  27
ATOM     27  C   UNL A   1      33.028  35.089  29.128  1.00  0.00     0.202 C 
BRANCH  27  28
ATOM     28  C   UNL A   1      32.959  35.567  30.579  1.00  0.00     0.261 C 
BRANCH  28  29
ATOM     29  O   UNL A   1      33.592  34.679  31.477  1.00  0.00    -0.460 OA
BRANCH  29  30
ATOM     30  C   UNL A   1      34.052  35.273  32.584  1.00  0.00     0.338 C 
ATOM     31  O   UNL A   1      33.925  36.453  32.901  1.00  0.00    -0.246 OA
BRANCH  30  32
ATOM     32  C   UNL A   1      34.846  34.301  33.334  1.00  0.00     0.060 A 
ATOM     33  C   UNL A   1      36.004  34.835  33.885  1.00  0.00     0.016 A 
ATOM     34  C   UNL A   1      34.706  32.945  32.992  1.00  0.00     0.016 A 
ATOM     35  C   UNL A   1      37.149  34.137  33.650  1.00  0.00     0.010 A 
ATOM     36  C   UNL A   1      35.854  32.245  32.757  1.00  0.00     0.010 A 
ATOM     37  C   UNL A   1      37.050  32.920  32.962  1.00  0.00    -0.014 A 
BRANCH  37  38
ATOM     38  C   UNL A   1      38.281  32.370  32.475  1.00  0.00     0.031 A 
ATOM     39  C   UNL A   1      39.322  32.357  33.513  1.00  0.00     0.074 A 
ATOM     40  C   UNL A   1      38.420  31.926  31.218  1.00  0.00     0.049 A 
ATOM     41  N   UNL A   1      40.396  33.065  33.555  1.00  0.00    -0.248 NA
ATOM     42  C   UNL A   1      39.012  31.620  34.748  1.00  0.00     0.031 C 
ATOM     43  C   UNL A   1      37.396  31.636  30.214  1.00  0.00     0.029 A 
ATOM     44  N   UNL A   1      39.562  31.508  30.625  1.00  0.00    -0.354 N 
ATOM     45  C   UNL A   1      40.992  32.745  34.765  1.00  0.00     0.074 A 
ATOM     46  C   UNL A   1      40.019  32.004  35.526  1.00  0.00     0.031 C 
ATOM     47  C   UNL A   1      37.939  30.836  29.264  1.00  0.00     0.029 A 
ATOM     48  C   UNL A   1      39.359  30.680  29.539  1.00  0.00     0.049 A 
ATOM     49  H   UNL A   1      40.457  31.772  30.940  1.00  0.00     0.167 HD
ATOM     50  C   UNL A   1      42.326  32.904  34.962  1.00  0.00     0.031 A 
ATOM     51  C   UNL A   1      40.289  29.839  29.021  1.00  0.00     0.031 A 
ATOM     52  C   UNL A   1      42.914  33.789  33.994  1.00  0.00     0.049 A 
ATOM     53  C   UNL A   1      41.621  30.289  29.514  1.00  0.00     0.074 A 
ATOM     54  C   UNL A   1      42.729  35.120  33.672  1.00  0.00     0.029 A 
ATOM     55  N   UNL A   1      43.548  33.222  32.913  1.00  0.00    -0.354 N 
ATOM     56  N   UNL A   1      42.180  31.411  29.152  1.00  0.00    -0.248 NA
ATOM     57  C   UNL A   1      42.110  29.736  30.772  1.00  0.00     0.031 C 
ATOM     58  C   UNL A   1      42.821  35.171  32.251  1.00  0.00     0.029 A 
ATOM     59  C   UNL A   1      43.110  33.884  31.793  1.00  0.00     0.049 A 
ATOM     60  H   UNL A   1      44.195  32.481  32.937  1.00  0.00     0.167 HD
ATOM     61  C   UNL A   1      42.764  31.915  30.307  1.00  0.00     0.074 A 
ATOM     62  C   UNL A   1      42.768  30.798  31.250  1.00  0.00     0.031 C 
ATOM     63  C   UNL A   1      42.923  33.259  30.501  1.00  0.00     0.031 A 
BRANCH  50  64
ATOM     64  C   UNL A   1      43.127  31.936  35.784  1.00  0.00    -0.014 A 
ATOM     65  C   UNL A   1      43.320  30.636  35.298  1.00  0.00     0.009 A 
ATOM     66  C   UNL A   1      43.471  32.170  37.133  1.00  0.00     0.009 A 
ATOM     67  C   UNL A   1      43.774  29.611  36.136  1.00  0.00     0.001 A 
ATOM     68  C   UNL A   1      43.966  31.163  37.959  1.00  0.00     0.001 A 
ATOM     69  C   UNL A   1      44.090  29.875  37.467  1.00  0.00     0.000 A 
ENDBRANCH  50  64
BRANCH  51  70
ATOM     70  C   UNL A   1      40.056  28.493  28.454  1.00  0.00    -0.014 A 
ATOM     71  C   UNL A   1      40.594  28.139  27.209  1.00  0.00     0.009 A 
ATOM     72  C   UNL A   1      39.510  27.463  29.245  1.00  0.00     0.009 A 
ATOM     73  C   UNL A   1      40.610  26.802  26.786  1.00  0.00     0.001 A 
ATOM     74  C   UNL A   1      39.518  26.131  28.821  1.00  0.00     0.001 A 
ATOM     75  C   UNL A   1      40.082  25.798  27.596  1.00  0.00     0.000 A 
ENDBRANCH  51  70
BRANCH  63  76
ATOM     76  C   UNL A   1      42.605  34.186  29.351  1.00  0.00    -0.014 A 
ATOM     77  C   UNL A   1      41.348  34.802  29.194  1.00  0.00     0.009 A 
ATOM     78  C   UNL A   1      43.650  34.595  28.510  1.00  0.00     0.009 A 
ATOM     79  C   UNL A   1      41.141  35.773  28.209  1.00  0.00     0.001 A 
ATOM     80  C   UNL A   1      43.449  35.580  27.541  1.00  0.00     0.001 A 
ATOM     81  C   UNL A   1      42.193  36.166  27.386  1.00  0.00     0.000 A 
ENDBRANCH  63  76
ENDBRANCH  37  38
ENDBRANCH  30  32
ENDBRANCH  29  30
ENDBRANCH  28  29
ENDBRANCH  27  28
ENDBRANCH  26  27
ENDBRANCH  25  26
ENDBRANCH  24  25
ENDBRANCH  23  24
ENDBRANCH   1  23
TORSDOF 24
ENDMDL
MODEL 3
REMARK VINA RESULT:      -8.9      3.478      5.334
REMARK SMILES CC(C)(Cn1ccnc1C(N)=S)C(=O)OCCOCCOCCOCCOC(=O)c1ccc(-c2c3nc(c(-c4ccccc4)c4ccc([nH]4)c(-c4ccccc4)c4nc(c(-c5ccccc5)c5ccc2[nH]5)C=C4)C=C3)cc1
REMARK SMILES IDX 20 1 19 2 18 3 17 4 16 5 15 6 13 7 14 8 2 9 1 10 3 11 4 12
REMARK SMILES IDX 5 13 6 14 9 15 7 16 8 17 10 18 12 19 11 20 21 23 22 24 23 25
REMARK SMILES IDX 24 26 25 27 26 28 27 29 28 30 29 31 30 32 31 33 77 34 32 35
REMARK SMILES IDX 76 36 33 37 34 38 35 39 70 40 36 41 75 42 69 43 71 44 37 45
REMARK SMILES IDX 74 46 68 47 67 48 38 50 60 51 45 52 59 53 46 54 49 55 58 56
REMARK SMILES IDX 72 57 47 58 48 59 57 61 73 62 50 63 39 64 40 65 44 66 41 67
REMARK SMILES IDX 43 68 42 69 61 70 62 71 66 72 63 73 65 74 64 75 51 76 52 77
REMARK SMILES IDX 56 78 53 79 55 80 54 81
REMARK H PARENT 11 21 11 22 71 49 49 60
REMARK Flexibility Score: inf
ROOT
ATOM      1  C   UNL A   1      32.684  29.163  25.894  1.00  0.00     0.188 C 
ENDROOT
BRANCH   1   2
ATOM      2  C   UNL A   1      33.676  28.215  25.178  1.00  0.00     0.188 C 
BRANCH   2   3
ATOM      3  O   UNL A   1      33.526  27.916  23.796  1.00  0.00    -0.376 OA
BRANCH   3   4
ATOM      4  C   UNL A   1      32.851  26.733  23.410  1.00  0.00     0.202 C 
BRANCH   4   5
ATOM      5  C   UNL A   1      33.681  25.474  23.097  1.00  0.00     0.261 C 
BRANCH   5   6
ATOM      6  O   UNL A   1      34.505  24.929  24.151  1.00  0.00    -0.463 OA
BRANCH   6   7
ATOM      7  C   UNL A   1      35.019  23.695  23.907  1.00  0.00     0.313 C 
ATOM      8  O   UNL A   1      34.964  23.146  22.811  1.00  0.00    -0.252 OA
BRANCH   7   9
ATOM      9  C   UNL A   1      35.566  22.988  25.160  1.00  0.00     0.080 C 
ATOM     10  C   UNL A   1      36.769  23.800  25.674  1.00  0.00     0.025 C 
ATOM     11  C   UNL A   1      36.113  21.651  24.599  1.00  0.00     0.025 C 
BRANCH   9  12
ATOM     12  C   UNL A   1      34.572  22.595  26.307  1.00  0.00     0.142 C 
BRANCH  12  13
ATOM     13  N   UNL A   1      33.114  22.591  26.219  1.00  0.00    -0.328 N 
ATOM     14  C   UNL A   1      32.248  23.601  26.542  1.00  0.00     0.108 A 
ATOM     15  C   UNL A   1      32.323  21.519  25.772  1.00  0.00     0.167 A 
ATOM     16  C   UNL A   1      30.986  23.134  26.292  1.00  0.00     0.131 A 
ATOM     17  N   UNL A   1      31.039  21.874  25.792  1.00  0.00    -0.235 NA
BRANCH  15  18
ATOM     18  C   UNL A   1      32.640  20.177  25.296  1.00  0.00     0.140 C 
ATOM     19  S   UNL A   1      32.617  19.662  23.719  1.00  0.00    -0.057 S 
BRANCH  18  20
ATOM     20  N   UNL A   1      33.024  19.298  26.277  1.00  0.00    -0.387 N 
ATOM     21  H   UNL A   1      33.584  18.520  26.050  1.00  0.00     0.157 HD
ATOM     22  H   UNL A   1      32.742  19.444  27.209  1.00  0.00     0.157 HD
ENDBRANCH  18  20
ENDBRANCH  15  18
ENDBRANCH  12  13
ENDBRANCH   9  12
ENDBRANCH   7   9
ENDBRANCH   6   7
ENDBRANCH   5   6
ENDBRANCH   4   5
ENDBRANCH   3   4
ENDBRANCH   2   3
ENDBRANCH   1   2
BRANCH   1  23
ATOM     23  O   UNL A   1      32.842  29.255  27.297  1.00  0.00    -0.377 OA
BRANCH  23  24
ATOM     24  C   UNL A   1      33.991  29.940  27.759  1.00  0.00     0.188 C 
BRANCH  24  25
ATOM     25  C   UNL A   1      34.183  31.416  27.345  1.00  0.00     0.188 C 
BRANCH  25  26
ATOM     26  O   UNL A   1      34.893  32.197  28.296  1.00  0.00    -0.376 OA
BRANCH  26  27
ATOM     27  C   UNL A   1      34.264  32.787  29.420  1.00  0.00     0.202 C 
BRANCH  27  28
ATOM     28  C   UNL A   1      34.903  32.498  30.778  1.00  0.00     0.261 C 
BRANCH  28  29
ATOM     29  O   UNL A   1      36.302  32.698  30.776  1.00  0.00    -0.460 OA
BRANCH  29  30
ATOM     30  C   UNL A   1      37.000  31.615  31.134  1.00  0.00     0.338 C 
ATOM     31  O   UNL A   1      37.009  31.067  32.234  1.00  0.00    -0.246 OA
BRANCH  30  32
ATOM     32  C   UNL A   1      37.861  31.229  30.017  1.00  0.00     0.060 A 
ATOM     33  C   UNL A   1      37.468  30.052  29.391  1.00  0.00     0.016 A 
ATOM     34  C   UNL A   1      39.188  31.693  30.030  1.00  0.00     0.016 A 
ATOM     35  C   UNL A   1      38.448  29.126  29.203  1.00  0.00     0.010 A 
ATOM     36  C   UNL A   1      40.170  30.764  29.840  1.00  0.00     0.010 A 
ATOM     37  C   UNL A   1      39.758  29.466  29.570  1.00  0.00    -0.014 A 
BRANCH  37  38
ATOM     38  C   UNL A   1      40.693  28.382  29.639  1.00  0.00     0.031 A 
ATOM     39  C   UNL A   1      41.206  28.187  31.002  1.00  0.00     0.074 A 
ATOM     40  C   UNL A   1      41.026  27.655  28.563  1.00  0.00     0.049 A 
ATOM     41  N   UNL A   1      42.400  28.404  31.430  1.00  0.00    -0.248 NA
ATOM     42  C   UNL A   1      40.207  27.924  32.050  1.00  0.00     0.031 C 
ATOM     43  C   UNL A   1      40.380  27.580  27.252  1.00  0.00     0.029 A 
ATOM     44  N   UNL A   1      41.982  26.700  28.492  1.00  0.00    -0.354 N 
ATOM     45  C   UNL A   1      42.349  28.149  32.791  1.00  0.00     0.074 A 
ATOM     46  C   UNL A   1      40.956  28.039  33.142  1.00  0.00     0.031 C 
ATOM     47  C   UNL A   1      40.787  26.444  26.636  1.00  0.00     0.029 A 
ATOM     48  C   UNL A   1      41.803  25.803  27.458  1.00  0.00     0.049 A 
ATOM     49  H   UNL A   1      42.738  26.651  29.121  1.00  0.00     0.167 HD
ATOM     50  C   UNL A   1      43.461  27.806  33.491  1.00  0.00     0.031 A 
ATOM     51  C   UNL A   1      42.368  24.572  27.394  1.00  0.00     0.031 A 
ATOM     52  C   UNL A   1      44.668  28.151  32.790  1.00  0.00     0.049 A 
ATOM     53  C   UNL A   1      43.511  24.555  28.349  1.00  0.00     0.074 A 
ATOM     54  C   UNL A   1      45.220  29.340  32.354  1.00  0.00     0.029 A 
ATOM     55  N   UNL A   1      45.298  27.156  32.078  1.00  0.00    -0.354 N 
ATOM     56  N   UNL A   1      44.599  25.255  28.180  1.00  0.00    -0.248 NA
ATOM     57  C   UNL A   1      43.250  24.145  29.725  1.00  0.00     0.031 C 
ATOM     58  C   UNL A   1      45.791  29.036  31.084  1.00  0.00     0.029 A 
ATOM     59  C   UNL A   1      45.605  27.673  30.844  1.00  0.00     0.049 A 
ATOM     60  H   UNL A   1      45.493  26.244  32.394  1.00  0.00     0.167 HD
ATOM     61  C   UNL A   1      44.927  25.727  29.445  1.00  0.00     0.074 A 
ATOM     62  C   UNL A   1      44.113  24.937  30.369  1.00  0.00     0.031 C 
ATOM     63  C   UNL A   1      45.598  26.905  29.617  1.00  0.00     0.031 A 
BRANCH  50  64
ATOM     64  C   UNL A   1      43.417  26.807  34.611  1.00  0.00    -0.014 A 
ATOM     65  C   UNL A   1      43.864  27.197  35.881  1.00  0.00     0.009 A 
ATOM     66  C   UNL A   1      43.206  25.427  34.405  1.00  0.00     0.009 A 
ATOM     67  C   UNL A   1      44.144  26.248  36.871  1.00  0.00     0.001 A 
ATOM     68  C   UNL A   1      43.441  24.482  35.402  1.00  0.00     0.001 A 
ATOM     69  C   UNL A   1      43.938  24.892  36.628  1.00  0.00     0.000 A 
ENDBRANCH  50  64
BRANCH  51  70
ATOM     70  C   UNL A   1      41.759  23.339  26.850  1.00  0.00    -0.014 A 
ATOM     71  C   UNL A   1      42.562  22.282  26.399  1.00  0.00     0.009 A 
ATOM     72  C   UNL A   1      40.379  23.091  26.998  1.00  0.00     0.009 A 
ATOM     73  C   UNL A   1      42.010  21.020  26.135  1.00  0.00     0.001 A 
ATOM     74  C   UNL A   1      39.827  21.835  26.729  1.00  0.00     0.001 A 
ATOM     75  C   UNL A   1      40.646  20.795  26.310  1.00  0.00     0.000 A 
ENDBRANCH  51  70
BRANCH  63  76
ATOM     76  C   UNL A   1      46.133  27.606  28.389  1.00  0.00    -0.014 A 
ATOM     77  C   UNL A   1      47.448  27.426  27.923  1.00  0.00     0.009 A 
ATOM     78  C   UNL A   1      45.235  28.318  27.580  1.00  0.00     0.009 A 
ATOM     79  C   UNL A   1      47.857  27.967  26.699  1.00  0.00     0.001 A 
ATOM     80  C   UNL A   1      45.638  28.840  26.348  1.00  0.00     0.001 A 
ATOM     81  C   UNL A   1      46.950  28.668  25.909  1.00  0.00     0.000 A 
ENDBRANCH  63  76
ENDBRANCH  37  38
ENDBRANCH  30  32
ENDBRANCH  29  30
ENDBRANCH  28  29
ENDBRANCH  27  28
ENDBRANCH  26  27
ENDBRANCH  25  26
ENDBRANCH  24  25
ENDBRANCH  23  24
ENDBRANCH   1  23
TORSDOF 24
ENDMDL
