MODEL 1
REMARK VINA RESULT:      -6.5      0.000      0.000
REMARK SMILES Cc1cccc(-c2cc(OCC(=O)OCCOCCOCCOCCOC(=O)c3ccc(-c4c5nc(c(-c6ccccc6)c6ccc([nH]6)c(-c6ccccc6)c6nc(c(-c7ccccc7)c7ccc4[nH]7)C=C6)C=C5)cc3)nc(Nc3ccccc3C)n2)c1
REMARK SMILES IDX 19 1 18 2 17 3 16 4 15 5 14 6 12 7 13 8 11 9 10 10 9 11 7 12
REMARK SMILES IDX 8 13 87 14 78 15 77 16 6 17 1 18 2 19 3 20 88 21 4 22 5 23
REMARK SMILES IDX 79 24 80 26 81 27 85 28 82 29 84 30 86 31 83 32 20 33 21 34
REMARK SMILES IDX 22 35 23 36 24 37 25 38 26 39 27 40 28 41 29 42 30 43 76 44
REMARK SMILES IDX 31 45 75 46 32 47 33 48 34 49 69 50 35 51 74 52 68 53 70 54
REMARK SMILES IDX 36 55 73 56 67 57 66 58 37 60 59 61 44 62 58 63 45 64 48 65
REMARK SMILES IDX 57 66 71 67 46 68 47 69 56 71 72 72 49 73 38 74 39 75 43 76
REMARK SMILES IDX 40 77 42 78 41 79 60 80 61 81 65 82 62 83 64 84 63 85 50 86
REMARK SMILES IDX 51 87 55 88 52 89 54 90 53 91
REMARK H PARENT 79 25 70 59 48 70
REMARK Flexibility Score: inf
ROOT
ATOM      1  C   UNL A   1      44.698  25.087  30.113  1.00  0.00     0.188 C 
ENDROOT
BRANCH   1   2
ATOM      2  C   UNL A   1      45.428  26.406  29.855  1.00  0.00     0.188 C 
BRANCH   2   3
ATOM      3  O   UNL A   1      46.453  26.302  28.891  1.00  0.00    -0.376 OA
BRANCH   3   4
ATOM      4  C   UNL A   1      47.071  25.054  28.636  1.00  0.00     0.202 C 
BRANCH   4   5
ATOM      5  C   UNL A   1      47.018  24.550  27.192  1.00  0.00     0.261 C 
BRANCH   5   6
ATOM      6  O   UNL A   1      47.501  25.474  26.214  1.00  0.00    -0.461 OA
BRANCH   6   7
ATOM      7  C   UNL A   1      46.862  25.479  25.022  1.00  0.00     0.344 C 
ATOM      8  O   UNL A   1      47.029  24.649  24.132  1.00  0.00    -0.248 OA
BRANCH   7   9
ATOM      9  C   UNL A   1      45.840  26.624  24.966  1.00  0.00     0.353 C 
BRANCH   9  10
ATOM     10  O   UNL A   1      45.055  27.160  26.016  1.00  0.00    -0.466 OA
BRANCH  10  11
ATOM     11  C   UNL A   1      43.868  26.670  26.465  1.00  0.00     0.219 A 
ATOM     12  C   UNL A   1      41.738  26.704  27.434  1.00  0.00     0.080 A 
ATOM     13  C   UNL A   1      42.970  27.319  27.286  1.00  0.00     0.097 A 
ATOM     14  N   UNL A   1      41.482  25.481  26.915  1.00  0.00    -0.212 NA
ATOM     15  C   UNL A   1      42.392  24.913  26.116  1.00  0.00     0.231 A 
ATOM     16  N   UNL A   1      43.580  25.483  25.876  1.00  0.00    -0.177 NA
BRANCH  12  17
ATOM     17  C   UNL A   1      40.510  27.396  27.897  1.00  0.00     0.001 A 
ATOM     18  C   UNL A   1      38.677  27.768  31.246  1.00  0.00     0.044 C 
ATOM     19  C   UNL A   1      39.053  27.977  29.806  1.00  0.00    -0.050 A 
ATOM     20  C   UNL A   1      38.554  29.064  29.093  1.00  0.00     0.003 A 
ATOM     21  C   UNL A   1      39.966  27.122  29.169  1.00  0.00     0.013 A 
ATOM     22  C   UNL A   1      39.014  29.319  27.800  1.00  0.00     0.001 A 
ATOM     23  C   UNL A   1      40.001  28.508  27.220  1.00  0.00     0.010 A 
ENDBRANCH  12  17
BRANCH  15  24
ATOM     24  N   UNL A   1      42.037  23.767  25.380  1.00  0.00    -0.324 N 
ATOM     25  H   UNL A   1      41.839  23.900  24.426  1.00  0.00     0.170 HD
BRANCH  24  26
ATOM     26  C   UNL A   1      41.939  22.451  25.868  1.00  0.00     0.044 A 
ATOM     27  C   UNL A   1      43.035  21.591  25.682  1.00  0.00     0.026 A 
ATOM     28  C   UNL A   1      40.804  21.936  26.528  1.00  0.00    -0.027 A 
ATOM     29  C   UNL A   1      43.066  20.309  26.227  1.00  0.00     0.002 A 
ATOM     30  C   UNL A   1      40.887  20.676  27.160  1.00  0.00     0.005 A 
ATOM     31  C   UNL A   1      39.455  22.597  26.564  1.00  0.00     0.046 C 
ATOM     32  C   UNL A   1      42.015  19.874  27.019  1.00  0.00     0.000 A 
ENDBRANCH  24  26
ENDBRANCH  15  24
ENDBRANCH  10  11
ENDBRANCH   9  10
ENDBRANCH   7   9
ENDBRANCH   6   7
ENDBRANCH   5   6
ENDBRANCH   4   5
ENDBRANCH   3   4
ENDBRANCH   2   3
ENDBRANCH   1   2
BRANCH   1  33
ATOM     33  O   UNL A   1      44.221  24.896  31.437  1.00  0.00    -0.377 OA
BRANCH  33  34
ATOM     34  C   UNL A   1      45.125  25.251  32.463  1.00  0.00     0.188 C 
BRANCH  34  35
ATOM     35  C   UNL A   1      45.092  24.307  33.650  1.00  0.00     0.188 C 
BRANCH  35  36
ATOM     36  O   UNL A   1      45.788  24.676  34.817  1.00  0.00    -0.376 OA
BRANCH  36  37
ATOM     37  C   UNL A   1      45.728  23.796  35.935  1.00  0.00     0.202 C 
BRANCH  37  38
ATOM     38  C   UNL A   1      44.930  24.236  37.185  1.00  0.00     0.261 C 
BRANCH  38  39
ATOM     39  O   UNL A   1      43.670  24.879  36.874  1.00  0.00    -0.460 OA
BRANCH  39  40
ATOM     40  C   UNL A   1      43.514  26.141  37.404  1.00  0.00     0.338 C 
ATOM     41  O   UNL A   1      43.606  26.415  38.592  1.00  0.00    -0.246 OA
BRANCH  40  42
ATOM     42  C   UNL A   1      42.804  27.031  36.405  1.00  0.00     0.060 A 
ATOM     43  C   UNL A   1      42.459  26.465  35.164  1.00  0.00     0.016 A 
ATOM     44  C   UNL A   1      43.004  28.408  36.478  1.00  0.00     0.016 A 
ATOM     45  C   UNL A   1      42.579  27.217  33.976  1.00  0.00     0.010 A 
ATOM     46  C   UNL A   1      43.248  29.101  35.287  1.00  0.00     0.010 A 
ATOM     47  C   UNL A   1      43.120  28.510  34.011  1.00  0.00    -0.014 A 
BRANCH  47  48
ATOM     48  C   UNL A   1      43.828  29.150  32.846  1.00  0.00     0.031 A 
ATOM     49  C   UNL A   1      45.328  29.040  32.647  1.00  0.00     0.074 A 
ATOM     50  C   UNL A   1      43.115  29.605  31.775  1.00  0.00     0.049 A 
ATOM     51  N   UNL A   1      46.002  29.579  31.675  1.00  0.00    -0.248 NA
ATOM     52  C   UNL A   1      46.225  28.319  33.543  1.00  0.00     0.031 C 
ATOM     53  C   UNL A   1      43.613  29.715  30.408  1.00  0.00     0.029 A 
ATOM     54  N   UNL A   1      41.771  29.958  31.623  1.00  0.00    -0.354 N 
ATOM     55  C   UNL A   1      47.253  29.003  31.598  1.00  0.00     0.074 A 
ATOM     56  C   UNL A   1      47.369  28.293  32.849  1.00  0.00     0.031 C 
ATOM     57  C   UNL A   1      42.651  30.064  29.556  1.00  0.00     0.029 A 
ATOM     58  C   UNL A   1      41.573  30.557  30.351  1.00  0.00     0.049 A 
ATOM     59  H   UNL A   1      41.067  29.813  32.296  1.00  0.00     0.167 HD
ATOM     60  C   UNL A   1      48.009  29.110  30.453  1.00  0.00     0.031 A 
ATOM     61  C   UNL A   1      41.105  31.828  30.215  1.00  0.00     0.031 A 
ATOM     62  C   UNL A   1      47.428  30.035  29.429  1.00  0.00     0.049 A 
ATOM     63  C   UNL A   1      42.247  32.784  29.862  1.00  0.00     0.074 A 
ATOM     64  C   UNL A   1      47.337  30.100  28.043  1.00  0.00     0.029 A 
ATOM     65  N   UNL A   1      46.695  31.143  29.860  1.00  0.00    -0.354 N 
ATOM     66  N   UNL A   1      43.357  32.435  29.243  1.00  0.00    -0.248 NA
ATOM     67  C   UNL A   1      42.292  34.180  30.281  1.00  0.00     0.031 C 
ATOM     68  C   UNL A   1      46.532  31.232  27.674  1.00  0.00     0.029 A 
ATOM     69  C   UNL A   1      46.177  31.902  28.827  1.00  0.00     0.049 A 
ATOM     70  H   UNL A   1      46.558  31.363  30.810  1.00  0.00     0.167 HD
ATOM     71  C   UNL A   1      44.313  33.404  29.408  1.00  0.00     0.074 A 
ATOM     72  C   UNL A   1      43.566  34.509  29.994  1.00  0.00     0.031 C 
ATOM     73  C   UNL A   1      45.654  33.228  29.160  1.00  0.00     0.031 A 
BRANCH  60  74
ATOM     74  C   UNL A   1      49.289  28.282  30.194  1.00  0.00    -0.014 A 
ATOM     75  C   UNL A   1      50.368  28.828  29.467  1.00  0.00     0.009 A 
ATOM     76  C   UNL A   1      49.494  26.947  30.599  1.00  0.00     0.009 A 
ATOM     77  C   UNL A   1      51.532  28.098  29.150  1.00  0.00     0.001 A 
ATOM     78  C   UNL A   1      50.669  26.219  30.324  1.00  0.00     0.001 A 
ATOM     79  C   UNL A   1      51.688  26.792  29.586  1.00  0.00     0.000 A 
ENDBRANCH  60  74
BRANCH  61  80
ATOM     80  C   UNL A   1      39.820  31.955  30.979  1.00  0.00    -0.014 A 
ATOM     81  C   UNL A   1      40.017  32.373  32.320  1.00  0.00     0.009 A 
ATOM     82  C   UNL A   1      38.659  32.406  30.326  1.00  0.00     0.009 A 
ATOM     83  C   UNL A   1      39.274  33.431  32.862  1.00  0.00     0.001 A 
ATOM     84  C   UNL A   1      37.910  33.462  30.880  1.00  0.00     0.001 A 
ATOM     85  C   UNL A   1      38.260  34.016  32.112  1.00  0.00     0.000 A 
ENDBRANCH  61  80
BRANCH  73  86
ATOM     86  C   UNL A   1      46.696  34.312  29.363  1.00  0.00    -0.014 A 
ATOM     87  C   UNL A   1      47.451  34.858  28.322  1.00  0.00     0.009 A 
ATOM     88  C   UNL A   1      47.010  34.763  30.669  1.00  0.00     0.009 A 
ATOM     89  C   UNL A   1      48.354  35.902  28.552  1.00  0.00     0.001 A 
ATOM     90  C   UNL A   1      47.935  35.778  30.910  1.00  0.00     0.001 A 
ATOM     91  C   UNL A   1      48.584  36.374  29.843  1.00  0.00     0.000 A 
ENDBRANCH  73  86
ENDBRANCH  47  48
ENDBRANCH  40  42
ENDBRANCH  39  40
ENDBRANCH  38  39
ENDBRANCH  37  38
ENDBRANCH  36  37
ENDBRANCH  35  36
ENDBRANCH  34  35
ENDBRANCH  33  34
ENDBRANCH   1  33
TORSDOF 25
ENDMDL
MODEL 2
REMARK VINA RESULT:      -6.4      2.715      7.191
REMARK SMILES Cc1cccc(-c2cc(OCC(=O)OCCOCCOCCOCCOC(=O)c3ccc(-c4c5nc(c(-c6ccccc6)c6ccc([nH]6)c(-c6ccccc6)c6nc(c(-c7ccccc7)c7ccc4[nH]7)C=C6)C=C5)cc3)nc(Nc3ccccc3C)n2)c1
REMARK SMILES IDX 19 1 18 2 17 3 16 4 15 5 14 6 12 7 13 8 11 9 10 10 9 11 7 12
REMARK SMILES IDX 8 13 87 14 78 15 77 16 6 17 1 18 2 19 3 20 88 21 4 22 5 23
REMARK SMILES IDX 79 24 80 26 81 27 85 28 82 29 84 30 86 31 83 32 20 33 21 34
REMARK SMILES IDX 22 35 23 36 24 37 25 38 26 39 27 40 28 41 29 42 30 43 76 44
REMARK SMILES IDX 31 45 75 46 32 47 33 48 34 49 69 50 35 51 74 52 68 53 70 54
REMARK SMILES IDX 36 55 73 56 67 57 66 58 37 60 59 61 44 62 58 63 45 64 48 65
REMARK SMILES IDX 57 66 71 67 46 68 47 69 56 71 72 72 49 73 38 74 39 75 43 76
REMARK SMILES IDX 40 77 42 78 41 79 60 80 61 81 65 82 62 83 64 84 63 85 50 86
REMARK SMILES IDX 51 87 55 88 52 89 54 90 53 91
REMARK H PARENT 79 25 70 59 48 70
REMARK Flexibility Score: inf
ROOT
ATOM      1  C   UNL A   1      44.054  23.843  33.412  1.00  0.00     0.188 C 
ENDROOT
BRANCH   1   2
ATOM      2  C   UNL A   1      44.664  25.139  32.878  1.00  0.00     0.188 C 
BRANCH   2   3
ATOM      3  O   UNL A   1      44.250  25.457  31.567  1.00  0.00    -0.376 OA
BRANCH   3   4
ATOM      4  C   UNL A   1      45.088  25.170  30.462  1.00  0.00     0.202 C 
BRANCH   4   5
ATOM      5  C   UNL A   1      44.472  24.330  29.341  1.00  0.00     0.261 C 
BRANCH   5   6
ATOM      6  O   UNL A   1      43.573  25.037  28.484  1.00  0.00    -0.461 OA
BRANCH   6   7
ATOM      7  C   UNL A   1      42.615  24.300  27.877  1.00  0.00     0.344 C 
ATOM      8  O   UNL A   1      41.889  23.486  28.445  1.00  0.00    -0.248 OA
BRANCH   7   9
ATOM      9  C   UNL A   1      42.506  24.678  26.392  1.00  0.00     0.353 C 
BRANCH   9  10
ATOM     10  O   UNL A   1      41.712  25.685  25.792  1.00  0.00    -0.466 OA
BRANCH  10  11
ATOM     11  C   UNL A   1      41.434  26.910  26.314  1.00  0.00     0.219 A 
ATOM     12  C   UNL A   1      40.493  28.482  27.770  1.00  0.00     0.080 A 
ATOM     13  C   UNL A   1      40.445  27.209  27.227  1.00  0.00     0.097 A 
ATOM     14  N   UNL A   1      41.372  29.414  27.333  1.00  0.00    -0.212 NA
ATOM     15  C   UNL A   1      42.314  29.054  26.455  1.00  0.00     0.231 A 
ATOM     16  N   UNL A   1      42.368  27.819  25.937  1.00  0.00    -0.177 NA
BRANCH  12  17
ATOM     17  C   UNL A   1      39.828  28.875  29.036  1.00  0.00     0.001 A 
ATOM     18  C   UNL A   1      38.745  32.185  30.645  1.00  0.00     0.044 C 
ATOM     19  C   UNL A   1      38.898  30.709  30.407  1.00  0.00    -0.050 A 
ATOM     20  C   UNL A   1      38.102  29.793  31.089  1.00  0.00     0.003 A 
ATOM     21  C   UNL A   1      39.799  30.225  29.445  1.00  0.00     0.013 A 
ATOM     22  C   UNL A   1      38.163  28.438  30.763  1.00  0.00     0.001 A 
ATOM     23  C   UNL A   1      38.998  27.989  29.730  1.00  0.00     0.010 A 
ENDBRANCH  12  17
BRANCH  15  24
ATOM     24  N   UNL A   1      43.373  29.940  26.185  1.00  0.00    -0.324 N 
ATOM     25  H   UNL A   1      43.465  30.246  25.254  1.00  0.00     0.170 HD
BRANCH  24  26
ATOM     26  C   UNL A   1      44.313  30.436  27.108  1.00  0.00     0.044 A 
ATOM     27  C   UNL A   1      44.803  29.560  28.090  1.00  0.00     0.026 A 
ATOM     28  C   UNL A   1      44.789  31.764  27.113  1.00  0.00    -0.027 A 
ATOM     29  C   UNL A   1      45.815  29.935  28.972  1.00  0.00     0.002 A 
ATOM     30  C   UNL A   1      45.880  32.101  27.943  1.00  0.00     0.005 A 
ATOM     31  C   UNL A   1      44.180  32.900  26.342  1.00  0.00     0.046 C 
ATOM     32  C   UNL A   1      46.396  31.188  28.859  1.00  0.00     0.000 A 
ENDBRANCH  24  26
ENDBRANCH  15  24
ENDBRANCH  10  11
ENDBRANCH   9  10
ENDBRANCH   7   9
ENDBRANCH   6   7
ENDBRANCH   5   6
ENDBRANCH   4   5
ENDBRANCH   3   4
ENDBRANCH   2   3
ENDBRANCH   1   2
BRANCH   1  33
ATOM     33  O   UNL A   1      44.102  23.676  34.822  1.00  0.00    -0.377 OA
BRANCH  33  34
ATOM     34  C   UNL A   1      43.386  24.636  35.570  1.00  0.00     0.188 C 
BRANCH  34  35
ATOM     35  C   UNL A   1      41.882  24.448  35.512  1.00  0.00     0.188 C 
BRANCH  35  36
ATOM     36  O   UNL A   1      41.059  25.564  35.760  1.00  0.00    -0.376 OA
BRANCH  36  37
ATOM     37  C   UNL A   1      41.530  26.548  36.675  1.00  0.00     0.202 C 
BRANCH  37  38
ATOM     38  C   UNL A   1      41.575  28.026  36.217  1.00  0.00     0.261 C 
BRANCH  38  39
ATOM     39  O   UNL A   1      41.158  28.223  34.844  1.00  0.00    -0.460 OA
BRANCH  39  40
ATOM     40  C   UNL A   1      42.186  28.363  33.937  1.00  0.00     0.338 C 
ATOM     41  O   UNL A   1      43.334  27.986  34.120  1.00  0.00    -0.246 OA
BRANCH  40  42
ATOM     42  C   UNL A   1      41.814  29.404  32.902  1.00  0.00     0.060 A 
ATOM     43  C   UNL A   1      42.310  29.227  31.597  1.00  0.00     0.016 A 
ATOM     44  C   UNL A   1      41.513  30.695  33.333  1.00  0.00     0.016 A 
ATOM     45  C   UNL A   1      42.751  30.336  30.843  1.00  0.00     0.010 A 
ATOM     46  C   UNL A   1      42.075  31.769  32.633  1.00  0.00     0.010 A 
ATOM     47  C   UNL A   1      42.773  31.615  31.415  1.00  0.00    -0.014 A 
BRANCH  47  48
ATOM     48  C   UNL A   1      43.718  32.705  30.984  1.00  0.00     0.031 A 
ATOM     49  C   UNL A   1      43.323  33.772  29.979  1.00  0.00     0.074 A 
ATOM     50  C   UNL A   1      44.859  32.946  31.692  1.00  0.00     0.049 A 
ATOM     51  N   UNL A   1      44.092  34.729  29.553  1.00  0.00    -0.248 NA
ATOM     52  C   UNL A   1      42.015  33.853  29.338  1.00  0.00     0.031 C 
ATOM     53  C   UNL A   1      45.552  34.227  31.776  1.00  0.00     0.029 A 
ATOM     54  N   UNL A   1      45.594  32.160  32.584  1.00  0.00    -0.354 N 
ATOM     55  C   UNL A   1      43.330  35.701  28.936  1.00  0.00     0.074 A 
ATOM     56  C   UNL A   1      42.055  35.053  28.747  1.00  0.00     0.031 C 
ATOM     57  C   UNL A   1      46.560  34.190  32.647  1.00  0.00     0.029 A 
ATOM     58  C   UNL A   1      46.816  32.809  32.902  1.00  0.00     0.049 A 
ATOM     59  H   UNL A   1      45.308  31.286  32.939  1.00  0.00     0.167 HD
ATOM     60  C   UNL A   1      43.829  36.969  28.743  1.00  0.00     0.031 A 
ATOM     61  C   UNL A   1      48.026  32.244  32.637  1.00  0.00     0.031 A 
ATOM     62  C   UNL A   1      45.280  37.107  29.084  1.00  0.00     0.049 A 
ATOM     63  C   UNL A   1      48.658  32.886  31.400  1.00  0.00     0.074 A 
ATOM     64  C   UNL A   1      46.112  38.069  29.646  1.00  0.00     0.029 A 
ATOM     65  N   UNL A   1      46.126  36.012  28.892  1.00  0.00    -0.354 N 
ATOM     66  N   UNL A   1      48.411  34.110  30.977  1.00  0.00    -0.248 NA
ATOM     67  C   UNL A   1      49.522  32.169  30.469  1.00  0.00     0.031 C 
ATOM     68  C   UNL A   1      47.432  37.523  29.800  1.00  0.00     0.029 A 
ATOM     69  C   UNL A   1      47.432  36.246  29.277  1.00  0.00     0.049 A 
ATOM     70  H   UNL A   1      45.820  35.154  28.518  1.00  0.00     0.167 HD
ATOM     71  C   UNL A   1      48.822  34.251  29.677  1.00  0.00     0.074 A 
ATOM     72  C   UNL A   1      49.585  33.033  29.437  1.00  0.00     0.031 C 
ATOM     73  C   UNL A   1      48.446  35.281  28.847  1.00  0.00     0.031 A 
BRANCH  60  74
ATOM     74  C   UNL A   1      42.960  38.171  28.306  1.00  0.00    -0.014 A 
ATOM     75  C   UNL A   1      42.453  38.259  26.994  1.00  0.00     0.009 A 
ATOM     76  C   UNL A   1      42.629  39.276  29.118  1.00  0.00     0.009 A 
ATOM     77  C   UNL A   1      41.708  39.361  26.526  1.00  0.00     0.001 A 
ATOM     78  C   UNL A   1      41.851  40.365  28.676  1.00  0.00     0.001 A 
ATOM     79  C   UNL A   1      41.398  40.414  27.371  1.00  0.00     0.000 A 
ENDBRANCH  60  74
BRANCH  61  80
ATOM     80  C   UNL A   1      48.067  30.877  33.254  1.00  0.00    -0.014 A 
ATOM     81  C   UNL A   1      47.634  29.860  32.366  1.00  0.00     0.009 A 
ATOM     82  C   UNL A   1      49.090  30.550  34.163  1.00  0.00     0.009 A 
ATOM     83  C   UNL A   1      48.395  28.697  32.177  1.00  0.00     0.001 A 
ATOM     84  C   UNL A   1      49.843  29.375  33.975  1.00  0.00     0.001 A 
ATOM     85  C   UNL A   1      49.537  28.488  32.942  1.00  0.00     0.000 A 
ENDBRANCH  61  80
BRANCH  73  86
ATOM     86  C   UNL A   1      48.904  35.410  27.406  1.00  0.00    -0.014 A 
ATOM     87  C   UNL A   1      48.075  35.162  26.310  1.00  0.00     0.009 A 
ATOM     88  C   UNL A   1      50.256  35.714  27.113  1.00  0.00     0.009 A 
ATOM     89  C   UNL A   1      48.527  35.358  25.000  1.00  0.00     0.001 A 
ATOM     90  C   UNL A   1      50.724  35.877  25.810  1.00  0.00     0.001 A 
ATOM     91  C   UNL A   1      49.846  35.732  24.750  1.00  0.00     0.000 A 
ENDBRANCH  73  86
ENDBRANCH  47  48
ENDBRANCH  40  42
ENDBRANCH  39  40
ENDBRANCH  38  39
ENDBRANCH  37  38
ENDBRANCH  36  37
ENDBRANCH  35  36
ENDBRANCH  34  35
ENDBRANCH  33  34
ENDBRANCH   1  33
TORSDOF 25
ENDMDL
MODEL 3
REMARK VINA RESULT:      -6.3      7.749     12.574
REMARK SMILES Cc1cccc(-c2cc(OCC(=O)OCCOCCOCCOCCOC(=O)c3ccc(-c4c5nc(c(-c6ccccc6)c6ccc([nH]6)c(-c6ccccc6)c6nc(c(-c7ccccc7)c7ccc4[nH]7)C=C6)C=C5)cc3)nc(Nc3ccccc3C)n2)c1
REMARK SMILES IDX 19 1 18 2 17 3 16 4 15 5 14 6 12 7 13 8 11 9 10 10 9 11 7 12
REMARK SMILES IDX 8 13 87 14 78 15 77 16 6 17 1 18 2 19 3 20 88 21 4 22 5 23
REMARK SMILES IDX 79 24 80 26 81 27 85 28 82 29 84 30 86 31 83 32 20 33 21 34
REMARK SMILES IDX 22 35 23 36 24 37 25 38 26 39 27 40 28 41 29 42 30 43 76 44
REMARK SMILES IDX 31 45 75 46 32 47 33 48 34 49 69 50 35 51 74 52 68 53 70 54
REMARK SMILES IDX 36 55 73 56 67 57 66 58 37 60 59 61 44 62 58 63 45 64 48 65
REMARK SMILES IDX 57 66 71 67 46 68 47 69 56 71 72 72 49 73 38 74 39 75 43 76
REMARK SMILES IDX 40 77 42 78 41 79 60 80 61 81 65 82 62 83 64 84 63 85 50 86
REMARK SMILES IDX 51 87 55 88 52 89 54 90 53 91
REMARK H PARENT 79 25 70 59 48 70
REMARK Flexibility Score: inf
ROOT
ATOM      1  C   UNL A   1      50.520  21.366  41.792  1.00  0.00     0.188 C 
ENDROOT
BRANCH   1   2
ATOM      2  C   UNL A   1      51.245  20.077  42.184  1.00  0.00     0.188 C 
BRANCH   2   3
ATOM      3  O   UNL A   1      50.601  19.362  43.216  1.00  0.00    -0.376 OA
BRANCH   3   4
ATOM      4  C   UNL A   1      50.486  19.924  44.511  1.00  0.00     0.202 C 
BRANCH   4   5
ATOM      5  C   UNL A   1      49.503  19.240  45.464  1.00  0.00     0.261 C 
BRANCH   5   6
ATOM      6  O   UNL A   1      49.088  17.931  45.064  1.00  0.00    -0.461 OA
BRANCH   6   7
ATOM      7  C   UNL A   1      48.181  17.318  45.857  1.00  0.00     0.344 C 
ATOM      8  O   UNL A   1      47.418  17.896  46.629  1.00  0.00    -0.248 OA
BRANCH   7   9
ATOM      9  C   UNL A   1      48.182  15.804  45.604  1.00  0.00     0.353 C 
BRANCH   9  10
ATOM     10  O   UNL A   1      47.465  15.070  44.628  1.00  0.00    -0.466 OA
BRANCH  10  11
ATOM     11  C   UNL A   1      46.319  15.461  44.007  1.00  0.00     0.219 A 
ATOM     12  C   UNL A   1      44.965  16.341  42.313  1.00  0.00     0.080 A 
ATOM     13  C   UNL A   1      46.224  16.255  42.885  1.00  0.00     0.097 A 
ATOM     14  N   UNL A   1      43.876  15.789  42.897  1.00  0.00    -0.212 NA
ATOM     15  C   UNL A   1      44.041  15.019  43.977  1.00  0.00     0.231 A 
ATOM     16  N   UNL A   1      45.241  14.839  44.545  1.00  0.00    -0.177 NA
BRANCH  12  17
ATOM     17  C   UNL A   1      44.710  16.765  40.915  1.00  0.00     0.001 A 
ATOM     18  C   UNL A   1      46.587  18.859  38.305  1.00  0.00     0.044 C 
ATOM     19  C   UNL A   1      45.562  17.946  38.919  1.00  0.00    -0.050 A 
ATOM     20  C   UNL A   1      44.694  17.212  38.115  1.00  0.00     0.003 A 
ATOM     21  C   UNL A   1      45.503  17.762  40.309  1.00  0.00     0.013 A 
ATOM     22  C   UNL A   1      43.839  16.272  38.692  1.00  0.00     0.001 A 
ATOM     23  C   UNL A   1      43.866  16.033  40.073  1.00  0.00     0.010 A 
ENDBRANCH  12  17
BRANCH  15  24
ATOM     24  N   UNL A   1      42.958  14.248  44.440  1.00  0.00    -0.324 N 
ATOM     25  H   UNL A   1      42.232  14.735  44.891  1.00  0.00     0.170 HD
BRANCH  24  26
ATOM     26  C   UNL A   1      42.806  12.854  44.324  1.00  0.00     0.044 A 
ATOM     27  C   UNL A   1      42.084  12.356  43.226  1.00  0.00     0.026 A 
ATOM     28  C   UNL A   1      43.326  11.923  45.247  1.00  0.00    -0.027 A 
ATOM     29  C   UNL A   1      41.979  10.989  42.974  1.00  0.00     0.002 A 
ATOM     30  C   UNL A   1      43.298  10.548  44.928  1.00  0.00     0.005 A 
ATOM     31  C   UNL A   1      43.864  12.267  46.607  1.00  0.00     0.046 C 
ATOM     32  C   UNL A   1      42.638  10.086  43.794  1.00  0.00     0.000 A 
ENDBRANCH  24  26
ENDBRANCH  15  24
ENDBRANCH  10  11
ENDBRANCH   9  10
ENDBRANCH   7   9
ENDBRANCH   6   7
ENDBRANCH   5   6
ENDBRANCH   4   5
ENDBRANCH   3   4
ENDBRANCH   2   3
ENDBRANCH   1   2
BRANCH   1  33
ATOM     33  O   UNL A   1      51.241  22.242  40.937  1.00  0.00    -0.377 OA
BRANCH  33  34
ATOM     34  C   UNL A   1      50.486  23.290  40.368  1.00  0.00     0.188 C 
BRANCH  34  35
ATOM     35  C   UNL A   1      49.239  22.814  39.647  1.00  0.00     0.188 C 
BRANCH  35  36
ATOM     36  O   UNL A   1      48.432  23.773  39.004  1.00  0.00    -0.376 OA
BRANCH  36  37
ATOM     37  C   UNL A   1      47.105  23.956  39.486  1.00  0.00     0.202 C 
BRANCH  37  38
ATOM     38  C   UNL A   1      46.257  25.113  38.906  1.00  0.00     0.261 C 
BRANCH  38  39
ATOM     39  O   UNL A   1      45.077  24.669  38.192  1.00  0.00    -0.460 OA
BRANCH  39  40
ATOM     40  C   UNL A   1      44.845  25.310  36.995  1.00  0.00     0.338 C 
ATOM     41  O   UNL A   1      45.573  25.244  36.015  1.00  0.00    -0.246 OA
BRANCH  40  42
ATOM     42  C   UNL A   1      43.832  26.417  37.196  1.00  0.00     0.060 A 
ATOM     43  C   UNL A   1      42.479  26.110  36.958  1.00  0.00     0.016 A 
ATOM     44  C   UNL A   1      44.251  27.739  37.055  1.00  0.00     0.016 A 
ATOM     45  C   UNL A   1      41.633  27.049  36.330  1.00  0.00     0.010 A 
ATOM     46  C   UNL A   1      43.443  28.609  36.315  1.00  0.00     0.010 A 
ATOM     47  C   UNL A   1      42.149  28.266  35.866  1.00  0.00    -0.014 A 
BRANCH  47  48
ATOM     48  C   UNL A   1      41.555  29.042  34.721  1.00  0.00     0.031 A 
ATOM     49  C   UNL A   1      41.862  28.715  33.271  1.00  0.00     0.074 A 
ATOM     50  C   UNL A   1      40.496  29.878  34.933  1.00  0.00     0.049 A 
ATOM     51  N   UNL A   1      41.395  29.352  32.239  1.00  0.00    -0.248 NA
ATOM     52  C   UNL A   1      42.746  27.637  32.841  1.00  0.00     0.031 C 
ATOM     53  C   UNL A   1      39.488  30.240  33.942  1.00  0.00     0.029 A 
ATOM     54  N   UNL A   1      40.006  30.497  36.086  1.00  0.00    -0.354 N 
ATOM     55  C   UNL A   1      41.583  28.596  31.099  1.00  0.00     0.074 A 
ATOM     56  C   UNL A   1      42.517  27.581  31.524  1.00  0.00     0.031 C 
ATOM     57  C   UNL A   1      38.506  30.965  34.476  1.00  0.00     0.029 A 
ATOM     58  C   UNL A   1      38.991  31.426  35.737  1.00  0.00     0.049 A 
ATOM     59  H   UNL A   1      40.316  30.315  37.003  1.00  0.00     0.167 HD
ATOM     60  C   UNL A   1      40.859  28.852  29.957  1.00  0.00     0.031 A 
ATOM     61  C   UNL A   1      39.097  32.753  36.021  1.00  0.00     0.031 A 
ATOM     62  C   UNL A   1      40.033  30.098  30.031  1.00  0.00     0.049 A 
ATOM     63  C   UNL A   1      39.468  33.543  34.764  1.00  0.00     0.074 A 
ATOM     64  C   UNL A   1      38.790  30.530  29.579  1.00  0.00     0.029 A 
ATOM     65  N   UNL A   1      40.500  31.174  30.790  1.00  0.00    -0.354 N 
ATOM     66  N   UNL A   1      39.195  33.167  33.530  1.00  0.00    -0.248 NA
ATOM     67  C   UNL A   1      40.282  34.753  34.781  1.00  0.00     0.031 C 
ATOM     68  C   UNL A   1      38.530  31.846  30.095  1.00  0.00     0.029 A 
ATOM     69  C   UNL A   1      39.636  32.252  30.814  1.00  0.00     0.049 A 
ATOM     70  H   UNL A   1      41.363  31.165  31.263  1.00  0.00     0.167 HD
ATOM     71  C   UNL A   1      39.967  33.870  32.642  1.00  0.00     0.074 A 
ATOM     72  C   UNL A   1      40.567  34.906  33.473  1.00  0.00     0.031 C 
ATOM     73  C   UNL A   1      40.156  33.522  31.326  1.00  0.00     0.031 A 
BRANCH  60  74
ATOM     74  C   UNL A   1      40.818  27.899  28.740  1.00  0.00    -0.014 A 
ATOM     75  C   UNL A   1      40.367  26.570  28.877  1.00  0.00     0.009 A 
ATOM     76  C   UNL A   1      41.243  28.223  27.435  1.00  0.00     0.009 A 
ATOM     77  C   UNL A   1      40.367  25.642  27.815  1.00  0.00     0.001 A 
ATOM     78  C   UNL A   1      41.211  27.318  26.355  1.00  0.00     0.001 A 
ATOM     79  C   UNL A   1      40.781  26.018  26.547  1.00  0.00     0.000 A 
ENDBRANCH  60  74
BRANCH  61  80
ATOM     80  C   UNL A   1      39.370  32.913  37.488  1.00  0.00    -0.014 A 
ATOM     81  C   UNL A   1      40.438  33.810  37.753  1.00  0.00     0.009 A 
ATOM     82  C   UNL A   1      38.305  32.888  38.406  1.00  0.00     0.009 A 
ATOM     83  C   UNL A   1      40.295  34.841  38.692  1.00  0.00     0.001 A 
ATOM     84  C   UNL A   1      38.174  33.920  39.355  1.00  0.00     0.001 A 
ATOM     85  C   UNL A   1      39.132  34.930  39.448  1.00  0.00     0.000 A 
ENDBRANCH  61  80
BRANCH  73  86
ATOM     86  C   UNL A   1      41.026  34.309  30.363  1.00  0.00    -0.014 A 
ATOM     87  C   UNL A   1      42.408  34.440  30.507  1.00  0.00     0.009 A 
ATOM     88  C   UNL A   1      40.434  35.031  29.297  1.00  0.00     0.009 A 
ATOM     89  C   UNL A   1      43.175  35.123  29.555  1.00  0.00     0.001 A 
ATOM     90  C   UNL A   1      41.188  35.744  28.365  1.00  0.00     0.001 A 
ATOM     91  C   UNL A   1      42.567  35.760  28.476  1.00  0.00     0.000 A 
ENDBRANCH  73  86
ENDBRANCH  47  48
ENDBRANCH  40  42
ENDBRANCH  39  40
ENDBRANCH  38  39
ENDBRANCH  37  38
ENDBRANCH  36  37
ENDBRANCH  35  36
ENDBRANCH  34  35
ENDBRANCH  33  34
ENDBRANCH   1  33
TORSDOF 25
ENDMDL
