MODEL 1
REMARK VINA RESULT:      -9.4      0.000      0.000
REMARK SMILES CCN(CC)S(=O)(=O)c1cccc(C(=O)N2C[C@H](O)C[C@H]2C(=O)OCCOCCOCCOCCOC(=O)c2ccc(-c3c4nc(c(-c5ccccc5)c5ccc([nH]5)c(-c5ccccc5)c5nc(c(-c6ccccc6)c6ccc3[nH]6)C=C5)C=C4)cc2)c1
REMARK SMILES IDX 28 1 27 2 26 3 25 4 24 5 22 6 23 7 21 8 16 9 17 10 18 11
REMARK SMILES IDX 20 12 14 13 15 14 13 15 9 16 10 17 87 18 11 19 12 20 6 21
REMARK SMILES IDX 7 22 8 23 3 24 2 25 1 26 4 27 5 28 19 29 29 31 30 32 31 33
REMARK SMILES IDX 32 34 33 35 34 36 35 37 36 38 37 39 38 40 39 41 40 42 86 43
REMARK SMILES IDX 41 44 85 45 42 46 43 47 44 48 79 49 45 50 84 51 78 52 80 53
REMARK SMILES IDX 46 54 83 55 77 56 76 57 47 59 69 60 54 61 68 62 55 63 58 64
REMARK SMILES IDX 67 65 81 66 56 67 57 68 66 70 82 71 59 72 48 73 49 74 53 75
REMARK SMILES IDX 50 76 52 77 51 78 70 79 71 80 75 81 72 82 74 83 73 84 60 85
REMARK SMILES IDX 61 86 65 87 62 88 64 89 63 90
REMARK H PARENT 19 30 80 58 58 69
REMARK Flexibility Score: inf
ROOT
ATOM      1  C   UNL A   1      34.486  31.294  27.752  1.00  0.00     0.188 C 
ENDROOT
BRANCH   1   2
ATOM      2  O   UNL A   1      33.126  31.193  27.368  1.00  0.00    -0.376 OA
BRANCH   2   3
ATOM      3  C   UNL A   1      32.556  29.913  27.110  1.00  0.00     0.202 C 
BRANCH   3   4
ATOM      4  C   UNL A   1      33.355  28.630  27.398  1.00  0.00     0.261 C 
BRANCH   4   5
ATOM      5  O   UNL A   1      34.221  28.188  26.320  1.00  0.00    -0.462 OA
BRANCH   5   6
ATOM      6  C   UNL A   1      33.827  27.048  25.709  1.00  0.00     0.329 C 
ATOM      7  O   UNL A   1      33.856  25.944  26.261  1.00  0.00    -0.250 OA
BRANCH   6   8
ATOM      8  C   UNL A   1      33.273  27.144  24.272  1.00  0.00     0.198 C 
ATOM      9  N   UNL A   1      31.908  27.346  23.744  1.00  0.00    -0.322 N 
ATOM     10  C   UNL A   1      31.816  28.523  22.893  1.00  0.00     0.152 C 
ATOM     11  C   UNL A   1      33.255  28.789  22.481  1.00  0.00     0.136 C 
ATOM     12  C   UNL A   1      34.032  28.380  23.711  1.00  0.00     0.071 C 
BRANCH   9  13
ATOM     13  C   UNL A   1      30.840  26.489  23.891  1.00  0.00     0.254 C 
ATOM     14  O   UNL A   1      29.772  26.740  23.338  1.00  0.00    -0.269 OA
BRANCH  13  15
ATOM     15  C   UNL A   1      31.007  25.172  24.625  1.00  0.00     0.041 A 
ATOM     16  C   UNL A   1      31.798  22.876  24.916  1.00  0.00     0.083 A 
ATOM     17  C   UNL A   1      31.104  22.767  26.125  1.00  0.00     0.022 A 
ATOM     18  C   UNL A   1      31.766  24.080  24.177  1.00  0.00     0.035 A 
ATOM     19  C   UNL A   1      30.341  23.841  26.574  1.00  0.00     0.002 A 
ATOM     20  C   UNL A   1      30.279  25.017  25.817  1.00  0.00     0.014 A 
BRANCH  16  21
ATOM     21  S   UNL A   1      32.414  21.368  24.156  1.00  0.00     0.243 S 
ATOM     22  O   UNL A   1      32.072  21.443  22.748  1.00  0.00    -0.207 OA
ATOM     23  O   UNL A   1      31.925  20.272  24.958  1.00  0.00    -0.207 OA
BRANCH  21  24
ATOM     24  N   UNL A   1      34.125  21.397  24.298  1.00  0.00    -0.198 NA
BRANCH  24  25
ATOM     25  C   UNL A   1      34.751  22.692  23.846  1.00  0.00     0.099 C 
ATOM     26  C   UNL A   1      36.229  22.578  23.533  1.00  0.00     0.022 C 
ENDBRANCH  24  25
BRANCH  24  27
ATOM     27  C   UNL A   1      34.721  20.959  25.595  1.00  0.00     0.099 C 
ATOM     28  C   UNL A   1      34.678  22.019  26.682  1.00  0.00     0.022 C 
ENDBRANCH  24  27
ENDBRANCH  21  24
ENDBRANCH  16  21
ENDBRANCH  13  15
ENDBRANCH   9  13
BRANCH  11  29
ATOM     29  O   UNL A   1      33.654  27.971  21.388  1.00  0.00    -0.391 OA
ATOM     30  H   UNL A   1      34.055  28.525  20.699  1.00  0.00     0.211 HD
ENDBRANCH  11  29
ENDBRANCH   6   8
ENDBRANCH   5   6
ENDBRANCH   4   5
ENDBRANCH   3   4
ENDBRANCH   2   3
ENDBRANCH   1   2
BRANCH   1  31
ATOM     31  C   UNL A   1      34.795  31.973  29.088  1.00  0.00     0.188 C 
BRANCH  31  32
ATOM     32  O   UNL A   1      33.928  33.031  29.460  1.00  0.00    -0.377 OA
BRANCH  32  33
ATOM     33  C   UNL A   1      33.845  34.196  28.634  1.00  0.00     0.188 C 
BRANCH  33  34
ATOM     34  C   UNL A   1      33.057  35.401  29.159  1.00  0.00     0.188 C 
BRANCH  34  35
ATOM     35  O   UNL A   1      33.630  36.114  30.260  1.00  0.00    -0.376 OA
BRANCH  35  36
ATOM     36  C   UNL A   1      32.745  36.656  31.236  1.00  0.00     0.202 C 
BRANCH  36  37
ATOM     37  C   UNL A   1      32.367  35.700  32.368  1.00  0.00     0.261 C 
BRANCH  37  38
ATOM     38  O   UNL A   1      33.282  34.595  32.479  1.00  0.00    -0.460 OA
BRANCH  38  39
ATOM     39  C   UNL A   1      34.471  34.897  33.051  1.00  0.00     0.338 C 
ATOM     40  O   UNL A   1      34.690  35.769  33.876  1.00  0.00    -0.246 OA
BRANCH  39  41
ATOM     41  C   UNL A   1      35.509  33.935  32.634  1.00  0.00     0.060 A 
ATOM     42  C   UNL A   1      35.500  32.671  33.239  1.00  0.00     0.016 A 
ATOM     43  C   UNL A   1      36.542  34.296  31.765  1.00  0.00     0.016 A 
ATOM     44  C   UNL A   1      36.557  31.789  33.031  1.00  0.00     0.010 A 
ATOM     45  C   UNL A   1      37.608  33.413  31.564  1.00  0.00     0.010 A 
ATOM     46  C   UNL A   1      37.642  32.177  32.234  1.00  0.00    -0.014 A 
BRANCH  46  47
ATOM     47  C   UNL A   1      38.885  31.372  32.266  1.00  0.00     0.031 A 
ATOM     48  C   UNL A   1      39.885  31.637  33.360  1.00  0.00     0.074 A 
ATOM     49  C   UNL A   1      39.094  30.382  31.380  1.00  0.00     0.049 A 
ATOM     50  N   UNL A   1      41.038  31.061  33.587  1.00  0.00    -0.248 NA
ATOM     51  C   UNL A   1      39.533  32.684  34.333  1.00  0.00     0.031 C 
ATOM     52  C   UNL A   1      38.171  29.987  30.317  1.00  0.00     0.029 A 
ATOM     53  N   UNL A   1      40.156  29.524  31.244  1.00  0.00    -0.354 N 
ATOM     54  C   UNL A   1      41.544  31.671  34.729  1.00  0.00     0.074 A 
ATOM     55  C   UNL A   1      40.591  32.682  35.130  1.00  0.00     0.031 C 
ATOM     56  C   UNL A   1      38.710  28.961  29.635  1.00  0.00     0.029 A 
ATOM     57  C   UNL A   1      40.025  28.652  30.193  1.00  0.00     0.049 A 
ATOM     58  H   UNL A   1      40.937  29.534  31.843  1.00  0.00     0.167 HD
ATOM     59  C   UNL A   1      42.694  31.408  35.392  1.00  0.00     0.031 A 
ATOM     60  C   UNL A   1      40.880  27.721  29.727  1.00  0.00     0.031 A 
ATOM     61  C   UNL A   1      43.655  30.421  34.982  1.00  0.00     0.049 A 
ATOM     62  C   UNL A   1      42.204  27.526  30.418  1.00  0.00     0.074 A 
ATOM     63  C   UNL A   1      44.865  30.096  35.570  1.00  0.00     0.029 A 
ATOM     64  N   UNL A   1      43.514  29.600  33.875  1.00  0.00    -0.354 N 
ATOM     65  N   UNL A   1      42.671  28.109  31.495  1.00  0.00    -0.248 NA
ATOM     66  C   UNL A   1      43.118  26.536  29.826  1.00  0.00     0.031 C 
ATOM     67  C   UNL A   1      45.476  29.107  34.792  1.00  0.00     0.029 A 
ATOM     68  C   UNL A   1      44.622  28.781  33.751  1.00  0.00     0.049 A 
ATOM     69  H   UNL A   1      42.740  29.600  33.266  1.00  0.00     0.167 HD
ATOM     70  C   UNL A   1      43.915  27.536  31.728  1.00  0.00     0.074 A 
ATOM     71  C   UNL A   1      44.126  26.551  30.688  1.00  0.00     0.031 C 
ATOM     72  C   UNL A   1      44.806  27.801  32.715  1.00  0.00     0.031 A 
BRANCH  59  73
ATOM     73  C   UNL A   1      42.985  32.220  36.620  1.00  0.00    -0.014 A 
ATOM     74  C   UNL A   1      42.592  31.774  37.893  1.00  0.00     0.009 A 
ATOM     75  C   UNL A   1      43.687  33.430  36.510  1.00  0.00     0.009 A 
ATOM     76  C   UNL A   1      42.877  32.537  39.027  1.00  0.00     0.001 A 
ATOM     77  C   UNL A   1      43.991  34.178  37.648  1.00  0.00     0.001 A 
ATOM     78  C   UNL A   1      43.580  33.735  38.905  1.00  0.00     0.000 A 
ENDBRANCH  59  73
BRANCH  60  79
ATOM     79  C   UNL A   1      40.536  26.915  28.526  1.00  0.00    -0.014 A 
ATOM     80  C   UNL A   1      39.731  25.770  28.638  1.00  0.00     0.009 A 
ATOM     81  C   UNL A   1      41.053  27.260  27.268  1.00  0.00     0.009 A 
ATOM     82  C   UNL A   1      39.481  24.970  27.521  1.00  0.00     0.001 A 
ATOM     83  C   UNL A   1      40.777  26.474  26.147  1.00  0.00     0.001 A 
ATOM     84  C   UNL A   1      40.000  25.324  26.276  1.00  0.00     0.000 A 
ENDBRANCH  60  79
BRANCH  72  85
ATOM     85  C   UNL A   1      46.064  26.980  32.743  1.00  0.00    -0.014 A 
ATOM     86  C   UNL A   1      47.214  27.383  32.046  1.00  0.00     0.009 A 
ATOM     87  C   UNL A   1      46.110  25.808  33.514  1.00  0.00     0.009 A 
ATOM     88  C   UNL A   1      48.374  26.608  32.094  1.00  0.00     0.001 A 
ATOM     89  C   UNL A   1      47.280  25.050  33.582  1.00  0.00     0.001 A 
ATOM     90  C   UNL A   1      48.407  25.446  32.865  1.00  0.00     0.000 A 
ENDBRANCH  72  85
ENDBRANCH  46  47
ENDBRANCH  39  41
ENDBRANCH  38  39
ENDBRANCH  37  38
ENDBRANCH  36  37
ENDBRANCH  35  36
ENDBRANCH  34  35
ENDBRANCH  33  34
ENDBRANCH  32  33
ENDBRANCH  31  32
ENDBRANCH   1  31
TORSDOF 27
ENDMDL
MODEL 2
REMARK VINA RESULT:      -8.5      1.212      5.709
REMARK SMILES CCN(CC)S(=O)(=O)c1cccc(C(=O)N2C[C@H](O)C[C@H]2C(=O)OCCOCCOCCOCCOC(=O)c2ccc(-c3c4nc(c(-c5ccccc5)c5ccc([nH]5)c(-c5ccccc5)c5nc(c(-c6ccccc6)c6ccc3[nH]6)C=C5)C=C4)cc2)c1
REMARK SMILES IDX 28 1 27 2 26 3 25 4 24 5 22 6 23 7 21 8 16 9 17 10 18 11
REMARK SMILES IDX 20 12 14 13 15 14 13 15 9 16 10 17 87 18 11 19 12 20 6 21
REMARK SMILES IDX 7 22 8 23 3 24 2 25 1 26 4 27 5 28 19 29 29 31 30 32 31 33
REMARK SMILES IDX 32 34 33 35 34 36 35 37 36 38 37 39 38 40 39 41 40 42 86 43
REMARK SMILES IDX 41 44 85 45 42 46 43 47 44 48 79 49 45 50 84 51 78 52 80 53
REMARK SMILES IDX 46 54 83 55 77 56 76 57 47 59 69 60 54 61 68 62 55 63 58 64
REMARK SMILES IDX 67 65 81 66 56 67 57 68 66 70 82 71 59 72 48 73 49 74 53 75
REMARK SMILES IDX 50 76 52 77 51 78 70 79 71 80 75 81 72 82 74 83 73 84 60 85
REMARK SMILES IDX 61 86 65 87 62 88 64 89 63 90
REMARK H PARENT 19 30 80 58 58 69
REMARK Flexibility Score: inf
ROOT
ATOM      1  C   UNL A   1      33.621  31.002  27.253  1.00  0.00     0.188 C 
ENDROOT
BRANCH   1   2
ATOM      2  O   UNL A   1      32.683  30.003  27.615  1.00  0.00    -0.376 OA
BRANCH   2   3
ATOM      3  C   UNL A   1      32.781  28.700  27.047  1.00  0.00     0.202 C 
BRANCH   3   4
ATOM      4  C   UNL A   1      34.106  28.213  26.435  1.00  0.00     0.261 C 
BRANCH   4   5
ATOM      5  O   UNL A   1      34.163  28.241  24.985  1.00  0.00    -0.462 OA
BRANCH   5   6
ATOM      6  C   UNL A   1      33.687  27.131  24.377  1.00  0.00     0.329 C 
ATOM      7  O   UNL A   1      34.297  26.058  24.362  1.00  0.00    -0.250 OA
BRANCH   6   8
ATOM      8  C   UNL A   1      32.294  27.202  23.715  1.00  0.00     0.198 C 
ATOM      9  N   UNL A   1      30.927  27.049  24.254  1.00  0.00    -0.322 N 
ATOM     10  C   UNL A   1      30.106  28.226  24.013  1.00  0.00     0.152 C 
ATOM     11  C   UNL A   1      30.815  28.938  22.871  1.00  0.00     0.136 C 
ATOM     12  C   UNL A   1      32.272  28.654  23.159  1.00  0.00     0.071 C 
BRANCH   9  13
ATOM     13  C   UNL A   1      30.391  25.908  24.809  1.00  0.00     0.254 C 
ATOM     14  O   UNL A   1      29.306  25.958  25.382  1.00  0.00    -0.269 OA
BRANCH  13  15
ATOM     15  C   UNL A   1      31.068  24.566  24.609  1.00  0.00     0.041 A 
ATOM     16  C   UNL A   1      32.567  22.724  25.196  1.00  0.00     0.083 A 
ATOM     17  C   UNL A   1      32.294  22.086  23.982  1.00  0.00     0.022 A 
ATOM     18  C   UNL A   1      31.943  23.950  25.518  1.00  0.00     0.035 A 
ATOM     19  C   UNL A   1      31.435  22.692  23.070  1.00  0.00     0.002 A 
ATOM     20  C   UNL A   1      30.851  23.927  23.375  1.00  0.00     0.014 A 
BRANCH  16  21
ATOM     21  S   UNL A   1      33.977  22.152  26.153  1.00  0.00     0.243 S 
ATOM     22  O   UNL A   1      34.044  20.713  25.972  1.00  0.00    -0.207 OA
ATOM     23  O   UNL A   1      33.828  22.704  27.478  1.00  0.00    -0.207 OA
BRANCH  21  24
ATOM     24  N   UNL A   1      35.378  22.850  25.448  1.00  0.00    -0.198 NA
BRANCH  24  25
ATOM     25  C   UNL A   1      36.473  23.152  26.441  1.00  0.00     0.099 C 
ATOM     26  C   UNL A   1      37.702  23.783  25.820  1.00  0.00     0.022 C 
ENDBRANCH  24  25
BRANCH  24  27
ATOM     27  C   UNL A   1      35.946  22.191  24.235  1.00  0.00     0.099 C 
ATOM     28  C   UNL A   1      35.713  22.964  22.948  1.00  0.00     0.022 C 
ENDBRANCH  24  27
ENDBRANCH  21  24
ENDBRANCH  16  21
ENDBRANCH  13  15
ENDBRANCH   9  13
BRANCH  11  29
ATOM     29  O   UNL A   1      30.475  28.382  21.607  1.00  0.00    -0.391 OA
ATOM     30  H   UNL A   1      31.163  27.752  21.336  1.00  0.00     0.211 HD
ENDBRANCH  11  29
ENDBRANCH   6   8
ENDBRANCH   5   6
ENDBRANCH   4   5
ENDBRANCH   3   4
ENDBRANCH   2   3
ENDBRANCH   1   2
BRANCH   1  31
ATOM     31  C   UNL A   1      34.512  31.569  28.360  1.00  0.00     0.188 C 
BRANCH  31  32
ATOM     32  O   UNL A   1      33.995  32.689  29.058  1.00  0.00    -0.377 OA
BRANCH  32  33
ATOM     33  C   UNL A   1      34.037  33.981  28.444  1.00  0.00     0.188 C 
BRANCH  33  34
ATOM     34  C   UNL A   1      33.161  35.092  29.035  1.00  0.00     0.188 C 
BRANCH  34  35
ATOM     35  O   UNL A   1      33.826  36.086  29.820  1.00  0.00    -0.376 OA
BRANCH  35  36
ATOM     36  C   UNL A   1      33.079  36.739  30.842  1.00  0.00     0.202 C 
BRANCH  36  37
ATOM     37  C   UNL A   1      32.517  35.813  31.922  1.00  0.00     0.261 C 
BRANCH  37  38
ATOM     38  O   UNL A   1      33.404  34.722  32.223  1.00  0.00    -0.460 OA
BRANCH  38  39
ATOM     39  C   UNL A   1      34.457  35.046  33.010  1.00  0.00     0.338 C 
ATOM     40  O   UNL A   1      34.490  35.902  33.879  1.00  0.00    -0.246 OA
BRANCH  39  41
ATOM     41  C   UNL A   1      35.588  34.127  32.771  1.00  0.00     0.060 A 
ATOM     42  C   UNL A   1      35.587  32.908  33.460  1.00  0.00     0.016 A 
ATOM     43  C   UNL A   1      36.685  34.497  31.988  1.00  0.00     0.016 A 
ATOM     44  C   UNL A   1      36.709  32.085  33.425  1.00  0.00     0.010 A 
ATOM     45  C   UNL A   1      37.815  33.674  31.961  1.00  0.00     0.010 A 
ATOM     46  C   UNL A   1      37.848  32.489  32.717  1.00  0.00    -0.014 A 
BRANCH  46  47
ATOM     47  C   UNL A   1      39.125  31.770  32.933  1.00  0.00     0.031 A 
ATOM     48  C   UNL A   1      39.546  30.732  31.927  1.00  0.00     0.074 A 
ATOM     49  C   UNL A   1      39.928  32.078  33.967  1.00  0.00     0.049 A 
ATOM     50  N   UNL A   1      40.616  29.979  31.910  1.00  0.00    -0.248 NA
ATOM     51  C   UNL A   1      38.643  30.521  30.783  1.00  0.00     0.031 C 
ATOM     52  C   UNL A   1      39.662  33.108  34.970  1.00  0.00     0.029 A 
ATOM     53  N   UNL A   1      41.138  31.549  34.337  1.00  0.00    -0.354 N 
ATOM     54  C   UNL A   1      40.518  29.213  30.755  1.00  0.00     0.074 A 
ATOM     55  C   UNL A   1      39.270  29.566  30.114  1.00  0.00     0.031 C 
ATOM     56  C   UNL A   1      40.683  33.136  35.844  1.00  0.00     0.029 A 
ATOM     57  C   UNL A   1      41.654  32.106  35.481  1.00  0.00     0.049 A 
ATOM     58  H   UNL A   1      41.593  30.838  33.831  1.00  0.00     0.167 HD
ATOM     59  C   UNL A   1      41.391  28.303  30.264  1.00  0.00     0.031 A 
ATOM     60  C   UNL A   1      42.775  31.803  36.164  1.00  0.00     0.031 A 
ATOM     61  C   UNL A   1      42.620  27.932  30.911  1.00  0.00     0.049 A 
ATOM     62  C   UNL A   1      43.674  30.707  35.654  1.00  0.00     0.074 A 
ATOM     63  C   UNL A   1      43.562  27.001  30.508  1.00  0.00     0.029 A 
ATOM     64  N   UNL A   1      43.075  28.475  32.101  1.00  0.00    -0.354 N 
ATOM     65  N   UNL A   1      43.570  29.989  34.562  1.00  0.00    -0.248 NA
ATOM     66  C   UNL A   1      44.852  30.384  36.475  1.00  0.00     0.031 C 
ATOM     67  C   UNL A   1      44.567  26.951  31.480  1.00  0.00     0.029 A 
ATOM     68  C   UNL A   1      44.276  27.887  32.458  1.00  0.00     0.049 A 
ATOM     69  H   UNL A   1      42.614  29.175  32.617  1.00  0.00     0.167 HD
ATOM     70  C   UNL A   1      44.680  29.155  34.549  1.00  0.00     0.074 A 
ATOM     71  C   UNL A   1      45.453  29.464  35.734  1.00  0.00     0.031 C 
ATOM     72  C   UNL A   1      45.032  28.216  33.636  1.00  0.00     0.031 A 
BRANCH  59  73
ATOM     73  C   UNL A   1      41.033  27.629  28.971  1.00  0.00    -0.014 A 
ATOM     74  C   UNL A   1      41.484  28.134  27.741  1.00  0.00     0.009 A 
ATOM     75  C   UNL A   1      40.262  26.456  28.984  1.00  0.00     0.009 A 
ATOM     76  C   UNL A   1      41.150  27.491  26.548  1.00  0.00     0.001 A 
ATOM     77  C   UNL A   1      39.948  25.803  27.791  1.00  0.00     0.001 A 
ATOM     78  C   UNL A   1      40.387  26.324  26.574  1.00  0.00     0.000 A 
ENDBRANCH  59  73
BRANCH  60  79
ATOM     79  C   UNL A   1      43.108  32.521  37.422  1.00  0.00    -0.014 A 
ATOM     80  C   UNL A   1      42.632  32.059  38.659  1.00  0.00     0.009 A 
ATOM     81  C   UNL A   1      43.864  33.703  37.386  1.00  0.00     0.009 A 
ATOM     82  C   UNL A   1      42.877  32.785  39.827  1.00  0.00     0.001 A 
ATOM     83  C   UNL A   1      44.133  34.410  38.559  1.00  0.00     0.001 A 
ATOM     84  C   UNL A   1      43.630  33.957  39.777  1.00  0.00     0.000 A 
ENDBRANCH  60  79
BRANCH  72  85
ATOM     85  C   UNL A   1      46.329  27.492  33.861  1.00  0.00    -0.014 A 
ATOM     86  C   UNL A   1      46.375  26.278  34.563  1.00  0.00     0.009 A 
ATOM     87  C   UNL A   1      47.517  28.015  33.323  1.00  0.00     0.009 A 
ATOM     88  C   UNL A   1      47.592  25.619  34.751  1.00  0.00     0.001 A 
ATOM     89  C   UNL A   1      48.727  27.340  33.490  1.00  0.00     0.001 A 
ATOM     90  C   UNL A   1      48.764  26.148  34.211  1.00  0.00     0.000 A 
ENDBRANCH  72  85
ENDBRANCH  46  47
ENDBRANCH  39  41
ENDBRANCH  38  39
ENDBRANCH  37  38
ENDBRANCH  36  37
ENDBRANCH  35  36
ENDBRANCH  34  35
ENDBRANCH  33  34
ENDBRANCH  32  33
ENDBRANCH  31  32
ENDBRANCH   1  31
TORSDOF 27
ENDMDL
MODEL 3
REMARK VINA RESULT:      -8.2      6.549      9.755
REMARK SMILES CCN(CC)S(=O)(=O)c1cccc(C(=O)N2C[C@H](O)C[C@H]2C(=O)OCCOCCOCCOCCOC(=O)c2ccc(-c3c4nc(c(-c5ccccc5)c5ccc([nH]5)c(-c5ccccc5)c5nc(c(-c6ccccc6)c6ccc3[nH]6)C=C5)C=C4)cc2)c1
REMARK SMILES IDX 28 1 27 2 26 3 25 4 24 5 22 6 23 7 21 8 16 9 17 10 18 11
REMARK SMILES IDX 20 12 14 13 15 14 13 15 9 16 10 17 87 18 11 19 12 20 6 21
REMARK SMILES IDX 7 22 8 23 3 24 2 25 1 26 4 27 5 28 19 29 29 31 30 32 31 33
REMARK SMILES IDX 32 34 33 35 34 36 35 37 36 38 37 39 38 40 39 41 40 42 86 43
REMARK SMILES IDX 41 44 85 45 42 46 43 47 44 48 79 49 45 50 84 51 78 52 80 53
REMARK SMILES IDX 46 54 83 55 77 56 76 57 47 59 69 60 54 61 68 62 55 63 58 64
REMARK SMILES IDX 67 65 81 66 56 67 57 68 66 70 82 71 59 72 48 73 49 74 53 75
REMARK SMILES IDX 50 76 52 77 51 78 70 79 71 80 75 81 72 82 74 83 73 84 60 85
REMARK SMILES IDX 61 86 65 87 62 88 64 89 63 90
REMARK H PARENT 19 30 80 58 58 69
REMARK Flexibility Score: inf
ROOT
ATOM      1  C   UNL A   1      36.483  30.938  28.094  1.00  0.00     0.188 C 
ENDROOT
BRANCH   1   2
ATOM      2  O   UNL A   1      35.277  30.569  27.448  1.00  0.00    -0.376 OA
BRANCH   2   3
ATOM      3  C   UNL A   1      34.777  29.241  27.586  1.00  0.00     0.202 C 
BRANCH   3   4
ATOM      4  C   UNL A   1      33.906  28.618  26.482  1.00  0.00     0.261 C 
BRANCH   4   5
ATOM      5  O   UNL A   1      33.378  29.556  25.508  1.00  0.00    -0.462 OA
BRANCH   5   6
ATOM      6  C   UNL A   1      32.328  29.097  24.790  1.00  0.00     0.329 C 
ATOM      7  O   UNL A   1      31.262  29.710  24.690  1.00  0.00    -0.250 OA
BRANCH   6   8
ATOM      8  C   UNL A   1      32.495  27.767  24.022  1.00  0.00     0.198 C 
ATOM      9  N   UNL A   1      31.521  26.756  23.563  1.00  0.00    -0.322 N 
ATOM     10  C   UNL A   1      31.579  26.550  22.124  1.00  0.00     0.152 C 
ATOM     11  C   UNL A   1      32.949  27.083  21.734  1.00  0.00     0.136 C 
ATOM     12  C   UNL A   1      33.137  28.241  22.688  1.00  0.00     0.071 C 
BRANCH   9  13
ATOM     13  C   UNL A   1      30.722  25.969  24.363  1.00  0.00     0.254 C 
ATOM     14  O   UNL A   1      29.506  26.140  24.370  1.00  0.00    -0.269 OA
BRANCH  13  15
ATOM     15  C   UNL A   1      31.316  24.810  25.139  1.00  0.00     0.041 A 
ATOM     16  C   UNL A   1      32.938  23.032  25.583  1.00  0.00     0.083 A 
ATOM     17  C   UNL A   1      32.192  22.598  26.684  1.00  0.00     0.022 A 
ATOM     18  C   UNL A   1      32.512  24.145  24.823  1.00  0.00     0.035 A 
ATOM     19  C   UNL A   1      31.001  23.244  26.999  1.00  0.00     0.002 A 
ATOM     20  C   UNL A   1      30.562  24.320  26.219  1.00  0.00     0.014 A 
BRANCH  16  21
ATOM     21  S   UNL A   1      34.219  21.944  24.947  1.00  0.00     0.243 S 
ATOM     22  O   UNL A   1      34.984  21.490  26.094  1.00  0.00    -0.207 OA
ATOM     23  O   UNL A   1      34.877  22.659  23.881  1.00  0.00    -0.207 OA
BRANCH  21  24
ATOM     24  N   UNL A   1      33.426  20.586  24.256  1.00  0.00    -0.198 NA
BRANCH  24  25
ATOM     25  C   UNL A   1      33.410  19.371  25.149  1.00  0.00     0.099 C 
ATOM     26  C   UNL A   1      33.167  18.072  24.407  1.00  0.00     0.022 C 
ENDBRANCH  24  25
BRANCH  24  27
ATOM     27  C   UNL A   1      32.078  20.804  23.653  1.00  0.00     0.099 C 
ATOM     28  C   UNL A   1      32.067  20.754  22.135  1.00  0.00     0.022 C 
ENDBRANCH  24  27
ENDBRANCH  21  24
ENDBRANCH  16  21
ENDBRANCH  13  15
ENDBRANCH   9  13
BRANCH  11  29
ATOM     29  O   UNL A   1      33.975  26.125  21.960  1.00  0.00    -0.391 OA
ATOM     30  H   UNL A   1      33.790  25.325  21.442  1.00  0.00     0.211 HD
ENDBRANCH  11  29
ENDBRANCH   6   8
ENDBRANCH   5   6
ENDBRANCH   4   5
ENDBRANCH   3   4
ENDBRANCH   2   3
ENDBRANCH   1   2
BRANCH   1  31
ATOM     31  C   UNL A   1      36.711  30.419  29.515  1.00  0.00     0.188 C 
BRANCH  31  32
ATOM     32  O   UNL A   1      37.553  29.285  29.632  1.00  0.00    -0.377 OA
BRANCH  32  33
ATOM     33  C   UNL A   1      38.461  28.971  28.572  1.00  0.00     0.188 C 
BRANCH  33  34
ATOM     34  C   UNL A   1      39.385  27.760  28.745  1.00  0.00     0.188 C 
BRANCH  34  35
ATOM     35  O   UNL A   1      39.443  26.835  27.655  1.00  0.00    -0.376 OA
BRANCH  35  36
ATOM     36  C   UNL A   1      39.489  25.445  27.962  1.00  0.00     0.202 C 
BRANCH  36  37
ATOM     37  C   UNL A   1      40.331  24.599  27.006  1.00  0.00     0.261 C 
BRANCH  37  38
ATOM     38  O   UNL A   1      41.593  25.216  26.698  1.00  0.00    -0.460 OA
BRANCH  38  39
ATOM     39  C   UNL A   1      42.666  24.646  27.296  1.00  0.00     0.338 C 
ATOM     40  O   UNL A   1      42.691  23.592  27.911  1.00  0.00    -0.246 OA
BRANCH  39  41
ATOM     41  C   UNL A   1      43.891  25.419  27.014  1.00  0.00     0.060 A 
ATOM     42  C   UNL A   1      44.606  25.920  28.109  1.00  0.00     0.016 A 
ATOM     43  C   UNL A   1      44.268  25.753  25.710  1.00  0.00     0.016 A 
ATOM     44  C   UNL A   1      45.658  26.810  27.909  1.00  0.00     0.010 A 
ATOM     45  C   UNL A   1      45.319  26.655  25.511  1.00  0.00     0.010 A 
ATOM     46  C   UNL A   1      45.986  27.221  26.611  1.00  0.00    -0.014 A 
BRANCH  46  47
ATOM     47  C   UNL A   1      46.884  28.385  26.428  1.00  0.00     0.031 A 
ATOM     48  C   UNL A   1      46.293  29.768  26.492  1.00  0.00     0.074 A 
ATOM     49  C   UNL A   1      48.209  28.220  26.272  1.00  0.00     0.049 A 
ATOM     50  N   UNL A   1      46.882  30.929  26.360  1.00  0.00    -0.248 NA
ATOM     51  C   UNL A   1      44.846  29.853  26.749  1.00  0.00     0.031 C 
ATOM     52  C   UNL A   1      48.908  26.936  26.259  1.00  0.00     0.029 A 
ATOM     53  N   UNL A   1      49.204  29.149  26.100  1.00  0.00    -0.354 N 
ATOM     54  C   UNL A   1      45.881  31.878  26.524  1.00  0.00     0.074 A 
ATOM     55  C   UNL A   1      44.642  31.161  26.732  1.00  0.00     0.031 C 
ATOM     56  C   UNL A   1      50.223  27.159  26.087  1.00  0.00     0.029 A 
ATOM     57  C   UNL A   1      50.451  28.596  25.946  1.00  0.00     0.049 A 
ATOM     58  H   UNL A   1      49.039  30.119  26.088  1.00  0.00     0.167 HD
ATOM     59  C   UNL A   1      45.982  33.228  26.512  1.00  0.00     0.031 A 
ATOM     60  C   UNL A   1      51.637  29.186  25.701  1.00  0.00     0.031 A 
ATOM     61  C   UNL A   1      47.207  33.945  26.281  1.00  0.00     0.049 A 
ATOM     62  C   UNL A   1      51.703  30.686  25.582  1.00  0.00     0.074 A 
ATOM     63  C   UNL A   1      47.410  35.312  26.223  1.00  0.00     0.029 A 
ATOM     64  N   UNL A   1      48.437  33.346  26.067  1.00  0.00    -0.354 N 
ATOM     65  N   UNL A   1      50.749  31.573  25.737  1.00  0.00    -0.248 NA
ATOM     66  C   UNL A   1      53.015  31.266  25.256  1.00  0.00     0.031 C 
ATOM     67  C   UNL A   1      48.759  35.540  25.930  1.00  0.00     0.029 A 
ATOM     68  C   UNL A   1      49.403  34.315  25.858  1.00  0.00     0.049 A 
ATOM     69  H   UNL A   1      48.601  32.375  26.063  1.00  0.00     0.167 HD
ATOM     70  C   UNL A   1      51.351  32.812  25.560  1.00  0.00     0.074 A 
ATOM     71  C   UNL A   1      52.754  32.565  25.299  1.00  0.00     0.031 C 
ATOM     72  C   UNL A   1      50.794  34.047  25.610  1.00  0.00     0.031 A 
BRANCH  59  73
ATOM     73  C   UNL A   1      44.724  34.018  26.734  1.00  0.00    -0.014 A 
ATOM     74  C   UNL A   1      43.989  34.527  25.652  1.00  0.00     0.009 A 
ATOM     75  C   UNL A   1      44.250  34.227  28.038  1.00  0.00     0.009 A 
ATOM     76  C   UNL A   1      42.816  35.251  25.873  1.00  0.00     0.001 A 
ATOM     77  C   UNL A   1      43.065  34.932  28.255  1.00  0.00     0.001 A 
ATOM     78  C   UNL A   1      42.353  35.449  27.173  1.00  0.00     0.000 A 
ENDBRANCH  59  73
BRANCH  60  79
ATOM     79  C   UNL A   1      52.864  28.366  25.522  1.00  0.00    -0.014 A 
ATOM     80  C   UNL A   1      53.214  27.867  24.258  1.00  0.00     0.009 A 
ATOM     81  C   UNL A   1      53.664  28.036  26.627  1.00  0.00     0.009 A 
ATOM     82  C   UNL A   1      54.321  27.028  24.111  1.00  0.00     0.001 A 
ATOM     83  C   UNL A   1      54.787  27.221  26.472  1.00  0.00     0.001 A 
ATOM     84  C   UNL A   1      55.109  26.708  25.217  1.00  0.00     0.000 A 
ENDBRANCH  60  79
BRANCH  72  85
ATOM     85  C   UNL A   1      51.711  35.223  25.425  1.00  0.00    -0.014 A 
ATOM     86  C   UNL A   1      51.932  35.783  24.158  1.00  0.00     0.009 A 
ATOM     87  C   UNL A   1      52.328  35.803  26.545  1.00  0.00     0.009 A 
ATOM     88  C   UNL A   1      52.783  36.881  24.012  1.00  0.00     0.001 A 
ATOM     89  C   UNL A   1      53.156  36.917  26.400  1.00  0.00     0.001 A 
ATOM     90  C   UNL A   1      53.389  37.449  25.133  1.00  0.00     0.000 A 
ENDBRANCH  72  85
ENDBRANCH  46  47
ENDBRANCH  39  41
ENDBRANCH  38  39
ENDBRANCH  37  38
ENDBRANCH  36  37
ENDBRANCH  35  36
ENDBRANCH  34  35
ENDBRANCH  33  34
ENDBRANCH  32  33
ENDBRANCH  31  32
ENDBRANCH   1  31
TORSDOF 27
ENDMDL
