MODEL 1
REMARK VINA RESULT:     -10.9      0.000      0.000
REMARK SMILES CC(C)[C@@H]1C(=O)Nc2ccccc2N1C(=O)N[C@H](Cc1ccccc1)C(=O)OCCOCCOCCOCCOC(=O)c1ccc(-c2c3nc(c(-c4ccccc4)c4ccc([nH]4)c(-c4ccccc4)c4nc(c(-c5ccccc5)c5ccc2[nH]5)C=C4)C=C3)cc1
REMARK SMILES IDX 33 1 32 2 31 3 30 4 29 5 28 6 26 7 27 8 18 9 17 10 15 11
REMARK SMILES IDX 16 12 14 14 4 15 5 16 6 17 7 18 13 19 8 20 12 22 9 23 11 24
REMARK SMILES IDX 10 25 2 26 1 27 3 28 19 29 20 30 21 31 25 32 22 33 24 34
REMARK SMILES IDX 23 35 34 36 35 37 36 38 37 39 38 40 39 41 40 42 41 43 42 44
REMARK SMILES IDX 43 45 44 46 90 47 45 48 89 49 46 50 47 51 48 52 83 53 49 54
REMARK SMILES IDX 88 55 82 56 84 57 50 58 87 59 81 60 80 61 51 63 73 64 58 65
REMARK SMILES IDX 72 66 59 67 62 68 71 69 85 70 60 71 61 72 70 74 86 75 63 76
REMARK SMILES IDX 52 77 53 78 57 79 54 80 56 81 55 82 74 83 75 84 79 85 76 86
REMARK SMILES IDX 78 87 77 88 64 89 65 90 69 91 66 92 68 93 67 94
REMARK H PARENT 17 13 7 21 84 62 62 73
REMARK Flexibility Score: inf
ROOT
ATOM      1  C   UNL A   1      42.192  19.538  25.855  1.00  0.00     0.188 C 
ENDROOT
BRANCH   1   2
ATOM      2  C   UNL A   1      42.144  20.921  26.517  1.00  0.00     0.188 C 
BRANCH   2   3
ATOM      3  O   UNL A   1      41.123  21.694  25.935  1.00  0.00    -0.376 OA
BRANCH   3   4
ATOM      4  C   UNL A   1      39.805  21.677  26.421  1.00  0.00     0.202 C 
BRANCH   4   5
ATOM      5  C   UNL A   1      38.542  21.386  25.558  1.00  0.00     0.261 C 
BRANCH   5   6
ATOM      6  O   UNL A   1      37.271  22.128  25.789  1.00  0.00    -0.462 OA
BRANCH   6   7
ATOM      7  C   UNL A   1      36.453  23.183  25.917  1.00  0.00     0.329 C 
ATOM      8  O   UNL A   1      37.057  24.166  26.387  1.00  0.00    -0.250 OA
BRANCH   7   9
ATOM      9  C   UNL A   1      34.928  23.535  25.402  1.00  0.00     0.198 C 
BRANCH   9  10
ATOM     10  N   UNL A   1      33.530  24.024  26.037  1.00  0.00    -0.324 N 
ATOM     11  C   UNL A   1      32.538  24.953  26.225  1.00  0.00     0.323 C 
ATOM     12  O   UNL A   1      31.777  24.656  27.159  1.00  0.00    -0.248 OA
ATOM     13  H   UNL A   1      33.232  23.253  26.572  1.00  0.00     0.166 HD
BRANCH  11  14
ATOM     14  N   UNL A   1      32.309  26.096  25.492  1.00  0.00    -0.280 N 
ATOM     15  C   UNL A   1      31.533  26.252  24.273  1.00  0.00     0.184 C 
ATOM     16  C   UNL A   1      32.516  26.723  23.197  1.00  0.00     0.247 C 
ATOM     17  O   UNL A   1      32.663  26.248  22.080  1.00  0.00    -0.272 OA
ATOM     18  N   UNL A   1      33.050  27.956  23.581  1.00  0.00    -0.322 N 
ATOM     19  C   UNL A   1      32.555  27.457  25.934  1.00  0.00     0.070 A 
ATOM     20  C   UNL A   1      32.801  28.423  24.899  1.00  0.00     0.065 A 
ATOM     21  H   UNL A   1      33.588  28.490  22.951  1.00  0.00     0.170 HD
ATOM     22  C   UNL A   1      32.048  27.893  27.158  1.00  0.00     0.028 A 
ATOM     23  C   UNL A   1      32.509  29.772  25.078  1.00  0.00     0.028 A 
ATOM     24  C   UNL A   1      31.667  29.236  27.294  1.00  0.00     0.002 A 
ATOM     25  C   UNL A   1      31.880  30.161  26.261  1.00  0.00     0.002 A 
BRANCH  15  26
ATOM     26  C   UNL A   1      30.458  25.257  24.190  1.00  0.00     0.015 C 
ATOM     27  C   UNL A   1      29.108  26.005  24.016  1.00  0.00     0.010 C 
ATOM     28  C   UNL A   1      30.797  24.209  23.195  1.00  0.00     0.010 C 
ENDBRANCH  15  26
ENDBRANCH  11  14
ENDBRANCH   9  10
BRANCH   9  29
ATOM     29  C   UNL A   1      34.617  22.618  24.152  1.00  0.00     0.072 C 
BRANCH  29  30
ATOM     30  C   UNL A   1      34.068  21.202  24.279  1.00  0.00    -0.045 A 
ATOM     31  C   UNL A   1      32.726  20.990  23.901  1.00  0.00     0.004 A 
ATOM     32  C   UNL A   1      34.820  20.082  24.652  1.00  0.00     0.004 A 
ATOM     33  C   UNL A   1      32.160  19.710  23.892  1.00  0.00     0.000 A 
ATOM     34  C   UNL A   1      34.251  18.800  24.650  1.00  0.00     0.000 A 
ATOM     35  C   UNL A   1      32.927  18.613  24.262  1.00  0.00     0.000 A 
ENDBRANCH  29  30
ENDBRANCH   9  29
ENDBRANCH   7   9
ENDBRANCH   6   7
ENDBRANCH   5   6
ENDBRANCH   4   5
ENDBRANCH   3   4
ENDBRANCH   2   3
ENDBRANCH   1   2
BRANCH   1  36
ATOM     36  O   UNL A   1      43.154  19.265  24.838  1.00  0.00    -0.377 OA
BRANCH  36  37
ATOM     37  C   UNL A   1      44.512  18.952  25.126  1.00  0.00     0.188 C 
BRANCH  37  38
ATOM     38  C   UNL A   1      45.571  19.803  24.416  1.00  0.00     0.188 C 
BRANCH  38  39
ATOM     39  O   UNL A   1      46.298  20.770  25.158  1.00  0.00    -0.376 OA
BRANCH  39  40
ATOM     40  C   UNL A   1      45.576  21.913  25.588  1.00  0.00     0.202 C 
BRANCH  40  41
ATOM     41  C   UNL A   1      44.840  22.633  24.441  1.00  0.00     0.261 C 
BRANCH  41  42
ATOM     42  O   UNL A   1      43.947  23.689  24.843  1.00  0.00    -0.460 OA
BRANCH  42  43
ATOM     43  C   UNL A   1      44.540  24.869  25.155  1.00  0.00     0.338 C 
ATOM     44  O   UNL A   1      45.629  25.273  24.810  1.00  0.00    -0.246 OA
BRANCH  43  45
ATOM     45  C   UNL A   1      43.620  25.666  25.995  1.00  0.00     0.060 A 
ATOM     46  C   UNL A   1      43.851  27.040  26.144  1.00  0.00     0.016 A 
ATOM     47  C   UNL A   1      42.631  25.027  26.745  1.00  0.00     0.016 A 
ATOM     48  C   UNL A   1      43.143  27.765  27.104  1.00  0.00     0.010 A 
ATOM     49  C   UNL A   1      41.934  25.750  27.718  1.00  0.00     0.010 A 
ATOM     50  C   UNL A   1      42.230  27.107  27.940  1.00  0.00    -0.014 A 
BRANCH  50  51
ATOM     51  C   UNL A   1      41.790  27.757  29.199  1.00  0.00     0.031 A 
ATOM     52  C   UNL A   1      40.556  28.622  29.155  1.00  0.00     0.074 A 
ATOM     53  C   UNL A   1      42.432  27.559  30.363  1.00  0.00     0.049 A 
ATOM     54  N   UNL A   1      40.006  29.340  30.102  1.00  0.00    -0.248 NA
ATOM     55  C   UNL A   1      39.843  28.678  27.867  1.00  0.00     0.031 C 
ATOM     56  C   UNL A   1      43.576  26.673  30.561  1.00  0.00     0.029 A 
ATOM     57  N   UNL A   1      42.201  28.099  31.605  1.00  0.00    -0.354 N 
ATOM     58  C   UNL A   1      38.893  29.937  29.521  1.00  0.00     0.074 A 
ATOM     59  C   UNL A   1      38.862  29.525  28.136  1.00  0.00     0.031 C 
ATOM     60  C   UNL A   1      43.953  26.735  31.850  1.00  0.00     0.029 A 
ATOM     61  C   UNL A   1      43.112  27.704  32.552  1.00  0.00     0.049 A 
ATOM     62  H   UNL A   1      41.454  28.710  31.797  1.00  0.00     0.167 HD
ATOM     63  C   UNL A   1      37.972  30.751  30.091  1.00  0.00     0.031 A 
ATOM     64  C   UNL A   1      43.268  28.101  33.830  1.00  0.00     0.031 A 
ATOM     65  C   UNL A   1      38.015  31.175  31.464  1.00  0.00     0.049 A 
ATOM     66  C   UNL A   1      42.308  29.106  34.411  1.00  0.00     0.074 A 
ATOM     67  C   UNL A   1      37.137  32.003  32.140  1.00  0.00     0.029 A 
ATOM     68  N   UNL A   1      38.999  30.808  32.369  1.00  0.00    -0.354 N 
ATOM     69  N   UNL A   1      41.260  29.666  33.855  1.00  0.00    -0.248 NA
ATOM     70  C   UNL A   1      42.544  29.524  35.800  1.00  0.00     0.031 C 
ATOM     71  C   UNL A   1      37.626  32.190  33.436  1.00  0.00     0.029 A 
ATOM     72  C   UNL A   1      38.765  31.417  33.590  1.00  0.00     0.049 A 
ATOM     73  H   UNL A   1      39.750  30.203  32.174  1.00  0.00     0.167 HD
ATOM     74  C   UNL A   1      40.689  30.467  34.837  1.00  0.00     0.074 A 
ATOM     75  C   UNL A   1      41.504  30.316  36.024  1.00  0.00     0.031 C 
ATOM     76  C   UNL A   1      39.583  31.250  34.765  1.00  0.00     0.031 A 
BRANCH  63  77
ATOM     77  C   UNL A   1      36.871  31.275  29.208  1.00  0.00    -0.014 A 
ATOM     78  C   UNL A   1      35.817  30.453  28.779  1.00  0.00     0.009 A 
ATOM     79  C   UNL A   1      36.883  32.621  28.812  1.00  0.00     0.009 A 
ATOM     80  C   UNL A   1      34.821  30.957  27.939  1.00  0.00     0.001 A 
ATOM     81  C   UNL A   1      35.869  33.132  28.000  1.00  0.00     0.001 A 
ATOM     82  C   UNL A   1      34.846  32.298  27.555  1.00  0.00     0.000 A 
ENDBRANCH  63  77
BRANCH  64  83
ATOM     83  C   UNL A   1      44.397  27.571  34.643  1.00  0.00    -0.014 A 
ATOM     84  C   UNL A   1      44.364  26.267  35.159  1.00  0.00     0.009 A 
ATOM     85  C   UNL A   1      45.508  28.382  34.927  1.00  0.00     0.009 A 
ATOM     86  C   UNL A   1      45.407  25.796  35.960  1.00  0.00     0.001 A 
ATOM     87  C   UNL A   1      46.564  27.898  35.701  1.00  0.00     0.001 A 
ATOM     88  C   UNL A   1      46.508  26.609  36.226  1.00  0.00     0.000 A 
ENDBRANCH  64  83
BRANCH  76  89
ATOM     89  C   UNL A   1      39.150  31.958  36.020  1.00  0.00    -0.014 A 
ATOM     90  C   UNL A   1      39.630  33.236  36.349  1.00  0.00     0.009 A 
ATOM     91  C   UNL A   1      38.201  31.353  36.859  1.00  0.00     0.009 A 
ATOM     92  C   UNL A   1      39.192  33.876  37.510  1.00  0.00     0.001 A 
ATOM     93  C   UNL A   1      37.738  32.009  38.000  1.00  0.00     0.001 A 
ATOM     94  C   UNL A   1      38.241  33.266  38.330  1.00  0.00     0.000 A 
ENDBRANCH  76  89
ENDBRANCH  50  51
ENDBRANCH  43  45
ENDBRANCH  42  43
ENDBRANCH  41  42
ENDBRANCH  40  41
ENDBRANCH  39  40
ENDBRANCH  38  39
ENDBRANCH  37  38
ENDBRANCH  36  37
ENDBRANCH   1  36
TORSDOF 25
ENDMDL
MODEL 2
REMARK VINA RESULT:     -10.6      0.900      5.544
REMARK SMILES CC(C)[C@@H]1C(=O)Nc2ccccc2N1C(=O)N[C@H](Cc1ccccc1)C(=O)OCCOCCOCCOCCOC(=O)c1ccc(-c2c3nc(c(-c4ccccc4)c4ccc([nH]4)c(-c4ccccc4)c4nc(c(-c5ccccc5)c5ccc2[nH]5)C=C4)C=C3)cc1
REMARK SMILES IDX 33 1 32 2 31 3 30 4 29 5 28 6 26 7 27 8 18 9 17 10 15 11
REMARK SMILES IDX 16 12 14 14 4 15 5 16 6 17 7 18 13 19 8 20 12 22 9 23 11 24
REMARK SMILES IDX 10 25 2 26 1 27 3 28 19 29 20 30 21 31 25 32 22 33 24 34
REMARK SMILES IDX 23 35 34 36 35 37 36 38 37 39 38 40 39 41 40 42 41 43 42 44
REMARK SMILES IDX 43 45 44 46 90 47 45 48 89 49 46 50 47 51 48 52 83 53 49 54
REMARK SMILES IDX 88 55 82 56 84 57 50 58 87 59 81 60 80 61 51 63 73 64 58 65
REMARK SMILES IDX 72 66 59 67 62 68 71 69 85 70 60 71 61 72 70 74 86 75 63 76
REMARK SMILES IDX 52 77 53 78 57 79 54 80 56 81 55 82 74 83 75 84 79 85 76 86
REMARK SMILES IDX 78 87 77 88 64 89 65 90 69 91 66 92 68 93 67 94
REMARK H PARENT 17 13 7 21 84 62 62 73
REMARK Flexibility Score: inf
ROOT
ATOM      1  C   UNL A   1      41.659  19.502  26.173  1.00  0.00     0.188 C 
ENDROOT
BRANCH   1   2
ATOM      2  C   UNL A   1      41.660  20.877  26.854  1.00  0.00     0.188 C 
BRANCH   2   3
ATOM      3  O   UNL A   1      40.857  21.772  26.124  1.00  0.00    -0.376 OA
BRANCH   3   4
ATOM      4  C   UNL A   1      39.524  22.037  26.477  1.00  0.00     0.202 C 
BRANCH   4   5
ATOM      5  C   UNL A   1      38.292  21.787  25.556  1.00  0.00     0.261 C 
BRANCH   5   6
ATOM      6  O   UNL A   1      36.957  22.354  25.895  1.00  0.00    -0.462 OA
BRANCH   6   7
ATOM      7  C   UNL A   1      35.836  23.073  25.740  1.00  0.00     0.329 C 
ATOM      8  O   UNL A   1      36.080  24.184  25.232  1.00  0.00    -0.250 OA
BRANCH   7   9
ATOM      9  C   UNL A   1      34.226  22.746  25.859  1.00  0.00     0.198 C 
BRANCH   9  10
ATOM     10  N   UNL A   1      32.877  23.506  26.307  1.00  0.00    -0.324 N 
ATOM     11  C   UNL A   1      32.063  24.610  26.363  1.00  0.00     0.323 C 
ATOM     12  O   UNL A   1      31.147  24.484  27.190  1.00  0.00    -0.248 OA
ATOM     13  H   UNL A   1      32.372  22.819  26.798  1.00  0.00     0.166 HD
BRANCH  11  14
ATOM     14  N   UNL A   1      32.151  25.757  25.607  1.00  0.00    -0.280 N 
ATOM     15  C   UNL A   1      31.592  26.022  24.291  1.00  0.00     0.184 C 
ATOM     16  C   UNL A   1      32.783  26.278  23.363  1.00  0.00     0.247 C 
ATOM     17  O   UNL A   1      32.993  25.757  22.277  1.00  0.00    -0.272 OA
ATOM     18  N   UNL A   1      33.477  27.403  23.820  1.00  0.00    -0.322 N 
ATOM     19  C   UNL A   1      32.581  27.061  26.080  1.00  0.00     0.070 A 
ATOM     20  C   UNL A   1      33.139  27.940  25.090  1.00  0.00     0.065 A 
ATOM     21  H   UNL A   1      34.185  27.814  23.271  1.00  0.00     0.170 HD
ATOM     22  C   UNL A   1      31.999  27.612  27.221  1.00  0.00     0.028 A 
ATOM     23  C   UNL A   1      33.078  29.323  25.229  1.00  0.00     0.028 A 
ATOM     24  C   UNL A   1      31.857  29.004  27.305  1.00  0.00     0.002 A 
ATOM     25  C   UNL A   1      32.376  29.850  26.313  1.00  0.00     0.002 A 
BRANCH  15  26
ATOM     26  C   UNL A   1      30.374  25.237  24.058  1.00  0.00     0.015 C 
ATOM     27  C   UNL A   1      29.188  26.220  23.856  1.00  0.00     0.010 C 
ATOM     28  C   UNL A   1      30.608  24.216  23.007  1.00  0.00     0.010 C 
ENDBRANCH  15  26
ENDBRANCH  11  14
ENDBRANCH   9  10
BRANCH   9  29
ATOM     29  C   UNL A   1      34.068  21.208  26.190  1.00  0.00     0.072 C 
BRANCH  29  30
ATOM     30  C   UNL A   1      33.696  20.169  25.139  1.00  0.00    -0.045 A 
ATOM     31  C   UNL A   1      34.581  19.086  24.954  1.00  0.00     0.004 A 
ATOM     32  C   UNL A   1      32.499  20.158  24.412  1.00  0.00     0.004 A 
ATOM     33  C   UNL A   1      34.281  18.034  24.083  1.00  0.00     0.000 A 
ATOM     34  C   UNL A   1      32.202  19.106  23.532  1.00  0.00     0.000 A 
ATOM     35  C   UNL A   1      33.085  18.042  23.374  1.00  0.00     0.000 A 
ENDBRANCH  29  30
ENDBRANCH   9  29
ENDBRANCH   7   9
ENDBRANCH   6   7
ENDBRANCH   5   6
ENDBRANCH   4   5
ENDBRANCH   3   4
ENDBRANCH   2   3
ENDBRANCH   1   2
BRANCH   1  36
ATOM     36  O   UNL A   1      42.555  19.238  25.095  1.00  0.00    -0.377 OA
BRANCH  36  37
ATOM     37  C   UNL A   1      43.927  18.917  25.295  1.00  0.00     0.188 C 
BRANCH  37  38
ATOM     38  C   UNL A   1      44.928  19.602  24.358  1.00  0.00     0.188 C 
BRANCH  38  39
ATOM     39  O   UNL A   1      45.703  20.688  24.844  1.00  0.00    -0.376 OA
BRANCH  39  40
ATOM     40  C   UNL A   1      44.998  21.717  25.520  1.00  0.00     0.202 C 
BRANCH  40  41
ATOM     41  C   UNL A   1      44.047  22.507  24.599  1.00  0.00     0.261 C 
BRANCH  41  42
ATOM     42  O   UNL A   1      43.573  23.761  25.125  1.00  0.00    -0.460 OA
BRANCH  42  43
ATOM     43  C   UNL A   1      44.525  24.703  25.339  1.00  0.00     0.338 C 
ATOM     44  O   UNL A   1      45.407  25.060  24.588  1.00  0.00    -0.246 OA
BRANCH  43  45
ATOM     45  C   UNL A   1      44.321  25.304  26.675  1.00  0.00     0.060 A 
ATOM     46  C   UNL A   1      43.385  24.729  27.545  1.00  0.00     0.016 A 
ATOM     47  C   UNL A   1      44.940  26.513  26.997  1.00  0.00     0.016 A 
ATOM     48  C   UNL A   1      43.009  25.404  28.709  1.00  0.00     0.010 A 
ATOM     49  C   UNL A   1      44.551  27.196  28.153  1.00  0.00     0.010 A 
ATOM     50  C   UNL A   1      43.542  26.671  28.981  1.00  0.00    -0.014 A 
BRANCH  50  51
ATOM     51  C   UNL A   1      42.866  27.554  29.963  1.00  0.00     0.031 A 
ATOM     52  C   UNL A   1      43.516  27.743  31.310  1.00  0.00     0.074 A 
ATOM     53  C   UNL A   1      41.731  28.209  29.665  1.00  0.00     0.049 A 
ATOM     54  N   UNL A   1      43.095  28.413  32.353  1.00  0.00    -0.248 NA
ATOM     55  C   UNL A   1      44.822  27.090  31.503  1.00  0.00     0.031 C 
ATOM     56  C   UNL A   1      41.055  28.190  28.370  1.00  0.00     0.029 A 
ATOM     57  N   UNL A   1      40.949  29.026  30.445  1.00  0.00    -0.354 N 
ATOM     58  C   UNL A   1      44.078  28.254  33.323  1.00  0.00     0.074 A 
ATOM     59  C   UNL A   1      45.099  27.401  32.759  1.00  0.00     0.031 C 
ATOM     60  C   UNL A   1      39.952  28.956  28.447  1.00  0.00     0.029 A 
ATOM     61  C   UNL A   1      39.818  29.473  29.809  1.00  0.00     0.049 A 
ATOM     62  H   UNL A   1      41.177  29.268  31.371  1.00  0.00     0.167 HD
ATOM     63  C   UNL A   1      44.131  28.777  34.571  1.00  0.00     0.031 A 
ATOM     64  C   UNL A   1      38.780  30.191  30.279  1.00  0.00     0.031 A 
ATOM     65  C   UNL A   1      43.105  29.611  35.137  1.00  0.00     0.049 A 
ATOM     66  C   UNL A   1      38.797  30.658  31.712  1.00  0.00     0.074 A 
ATOM     67  C   UNL A   1      43.057  30.187  36.394  1.00  0.00     0.029 A 
ATOM     68  N   UNL A   1      41.941  29.978  34.481  1.00  0.00    -0.354 N 
ATOM     69  N   UNL A   1      39.730  30.502  32.621  1.00  0.00    -0.248 NA
ATOM     70  C   UNL A   1      37.625  31.413  32.178  1.00  0.00     0.031 C 
ATOM     71  C   UNL A   1      41.832  30.849  36.521  1.00  0.00     0.029 A 
ATOM     72  C   UNL A   1      41.153  30.750  35.318  1.00  0.00     0.049 A 
ATOM     73  H   UNL A   1      41.709  29.729  33.557  1.00  0.00     0.167 HD
ATOM     74  C   UNL A   1      39.276  31.174  33.751  1.00  0.00     0.074 A 
ATOM     75  C   UNL A   1      37.989  31.742  33.411  1.00  0.00     0.031 C 
ATOM     76  C   UNL A   1      39.876  31.315  34.959  1.00  0.00     0.031 A 
BRANCH  63  77
ATOM     77  C   UNL A   1      45.319  28.416  35.423  1.00  0.00    -0.014 A 
ATOM     78  C   UNL A   1      46.500  29.174  35.399  1.00  0.00     0.009 A 
ATOM     79  C   UNL A   1      45.245  27.304  36.276  1.00  0.00     0.009 A 
ATOM     80  C   UNL A   1      47.597  28.801  36.180  1.00  0.00     0.001 A 
ATOM     81  C   UNL A   1      46.330  26.953  37.081  1.00  0.00     0.001 A 
ATOM     82  C   UNL A   1      47.509  27.694  37.024  1.00  0.00     0.000 A 
ENDBRANCH  63  77
BRANCH  64  83
ATOM     83  C   UNL A   1      37.619  30.489  29.397  1.00  0.00    -0.014 A 
ATOM     84  C   UNL A   1      37.455  31.759  28.826  1.00  0.00     0.009 A 
ATOM     85  C   UNL A   1      36.651  29.503  29.142  1.00  0.00     0.009 A 
ATOM     86  C   UNL A   1      36.337  32.043  28.037  1.00  0.00     0.001 A 
ATOM     87  C   UNL A   1      35.551  29.779  28.327  1.00  0.00     0.001 A 
ATOM     88  C   UNL A   1      35.389  31.052  27.784  1.00  0.00     0.000 A 
ENDBRANCH  64  83
BRANCH  76  89
ATOM     89  C   UNL A   1      39.180  32.165  35.987  1.00  0.00    -0.014 A 
ATOM     90  C   UNL A   1      38.207  31.635  36.848  1.00  0.00     0.009 A 
ATOM     91  C   UNL A   1      39.548  33.514  36.127  1.00  0.00     0.009 A 
ATOM     92  C   UNL A   1      37.595  32.446  37.806  1.00  0.00     0.001 A 
ATOM     93  C   UNL A   1      38.960  34.313  37.108  1.00  0.00     0.001 A 
ATOM     94  C   UNL A   1      37.977  33.781  37.940  1.00  0.00     0.000 A 
ENDBRANCH  76  89
ENDBRANCH  50  51
ENDBRANCH  43  45
ENDBRANCH  42  43
ENDBRANCH  41  42
ENDBRANCH  40  41
ENDBRANCH  39  40
ENDBRANCH  38  39
ENDBRANCH  37  38
ENDBRANCH  36  37
ENDBRANCH   1  36
TORSDOF 25
ENDMDL
MODEL 3
REMARK VINA RESULT:     -10.5      1.293      2.385
REMARK SMILES CC(C)[C@@H]1C(=O)Nc2ccccc2N1C(=O)N[C@H](Cc1ccccc1)C(=O)OCCOCCOCCOCCOC(=O)c1ccc(-c2c3nc(c(-c4ccccc4)c4ccc([nH]4)c(-c4ccccc4)c4nc(c(-c5ccccc5)c5ccc2[nH]5)C=C4)C=C3)cc1
REMARK SMILES IDX 33 1 32 2 31 3 30 4 29 5 28 6 26 7 27 8 18 9 17 10 15 11
REMARK SMILES IDX 16 12 14 14 4 15 5 16 6 17 7 18 13 19 8 20 12 22 9 23 11 24
REMARK SMILES IDX 10 25 2 26 1 27 3 28 19 29 20 30 21 31 25 32 22 33 24 34
REMARK SMILES IDX 23 35 34 36 35 37 36 38 37 39 38 40 39 41 40 42 41 43 42 44
REMARK SMILES IDX 43 45 44 46 90 47 45 48 89 49 46 50 47 51 48 52 83 53 49 54
REMARK SMILES IDX 88 55 82 56 84 57 50 58 87 59 81 60 80 61 51 63 73 64 58 65
REMARK SMILES IDX 72 66 59 67 62 68 71 69 85 70 60 71 61 72 70 74 86 75 63 76
REMARK SMILES IDX 52 77 53 78 57 79 54 80 56 81 55 82 74 83 75 84 79 85 76 86
REMARK SMILES IDX 78 87 77 88 64 89 65 90 69 91 66 92 68 93 67 94
REMARK H PARENT 17 13 7 21 84 62 62 73
REMARK Flexibility Score: inf
ROOT
ATOM      1  C   UNL A   1      41.090  21.122  27.286  1.00  0.00     0.188 C 
ENDROOT
BRANCH   1   2
ATOM      2  C   UNL A   1      39.865  20.887  26.392  1.00  0.00     0.188 C 
BRANCH   2   3
ATOM      3  O   UNL A   1      39.301  22.121  26.021  1.00  0.00    -0.376 OA
BRANCH   3   4
ATOM      4  C   UNL A   1      37.913  22.333  26.006  1.00  0.00     0.202 C 
BRANCH   4   5
ATOM      5  C   UNL A   1      37.137  23.080  24.881  1.00  0.00     0.261 C 
BRANCH   5   6
ATOM      6  O   UNL A   1      36.018  24.007  25.210  1.00  0.00    -0.462 OA
BRANCH   6   7
ATOM      7  C   UNL A   1      34.884  24.699  25.030  1.00  0.00     0.329 C 
ATOM      8  O   UNL A   1      34.400  25.060  26.119  1.00  0.00    -0.250 OA
BRANCH   7   9
ATOM      9  C   UNL A   1      34.122  25.354  23.724  1.00  0.00     0.198 C 
BRANCH   9  10
ATOM     10  N   UNL A   1      33.474  26.767  23.297  1.00  0.00    -0.324 N 
ATOM     11  C   UNL A   1      32.419  27.636  23.179  1.00  0.00     0.323 C 
ATOM     12  O   UNL A   1      32.676  28.600  22.441  1.00  0.00    -0.248 OA
ATOM     13  H   UNL A   1      34.234  27.270  22.924  1.00  0.00     0.166 HD
BRANCH  11  14
ATOM     14  N   UNL A   1      31.190  27.552  23.794  1.00  0.00    -0.280 N 
ATOM     15  C   UNL A   1      30.885  27.552  25.216  1.00  0.00     0.184 C 
ATOM     16  C   UNL A   1      30.231  26.200  25.514  1.00  0.00     0.247 C 
ATOM     17  O   UNL A   1      30.533  25.419  26.405  1.00  0.00    -0.272 OA
ATOM     18  N   UNL A   1      29.048  26.097  24.774  1.00  0.00    -0.322 N 
ATOM     19  C   UNL A   1      29.900  27.733  23.153  1.00  0.00     0.070 A 
ATOM     20  C   UNL A   1      28.786  27.071  23.774  1.00  0.00     0.065 A 
ATOM     21  H   UNL A   1      28.412  25.365  24.943  1.00  0.00     0.170 HD
ATOM     22  C   UNL A   1      29.663  28.868  22.377  1.00  0.00     0.028 A 
ATOM     23  C   UNL A   1      27.489  27.557  23.649  1.00  0.00     0.028 A 
ATOM     24  C   UNL A   1      28.368  29.404  22.337  1.00  0.00     0.002 A 
ATOM     25  C   UNL A   1      27.296  28.765  22.978  1.00  0.00     0.002 A 
BRANCH  15  26
ATOM     26  C   UNL A   1      31.893  28.295  25.980  1.00  0.00     0.015 C 
ATOM     27  C   UNL A   1      31.763  29.803  25.630  1.00  0.00     0.010 C 
ATOM     28  C   UNL A   1      31.842  27.914  27.413  1.00  0.00     0.010 C 
ENDBRANCH  15  26
ENDBRANCH  11  14
ENDBRANCH   9  10
BRANCH   9  29
ATOM     29  C   UNL A   1      33.326  24.197  22.999  1.00  0.00     0.072 C 
BRANCH  29  30
ATOM     30  C   UNL A   1      32.836  22.948  23.723  1.00  0.00    -0.045 A 
ATOM     31  C   UNL A   1      33.584  21.765  23.552  1.00  0.00     0.004 A 
ATOM     32  C   UNL A   1      31.759  22.911  24.615  1.00  0.00     0.004 A 
ATOM     33  C   UNL A   1      33.270  20.593  24.249  1.00  0.00     0.000 A 
ATOM     34  C   UNL A   1      31.440  21.733  25.309  1.00  0.00     0.000 A 
ATOM     35  C   UNL A   1      32.199  20.580  25.133  1.00  0.00     0.000 A 
ENDBRANCH  29  30
ENDBRANCH   9  29
ENDBRANCH   7   9
ENDBRANCH   6   7
ENDBRANCH   5   6
ENDBRANCH   4   5
ENDBRANCH   3   4
ENDBRANCH   2   3
ENDBRANCH   1   2
BRANCH   1  36
ATOM     36  O   UNL A   1      42.084  20.109  27.416  1.00  0.00    -0.377 OA
BRANCH  36  37
ATOM     37  C   UNL A   1      42.370  19.173  26.383  1.00  0.00     0.188 C 
BRANCH  37  38
ATOM     38  C   UNL A   1      43.475  19.567  25.397  1.00  0.00     0.188 C 
BRANCH  38  39
ATOM     39  O   UNL A   1      43.750  20.941  25.173  1.00  0.00    -0.376 OA
BRANCH  39  40
ATOM     40  C   UNL A   1      44.919  21.241  24.426  1.00  0.00     0.202 C 
BRANCH  40  41
ATOM     41  C   UNL A   1      44.956  22.694  23.914  1.00  0.00     0.261 C 
BRANCH  41  42
ATOM     42  O   UNL A   1      44.107  23.622  24.617  1.00  0.00    -0.460 OA
BRANCH  42  43
ATOM     43  C   UNL A   1      44.700  24.779  25.002  1.00  0.00     0.338 C 
ATOM     44  O   UNL A   1      45.806  25.185  24.717  1.00  0.00    -0.246 OA
BRANCH  43  45
ATOM     45  C   UNL A   1      43.756  25.551  25.840  1.00  0.00     0.060 A 
ATOM     46  C   UNL A   1      43.939  26.934  25.976  1.00  0.00     0.016 A 
ATOM     47  C   UNL A   1      42.796  24.884  26.603  1.00  0.00     0.016 A 
ATOM     48  C   UNL A   1      43.210  27.642  26.933  1.00  0.00     0.010 A 
ATOM     49  C   UNL A   1      42.079  25.591  27.573  1.00  0.00     0.010 A 
ATOM     50  C   UNL A   1      42.327  26.960  27.781  1.00  0.00    -0.014 A 
BRANCH  50  51
ATOM     51  C   UNL A   1      41.870  27.605  29.036  1.00  0.00     0.031 A 
ATOM     52  C   UNL A   1      40.579  28.383  29.004  1.00  0.00     0.074 A 
ATOM     53  C   UNL A   1      42.550  27.478  30.188  1.00  0.00     0.049 A 
ATOM     54  N   UNL A   1      40.002  29.082  29.948  1.00  0.00    -0.248 NA
ATOM     55  C   UNL A   1      39.836  28.361  27.732  1.00  0.00     0.031 C 
ATOM     56  C   UNL A   1      43.757  26.676  30.377  1.00  0.00     0.029 A 
ATOM     57  N   UNL A   1      42.310  28.027  31.424  1.00  0.00    -0.354 N 
ATOM     58  C   UNL A   1      38.838  29.588  29.382  1.00  0.00     0.074 A 
ATOM     59  C   UNL A   1      38.805  29.145  28.006  1.00  0.00     0.031 C 
ATOM     60  C   UNL A   1      44.157  26.792  31.656  1.00  0.00     0.029 A 
ATOM     61  C   UNL A   1      43.267  27.716  32.358  1.00  0.00     0.049 A 
ATOM     62  H   UNL A   1      41.528  28.590  31.622  1.00  0.00     0.167 HD
ATOM     63  C   UNL A   1      37.876  30.350  29.956  1.00  0.00     0.031 A 
ATOM     64  C   UNL A   1      43.424  28.151  33.623  1.00  0.00     0.031 A 
ATOM     65  C   UNL A   1      37.920  30.805  31.319  1.00  0.00     0.049 A 
ATOM     66  C   UNL A   1      42.409  29.101  34.206  1.00  0.00     0.074 A 
ATOM     67  C   UNL A   1      37.002  31.586  31.998  1.00  0.00     0.029 A 
ATOM     68  N   UNL A   1      38.946  30.526  32.208  1.00  0.00    -0.354 N 
ATOM     69  N   UNL A   1      41.313  29.574  33.663  1.00  0.00    -0.248 NA
ATOM     70  C   UNL A   1      42.646  29.564  35.581  1.00  0.00     0.031 C 
ATOM     71  C   UNL A   1      37.505  31.834  33.279  1.00  0.00     0.029 A 
ATOM     72  C   UNL A   1      38.698  31.144  33.422  1.00  0.00     0.049 A 
ATOM     73  H   UNL A   1      39.733  29.970  32.008  1.00  0.00     0.167 HD
ATOM     74  C   UNL A   1      40.710  30.356  34.642  1.00  0.00     0.074 A 
ATOM     75  C   UNL A   1      41.559  30.288  35.813  1.00  0.00     0.031 C 
ATOM     76  C   UNL A   1      39.551  31.059  34.580  1.00  0.00     0.031 A 
BRANCH  63  77
ATOM     77  C   UNL A   1      36.722  30.777  29.089  1.00  0.00    -0.014 A 
ATOM     78  C   UNL A   1      35.729  29.871  28.685  1.00  0.00     0.009 A 
ATOM     79  C   UNL A   1      36.621  32.117  28.683  1.00  0.00     0.009 A 
ATOM     80  C   UNL A   1      34.682  30.288  27.859  1.00  0.00     0.001 A 
ATOM     81  C   UNL A   1      35.556  32.539  27.885  1.00  0.00     0.001 A 
ATOM     82  C   UNL A   1      34.595  31.623  27.464  1.00  0.00     0.000 A 
ENDBRANCH  63  77
BRANCH  64  83
ATOM     83  C   UNL A   1      44.603  27.718  34.420  1.00  0.00    -0.014 A 
ATOM     84  C   UNL A   1      44.480  26.739  35.417  1.00  0.00     0.009 A 
ATOM     85  C   UNL A   1      45.861  28.303  34.200  1.00  0.00     0.009 A 
ATOM     86  C   UNL A   1      45.584  26.373  36.192  1.00  0.00     0.001 A 
ATOM     87  C   UNL A   1      46.970  27.913  34.953  1.00  0.00     0.001 A 
ATOM     88  C   UNL A   1      46.829  26.956  35.956  1.00  0.00     0.000 A 
ENDBRANCH  64  83
BRANCH  76  89
ATOM     89  C   UNL A   1      39.099  31.764  35.830  1.00  0.00    -0.014 A 
ATOM     90  C   UNL A   1      39.569  33.042  36.169  1.00  0.00     0.009 A 
ATOM     91  C   UNL A   1      38.139  31.154  36.655  1.00  0.00     0.009 A 
ATOM     92  C   UNL A   1      39.112  33.679  37.325  1.00  0.00     0.001 A 
ATOM     93  C   UNL A   1      37.658  31.806  37.791  1.00  0.00     0.001 A 
ATOM     94  C   UNL A   1      38.152  33.064  38.130  1.00  0.00     0.000 A 
ENDBRANCH  76  89
ENDBRANCH  50  51
ENDBRANCH  43  45
ENDBRANCH  42  43
ENDBRANCH  41  42
ENDBRANCH  40  41
ENDBRANCH  39  40
ENDBRANCH  38  39
ENDBRANCH  37  38
ENDBRANCH  36  37
ENDBRANCH   1  36
TORSDOF 25
ENDMDL
