MODEL 1
REMARK VINA RESULT:      -8.4      0.000      0.000
REMARK SMILES CCC[N@H+](CC)[C@H]1CC[C@]([NH2+]C)(C(=O)OCCOCCOCCOCCOC(=O)c2ccc(-c3c4nc(c(-c5ccccc5)c5ccc([nH]5)c(-c5ccccc5)c5nc(c(-c6ccccc6)c6ccc3[nH]6)C=C5)C=C4)cc2)C1
REMARK SMILES IDX 20 1 19 2 18 3 17 4 16 5 15 6 13 7 14 8 10 9 7 10 8 11 78 12
REMARK SMILES IDX 9 13 4 14 3 16 2 17 1 18 5 19 6 20 11 21 12 22 21 25 22 26
REMARK SMILES IDX 23 27 24 28 25 29 26 30 27 31 28 32 29 33 30 34 31 35 77 36
REMARK SMILES IDX 32 37 76 38 33 39 34 40 35 41 70 42 36 43 75 44 69 45 71 46
REMARK SMILES IDX 37 47 74 48 68 49 67 50 38 52 60 53 45 54 59 55 46 56 49 57
REMARK SMILES IDX 58 58 72 59 47 60 48 61 57 63 73 64 50 65 39 66 40 67 44 68
REMARK SMILES IDX 41 69 43 70 42 71 61 72 62 73 66 74 63 75 65 76 64 77 51 78
REMARK SMILES IDX 52 79 56 80 53 81 55 82 54 83
REMARK H PARENT 4 15 11 23 11 24 71 51 49 62
REMARK Flexibility Score: inf
ROOT
ATOM      1  C   UNL A   1      39.188  21.792  26.117  1.00  0.00     0.188 C 
ENDROOT
BRANCH   1   2
ATOM      2  C   UNL A   1      37.805  22.409  25.842  1.00  0.00     0.188 C 
BRANCH   2   3
ATOM      3  O   UNL A   1      37.294  22.296  24.532  1.00  0.00    -0.376 OA
BRANCH   3   4
ATOM      4  C   UNL A   1      35.990  21.799  24.283  1.00  0.00     0.202 C 
BRANCH   4   5
ATOM      5  C   UNL A   1      35.135  20.980  25.268  1.00  0.00     0.261 C 
BRANCH   5   6
ATOM      6  O   UNL A   1      33.810  21.449  25.516  1.00  0.00    -0.459 OA
BRANCH   6   7
ATOM      7  C   UNL A   1      32.979  21.573  24.447  1.00  0.00     0.368 C 
ATOM      8  O   UNL A   1      32.755  20.659  23.657  1.00  0.00    -0.245 OA
BRANCH   7   9
ATOM      9  C   UNL A   1      32.234  22.935  24.401  1.00  0.00     0.200 C 
ATOM     10  C   UNL A   1      32.190  24.900  25.944  1.00  0.00     0.191 C 
ATOM     11  C   UNL A   1      31.242  23.794  26.466  1.00  0.00     0.072 C 
ATOM     12  C   UNL A   1      33.117  23.972  25.159  1.00  0.00     0.146 C 
ATOM     13  C   UNL A   1      30.960  22.878  25.273  1.00  0.00     0.087 C 
BRANCH  10  14
ATOM     14  N   UNL A   1      31.609  26.013  25.127  1.00  0.00    -0.333 N 
ATOM     15  H   UNL A   1      31.758  25.777  24.146  1.00  0.00     0.348 HD
BRANCH  14  16
ATOM     16  C   UNL A   1      32.278  27.325  25.387  1.00  0.00     0.262 C 
BRANCH  16  17
ATOM     17  C   UNL A   1      32.487  27.805  26.836  1.00  0.00     0.058 C 
ATOM     18  C   UNL A   1      31.769  29.101  27.184  1.00  0.00     0.010 C 
ENDBRANCH  16  17
ENDBRANCH  14  16
BRANCH  14  19
ATOM     19  C   UNL A   1      30.162  26.144  25.432  1.00  0.00     0.258 C 
ATOM     20  C   UNL A   1      29.249  26.376  24.229  1.00  0.00     0.071 C 
ENDBRANCH  14  19
ENDBRANCH  10  14
BRANCH   9  21
ATOM     21  N   UNL A   1      31.858  23.439  23.058  1.00  0.00    -0.334 N 
ATOM     22  C   UNL A   1      32.842  24.167  22.284  1.00  0.00     0.331 C 
ATOM     23  H   UNL A   1      31.057  24.058  23.184  1.00  0.00     0.347 HD
ATOM     24  H   UNL A   1      31.695  22.592  22.513  1.00  0.00     0.347 HD
ENDBRANCH   9  21
ENDBRANCH   7   9
ENDBRANCH   6   7
ENDBRANCH   5   6
ENDBRANCH   4   5
ENDBRANCH   3   4
ENDBRANCH   2   3
ENDBRANCH   1   2
BRANCH   1  25
ATOM     25  O   UNL A   1      40.178  22.613  26.691  1.00  0.00    -0.377 OA
BRANCH  25  26
ATOM     26  C   UNL A   1      41.118  22.037  27.580  1.00  0.00     0.188 C 
BRANCH  26  27
ATOM     27  C   UNL A   1      41.588  20.571  27.455  1.00  0.00     0.188 C 
BRANCH  27  28
ATOM     28  O   UNL A   1      42.253  20.232  26.250  1.00  0.00    -0.376 OA
BRANCH  28  29
ATOM     29  C   UNL A   1      42.456  18.859  25.954  1.00  0.00     0.202 C 
BRANCH  29  30
ATOM     30  C   UNL A   1      43.812  18.471  25.345  1.00  0.00     0.261 C 
BRANCH  30  31
ATOM     31  O   UNL A   1      44.215  19.224  24.192  1.00  0.00    -0.460 OA
BRANCH  31  32
ATOM     32  C   UNL A   1      45.427  19.815  24.236  1.00  0.00     0.338 C 
ATOM     33  O   UNL A   1      46.481  19.381  23.802  1.00  0.00    -0.246 OA
BRANCH  32  34
ATOM     34  C   UNL A   1      45.235  21.185  24.747  1.00  0.00     0.060 A 
ATOM     35  C   UNL A   1      44.826  22.193  23.864  1.00  0.00     0.016 A 
ATOM     36  C   UNL A   1      45.433  21.461  26.101  1.00  0.00     0.016 A 
ATOM     37  C   UNL A   1      44.632  23.493  24.332  1.00  0.00     0.010 A 
ATOM     38  C   UNL A   1      45.268  22.768  26.562  1.00  0.00     0.010 A 
ATOM     39  C   UNL A   1      44.895  23.794  25.673  1.00  0.00    -0.014 A 
BRANCH  39  40
ATOM     40  C   UNL A   1      44.990  25.206  26.110  1.00  0.00     0.031 A 
ATOM     41  C   UNL A   1      46.341  25.866  26.078  1.00  0.00     0.074 A 
ATOM     42  C   UNL A   1      43.910  25.890  26.526  1.00  0.00     0.049 A 
ATOM     43  N   UNL A   1      46.694  27.056  26.488  1.00  0.00    -0.248 NA
ATOM     44  C   UNL A   1      47.441  25.070  25.509  1.00  0.00     0.031 C 
ATOM     45  C   UNL A   1      42.541  25.383  26.551  1.00  0.00     0.029 A 
ATOM     46  N   UNL A   1      43.810  27.166  27.022  1.00  0.00    -0.354 N 
ATOM     47  C   UNL A   1      48.058  27.145  26.242  1.00  0.00     0.074 A 
ATOM     48  C   UNL A   1      48.474  25.883  25.672  1.00  0.00     0.031 C 
ATOM     49  C   UNL A   1      41.735  26.336  27.054  1.00  0.00     0.029 A 
ATOM     50  C   UNL A   1      42.539  27.499  27.424  1.00  0.00     0.049 A 
ATOM     51  H   UNL A   1      44.574  27.782  27.086  1.00  0.00     0.167 HD
ATOM     52  C   UNL A   1      48.893  28.186  26.471  1.00  0.00     0.031 A 
ATOM     53  C   UNL A   1      42.087  28.606  28.047  1.00  0.00     0.031 A 
ATOM     54  C   UNL A   1      48.483  29.433  27.058  1.00  0.00     0.049 A 
ATOM     55  C   UNL A   1      43.053  29.714  28.380  1.00  0.00     0.074 A 
ATOM     56  C   UNL A   1      49.249  30.553  27.322  1.00  0.00     0.029 A 
ATOM     57  N   UNL A   1      47.195  29.716  27.486  1.00  0.00    -0.354 N 
ATOM     58  N   UNL A   1      44.338  29.800  28.123  1.00  0.00    -0.248 NA
ATOM     59  C   UNL A   1      42.505  30.882  29.085  1.00  0.00     0.031 C 
ATOM     60  C   UNL A   1      48.440  31.490  27.971  1.00  0.00     0.029 A 
ATOM     61  C   UNL A   1      47.153  30.983  28.042  1.00  0.00     0.049 A 
ATOM     62  H   UNL A   1      46.425  29.108  27.406  1.00  0.00     0.167 HD
ATOM     63  C   UNL A   1      44.739  31.042  28.602  1.00  0.00     0.074 A 
ATOM     64  C   UNL A   1      43.562  31.679  29.153  1.00  0.00     0.031 C 
ATOM     65  C   UNL A   1      45.972  31.607  28.582  1.00  0.00     0.031 A 
BRANCH  52  66
ATOM     66  C   UNL A   1      50.344  27.998  26.126  1.00  0.00    -0.014 A 
ATOM     67  C   UNL A   1      51.251  27.441  27.041  1.00  0.00     0.009 A 
ATOM     68  C   UNL A   1      50.804  28.363  24.851  1.00  0.00     0.009 A 
ATOM     69  C   UNL A   1      52.596  27.286  26.698  1.00  0.00     0.001 A 
ATOM     70  C   UNL A   1      52.142  28.177  24.499  1.00  0.00     0.001 A 
ATOM     71  C   UNL A   1      53.039  27.648  25.426  1.00  0.00     0.000 A 
ENDBRANCH  52  66
BRANCH  53  72
ATOM     72  C   UNL A   1      40.653  28.716  28.430  1.00  0.00    -0.014 A 
ATOM     73  C   UNL A   1      39.717  29.280  27.549  1.00  0.00     0.009 A 
ATOM     74  C   UNL A   1      40.219  28.286  29.693  1.00  0.00     0.009 A 
ATOM     75  C   UNL A   1      38.384  29.437  27.937  1.00  0.00     0.001 A 
ATOM     76  C   UNL A   1      38.879  28.413  30.066  1.00  0.00     0.001 A 
ATOM     77  C   UNL A   1      37.964  28.999  29.192  1.00  0.00     0.000 A 
ENDBRANCH  53  72
BRANCH  65  78
ATOM     78  C   UNL A   1      46.108  33.005  29.123  1.00  0.00    -0.014 A 
ATOM     79  C   UNL A   1      45.900  34.133  28.314  1.00  0.00     0.009 A 
ATOM     80  C   UNL A   1      46.394  33.192  30.486  1.00  0.00     0.009 A 
ATOM     81  C   UNL A   1      46.008  35.417  28.852  1.00  0.00     0.001 A 
ATOM     82  C   UNL A   1      46.467  34.474  31.029  1.00  0.00     0.001 A 
ATOM     83  C   UNL A   1      46.283  35.587  30.209  1.00  0.00     0.000 A 
ENDBRANCH  65  78
ENDBRANCH  39  40
ENDBRANCH  32  34
ENDBRANCH  31  32
ENDBRANCH  30  31
ENDBRANCH  29  30
ENDBRANCH  28  29
ENDBRANCH  27  28
ENDBRANCH  26  27
ENDBRANCH  25  26
ENDBRANCH   1  25
TORSDOF 25
ENDMDL
MODEL 2
REMARK VINA RESULT:      -8.2      2.153      6.480
REMARK SMILES CCC[N@H+](CC)[C@H]1CC[C@]([NH2+]C)(C(=O)OCCOCCOCCOCCOC(=O)c2ccc(-c3c4nc(c(-c5ccccc5)c5ccc([nH]5)c(-c5ccccc5)c5nc(c(-c6ccccc6)c6ccc3[nH]6)C=C5)C=C4)cc2)C1
REMARK SMILES IDX 20 1 19 2 18 3 17 4 16 5 15 6 13 7 14 8 10 9 7 10 8 11 78 12
REMARK SMILES IDX 9 13 4 14 3 16 2 17 1 18 5 19 6 20 11 21 12 22 21 25 22 26
REMARK SMILES IDX 23 27 24 28 25 29 26 30 27 31 28 32 29 33 30 34 31 35 77 36
REMARK SMILES IDX 32 37 76 38 33 39 34 40 35 41 70 42 36 43 75 44 69 45 71 46
REMARK SMILES IDX 37 47 74 48 68 49 67 50 38 52 60 53 45 54 59 55 46 56 49 57
REMARK SMILES IDX 58 58 72 59 47 60 48 61 57 63 73 64 50 65 39 66 40 67 44 68
REMARK SMILES IDX 41 69 43 70 42 71 61 72 62 73 66 74 63 75 65 76 64 77 51 78
REMARK SMILES IDX 52 79 56 80 53 81 55 82 54 83
REMARK H PARENT 4 15 11 23 11 24 71 51 49 62
REMARK Flexibility Score: inf
ROOT
ATOM      1  C   UNL A   1      36.536  22.580  23.827  1.00  0.00     0.188 C 
ENDROOT
BRANCH   1   2
ATOM      2  C   UNL A   1      35.987  21.397  24.645  1.00  0.00     0.188 C 
BRANCH   2   3
ATOM      3  O   UNL A   1      34.618  21.090  24.500  1.00  0.00    -0.376 OA
BRANCH   3   4
ATOM      4  C   UNL A   1      33.846  20.602  25.585  1.00  0.00     0.202 C 
BRANCH   4   5
ATOM      5  C   UNL A   1      33.082  21.466  26.606  1.00  0.00     0.261 C 
BRANCH   5   6
ATOM      6  O   UNL A   1      33.078  22.875  26.383  1.00  0.00    -0.459 OA
BRANCH   6   7
ATOM      7  C   UNL A   1      31.911  23.539  26.596  1.00  0.00     0.368 C 
ATOM      8  O   UNL A   1      31.230  23.397  27.609  1.00  0.00    -0.245 OA
BRANCH   7   9
ATOM      9  C   UNL A   1      31.596  24.598  25.504  1.00  0.00     0.200 C 
ATOM     10  C   UNL A   1      32.181  27.015  25.265  1.00  0.00     0.191 C 
ATOM     11  C   UNL A   1      30.969  26.855  26.211  1.00  0.00     0.072 C 
ATOM     12  C   UNL A   1      32.769  25.624  25.504  1.00  0.00     0.146 C 
ATOM     13  C   UNL A   1      30.391  25.466  25.931  1.00  0.00     0.087 C 
BRANCH  10  14
ATOM     14  N   UNL A   1      31.926  27.328  23.821  1.00  0.00    -0.333 N 
ATOM     15  H   UNL A   1      31.348  26.576  23.447  1.00  0.00     0.348 HD
BRANCH  14  16
ATOM     16  C   UNL A   1      33.184  27.381  23.015  1.00  0.00     0.262 C 
BRANCH  16  17
ATOM     17  C   UNL A   1      33.289  26.575  21.706  1.00  0.00     0.058 C 
ATOM     18  C   UNL A   1      31.968  26.013  21.200  1.00  0.00     0.010 C 
ENDBRANCH  16  17
ENDBRANCH  14  16
BRANCH  14  19
ATOM     19  C   UNL A   1      31.233  28.637  23.717  1.00  0.00     0.258 C 
ATOM     20  C   UNL A   1      30.189  28.748  22.606  1.00  0.00     0.071 C 
ENDBRANCH  14  19
ENDBRANCH  10  14
BRANCH   9  21
ATOM     21  N   UNL A   1      31.341  24.083  24.137  1.00  0.00    -0.334 N 
ATOM     22  C   UNL A   1      32.420  23.435  23.421  1.00  0.00     0.331 C 
ATOM     23  H   UNL A   1      31.038  24.876  23.571  1.00  0.00     0.347 HD
ATOM     24  H   UNL A   1      30.657  23.339  24.278  1.00  0.00     0.347 HD
ENDBRANCH   9  21
ENDBRANCH   7   9
ENDBRANCH   6   7
ENDBRANCH   5   6
ENDBRANCH   4   5
ENDBRANCH   3   4
ENDBRANCH   2   3
ENDBRANCH   1   2
BRANCH   1  25
ATOM     25  O   UNL A   1      37.160  23.633  24.523  1.00  0.00    -0.377 OA
BRANCH  25  26
ATOM     26  C   UNL A   1      37.490  23.453  25.889  1.00  0.00     0.188 C 
BRANCH  26  27
ATOM     27  C   UNL A   1      38.864  22.917  26.348  1.00  0.00     0.188 C 
BRANCH  27  28
ATOM     28  O   UNL A   1      38.957  21.514  26.525  1.00  0.00    -0.376 OA
BRANCH  28  29
ATOM     29  C   UNL A   1      39.409  20.724  25.436  1.00  0.00     0.202 C 
BRANCH  29  30
ATOM     30  C   UNL A   1      39.959  19.329  25.769  1.00  0.00     0.261 C 
BRANCH  30  31
ATOM     31  O   UNL A   1      41.198  19.304  26.491  1.00  0.00    -0.460 OA
BRANCH  31  32
ATOM     32  C   UNL A   1      42.258  19.907  25.914  1.00  0.00     0.338 C 
ATOM     33  O   UNL A   1      42.924  19.501  24.976  1.00  0.00    -0.246 OA
BRANCH  32  34
ATOM     34  C   UNL A   1      42.374  21.256  26.499  1.00  0.00     0.060 A 
ATOM     35  C   UNL A   1      42.665  22.342  25.662  1.00  0.00     0.016 A 
ATOM     36  C   UNL A   1      42.167  21.446  27.866  1.00  0.00     0.016 A 
ATOM     37  C   UNL A   1      42.770  23.625  26.198  1.00  0.00     0.010 A 
ATOM     38  C   UNL A   1      42.303  22.726  28.406  1.00  0.00     0.010 A 
ATOM     39  C   UNL A   1      42.633  23.815  27.578  1.00  0.00    -0.014 A 
BRANCH  39  40
ATOM     40  C   UNL A   1      43.040  25.099  28.193  1.00  0.00     0.031 A 
ATOM     41  C   UNL A   1      41.976  26.131  28.445  1.00  0.00     0.074 A 
ATOM     42  C   UNL A   1      44.320  25.349  28.521  1.00  0.00     0.049 A 
ATOM     43  N   UNL A   1      42.094  27.355  28.889  1.00  0.00    -0.248 NA
ATOM     44  C   UNL A   1      40.592  25.725  28.149  1.00  0.00     0.031 C 
ATOM     45  C   UNL A   1      45.432  24.414  28.381  1.00  0.00     0.029 A 
ATOM     46  N   UNL A   1      44.895  26.487  29.033  1.00  0.00    -0.354 N 
ATOM     47  C   UNL A   1      40.804  27.869  28.910  1.00  0.00     0.074 A 
ATOM     48  C   UNL A   1      39.923  26.836  28.412  1.00  0.00     0.031 C 
ATOM     49  C   UNL A   1      46.563  25.021  28.782  1.00  0.00     0.029 A 
ATOM     50  C   UNL A   1      46.258  26.399  29.166  1.00  0.00     0.049 A 
ATOM     51  H   UNL A   1      44.379  27.288  29.278  1.00  0.00     0.167 HD
ATOM     52  C   UNL A   1      40.388  29.094  29.310  1.00  0.00     0.031 A 
ATOM     53  C   UNL A   1      47.158  27.335  29.528  1.00  0.00     0.031 A 
ATOM     54  C   UNL A   1      41.267  30.128  29.785  1.00  0.00     0.049 A 
ATOM     55  C   UNL A   1      46.682  28.723  29.876  1.00  0.00     0.074 A 
ATOM     56  C   UNL A   1      40.944  31.399  30.223  1.00  0.00     0.029 A 
ATOM     57  N   UNL A   1      42.646  30.012  29.869  1.00  0.00    -0.354 N 
ATOM     58  N   UNL A   1      45.458  29.194  29.916  1.00  0.00    -0.248 NA
ATOM     59  C   UNL A   1      47.714  29.708  30.234  1.00  0.00     0.031 C 
ATOM     60  C   UNL A   1      42.133  32.076  30.509  1.00  0.00     0.029 A 
ATOM     61  C   UNL A   1      43.191  31.201  30.322  1.00  0.00     0.049 A 
ATOM     62  H   UNL A   1      43.161  29.205  29.642  1.00  0.00     0.167 HD
ATOM     63  C   UNL A   1      45.572  30.514  30.338  1.00  0.00     0.074 A 
ATOM     64  C   UNL A   1      46.982  30.765  30.552  1.00  0.00     0.031 C 
ATOM     65  C   UNL A   1      44.596  31.435  30.536  1.00  0.00     0.031 A 
BRANCH  52  66
ATOM     66  C   UNL A   1      38.919  29.394  29.204  1.00  0.00    -0.014 A 
ATOM     67  C   UNL A   1      38.349  29.863  28.010  1.00  0.00     0.009 A 
ATOM     68  C   UNL A   1      38.087  29.179  30.315  1.00  0.00     0.009 A 
ATOM     69  C   UNL A   1      36.982  30.143  27.942  1.00  0.00     0.001 A 
ATOM     70  C   UNL A   1      36.716  29.428  30.234  1.00  0.00     0.001 A 
ATOM     71  C   UNL A   1      36.167  29.920  29.051  1.00  0.00     0.000 A 
ENDBRANCH  52  66
BRANCH  53  72
ATOM     72  C   UNL A   1      48.610  27.009  29.551  1.00  0.00    -0.014 A 
ATOM     73  C   UNL A   1      49.218  26.528  30.722  1.00  0.00     0.009 A 
ATOM     74  C   UNL A   1      49.403  27.208  28.411  1.00  0.00     0.009 A 
ATOM     75  C   UNL A   1      50.593  26.281  30.756  1.00  0.00     0.001 A 
ATOM     76  C   UNL A   1      50.771  26.928  28.438  1.00  0.00     0.001 A 
ATOM     77  C   UNL A   1      51.367  26.475  29.613  1.00  0.00     0.000 A 
ENDBRANCH  53  72
BRANCH  65  78
ATOM     78  C   UNL A   1      45.006  32.785  31.058  1.00  0.00    -0.014 A 
ATOM     79  C   UNL A   1      45.293  33.854  30.195  1.00  0.00     0.009 A 
ATOM     80  C   UNL A   1      45.049  33.004  32.445  1.00  0.00     0.009 A 
ATOM     81  C   UNL A   1      45.646  35.104  30.712  1.00  0.00     0.001 A 
ATOM     82  C   UNL A   1      45.368  34.261  32.958  1.00  0.00     0.001 A 
ATOM     83  C   UNL A   1      45.676  35.308  32.091  1.00  0.00     0.000 A 
ENDBRANCH  65  78
ENDBRANCH  39  40
ENDBRANCH  32  34
ENDBRANCH  31  32
ENDBRANCH  30  31
ENDBRANCH  29  30
ENDBRANCH  28  29
ENDBRANCH  27  28
ENDBRANCH  26  27
ENDBRANCH  25  26
ENDBRANCH   1  25
TORSDOF 25
ENDMDL
MODEL 3
REMARK VINA RESULT:      -8.2      4.403      8.072
REMARK SMILES CCC[N@H+](CC)[C@H]1CC[C@]([NH2+]C)(C(=O)OCCOCCOCCOCCOC(=O)c2ccc(-c3c4nc(c(-c5ccccc5)c5ccc([nH]5)c(-c5ccccc5)c5nc(c(-c6ccccc6)c6ccc3[nH]6)C=C5)C=C4)cc2)C1
REMARK SMILES IDX 20 1 19 2 18 3 17 4 16 5 15 6 13 7 14 8 10 9 7 10 8 11 78 12
REMARK SMILES IDX 9 13 4 14 3 16 2 17 1 18 5 19 6 20 11 21 12 22 21 25 22 26
REMARK SMILES IDX 23 27 24 28 25 29 26 30 27 31 28 32 29 33 30 34 31 35 77 36
REMARK SMILES IDX 32 37 76 38 33 39 34 40 35 41 70 42 36 43 75 44 69 45 71 46
REMARK SMILES IDX 37 47 74 48 68 49 67 50 38 52 60 53 45 54 59 55 46 56 49 57
REMARK SMILES IDX 58 58 72 59 47 60 48 61 57 63 73 64 50 65 39 66 40 67 44 68
REMARK SMILES IDX 41 69 43 70 42 71 61 72 62 73 66 74 63 75 65 76 64 77 51 78
REMARK SMILES IDX 52 79 56 80 53 81 55 82 54 83
REMARK H PARENT 4 15 11 23 11 24 71 51 49 62
REMARK Flexibility Score: inf
ROOT
ATOM      1  C   UNL A   1      39.317  21.408  26.063  1.00  0.00     0.188 C 
ENDROOT
BRANCH   1   2
ATOM      2  C   UNL A   1      38.130  22.317  25.697  1.00  0.00     0.188 C 
BRANCH   2   3
ATOM      3  O   UNL A   1      36.838  21.866  26.042  1.00  0.00    -0.376 OA
BRANCH   3   4
ATOM      4  C   UNL A   1      35.999  21.220  25.100  1.00  0.00     0.202 C 
BRANCH   4   5
ATOM      5  C   UNL A   1      34.893  21.895  24.268  1.00  0.00     0.261 C 
BRANCH   5   6
ATOM      6  O   UNL A   1      35.039  23.291  24.013  1.00  0.00    -0.459 OA
BRANCH   6   7
ATOM      7  C   UNL A   1      34.074  23.896  23.270  1.00  0.00     0.368 C 
ATOM      8  O   UNL A   1      33.936  23.709  22.063  1.00  0.00    -0.245 OA
BRANCH   7   9
ATOM      9  C   UNL A   1      33.078  24.733  24.117  1.00  0.00     0.200 C 
ATOM     10  C   UNL A   1      32.876  27.182  24.572  1.00  0.00     0.191 C 
ATOM     11  C   UNL A   1      33.957  26.560  25.487  1.00  0.00     0.072 C 
ATOM     12  C   UNL A   1      32.978  26.141  23.457  1.00  0.00     0.146 C 
ATOM     13  C   UNL A   1      33.688  25.054  25.500  1.00  0.00     0.087 C 
BRANCH  10  14
ATOM     14  N   UNL A   1      31.491  27.356  25.116  1.00  0.00    -0.333 N 
ATOM     15  H   UNL A   1      31.053  26.435  25.128  1.00  0.00     0.348 HD
BRANCH  14  16
ATOM     16  C   UNL A   1      30.648  28.250  24.265  1.00  0.00     0.262 C 
BRANCH  16  17
ATOM     17  C   UNL A   1      29.524  27.648  23.400  1.00  0.00     0.058 C 
ATOM     18  C   UNL A   1      28.430  28.631  23.008  1.00  0.00     0.010 C 
ENDBRANCH  16  17
ENDBRANCH  14  16
BRANCH  14  19
ATOM     19  C   UNL A   1      31.568  27.928  26.484  1.00  0.00     0.258 C 
ATOM     20  C   UNL A   1      31.816  29.434  26.560  1.00  0.00     0.071 C 
ENDBRANCH  14  19
ENDBRANCH  10  14
BRANCH   9  21
ATOM     21  N   UNL A   1      31.731  24.148  24.325  1.00  0.00    -0.334 N 
ATOM     22  C   UNL A   1      30.801  24.123  23.215  1.00  0.00     0.331 C 
ATOM     23  H   UNL A   1      31.288  24.678  25.076  1.00  0.00     0.347 HD
ATOM     24  H   UNL A   1      31.916  23.163  24.513  1.00  0.00     0.347 HD
ENDBRANCH   9  21
ENDBRANCH   7   9
ENDBRANCH   6   7
ENDBRANCH   5   6
ENDBRANCH   4   5
ENDBRANCH   3   4
ENDBRANCH   2   3
ENDBRANCH   1   2
BRANCH   1  25
ATOM     25  O   UNL A   1      40.144  21.799  27.134  1.00  0.00    -0.377 OA
BRANCH  25  26
ATOM     26  C   UNL A   1      41.022  20.847  27.706  1.00  0.00     0.188 C 
BRANCH  26  27
ATOM     27  C   UNL A   1      42.525  20.785  27.354  1.00  0.00     0.188 C 
BRANCH  27  28
ATOM     28  O   UNL A   1      42.847  20.200  26.103  1.00  0.00    -0.376 OA
BRANCH  28  29
ATOM     29  C   UNL A   1      43.682  20.925  25.213  1.00  0.00     0.202 C 
BRANCH  29  30
ATOM     30  C   UNL A   1      44.276  22.242  25.734  1.00  0.00     0.261 C 
BRANCH  30  31
ATOM     31  O   UNL A   1      43.589  23.437  25.334  1.00  0.00    -0.460 OA
BRANCH  31  32
ATOM     32  C   UNL A   1      44.265  24.600  25.438  1.00  0.00     0.338 C 
ATOM     33  O   UNL A   1      45.183  24.990  24.736  1.00  0.00    -0.246 OA
BRANCH  32  34
ATOM     34  C   UNL A   1      43.578  25.422  26.451  1.00  0.00     0.060 A 
ATOM     35  C   UNL A   1      44.008  26.738  26.670  1.00  0.00     0.016 A 
ATOM     36  C   UNL A   1      42.496  24.899  27.161  1.00  0.00     0.016 A 
ATOM     37  C   UNL A   1      43.365  27.532  27.619  1.00  0.00     0.010 A 
ATOM     38  C   UNL A   1      41.874  25.684  28.132  1.00  0.00     0.010 A 
ATOM     39  C   UNL A   1      42.324  26.993  28.384  1.00  0.00    -0.014 A 
BRANCH  39  40
ATOM     40  C   UNL A   1      41.843  27.709  29.588  1.00  0.00     0.031 A 
ATOM     41  C   UNL A   1      40.587  28.526  29.470  1.00  0.00     0.074 A 
ATOM     42  C   UNL A   1      42.500  27.640  30.759  1.00  0.00     0.049 A 
ATOM     43  N   UNL A   1      40.017  29.306  30.350  1.00  0.00    -0.248 NA
ATOM     44  C   UNL A   1      39.883  28.455  28.178  1.00  0.00     0.031 C 
ATOM     45  C   UNL A   1      43.695  26.840  31.018  1.00  0.00     0.029 A 
ATOM     46  N   UNL A   1      42.251  28.275  31.951  1.00  0.00    -0.354 N 
ATOM     47  C   UNL A   1      38.899  29.831  29.715  1.00  0.00     0.074 A 
ATOM     48  C   UNL A   1      38.883  29.302  28.370  1.00  0.00     0.031 C 
ATOM     49  C   UNL A   1      44.086  27.044  32.289  1.00  0.00     0.029 A 
ATOM     50  C   UNL A   1      43.195  28.020  32.915  1.00  0.00     0.049 A 
ATOM     51  H   UNL A   1      41.473  28.858  32.099  1.00  0.00     0.167 HD
ATOM     52  C   UNL A   1      37.966  30.679  30.208  1.00  0.00     0.031 A 
ATOM     53  C   UNL A   1      43.338  28.539  34.151  1.00  0.00     0.031 A 
ATOM     54  C   UNL A   1      37.993  31.221  31.540  1.00  0.00     0.049 A 
ATOM     55  C   UNL A   1      42.340  29.556  34.645  1.00  0.00     0.074 A 
ATOM     56  C   UNL A   1      37.090  32.080  32.138  1.00  0.00     0.029 A 
ATOM     57  N   UNL A   1      38.987  30.968  32.473  1.00  0.00    -0.354 N 
ATOM     58  N   UNL A   1      41.272  30.029  34.046  1.00  0.00    -0.248 NA
ATOM     59  C   UNL A   1      42.566  30.108  35.989  1.00  0.00     0.031 C 
ATOM     60  C   UNL A   1      37.572  32.400  33.411  1.00  0.00     0.029 A 
ATOM     61  C   UNL A   1      38.735  31.680  33.633  1.00  0.00     0.049 A 
ATOM     62  H   UNL A   1      39.756  30.370  32.332  1.00  0.00     0.167 HD
ATOM     63  C   UNL A   1      40.682  30.902  34.954  1.00  0.00     0.074 A 
ATOM     64  C   UNL A   1      41.504  30.885  36.146  1.00  0.00     0.031 C 
ATOM     65  C   UNL A   1      39.558  31.649  34.814  1.00  0.00     0.031 A 
BRANCH  52  66
ATOM     66  C   UNL A   1      36.861  31.106  29.282  1.00  0.00    -0.014 A 
ATOM     67  C   UNL A   1      35.887  30.201  28.833  1.00  0.00     0.009 A 
ATOM     68  C   UNL A   1      36.782  32.448  28.874  1.00  0.00     0.009 A 
ATOM     69  C   UNL A   1      34.877  30.623  27.965  1.00  0.00     0.001 A 
ATOM     70  C   UNL A   1      35.753  32.873  28.033  1.00  0.00     0.001 A 
ATOM     71  C   UNL A   1      34.807  31.959  27.571  1.00  0.00     0.000 A 
ENDBRANCH  52  66
BRANCH  53  72
ATOM     72  C   UNL A   1      44.487  28.135  35.005  1.00  0.00    -0.014 A 
ATOM     73  C   UNL A   1      44.357  27.094  35.937  1.00  0.00     0.009 A 
ATOM     74  C   UNL A   1      45.713  28.811  34.914  1.00  0.00     0.009 A 
ATOM     75  C   UNL A   1      45.421  26.760  36.779  1.00  0.00     0.001 A 
ATOM     76  C   UNL A   1      46.786  28.453  35.733  1.00  0.00     0.001 A 
ATOM     77  C   UNL A   1      46.636  27.435  36.673  1.00  0.00     0.000 A 
ENDBRANCH  53  72
BRANCH  65  78
ATOM     78  C   UNL A   1      39.114  32.469  35.995  1.00  0.00    -0.014 A 
ATOM     79  C   UNL A   1      38.263  31.945  36.980  1.00  0.00     0.009 A 
ATOM     80  C   UNL A   1      39.607  33.776  36.151  1.00  0.00     0.009 A 
ATOM     81  C   UNL A   1      37.889  32.724  38.078  1.00  0.00     0.001 A 
ATOM     82  C   UNL A   1      39.261  34.539  37.266  1.00  0.00     0.001 A 
ATOM     83  C   UNL A   1      38.394  34.016  38.224  1.00  0.00     0.000 A 
ENDBRANCH  65  78
ENDBRANCH  39  40
ENDBRANCH  32  34
ENDBRANCH  31  32
ENDBRANCH  30  31
ENDBRANCH  29  30
ENDBRANCH  28  29
ENDBRANCH  27  28
ENDBRANCH  26  27
ENDBRANCH  25  26
ENDBRANCH   1  25
TORSDOF 25
ENDMDL
