MODEL 1
REMARK VINA RESULT:      -8.9      0.000      0.000
REMARK SMILES Cc1nn(C)cc1C[NH+]1CCN(C(=O)c2cnn(CC(=O)OCCOCCOCCOCCOC(=O)c3ccc(-c4c5nc(c(-c6ccccc6)c6ccc([nH]6)c(-c6ccccc6)c6nc(c(-c7ccccc7)c7ccc4[nH]7)C=C6)C=C5)cc3)c2)CC1
REMARK SMILES IDX 27 1 26 2 25 3 24 4 23 5 22 6 20 7 21 8 19 9 18 10 15 11
REMARK SMILES IDX 16 12 85 13 17 14 13 15 9 16 10 17 87 18 11 20 86 21 12 22
REMARK SMILES IDX 14 23 8 24 7 25 1 26 2 27 3 28 4 29 6 30 5 31 28 32 29 33
REMARK SMILES IDX 30 34 31 35 32 36 33 37 34 38 35 39 36 40 37 41 38 42 84 43
REMARK SMILES IDX 39 44 83 45 40 46 41 47 42 48 77 49 43 50 82 51 76 52 78 53
REMARK SMILES IDX 44 54 81 55 75 56 74 57 45 59 67 60 52 61 66 62 53 63 56 64
REMARK SMILES IDX 65 65 79 66 54 67 55 68 64 70 80 71 57 72 46 73 47 74 51 75
REMARK SMILES IDX 48 76 50 77 49 78 68 79 69 80 73 81 70 82 72 83 71 84 58 85
REMARK SMILES IDX 59 86 63 87 60 88 62 89 61 90
REMARK H PARENT 9 19 78 58 56 69
REMARK Flexibility Score: inf
ROOT
ATOM      1  C   UNL A   1      35.418  32.413  28.716  1.00  0.00     0.188 C 
ENDROOT
BRANCH   1   2
ATOM      2  C   UNL A   1      35.209  31.196  27.791  1.00  0.00     0.188 C 
BRANCH   2   3
ATOM      3  O   UNL A   1      35.848  29.955  28.077  1.00  0.00    -0.376 OA
BRANCH   3   4
ATOM      4  C   UNL A   1      36.638  29.828  29.249  1.00  0.00     0.202 C 
BRANCH   4   5
ATOM      5  C   UNL A   1      38.154  29.667  29.074  1.00  0.00     0.261 C 
BRANCH   5   6
ATOM      6  O   UNL A   1      38.592  28.386  28.564  1.00  0.00    -0.462 OA
BRANCH   6   7
ATOM      7  C   UNL A   1      39.221  27.579  29.455  1.00  0.00     0.327 C 
ATOM      8  O   UNL A   1      38.683  27.147  30.474  1.00  0.00    -0.250 OA
BRANCH   7   9
ATOM      9  C   UNL A   1      40.648  27.212  29.157  1.00  0.00     0.266 C 
BRANCH   9  10
ATOM     10  N   UNL A   1      40.939  26.192  28.157  1.00  0.00    -0.261 N 
ATOM     11  C   UNL A   1      40.607  24.399  26.898  1.00  0.00     0.078 A 
ATOM     12  C   UNL A   1      41.107  25.490  26.159  1.00  0.00     0.149 A 
ATOM     13  C   UNL A   1      40.520  24.886  28.190  1.00  0.00     0.123 A 
ATOM     14  N   UNL A   1      41.306  26.577  26.909  1.00  0.00    -0.180 NA
BRANCH  11  15
ATOM     15  C   UNL A   1      40.123  23.109  26.429  1.00  0.00     0.257 C 
ATOM     16  N   UNL A   1      35.991  22.549  25.181  1.00  0.00    -0.328 N 
ATOM     17  C   UNL A   1      36.821  21.413  25.582  1.00  0.00     0.284 C 
ATOM     18  C   UNL A   1      36.339  23.741  25.949  1.00  0.00     0.284 C 
ATOM     19  H   UNL A   1      35.035  22.314  25.444  1.00  0.00     0.348 HD
ATOM     20  C   UNL A   1      38.334  21.676  25.629  1.00  0.00     0.181 C 
ATOM     21  C   UNL A   1      37.822  24.063  26.212  1.00  0.00     0.181 C 
ATOM     22  N   UNL A   1      38.740  22.931  26.265  1.00  0.00    -0.327 N 
ATOM     23  O   UNL A   1      40.927  22.220  26.158  1.00  0.00    -0.269 OA
BRANCH  16  24
ATOM     24  C   UNL A   1      35.783  22.731  23.742  1.00  0.00     0.302 C 
BRANCH  24  25
ATOM     25  C   UNL A   1      34.453  23.277  23.375  1.00  0.00     0.047 A 
ATOM     26  C   UNL A   1      32.854  21.249  23.850  1.00  0.00     0.069 C 
ATOM     27  C   UNL A   1      33.189  22.623  23.398  1.00  0.00     0.068 A 
ATOM     28  N   UNL A   1      32.224  23.398  22.885  1.00  0.00    -0.178 NA
ATOM     29  N   UNL A   1      32.861  24.530  22.549  1.00  0.00    -0.275 N 
ATOM     30  C   UNL A   1      34.153  24.563  22.972  1.00  0.00     0.118 A 
ATOM     31  C   UNL A   1      32.206  25.507  21.716  1.00  0.00     0.173 C 
ENDBRANCH  24  25
ENDBRANCH  16  24
ENDBRANCH  11  15
ENDBRANCH   9  10
ENDBRANCH   7   9
ENDBRANCH   6   7
ENDBRANCH   5   6
ENDBRANCH   4   5
ENDBRANCH   3   4
ENDBRANCH   2   3
ENDBRANCH   1   2
BRANCH   1  32
ATOM     32  O   UNL A   1      34.956  33.658  28.215  1.00  0.00    -0.377 OA
BRANCH  32  33
ATOM     33  C   UNL A   1      33.550  33.767  28.068  1.00  0.00     0.188 C 
BRANCH  33  34
ATOM     34  C   UNL A   1      32.894  34.959  28.780  1.00  0.00     0.188 C 
BRANCH  34  35
ATOM     35  O   UNL A   1      33.765  35.614  29.703  1.00  0.00    -0.376 OA
BRANCH  35  36
ATOM     36  C   UNL A   1      33.199  36.595  30.563  1.00  0.00     0.202 C 
BRANCH  36  37
ATOM     37  C   UNL A   1      32.396  35.990  31.714  1.00  0.00     0.261 C 
BRANCH  37  38
ATOM     38  O   UNL A   1      33.073  34.948  32.413  1.00  0.00    -0.460 OA
BRANCH  38  39
ATOM     39  C   UNL A   1      34.072  35.297  33.242  1.00  0.00     0.338 C 
ATOM     40  O   UNL A   1      34.209  36.363  33.832  1.00  0.00    -0.246 OA
BRANCH  39  41
ATOM     41  C   UNL A   1      35.055  34.208  33.288  1.00  0.00     0.060 A 
ATOM     42  C   UNL A   1      35.858  34.116  34.430  1.00  0.00     0.016 A 
ATOM     43  C   UNL A   1      35.335  33.468  32.132  1.00  0.00     0.016 A 
ATOM     44  C   UNL A   1      37.079  33.480  34.330  1.00  0.00     0.010 A 
ATOM     45  C   UNL A   1      36.556  32.848  32.035  1.00  0.00     0.010 A 
ATOM     46  C   UNL A   1      37.453  32.960  33.092  1.00  0.00    -0.014 A 
BRANCH  46  47
ATOM     47  C   UNL A   1      38.852  32.705  32.831  1.00  0.00     0.031 A 
ATOM     48  C   UNL A   1      39.413  31.429  33.301  1.00  0.00     0.074 A 
ATOM     49  C   UNL A   1      39.567  33.499  32.010  1.00  0.00     0.049 A 
ATOM     50  N   UNL A   1      40.324  31.237  34.193  1.00  0.00    -0.248 NA
ATOM     51  C   UNL A   1      38.864  30.205  32.714  1.00  0.00     0.031 C 
ATOM     52  C   UNL A   1      39.089  34.572  31.131  1.00  0.00     0.029 A 
ATOM     53  N   UNL A   1      40.886  33.408  31.707  1.00  0.00    -0.354 N 
ATOM     54  C   UNL A   1      40.584  29.871  34.176  1.00  0.00     0.074 A 
ATOM     55  C   UNL A   1      39.575  29.268  33.339  1.00  0.00     0.031 C 
ATOM     56  C   UNL A   1      40.060  34.877  30.243  1.00  0.00     0.029 A 
ATOM     57  C   UNL A   1      41.259  34.130  30.588  1.00  0.00     0.049 A 
ATOM     58  H   UNL A   1      41.522  32.874  32.235  1.00  0.00     0.167 HD
ATOM     59  C   UNL A   1      41.729  29.346  34.686  1.00  0.00     0.031 A 
ATOM     60  C   UNL A   1      42.455  34.067  29.962  1.00  0.00     0.031 A 
ATOM     61  C   UNL A   1      42.454  30.281  35.502  1.00  0.00     0.049 A 
ATOM     62  C   UNL A   1      43.428  33.461  30.905  1.00  0.00     0.074 A 
ATOM     63  C   UNL A   1      42.157  31.021  36.631  1.00  0.00     0.029 A 
ATOM     64  N   UNL A   1      43.578  30.863  34.966  1.00  0.00    -0.354 N 
ATOM     65  N   UNL A   1      43.845  34.045  31.992  1.00  0.00    -0.248 NA
ATOM     66  C   UNL A   1      43.651  32.024  30.849  1.00  0.00     0.031 C 
ATOM     67  C   UNL A   1      42.802  32.277  36.428  1.00  0.00     0.029 A 
ATOM     68  C   UNL A   1      43.473  32.210  35.204  1.00  0.00     0.049 A 
ATOM     69  H   UNL A   1      44.314  30.402  34.502  1.00  0.00     0.167 HD
ATOM     70  C   UNL A   1      44.003  33.020  32.915  1.00  0.00     0.074 A 
ATOM     71  C   UNL A   1      43.994  31.796  32.121  1.00  0.00     0.031 C 
ATOM     72  C   UNL A   1      43.845  33.238  34.256  1.00  0.00     0.031 A 
BRANCH  59  73
ATOM     73  C   UNL A   1      42.354  28.083  34.168  1.00  0.00    -0.014 A 
ATOM     74  C   UNL A   1      42.422  26.958  35.005  1.00  0.00     0.009 A 
ATOM     75  C   UNL A   1      43.094  28.037  32.970  1.00  0.00     0.009 A 
ATOM     76  C   UNL A   1      43.207  25.850  34.666  1.00  0.00     0.001 A 
ATOM     77  C   UNL A   1      43.841  26.916  32.606  1.00  0.00     0.001 A 
ATOM     78  C   UNL A   1      43.913  25.828  33.466  1.00  0.00     0.000 A 
ENDBRANCH  59  73
BRANCH  60  79
ATOM     79  C   UNL A   1      42.754  34.296  28.537  1.00  0.00    -0.014 A 
ATOM     80  C   UNL A   1      42.228  35.408  27.866  1.00  0.00     0.009 A 
ATOM     81  C   UNL A   1      43.746  33.542  27.883  1.00  0.00     0.009 A 
ATOM     82  C   UNL A   1      42.700  35.770  26.598  1.00  0.00     0.001 A 
ATOM     83  C   UNL A   1      44.209  33.894  26.612  1.00  0.00     0.001 A 
ATOM     84  C   UNL A   1      43.694  35.019  25.975  1.00  0.00     0.000 A 
ENDBRANCH  60  79
BRANCH  72  85
ATOM     85  C   UNL A   1      43.725  34.667  34.734  1.00  0.00    -0.014 A 
ATOM     86  C   UNL A   1      42.539  35.412  34.598  1.00  0.00     0.009 A 
ATOM     87  C   UNL A   1      44.772  35.223  35.483  1.00  0.00     0.009 A 
ATOM     88  C   UNL A   1      42.420  36.686  35.161  1.00  0.00     0.001 A 
ATOM     89  C   UNL A   1      44.645  36.488  36.066  1.00  0.00     0.001 A 
ATOM     90  C   UNL A   1      43.471  37.221  35.899  1.00  0.00     0.000 A 
ENDBRANCH  72  85
ENDBRANCH  46  47
ENDBRANCH  39  41
ENDBRANCH  38  39
ENDBRANCH  37  38
ENDBRANCH  36  37
ENDBRANCH  35  36
ENDBRANCH  34  35
ENDBRANCH  33  34
ENDBRANCH  32  33
ENDBRANCH   1  32
TORSDOF 24
ENDMDL
MODEL 2
REMARK VINA RESULT:      -8.5      4.396     11.495
REMARK SMILES Cc1nn(C)cc1C[NH+]1CCN(C(=O)c2cnn(CC(=O)OCCOCCOCCOCCOC(=O)c3ccc(-c4c5nc(c(-c6ccccc6)c6ccc([nH]6)c(-c6ccccc6)c6nc(c(-c7ccccc7)c7ccc4[nH]7)C=C6)C=C5)cc3)c2)CC1
REMARK SMILES IDX 27 1 26 2 25 3 24 4 23 5 22 6 20 7 21 8 19 9 18 10 15 11
REMARK SMILES IDX 16 12 85 13 17 14 13 15 9 16 10 17 87 18 11 20 86 21 12 22
REMARK SMILES IDX 14 23 8 24 7 25 1 26 2 27 3 28 4 29 6 30 5 31 28 32 29 33
REMARK SMILES IDX 30 34 31 35 32 36 33 37 34 38 35 39 36 40 37 41 38 42 84 43
REMARK SMILES IDX 39 44 83 45 40 46 41 47 42 48 77 49 43 50 82 51 76 52 78 53
REMARK SMILES IDX 44 54 81 55 75 56 74 57 45 59 67 60 52 61 66 62 53 63 56 64
REMARK SMILES IDX 65 65 79 66 54 67 55 68 64 70 80 71 57 72 46 73 47 74 51 75
REMARK SMILES IDX 48 76 50 77 49 78 68 79 69 80 73 81 70 82 72 83 71 84 58 85
REMARK SMILES IDX 59 86 63 87 60 88 62 89 61 90
REMARK H PARENT 9 19 78 58 56 69
REMARK Flexibility Score: inf
ROOT
ATOM      1  C   UNL A   1      36.356  21.888  24.275  1.00  0.00     0.188 C 
ENDROOT
BRANCH   1   2
ATOM      2  C   UNL A   1      35.667  21.713  25.644  1.00  0.00     0.188 C 
BRANCH   2   3
ATOM      3  O   UNL A   1      34.638  20.743  25.814  1.00  0.00    -0.376 OA
BRANCH   3   4
ATOM      4  C   UNL A   1      34.140  20.045  24.683  1.00  0.00     0.202 C 
BRANCH   4   5
ATOM      5  C   UNL A   1      32.765  20.454  24.140  1.00  0.00     0.261 C 
BRANCH   5   6
ATOM      6  O   UNL A   1      32.237  21.701  24.651  1.00  0.00    -0.462 OA
BRANCH   6   7
ATOM      7  C   UNL A   1      31.981  22.659  23.724  1.00  0.00     0.327 C 
ATOM      8  O   UNL A   1      30.884  22.803  23.186  1.00  0.00    -0.250 OA
BRANCH   7   9
ATOM      9  C   UNL A   1      33.115  23.573  23.354  1.00  0.00     0.266 C 
BRANCH   9  10
ATOM     10  N   UNL A   1      32.837  24.951  22.967  1.00  0.00    -0.261 N 
ATOM     11  C   UNL A   1      32.379  27.103  23.230  1.00  0.00     0.078 A 
ATOM     12  C   UNL A   1      33.409  26.883  22.295  1.00  0.00     0.149 A 
ATOM     13  C   UNL A   1      32.024  25.829  23.639  1.00  0.00     0.123 A 
ATOM     14  N   UNL A   1      33.696  25.588  22.132  1.00  0.00    -0.180 NA
BRANCH  11  15
ATOM     15  C   UNL A   1      31.890  28.355  23.790  1.00  0.00     0.257 C 
ATOM     16  N   UNL A   1      33.407  29.901  27.565  1.00  0.00    -0.328 N 
ATOM     17  C   UNL A   1      32.114  30.333  27.035  1.00  0.00     0.284 C 
ATOM     18  C   UNL A   1      33.669  28.507  27.219  1.00  0.00     0.284 C 
ATOM     19  H   UNL A   1      33.326  29.929  28.581  1.00  0.00     0.348 HD
ATOM     20  C   UNL A   1      31.864  30.025  25.552  1.00  0.00     0.181 C 
ATOM     21  C   UNL A   1      33.331  28.004  25.804  1.00  0.00     0.181 C 
ATOM     22  N   UNL A   1      32.241  28.681  25.109  1.00  0.00    -0.327 N 
ATOM     23  O   UNL A   1      31.214  29.109  23.095  1.00  0.00    -0.269 OA
BRANCH  16  24
ATOM     24  C   UNL A   1      34.523  30.839  27.409  1.00  0.00     0.302 C 
BRANCH  24  25
ATOM     25  C   UNL A   1      34.970  31.480  28.670  1.00  0.00     0.047 A 
ATOM     26  C   UNL A   1      36.863  29.858  29.494  1.00  0.00     0.069 C 
ATOM     27  C   UNL A   1      35.967  31.038  29.585  1.00  0.00     0.068 A 
ATOM     28  N   UNL A   1      36.014  31.815  30.676  1.00  0.00    -0.178 NA
ATOM     29  N   UNL A   1      35.070  32.742  30.454  1.00  0.00    -0.275 N 
ATOM     30  C   UNL A   1      34.538  32.678  29.204  1.00  0.00     0.118 A 
ATOM     31  C   UNL A   1      34.635  33.600  31.528  1.00  0.00     0.173 C 
ENDBRANCH  24  25
ENDBRANCH  16  24
ENDBRANCH  11  15
ENDBRANCH   9  10
ENDBRANCH   7   9
ENDBRANCH   6   7
ENDBRANCH   5   6
ENDBRANCH   4   5
ENDBRANCH   3   4
ENDBRANCH   2   3
ENDBRANCH   1   2
BRANCH   1  32
ATOM     32  O   UNL A   1      37.770  21.758  24.272  1.00  0.00    -0.377 OA
BRANCH  32  33
ATOM     33  C   UNL A   1      38.358  21.521  25.540  1.00  0.00     0.188 C 
BRANCH  33  34
ATOM     34  C   UNL A   1      39.144  20.209  25.678  1.00  0.00     0.188 C 
BRANCH  34  35
ATOM     35  O   UNL A   1      40.504  20.404  26.066  1.00  0.00    -0.376 OA
BRANCH  35  36
ATOM     36  C   UNL A   1      41.339  19.256  26.149  1.00  0.00     0.202 C 
BRANCH  36  37
ATOM     37  C   UNL A   1      42.826  19.589  26.036  1.00  0.00     0.261 C 
BRANCH  37  38
ATOM     38  O   UNL A   1      43.131  20.575  25.052  1.00  0.00    -0.460 OA
BRANCH  38  39
ATOM     39  C   UNL A   1      44.419  20.927  24.899  1.00  0.00     0.338 C 
ATOM     40  O   UNL A   1      45.365  20.191  24.642  1.00  0.00    -0.246 OA
BRANCH  39  41
ATOM     41  C   UNL A   1      44.553  22.365  25.165  1.00  0.00     0.060 A 
ATOM     42  C   UNL A   1      45.841  22.856  25.407  1.00  0.00     0.016 A 
ATOM     43  C   UNL A   1      43.414  23.141  25.413  1.00  0.00     0.016 A 
ATOM     44  C   UNL A   1      45.979  24.022  26.131  1.00  0.00     0.010 A 
ATOM     45  C   UNL A   1      43.557  24.294  26.144  1.00  0.00     0.010 A 
ATOM     46  C   UNL A   1      44.825  24.656  26.587  1.00  0.00    -0.014 A 
BRANCH  46  47
ATOM     47  C   UNL A   1      44.923  25.584  27.692  1.00  0.00     0.031 A 
ATOM     48  C   UNL A   1      44.774  27.018  27.395  1.00  0.00     0.074 A 
ATOM     49  C   UNL A   1      44.940  25.154  28.968  1.00  0.00     0.049 A 
ATOM     50  N   UNL A   1      45.650  27.954  27.516  1.00  0.00    -0.248 NA
ATOM     51  C   UNL A   1      43.479  27.456  26.867  1.00  0.00     0.031 C 
ATOM     52  C   UNL A   1      44.686  23.804  29.481  1.00  0.00     0.029 A 
ATOM     53  N   UNL A   1      45.068  25.900  30.094  1.00  0.00    -0.354 N 
ATOM     54  C   UNL A   1      44.978  29.138  27.231  1.00  0.00     0.074 A 
ATOM     55  C   UNL A   1      43.681  28.764  26.720  1.00  0.00     0.031 C 
ATOM     56  C   UNL A   1      44.465  23.874  30.812  1.00  0.00     0.029 A 
ATOM     57  C   UNL A   1      44.706  25.238  31.253  1.00  0.00     0.049 A 
ATOM     58  H   UNL A   1      45.390  26.830  30.088  1.00  0.00     0.167 HD
ATOM     59  C   UNL A   1      45.451  30.351  27.620  1.00  0.00     0.031 A 
ATOM     60  C   UNL A   1      44.560  25.795  32.476  1.00  0.00     0.031 A 
ATOM     61  C   UNL A   1      46.822  30.301  28.049  1.00  0.00     0.049 A 
ATOM     62  C   UNL A   1      45.273  27.097  32.467  1.00  0.00     0.074 A 
ATOM     63  C   UNL A   1      48.009  29.900  27.466  1.00  0.00     0.029 A 
ATOM     64  N   UNL A   1      47.074  30.354  29.399  1.00  0.00    -0.354 N 
ATOM     65  N   UNL A   1      46.567  27.216  32.389  1.00  0.00    -0.248 NA
ATOM     66  C   UNL A   1      44.520  28.302  32.150  1.00  0.00     0.031 C 
ATOM     67  C   UNL A   1      48.736  29.261  28.515  1.00  0.00     0.029 A 
ATOM     68  C   UNL A   1      47.957  29.340  29.672  1.00  0.00     0.049 A 
ATOM     69  H   UNL A   1      46.693  30.994  30.044  1.00  0.00     0.167 HD
ATOM     70  C   UNL A   1      46.780  28.358  31.629  1.00  0.00     0.074 A 
ATOM     71  C   UNL A   1      45.494  29.048  31.621  1.00  0.00     0.031 C 
ATOM     72  C   UNL A   1      47.893  28.495  30.846  1.00  0.00     0.031 A 
BRANCH  59  73
ATOM     73  C   UNL A   1      44.559  31.520  27.923  1.00  0.00    -0.014 A 
ATOM     74  C   UNL A   1      44.711  32.706  27.188  1.00  0.00     0.009 A 
ATOM     75  C   UNL A   1      43.739  31.574  29.067  1.00  0.00     0.009 A 
ATOM     76  C   UNL A   1      44.085  33.892  27.592  1.00  0.00     0.001 A 
ATOM     77  C   UNL A   1      43.077  32.743  29.447  1.00  0.00     0.001 A 
ATOM     78  C   UNL A   1      43.267  33.909  28.717  1.00  0.00     0.000 A 
ENDBRANCH  59  73
BRANCH  60  79
ATOM     79  C   UNL A   1      43.668  25.374  33.572  1.00  0.00    -0.014 A 
ATOM     80  C   UNL A   1      43.652  24.044  34.009  1.00  0.00     0.009 A 
ATOM     81  C   UNL A   1      42.989  26.331  34.350  1.00  0.00     0.009 A 
ATOM     82  C   UNL A   1      43.003  23.687  35.198  1.00  0.00     0.001 A 
ATOM     83  C   UNL A   1      42.331  25.975  35.530  1.00  0.00     0.001 A 
ATOM     84  C   UNL A   1      42.351  24.653  35.962  1.00  0.00     0.000 A 
ENDBRANCH  60  79
BRANCH  72  85
ATOM     85  C   UNL A   1      49.002  27.482  31.004  1.00  0.00    -0.014 A 
ATOM     86  C   UNL A   1      49.829  27.438  32.142  1.00  0.00     0.009 A 
ATOM     87  C   UNL A   1      49.117  26.447  30.065  1.00  0.00     0.009 A 
ATOM     88  C   UNL A   1      50.763  26.413  32.315  1.00  0.00     0.001 A 
ATOM     89  C   UNL A   1      50.036  25.409  30.248  1.00  0.00     0.001 A 
ATOM     90  C   UNL A   1      50.863  25.396  31.370  1.00  0.00     0.000 A 
ENDBRANCH  72  85
ENDBRANCH  46  47
ENDBRANCH  39  41
ENDBRANCH  38  39
ENDBRANCH  37  38
ENDBRANCH  36  37
ENDBRANCH  35  36
ENDBRANCH  34  35
ENDBRANCH  33  34
ENDBRANCH  32  33
ENDBRANCH   1  32
TORSDOF 24
ENDMDL
MODEL 3
REMARK VINA RESULT:      -8.5      5.235      9.461
REMARK SMILES Cc1nn(C)cc1C[NH+]1CCN(C(=O)c2cnn(CC(=O)OCCOCCOCCOCCOC(=O)c3ccc(-c4c5nc(c(-c6ccccc6)c6ccc([nH]6)c(-c6ccccc6)c6nc(c(-c7ccccc7)c7ccc4[nH]7)C=C6)C=C5)cc3)c2)CC1
REMARK SMILES IDX 27 1 26 2 25 3 24 4 23 5 22 6 20 7 21 8 19 9 18 10 15 11
REMARK SMILES IDX 16 12 85 13 17 14 13 15 9 16 10 17 87 18 11 20 86 21 12 22
REMARK SMILES IDX 14 23 8 24 7 25 1 26 2 27 3 28 4 29 6 30 5 31 28 32 29 33
REMARK SMILES IDX 30 34 31 35 32 36 33 37 34 38 35 39 36 40 37 41 38 42 84 43
REMARK SMILES IDX 39 44 83 45 40 46 41 47 42 48 77 49 43 50 82 51 76 52 78 53
REMARK SMILES IDX 44 54 81 55 75 56 74 57 45 59 67 60 52 61 66 62 53 63 56 64
REMARK SMILES IDX 65 65 79 66 54 67 55 68 64 70 80 71 57 72 46 73 47 74 51 75
REMARK SMILES IDX 48 76 50 77 49 78 68 79 69 80 73 81 70 82 72 83 71 84 58 85
REMARK SMILES IDX 59 86 63 87 60 88 62 89 61 90
REMARK H PARENT 9 19 78 58 56 69
REMARK Flexibility Score: inf
ROOT
ATOM      1  C   UNL A   1      34.524  23.754  22.941  1.00  0.00     0.188 C 
ENDROOT
BRANCH   1   2
ATOM      2  C   UNL A   1      34.226  25.248  23.187  1.00  0.00     0.188 C 
BRANCH   2   3
ATOM      3  O   UNL A   1      33.362  25.965  22.310  1.00  0.00    -0.376 OA
BRANCH   3   4
ATOM      4  C   UNL A   1      33.602  27.340  22.060  1.00  0.00     0.202 C 
BRANCH   4   5
ATOM      5  C   UNL A   1      34.111  28.200  23.225  1.00  0.00     0.261 C 
BRANCH   5   6
ATOM      6  O   UNL A   1      33.384  29.429  23.458  1.00  0.00    -0.462 OA
BRANCH   6   7
ATOM      7  C   UNL A   1      32.723  29.510  24.640  1.00  0.00     0.327 C 
ATOM      8  O   UNL A   1      33.222  29.977  25.664  1.00  0.00    -0.250 OA
BRANCH   7   9
ATOM      9  C   UNL A   1      31.311  28.993  24.671  1.00  0.00     0.266 C 
BRANCH   9  10
ATOM     10  N   UNL A   1      31.066  27.557  24.611  1.00  0.00    -0.261 N 
ATOM     11  C   UNL A   1      30.923  25.467  25.336  1.00  0.00     0.078 A 
ATOM     12  C   UNL A   1      29.802  25.850  24.574  1.00  0.00     0.149 A 
ATOM     13  C   UNL A   1      31.727  26.594  25.332  1.00  0.00     0.123 A 
ATOM     14  N   UNL A   1      29.876  27.110  24.136  1.00  0.00    -0.180 NA
BRANCH  11  15
ATOM     15  C   UNL A   1      31.147  24.252  26.105  1.00  0.00     0.257 C 
ATOM     16  N   UNL A   1      32.227  20.506  24.171  1.00  0.00    -0.328 N 
ATOM     17  C   UNL A   1      31.638  20.524  25.511  1.00  0.00     0.284 C 
ATOM     18  C   UNL A   1      31.690  21.591  23.355  1.00  0.00     0.284 C 
ATOM     19  H   UNL A   1      31.915  19.641  23.732  1.00  0.00     0.348 HD
ATOM     20  C   UNL A   1      31.656  21.882  26.229  1.00  0.00     0.181 C 
ATOM     21  C   UNL A   1      31.506  22.986  23.979  1.00  0.00     0.181 C 
ATOM     22  N   UNL A   1      31.261  23.035  25.416  1.00  0.00    -0.327 N 
ATOM     23  O   UNL A   1      31.263  24.319  27.326  1.00  0.00    -0.269 OA
BRANCH  16  24
ATOM     24  C   UNL A   1      33.673  20.280  24.097  1.00  0.00     0.302 C 
BRANCH  24  25
ATOM     25  C   UNL A   1      34.073  18.852  24.073  1.00  0.00     0.047 A 
ATOM     26  C   UNL A   1      32.433  17.830  22.296  1.00  0.00     0.069 C 
ATOM     27  C   UNL A   1      33.515  17.786  23.311  1.00  0.00     0.068 A 
ATOM     28  N   UNL A   1      34.059  16.607  23.641  1.00  0.00    -0.178 NA
ATOM     29  N   UNL A   1      34.955  16.917  24.590  1.00  0.00    -0.275 N 
ATOM     30  C   UNL A   1      35.112  18.257  24.762  1.00  0.00     0.118 A 
ATOM     31  C   UNL A   1      35.553  15.874  25.386  1.00  0.00     0.173 C 
ENDBRANCH  24  25
ENDBRANCH  16  24
ENDBRANCH  11  15
ENDBRANCH   9  10
ENDBRANCH   7   9
ENDBRANCH   6   7
ENDBRANCH   5   6
ENDBRANCH   4   5
ENDBRANCH   3   4
ENDBRANCH   2   3
ENDBRANCH   1   2
BRANCH   1  32
ATOM     32  O   UNL A   1      35.875  23.433  22.646  1.00  0.00    -0.377 OA
BRANCH  32  33
ATOM     33  C   UNL A   1      36.544  22.667  23.633  1.00  0.00     0.188 C 
BRANCH  33  34
ATOM     34  C   UNL A   1      35.945  22.729  25.046  1.00  0.00     0.188 C 
BRANCH  34  35
ATOM     35  O   UNL A   1      36.838  22.265  26.059  1.00  0.00    -0.376 OA
BRANCH  35  36
ATOM     36  C   UNL A   1      38.189  22.707  26.001  1.00  0.00     0.202 C 
BRANCH  36  37
ATOM     37  C   UNL A   1      39.191  21.556  25.918  1.00  0.00     0.261 C 
BRANCH  37  38
ATOM     38  O   UNL A   1      40.287  21.671  26.824  1.00  0.00    -0.460 OA
BRANCH  38  39
ATOM     39  C   UNL A   1      41.452  22.133  26.339  1.00  0.00     0.338 C 
ATOM     40  O   UNL A   1      42.225  21.554  25.584  1.00  0.00    -0.246 OA
BRANCH  39  41
ATOM     41  C   UNL A   1      41.718  23.455  26.920  1.00  0.00     0.060 A 
ATOM     42  C   UNL A   1      41.571  24.566  26.083  1.00  0.00     0.016 A 
ATOM     43  C   UNL A   1      42.333  23.557  28.174  1.00  0.00     0.016 A 
ATOM     44  C   UNL A   1      42.262  25.721  26.389  1.00  0.00     0.010 A 
ATOM     45  C   UNL A   1      43.028  24.705  28.467  1.00  0.00     0.010 A 
ATOM     46  C   UNL A   1      43.074  25.723  27.521  1.00  0.00    -0.014 A 
BRANCH  46  47
ATOM     47  C   UNL A   1      44.129  26.706  27.626  1.00  0.00     0.031 A 
ATOM     48  C   UNL A   1      45.496  26.281  27.283  1.00  0.00     0.074 A 
ATOM     49  C   UNL A   1      43.854  28.010  27.822  1.00  0.00     0.049 A 
ATOM     50  N   UNL A   1      46.525  26.203  28.055  1.00  0.00    -0.248 NA
ATOM     51  C   UNL A   1      45.735  25.863  25.900  1.00  0.00     0.031 C 
ATOM     52  C   UNL A   1      42.553  28.687  27.779  1.00  0.00     0.029 A 
ATOM     53  N   UNL A   1      44.734  29.031  27.980  1.00  0.00    -0.354 N 
ATOM     54  C   UNL A   1      47.592  25.875  27.226  1.00  0.00     0.074 A 
ATOM     55  C   UNL A   1      47.031  25.558  25.935  1.00  0.00     0.031 C 
ATOM     56  C   UNL A   1      42.754  30.020  27.689  1.00  0.00     0.029 A 
ATOM     57  C   UNL A   1      44.177  30.286  27.817  1.00  0.00     0.049 A 
ATOM     58  H   UNL A   1      45.685  28.891  28.191  1.00  0.00     0.167 HD
ATOM     59  C   UNL A   1      48.884  26.079  27.594  1.00  0.00     0.031 A 
ATOM     60  C   UNL A   1      44.855  31.453  27.735  1.00  0.00     0.031 A 
ATOM     61  C   UNL A   1      49.025  26.351  28.998  1.00  0.00     0.049 A 
ATOM     62  C   UNL A   1      46.213  31.227  28.288  1.00  0.00     0.074 A 
ATOM     63  C   UNL A   1      48.683  25.681  30.157  1.00  0.00     0.029 A 
ATOM     64  N   UNL A   1      49.260  27.650  29.380  1.00  0.00    -0.354 N 
ATOM     65  N   UNL A   1      46.455  30.989  29.545  1.00  0.00    -0.248 NA
ATOM     66  C   UNL A   1      47.289  30.875  27.374  1.00  0.00     0.031 C 
ATOM     67  C   UNL A   1      48.248  26.700  31.056  1.00  0.00     0.029 A 
ATOM     68  C   UNL A   1      48.380  27.924  30.397  1.00  0.00     0.049 A 
ATOM     69  H   UNL A   1      49.928  28.264  28.997  1.00  0.00     0.167 HD
ATOM     70  C   UNL A   1      47.516  30.094  29.547  1.00  0.00     0.074 A 
ATOM     71  C   UNL A   1      48.066  30.163  28.197  1.00  0.00     0.031 C 
ATOM     72  C   UNL A   1      47.675  29.179  30.550  1.00  0.00     0.031 A 
BRANCH  59  73
ATOM     73  C   UNL A   1      49.983  26.359  26.610  1.00  0.00    -0.014 A 
ATOM     74  C   UNL A   1      49.806  27.372  25.654  1.00  0.00     0.009 A 
ATOM     75  C   UNL A   1      51.086  25.499  26.438  1.00  0.00     0.009 A 
ATOM     76  C   UNL A   1      50.682  27.504  24.570  1.00  0.00     0.001 A 
ATOM     77  C   UNL A   1      51.987  25.657  25.384  1.00  0.00     0.001 A 
ATOM     78  C   UNL A   1      51.773  26.650  24.437  1.00  0.00     0.000 A 
ENDBRANCH  59  73
BRANCH  60  79
ATOM     79  C   UNL A   1      44.475  32.682  27.014  1.00  0.00    -0.014 A 
ATOM     80  C   UNL A   1      44.397  32.695  25.615  1.00  0.00     0.009 A 
ATOM     81  C   UNL A   1      43.963  33.792  27.711  1.00  0.00     0.009 A 
ATOM     82  C   UNL A   1      43.803  33.768  24.939  1.00  0.00     0.001 A 
ATOM     83  C   UNL A   1      43.380  34.869  27.038  1.00  0.00     0.001 A 
ATOM     84  C   UNL A   1      43.288  34.850  25.651  1.00  0.00     0.000 A 
ENDBRANCH  60  79
BRANCH  72  85
ATOM     85  C   UNL A   1      46.806  29.313  31.779  1.00  0.00    -0.014 A 
ATOM     86  C   UNL A   1      47.202  30.055  32.908  1.00  0.00     0.009 A 
ATOM     87  C   UNL A   1      45.494  28.821  31.741  1.00  0.00     0.009 A 
ATOM     88  C   UNL A   1      46.327  30.264  33.977  1.00  0.00     0.001 A 
ATOM     89  C   UNL A   1      44.610  29.048  32.801  1.00  0.00     0.001 A 
ATOM     90  C   UNL A   1      45.029  29.764  33.920  1.00  0.00     0.000 A 
ENDBRANCH  72  85
ENDBRANCH  46  47
ENDBRANCH  39  41
ENDBRANCH  38  39
ENDBRANCH  37  38
ENDBRANCH  36  37
ENDBRANCH  35  36
ENDBRANCH  34  35
ENDBRANCH  33  34
ENDBRANCH  32  33
ENDBRANCH   1  32
TORSDOF 24
ENDMDL
