MODEL 1
REMARK VINA RESULT:     -10.1      0.000      0.000
REMARK SMILES CCCCc1cc(S(F)(F)(F)(F)F)cc2c1O[C@@H](C(F)(F)F)C(C(=O)OCCOCCOCCOCCOC(=O)c1ccc(-c3c4nc(c(-c5ccccc5)c5ccc([nH]5)c(-c5ccccc5)c5nc(c(-c6ccccc6)c6ccc3[nH]6)C=C5)C=C4)cc1)=C2
REMARK SMILES IDX 31 1 30 2 29 3 28 4 27 5 26 6 24 7 25 8 23 9 5 10 6 11 16 12
REMARK SMILES IDX 7 13 15 14 17 15 14 16 89 17 18 18 4 19 3 20 2 21 1 22 8 23
REMARK SMILES IDX 9 24 10 25 11 26 12 27 13 28 19 29 20 30 21 31 22 32 32 33
REMARK SMILES IDX 33 34 34 35 35 36 36 37 37 38 38 39 39 40 40 41 41 42 42 43
REMARK SMILES IDX 88 44 43 45 87 46 44 47 45 48 46 49 81 50 47 51 86 52 80 53
REMARK SMILES IDX 82 54 48 55 85 56 79 57 78 58 49 60 71 61 56 62 70 63 57 64
REMARK SMILES IDX 60 65 69 66 83 67 58 68 59 69 68 71 84 72 61 73 50 74 51 75
REMARK SMILES IDX 55 76 52 77 54 78 53 79 72 80 73 81 77 82 74 83 76 84 75 85
REMARK SMILES IDX 62 86 63 87 67 88 64 89 66 90 65 91
REMARK H PARENT 82 59 60 70
REMARK Flexibility Score: inf
ROOT
ATOM      1  C   UNL A   1      34.702  20.027  25.142  1.00  0.00     0.188 C 
ENDROOT
BRANCH   1   2
ATOM      2  C   UNL A   1      33.441  20.030  24.292  1.00  0.00     0.188 C 
BRANCH   2   3
ATOM      3  O   UNL A   1      32.319  20.322  25.112  1.00  0.00    -0.376 OA
BRANCH   3   4
ATOM      4  C   UNL A   1      31.904  21.660  24.887  1.00  0.00     0.202 C 
BRANCH   4   5
ATOM      5  C   UNL A   1      32.273  22.075  23.473  1.00  0.00     0.261 C 
BRANCH   5   6
ATOM      6  O   UNL A   1      31.674  23.327  23.175  1.00  0.00    -0.460 OA
BRANCH   6   7
ATOM      7  C   UNL A   1      32.473  24.405  22.714  1.00  0.00     0.338 C 
ATOM      8  O   UNL A   1      33.424  24.187  21.898  1.00  0.00    -0.246 OA
BRANCH   7   9
ATOM      9  C   UNL A   1      32.192  25.820  23.194  1.00  0.00     0.087 C 
ATOM     10  C   UNL A   1      31.193  29.490  24.919  1.00  0.00    -0.004 A 
ATOM     11  C   UNL A   1      30.263  30.311  24.306  1.00  0.00     0.032 A 
ATOM     12  C   UNL A   1      31.463  28.265  24.359  1.00  0.00     0.131 A 
ATOM     13  C   UNL A   1      29.617  29.913  23.165  1.00  0.00     0.108 A 
ATOM     14  C   UNL A   1      30.845  27.839  23.197  1.00  0.00     0.019 A 
ATOM     15  O   UNL A   1      32.302  27.417  25.038  1.00  0.00    -0.475 OA
ATOM     16  C   UNL A   1      29.911  28.685  22.609  1.00  0.00     0.036 A 
ATOM     17  C   UNL A   1      31.169  26.511  22.706  1.00  0.00     0.027 C 
ATOM     18  C   UNL A   1      33.077  26.475  24.246  1.00  0.00     0.316 C 
BRANCH  10  19
ATOM     19  C   UNL A   1      31.902  29.936  26.187  1.00  0.00     0.039 C 
BRANCH  19  20
ATOM     20  C   UNL A   1      33.405  29.810  25.999  1.00  0.00     0.005 C 
BRANCH  20  21
ATOM     21  C   UNL A   1      34.117  30.362  27.223  1.00  0.00    -0.003 C 
ATOM     22  C   UNL A   1      35.429  29.621  27.424  1.00  0.00     0.004 C 
ENDBRANCH  20  21
ENDBRANCH  19  20
ENDBRANCH  10  19
BRANCH  13  23
ATOM     23  S   UNL A   1      28.385  30.992  22.391  1.00  0.00     0.310 S 
ATOM     24  F   UNL A   1      27.660  29.767  21.690  1.00  0.00    -0.094 F 
ATOM     25  F   UNL A   1      29.304  31.090  21.114  1.00  0.00    -0.094 F 
ATOM     26  F   UNL A   1      27.324  31.918  21.734  1.00  0.00    -0.094 F 
ATOM     27  F   UNL A   1      27.418  30.768  23.620  1.00  0.00    -0.094 F 
ATOM     28  F   UNL A   1      29.403  29.960  23.024  1.00  0.00    -0.094 F 
ENDBRANCH  13  23
BRANCH  18  29
ATOM     29  C   UNL A   1      33.638  25.399  25.162  1.00  0.00     0.430 C 
ATOM     30  F   UNL A   1      32.644  24.643  25.618  1.00  0.00    -0.167 F 
ATOM     31  F   UNL A   1      34.496  24.642  24.484  1.00  0.00    -0.167 F 
ATOM     32  F   UNL A   1      34.264  25.971  26.186  1.00  0.00    -0.167 F 
ENDBRANCH  18  29
ENDBRANCH   7   9
ENDBRANCH   6   7
ENDBRANCH   5   6
ENDBRANCH   4   5
ENDBRANCH   3   4
ENDBRANCH   2   3
ENDBRANCH   1   2
BRANCH   1  33
ATOM     33  O   UNL A   1      35.644  20.937  24.594  1.00  0.00    -0.377 OA
BRANCH  33  34
ATOM     34  C   UNL A   1      35.994  21.903  25.573  1.00  0.00     0.188 C 
BRANCH  34  35
ATOM     35  C   UNL A   1      37.321  22.545  25.202  1.00  0.00     0.188 C 
BRANCH  35  36
ATOM     36  O   UNL A   1      38.173  22.563  26.338  1.00  0.00    -0.376 OA
BRANCH  36  37
ATOM     37  C   UNL A   1      39.220  21.621  26.159  1.00  0.00     0.202 C 
BRANCH  37  38
ATOM     38  C   UNL A   1      40.555  22.287  26.449  1.00  0.00     0.261 C 
BRANCH  38  39
ATOM     39  O   UNL A   1      40.484  23.663  26.100  1.00  0.00    -0.460 OA
BRANCH  39  40
ATOM     40  C   UNL A   1      41.564  24.530  26.414  1.00  0.00     0.338 C 
ATOM     41  O   UNL A   1      42.655  24.447  25.769  1.00  0.00    -0.246 OA
BRANCH  40  42
ATOM     42  C   UNL A   1      41.413  25.558  27.524  1.00  0.00     0.060 A 
ATOM     43  C   UNL A   1      40.343  25.461  28.398  1.00  0.00     0.016 A 
ATOM     44  C   UNL A   1      42.308  26.533  27.637  1.00  0.00     0.016 A 
ATOM     45  C   UNL A   1      40.141  26.617  29.189  1.00  0.00     0.010 A 
ATOM     46  C   UNL A   1      42.114  27.560  28.528  1.00  0.00     0.010 A 
ATOM     47  C   UNL A   1      41.045  27.559  29.381  1.00  0.00    -0.014 A 
BRANCH  47  48
ATOM     48  C   UNL A   1      40.906  28.587  30.493  1.00  0.00     0.031 A 
ATOM     49  C   UNL A   1      41.789  28.512  31.571  1.00  0.00     0.074 A 
ATOM     50  C   UNL A   1      39.912  29.542  30.371  1.00  0.00     0.049 A 
ATOM     51  N   UNL A   1      41.860  29.330  32.623  1.00  0.00    -0.248 NA
ATOM     52  C   UNL A   1      42.825  27.478  31.719  1.00  0.00     0.031 C 
ATOM     53  C   UNL A   1      39.023  29.630  29.282  1.00  0.00     0.029 A 
ATOM     54  N   UNL A   1      39.602  30.556  31.251  1.00  0.00    -0.354 N 
ATOM     55  C   UNL A   1      42.847  28.949  33.437  1.00  0.00     0.074 A 
ATOM     56  C   UNL A   1      43.476  27.749  32.871  1.00  0.00     0.031 C 
ATOM     57  C   UNL A   1      38.182  30.673  29.507  1.00  0.00     0.029 A 
ATOM     58  C   UNL A   1      38.531  31.256  30.740  1.00  0.00     0.049 A 
ATOM     59  H   UNL A   1      40.065  30.747  32.098  1.00  0.00     0.167 HD
ATOM     60  C   UNL A   1      43.246  29.556  34.629  1.00  0.00     0.031 A 
ATOM     61  C   UNL A   1      37.882  32.343  31.303  1.00  0.00     0.031 A 
ATOM     62  C   UNL A   1      42.623  30.670  35.170  1.00  0.00     0.049 A 
ATOM     63  C   UNL A   1      38.244  32.915  32.525  1.00  0.00     0.074 A 
ATOM     64  C   UNL A   1      43.019  31.299  36.366  1.00  0.00     0.029 A 
ATOM     65  N   UNL A   1      41.538  31.354  34.671  1.00  0.00    -0.354 N 
ATOM     66  N   UNL A   1      39.256  32.558  33.319  1.00  0.00    -0.248 NA
ATOM     67  C   UNL A   1      37.543  34.047  33.146  1.00  0.00     0.031 C 
ATOM     68  C   UNL A   1      42.177  32.343  36.591  1.00  0.00     0.029 A 
ATOM     69  C   UNL A   1      41.242  32.383  35.540  1.00  0.00     0.049 A 
ATOM     70  H   UNL A   1      41.056  31.146  33.839  1.00  0.00     0.167 HD
ATOM     71  C   UNL A   1      39.300  33.352  34.391  1.00  0.00     0.074 A 
ATOM     72  C   UNL A   1      38.194  34.316  34.299  1.00  0.00     0.031 C 
ATOM     73  C   UNL A   1      40.220  33.313  35.440  1.00  0.00     0.031 A 
BRANCH  60  74
ATOM     74  C   UNL A   1      44.430  28.962  35.374  1.00  0.00    -0.014 A 
ATOM     75  C   UNL A   1      44.232  28.072  36.418  1.00  0.00     0.009 A 
ATOM     76  C   UNL A   1      45.649  29.244  34.931  1.00  0.00     0.009 A 
ATOM     77  C   UNL A   1      45.414  27.748  37.126  1.00  0.00     0.001 A 
ATOM     78  C   UNL A   1      46.760  28.781  35.594  1.00  0.00     0.001 A 
ATOM     79  C   UNL A   1      46.638  27.945  36.670  1.00  0.00     0.000 A 
ENDBRANCH  60  74
BRANCH  61  80
ATOM     80  C   UNL A   1      36.708  32.946  30.549  1.00  0.00    -0.014 A 
ATOM     81  C   UNL A   1      35.416  32.546  30.850  1.00  0.00     0.009 A 
ATOM     82  C   UNL A   1      36.954  33.780  29.544  1.00  0.00     0.009 A 
ATOM     83  C   UNL A   1      34.472  32.854  29.844  1.00  0.00     0.001 A 
ATOM     84  C   UNL A   1      35.952  34.145  28.678  1.00  0.00     0.001 A 
ATOM     85  C   UNL A   1      34.663  33.738  28.881  1.00  0.00     0.000 A 
ENDBRANCH  61  80
BRANCH  73  86
ATOM     86  C   UNL A   1      40.091  34.354  36.541  1.00  0.00    -0.014 A 
ATOM     87  C   UNL A   1      39.285  34.088  37.635  1.00  0.00     0.009 A 
ATOM     88  C   UNL A   1      40.753  35.500  36.434  1.00  0.00     0.009 A 
ATOM     89  C   UNL A   1      39.011  35.223  38.434  1.00  0.00     0.001 A 
ATOM     90  C   UNL A   1      40.536  36.519  37.331  1.00  0.00     0.001 A 
ATOM     91  C   UNL A   1      39.706  36.346  38.403  1.00  0.00     0.000 A 
ENDBRANCH  73  86
ENDBRANCH  47  48
ENDBRANCH  40  42
ENDBRANCH  39  40
ENDBRANCH  38  39
ENDBRANCH  37  38
ENDBRANCH  36  37
ENDBRANCH  35  36
ENDBRANCH  34  35
ENDBRANCH  33  34
ENDBRANCH   1  33
TORSDOF 25
ENDMDL
MODEL 2
REMARK VINA RESULT:      -9.7      5.852     11.002
REMARK SMILES CCCCc1cc(S(F)(F)(F)(F)F)cc2c1O[C@@H](C(F)(F)F)C(C(=O)OCCOCCOCCOCCOC(=O)c1ccc(-c3c4nc(c(-c5ccccc5)c5ccc([nH]5)c(-c5ccccc5)c5nc(c(-c6ccccc6)c6ccc3[nH]6)C=C5)C=C4)cc1)=C2
REMARK SMILES IDX 31 1 30 2 29 3 28 4 27 5 26 6 24 7 25 8 23 9 5 10 6 11 16 12
REMARK SMILES IDX 7 13 15 14 17 15 14 16 89 17 18 18 4 19 3 20 2 21 1 22 8 23
REMARK SMILES IDX 9 24 10 25 11 26 12 27 13 28 19 29 20 30 21 31 22 32 32 33
REMARK SMILES IDX 33 34 34 35 35 36 36 37 37 38 38 39 39 40 40 41 41 42 42 43
REMARK SMILES IDX 88 44 43 45 87 46 44 47 45 48 46 49 81 50 47 51 86 52 80 53
REMARK SMILES IDX 82 54 48 55 85 56 79 57 78 58 49 60 71 61 56 62 70 63 57 64
REMARK SMILES IDX 60 65 69 66 83 67 58 68 59 69 68 71 84 72 61 73 50 74 51 75
REMARK SMILES IDX 55 76 52 77 54 78 53 79 72 80 73 81 77 82 74 83 76 84 75 85
REMARK SMILES IDX 62 86 63 87 67 88 64 89 66 90 65 91
REMARK H PARENT 82 59 60 70
REMARK Flexibility Score: inf
ROOT
ATOM      1  C   UNL A   1      35.157  31.878  29.895  1.00  0.00     0.188 C 
ENDROOT
BRANCH   1   2
ATOM      2  C   UNL A   1      35.672  32.457  28.587  1.00  0.00     0.188 C 
BRANCH   2   3
ATOM      3  O   UNL A   1      35.820  31.414  27.634  1.00  0.00    -0.376 OA
BRANCH   3   4
ATOM      4  C   UNL A   1      36.235  30.227  28.293  1.00  0.00     0.202 C 
BRANCH   4   5
ATOM      5  C   UNL A   1      37.717  30.001  28.043  1.00  0.00     0.261 C 
BRANCH   5   6
ATOM      6  O   UNL A   1      37.996  28.610  28.075  1.00  0.00    -0.460 OA
BRANCH   6   7
ATOM      7  C   UNL A   1      39.101  28.123  28.822  1.00  0.00     0.338 C 
ATOM      8  O   UNL A   1      39.312  28.556  29.999  1.00  0.00    -0.246 OA
BRANCH   7   9
ATOM      9  C   UNL A   1      40.031  27.086  28.215  1.00  0.00     0.087 C 
ATOM     10  C   UNL A   1      42.426  24.403  26.090  1.00  0.00    -0.004 A 
ATOM     11  C   UNL A   1      42.165  23.046  26.153  1.00  0.00     0.032 A 
ATOM     12  C   UNL A   1      41.590  25.267  26.755  1.00  0.00     0.131 A 
ATOM     13  C   UNL A   1      41.094  22.567  26.861  1.00  0.00     0.108 A 
ATOM     14  C   UNL A   1      40.510  24.818  27.494  1.00  0.00     0.019 A 
ATOM     15  O   UNL A   1      41.794  26.615  26.590  1.00  0.00    -0.475 OA
ATOM     16  C   UNL A   1      40.274  23.449  27.533  1.00  0.00     0.036 A 
ATOM     17  C   UNL A   1      39.664  25.813  28.129  1.00  0.00     0.027 C 
ATOM     18  C   UNL A   1      41.405  27.484  27.691  1.00  0.00     0.316 C 
BRANCH  10  19
ATOM     19  C   UNL A   1      43.613  24.928  25.299  1.00  0.00     0.039 C 
BRANCH  19  20
ATOM     20  C   UNL A   1      44.211  23.799  24.474  1.00  0.00     0.005 C 
BRANCH  20  21
ATOM     21  C   UNL A   1      45.715  23.754  24.694  1.00  0.00    -0.003 C 
ATOM     22  C   UNL A   1      46.192  22.312  24.637  1.00  0.00     0.004 C 
ENDBRANCH  20  21
ENDBRANCH  19  20
ENDBRANCH  10  19
BRANCH  13  23
ATOM     23  S   UNL A   1      40.757  20.788  26.912  1.00  0.00     0.310 S 
ATOM     24  F   UNL A   1      41.729  20.505  25.690  1.00  0.00    -0.094 F 
ATOM     25  F   UNL A   1      39.605  20.998  25.858  1.00  0.00    -0.094 F 
ATOM     26  F   UNL A   1      40.473  19.261  26.961  1.00  0.00    -0.094 F 
ATOM     27  F   UNL A   1      42.004  20.579  27.858  1.00  0.00    -0.094 F 
ATOM     28  F   UNL A   1      41.129  22.319  26.785  1.00  0.00    -0.094 F 
ENDBRANCH  13  23
BRANCH  18  29
ATOM     29  C   UNL A   1      41.349  28.920  27.193  1.00  0.00     0.430 C 
ATOM     30  F   UNL A   1      41.116  29.734  28.217  1.00  0.00    -0.167 F 
ATOM     31  F   UNL A   1      42.510  29.238  26.628  1.00  0.00    -0.167 F 
ATOM     32  F   UNL A   1      40.372  29.041  26.299  1.00  0.00    -0.167 F 
ENDBRANCH  18  29
ENDBRANCH   7   9
ENDBRANCH   6   7
ENDBRANCH   5   6
ENDBRANCH   4   5
ENDBRANCH   3   4
ENDBRANCH   2   3
ENDBRANCH   1   2
BRANCH   1  33
ATOM     33  O   UNL A   1      34.440  32.876  30.605  1.00  0.00    -0.377 OA
BRANCH  33  34
ATOM     34  C   UNL A   1      34.719  32.765  31.992  1.00  0.00     0.188 C 
BRANCH  34  35
ATOM     35  C   UNL A   1      34.162  33.976  32.721  1.00  0.00     0.188 C 
BRANCH  35  36
ATOM     36  O   UNL A   1      35.178  34.959  32.851  1.00  0.00    -0.376 OA
BRANCH  36  37
ATOM     37  C   UNL A   1      36.334  34.372  33.430  1.00  0.00     0.202 C 
BRANCH  37  38
ATOM     38  C   UNL A   1      36.020  33.933  34.851  1.00  0.00     0.261 C 
BRANCH  38  39
ATOM     39  O   UNL A   1      36.587  32.651  35.086  1.00  0.00    -0.460 OA
BRANCH  39  40
ATOM     40  C   UNL A   1      37.921  32.542  35.561  1.00  0.00     0.338 C 
ATOM     41  O   UNL A   1      38.209  32.919  36.740  1.00  0.00    -0.246 OA
BRANCH  40  42
ATOM     42  C   UNL A   1      39.004  31.975  34.657  1.00  0.00     0.060 A 
ATOM     43  C   UNL A   1      38.639  31.259  33.529  1.00  0.00     0.016 A 
ATOM     44  C   UNL A   1      40.280  32.174  34.964  1.00  0.00     0.016 A 
ATOM     45  C   UNL A   1      39.705  30.540  32.937  1.00  0.00     0.010 A 
ATOM     46  C   UNL A   1      41.276  31.545  34.256  1.00  0.00     0.010 A 
ATOM     47  C   UNL A   1      40.984  30.774  33.165  1.00  0.00    -0.014 A 
BRANCH  47  48
ATOM     48  C   UNL A   1      42.073  30.216  32.263  1.00  0.00     0.031 A 
ATOM     49  C   UNL A   1      42.667  29.006  32.623  1.00  0.00     0.074 A 
ATOM     50  C   UNL A   1      42.413  30.940  31.134  1.00  0.00     0.049 A 
ATOM     51  N   UNL A   1      43.608  28.332  31.959  1.00  0.00    -0.248 NA
ATOM     52  C   UNL A   1      42.332  28.251  33.841  1.00  0.00     0.031 C 
ATOM     53  C   UNL A   1      41.811  32.158  30.759  1.00  0.00     0.029 A 
ATOM     54  N   UNL A   1      43.366  30.632  30.188  1.00  0.00    -0.354 N 
ATOM     55  C   UNL A   1      43.912  27.205  32.606  1.00  0.00     0.074 A 
ATOM     56  C   UNL A   1      43.101  27.141  33.829  1.00  0.00     0.031 C 
ATOM     57  C   UNL A   1      42.401  32.583  29.612  1.00  0.00     0.029 A 
ATOM     58  C   UNL A   1      43.380  31.640  29.248  1.00  0.00     0.049 A 
ATOM     59  H   UNL A   1      43.938  29.831  30.184  1.00  0.00     0.167 HD
ATOM     60  C   UNL A   1      44.833  26.228  32.224  1.00  0.00     0.031 A 
ATOM     61  C   UNL A   1      44.195  31.747  28.132  1.00  0.00     0.031 A 
ATOM     62  C   UNL A   1      45.617  26.315  31.085  1.00  0.00     0.049 A 
ATOM     63  C   UNL A   1      45.158  30.798  27.781  1.00  0.00     0.074 A 
ATOM     64  C   UNL A   1      46.544  25.335  30.681  1.00  0.00     0.029 A 
ATOM     65  N   UNL A   1      45.649  27.334  30.159  1.00  0.00    -0.354 N 
ATOM     66  N   UNL A   1      45.434  29.652  28.407  1.00  0.00    -0.248 NA
ATOM     67  C   UNL A   1      46.048  30.918  26.619  1.00  0.00     0.031 C 
ATOM     68  C   UNL A   1      47.135  25.762  29.533  1.00  0.00     0.029 A 
ATOM     69  C   UNL A   1      46.586  27.015  29.200  1.00  0.00     0.049 A 
ATOM     70  H   UNL A   1      45.098  28.149  30.178  1.00  0.00     0.167 HD
ATOM     71  C   UNL A   1      46.404  29.000  27.764  1.00  0.00     0.074 A 
ATOM     72  C   UNL A   1      46.818  29.807  26.609  1.00  0.00     0.031 C 
ATOM     73  C   UNL A   1      46.957  27.760  28.092  1.00  0.00     0.031 A 
BRANCH  60  74
ATOM     74  C   UNL A   1      44.985  25.001  33.108  1.00  0.00    -0.014 A 
ATOM     75  C   UNL A   1      45.893  24.993  34.154  1.00  0.00     0.009 A 
ATOM     76  C   UNL A   1      44.156  23.984  32.908  1.00  0.00     0.009 A 
ATOM     77  C   UNL A   1      46.048  23.727  34.769  1.00  0.00     0.001 A 
ATOM     78  C   UNL A   1      44.278  22.827  33.639  1.00  0.00     0.001 A 
ATOM     79  C   UNL A   1      45.194  22.728  34.649  1.00  0.00     0.000 A 
ENDBRANCH  60  74
BRANCH  61  80
ATOM     80  C   UNL A   1      44.031  32.966  27.241  1.00  0.00    -0.014 A 
ATOM     81  C   UNL A   1      43.857  32.803  25.875  1.00  0.00     0.009 A 
ATOM     82  C   UNL A   1      44.156  34.174  27.779  1.00  0.00     0.009 A 
ATOM     83  C   UNL A   1      44.120  33.970  25.121  1.00  0.00     0.001 A 
ATOM     84  C   UNL A   1      44.272  35.287  26.982  1.00  0.00     0.001 A 
ATOM     85  C   UNL A   1      44.169  35.192  25.622  1.00  0.00     0.000 A 
ENDBRANCH  61  80
BRANCH  73  86
ATOM     86  C   UNL A   1      48.033  27.195  27.179  1.00  0.00    -0.014 A 
ATOM     87  C   UNL A   1      49.364  27.462  27.452  1.00  0.00     0.009 A 
ATOM     88  C   UNL A   1      47.678  26.455  26.135  1.00  0.00     0.009 A 
ATOM     89  C   UNL A   1      50.242  27.142  26.390  1.00  0.00     0.001 A 
ATOM     90  C   UNL A   1      48.613  26.062  25.207  1.00  0.00     0.001 A 
ATOM     91  C   UNL A   1      49.939  26.343  25.383  1.00  0.00     0.000 A 
ENDBRANCH  73  86
ENDBRANCH  47  48
ENDBRANCH  40  42
ENDBRANCH  39  40
ENDBRANCH  38  39
ENDBRANCH  37  38
ENDBRANCH  36  37
ENDBRANCH  35  36
ENDBRANCH  34  35
ENDBRANCH  33  34
ENDBRANCH   1  33
TORSDOF 25
ENDMDL
MODEL 3
REMARK VINA RESULT:      -9.7      4.667     10.172
REMARK SMILES CCCCc1cc(S(F)(F)(F)(F)F)cc2c1O[C@@H](C(F)(F)F)C(C(=O)OCCOCCOCCOCCOC(=O)c1ccc(-c3c4nc(c(-c5ccccc5)c5ccc([nH]5)c(-c5ccccc5)c5nc(c(-c6ccccc6)c6ccc3[nH]6)C=C5)C=C4)cc1)=C2
REMARK SMILES IDX 31 1 30 2 29 3 28 4 27 5 26 6 24 7 25 8 23 9 5 10 6 11 16 12
REMARK SMILES IDX 7 13 15 14 17 15 14 16 89 17 18 18 4 19 3 20 2 21 1 22 8 23
REMARK SMILES IDX 9 24 10 25 11 26 12 27 13 28 19 29 20 30 21 31 22 32 32 33
REMARK SMILES IDX 33 34 34 35 35 36 36 37 37 38 38 39 39 40 40 41 41 42 42 43
REMARK SMILES IDX 88 44 43 45 87 46 44 47 45 48 46 49 81 50 47 51 86 52 80 53
REMARK SMILES IDX 82 54 48 55 85 56 79 57 78 58 49 60 71 61 56 62 70 63 57 64
REMARK SMILES IDX 60 65 69 66 83 67 58 68 59 69 68 71 84 72 61 73 50 74 51 75
REMARK SMILES IDX 55 76 52 77 54 78 53 79 72 80 73 81 77 82 74 83 76 84 75 85
REMARK SMILES IDX 62 86 63 87 67 88 64 89 66 90 65 91
REMARK H PARENT 82 59 60 70
REMARK Flexibility Score: inf
ROOT
ATOM      1  C   UNL A   1      35.102  32.829  28.953  1.00  0.00     0.188 C 
ENDROOT
BRANCH   1   2
ATOM      2  C   UNL A   1      33.906  32.798  28.014  1.00  0.00     0.188 C 
BRANCH   2   3
ATOM      3  O   UNL A   1      33.877  31.556  27.327  1.00  0.00    -0.376 OA
BRANCH   3   4
ATOM      4  C   UNL A   1      34.926  30.726  27.804  1.00  0.00     0.202 C 
BRANCH   4   5
ATOM      5  C   UNL A   1      34.534  29.268  27.637  1.00  0.00     0.261 C 
BRANCH   5   6
ATOM      6  O   UNL A   1      33.215  29.188  27.120  1.00  0.00    -0.460 OA
BRANCH   6   7
ATOM      7  C   UNL A   1      32.500  27.963  27.183  1.00  0.00     0.338 C 
ATOM      8  O   UNL A   1      31.621  27.787  28.084  1.00  0.00    -0.246 OA
BRANCH   7   9
ATOM      9  C   UNL A   1      32.784  26.863  26.173  1.00  0.00     0.087 C 
ATOM     10  C   UNL A   1      33.094  23.668  23.501  1.00  0.00    -0.004 A 
ATOM     11  C   UNL A   1      33.985  22.640  23.754  1.00  0.00     0.032 A 
ATOM     12  C   UNL A   1      32.973  24.679  24.423  1.00  0.00     0.131 A 
ATOM     13  C   UNL A   1      34.732  22.623  24.903  1.00  0.00     0.108 A 
ATOM     14  C   UNL A   1      33.725  24.705  25.584  1.00  0.00     0.019 A 
ATOM     15  O   UNL A   1      32.006  25.631  24.213  1.00  0.00    -0.475 OA
ATOM     16  C   UNL A   1      34.607  23.654  25.811  1.00  0.00     0.036 A 
ATOM     17  C   UNL A   1      33.497  25.797  26.514  1.00  0.00     0.027 C 
ATOM     18  C   UNL A   1      32.256  26.961  24.747  1.00  0.00     0.316 C 
BRANCH  10  19
ATOM     19  C   UNL A   1      32.264  23.677  22.227  1.00  0.00     0.039 C 
BRANCH  19  20
ATOM     20  C   UNL A   1      33.019  24.420  21.136  1.00  0.00     0.005 C 
BRANCH  20  21
ATOM     21  C   UNL A   1      32.411  25.800  20.948  1.00  0.00    -0.003 C 
ATOM     22  C   UNL A   1      33.369  26.853  21.483  1.00  0.00     0.004 C 
ENDBRANCH  20  21
ENDBRANCH  19  20
ENDBRANCH  10  19
BRANCH  13  23
ATOM     23  S   UNL A   1      35.874  21.256  25.227  1.00  0.00     0.310 S 
ATOM     24  F   UNL A   1      36.767  21.620  23.967  1.00  0.00    -0.094 F 
ATOM     25  F   UNL A   1      35.018  20.342  24.271  1.00  0.00    -0.094 F 
ATOM     26  F   UNL A   1      36.858  20.087  25.511  1.00  0.00    -0.094 F 
ATOM     27  F   UNL A   1      36.795  22.226  26.068  1.00  0.00    -0.094 F 
ATOM     28  F   UNL A   1      34.947  22.482  24.858  1.00  0.00    -0.094 F 
ENDBRANCH  13  23
BRANCH  18  29
ATOM     29  C   UNL A   1      30.955  27.747  24.753  1.00  0.00     0.430 C 
ATOM     30  F   UNL A   1      31.213  29.030  24.985  1.00  0.00    -0.167 F 
ATOM     31  F   UNL A   1      30.357  27.621  23.571  1.00  0.00    -0.167 F 
ATOM     32  F   UNL A   1      30.156  27.275  25.706  1.00  0.00    -0.167 F 
ENDBRANCH  18  29
ENDBRANCH   7   9
ENDBRANCH   6   7
ENDBRANCH   5   6
ENDBRANCH   4   5
ENDBRANCH   3   4
ENDBRANCH   2   3
ENDBRANCH   1   2
BRANCH   1  33
ATOM     33  O   UNL A   1      35.152  34.085  29.613  1.00  0.00    -0.377 OA
BRANCH  33  34
ATOM     34  C   UNL A   1      33.929  34.777  29.408  1.00  0.00     0.188 C 
BRANCH  34  35
ATOM     35  C   UNL A   1      33.451  35.364  30.726  1.00  0.00     0.188 C 
BRANCH  35  36
ATOM     36  O   UNL A   1      34.354  35.002  31.761  1.00  0.00    -0.376 OA
BRANCH  36  37
ATOM     37  C   UNL A   1      33.632  34.427  32.839  1.00  0.00     0.202 C 
BRANCH  37  38
ATOM     38  C   UNL A   1      34.476  33.346  33.495  1.00  0.00     0.261 C 
BRANCH  38  39
ATOM     39  O   UNL A   1      35.734  33.266  32.840  1.00  0.00    -0.460 OA
BRANCH  39  40
ATOM     40  C   UNL A   1      36.783  32.499  33.413  1.00  0.00     0.338 C 
ATOM     41  O   UNL A   1      36.796  32.271  34.663  1.00  0.00    -0.246 OA
BRANCH  40  42
ATOM     42  C   UNL A   1      37.892  31.950  32.529  1.00  0.00     0.060 A 
ATOM     43  C   UNL A   1      38.868  31.142  33.088  1.00  0.00     0.016 A 
ATOM     44  C   UNL A   1      37.908  32.256  31.237  1.00  0.00     0.016 A 
ATOM     45  C   UNL A   1      39.992  30.938  32.253  1.00  0.00     0.010 A 
ATOM     46  C   UNL A   1      38.978  31.906  30.449  1.00  0.00     0.010 A 
ATOM     47  C   UNL A   1      40.007  31.158  30.951  1.00  0.00    -0.014 A 
BRANCH  47  48
ATOM     48  C   UNL A   1      41.108  30.609  30.059  1.00  0.00     0.031 A 
ATOM     49  C   UNL A   1      42.192  31.438  29.768  1.00  0.00     0.074 A 
ATOM     50  C   UNL A   1      40.974  29.315  29.586  1.00  0.00     0.049 A 
ATOM     51  N   UNL A   1      43.272  31.142  29.041  1.00  0.00    -0.248 NA
ATOM     52  C   UNL A   1      42.321  32.825  30.242  1.00  0.00     0.031 C 
ATOM     53  C   UNL A   1      39.887  28.469  29.882  1.00  0.00     0.029 A 
ATOM     54  N   UNL A   1      41.837  28.622  28.766  1.00  0.00    -0.354 N 
ATOM     55  C   UNL A   1      44.102  32.186  29.004  1.00  0.00     0.074 A 
ATOM     56  C   UNL A   1      43.500  33.285  29.769  1.00  0.00     0.031 C 
ATOM     57  C   UNL A   1      40.086  27.288  29.240  1.00  0.00     0.029 A 
ATOM     58  C   UNL A   1      41.300  27.374  28.533  1.00  0.00     0.049 A 
ATOM     59  H   UNL A   1      42.690  28.959  28.408  1.00  0.00     0.167 HD
ATOM     60  C   UNL A   1      45.339  32.264  28.361  1.00  0.00     0.031 A 
ATOM     61  C   UNL A   1      41.824  26.358  27.751  1.00  0.00     0.031 A 
ATOM     62  C   UNL A   1      45.883  31.231  27.614  1.00  0.00     0.049 A 
ATOM     63  C   UNL A   1      43.035  26.457  27.060  1.00  0.00     0.074 A 
ATOM     64  C   UNL A   1      47.133  31.290  26.968  1.00  0.00     0.029 A 
ATOM     65  N   UNL A   1      45.335  29.993  27.362  1.00  0.00    -0.354 N 
ATOM     66  N   UNL A   1      43.884  27.486  27.055  1.00  0.00    -0.248 NA
ATOM     67  C   UNL A   1      43.584  25.397  26.203  1.00  0.00     0.031 C 
ATOM     68  C   UNL A   1      47.331  30.108  26.325  1.00  0.00     0.029 A 
ATOM     69  C   UNL A   1      46.209  29.291  26.561  1.00  0.00     0.049 A 
ATOM     70  H   UNL A   1      44.469  29.667  27.696  1.00  0.00     0.167 HD
ATOM     71  C   UNL A   1      44.943  27.203  26.294  1.00  0.00     0.074 A 
ATOM     72  C   UNL A   1      44.762  25.859  25.729  1.00  0.00     0.031 C 
ATOM     73  C   UNL A   1      46.055  28.011  26.051  1.00  0.00     0.031 A 
BRANCH  60  74
ATOM     74  C   UNL A   1      46.134  33.554  28.489  1.00  0.00    -0.014 A 
ATOM     75  C   UNL A   1      47.001  33.745  29.552  1.00  0.00     0.009 A 
ATOM     76  C   UNL A   1      46.045  34.439  27.504  1.00  0.00     0.009 A 
ATOM     77  C   UNL A   1      47.528  35.057  29.631  1.00  0.00     0.001 A 
ATOM     78  C   UNL A   1      46.696  35.646  27.586  1.00  0.00     0.001 A 
ATOM     79  C   UNL A   1      47.523  35.927  28.638  1.00  0.00     0.000 A 
ENDBRANCH  60  74
BRANCH  61  80
ATOM     80  C   UNL A   1      41.038  25.063  27.637  1.00  0.00    -0.014 A 
ATOM     81  C   UNL A   1      41.450  23.942  28.341  1.00  0.00     0.009 A 
ATOM     82  C   UNL A   1      40.021  25.005  26.785  1.00  0.00     0.009 A 
ATOM     83  C   UNL A   1      40.906  22.730  27.858  1.00  0.00     0.001 A 
ATOM     84  C   UNL A   1      39.449  23.799  26.460  1.00  0.00     0.001 A 
ATOM     85  C   UNL A   1      39.846  22.643  27.073  1.00  0.00     0.000 A 
ENDBRANCH  61  80
BRANCH  73  86
ATOM     86  C   UNL A   1      47.165  27.453  25.174  1.00  0.00    -0.014 A 
ATOM     87  C   UNL A   1      48.127  26.631  25.739  1.00  0.00     0.009 A 
ATOM     88  C   UNL A   1      47.194  27.763  23.884  1.00  0.00     0.009 A 
ATOM     89  C   UNL A   1      49.254  26.418  24.911  1.00  0.00     0.001 A 
ATOM     90  C   UNL A   1      48.266  27.404  23.102  1.00  0.00     0.001 A 
ATOM     91  C   UNL A   1      49.281  26.642  23.610  1.00  0.00     0.000 A 
ENDBRANCH  73  86
ENDBRANCH  47  48
ENDBRANCH  40  42
ENDBRANCH  39  40
ENDBRANCH  38  39
ENDBRANCH  37  38
ENDBRANCH  36  37
ENDBRANCH  35  36
ENDBRANCH  34  35
ENDBRANCH  33  34
ENDBRANCH   1  33
TORSDOF 25
ENDMDL
