MODEL 1
REMARK VINA RESULT:      -8.9      0.000      0.000
REMARK SMILES O=C(CCC[NH2+][C@H]1CCOC2(CCOCC2)C1)OCCOCCOCCOCCOC(=O)c1ccc(-c2c3nc(c(-c4ccccc4)c4ccc([nH]4)c(-c4ccccc4)c4nc(c(-c5ccccc5)c5ccc2[nH]5)C=C4)C=C3)cc1
REMARK SMILES IDX 23 1 22 2 21 3 20 4 19 5 18 6 2 7 1 8 3 9 4 10 5 11 6 12
REMARK SMILES IDX 7 15 8 16 17 17 9 18 11 19 10 20 12 21 16 22 13 23 15 24
REMARK SMILES IDX 14 25 24 26 25 27 26 28 27 29 28 30 29 31 30 32 31 33 32 34
REMARK SMILES IDX 33 35 34 36 80 37 35 38 79 39 36 40 37 41 38 42 73 43 39 44
REMARK SMILES IDX 78 45 72 46 74 47 40 48 77 49 71 50 70 51 41 53 63 54 48 55
REMARK SMILES IDX 62 56 49 57 52 58 61 59 75 60 50 61 51 62 60 64 76 65 53 66
REMARK SMILES IDX 42 67 43 68 47 69 44 70 46 71 45 72 64 73 65 74 69 75 66 76
REMARK SMILES IDX 68 77 67 78 54 79 55 80 59 81 56 82 58 83 57 84
REMARK H PARENT 6 13 6 14 74 52 52 63
REMARK Flexibility Score: inf
ROOT
ATOM      1  C   UNL A   1      39.373  22.878  26.881  1.00  0.00     0.188 C 
ENDROOT
BRANCH   1   2
ATOM      2  C   UNL A   1      38.287  23.792  26.325  1.00  0.00     0.188 C 
BRANCH   2   3
ATOM      3  O   UNL A   1      37.175  23.122  25.751  1.00  0.00    -0.376 OA
BRANCH   3   4
ATOM      4  C   UNL A   1      36.569  23.692  24.608  1.00  0.00     0.202 C 
BRANCH   4   5
ATOM      5  C   UNL A   1      35.806  22.714  23.749  1.00  0.00     0.261 C 
BRANCH   5   6
ATOM      6  O   UNL A   1      34.515  22.354  24.242  1.00  0.00    -0.463 OA
BRANCH   6   7
ATOM      7  C   UNL A   1      34.191  21.253  24.947  1.00  0.00     0.306 C 
ATOM      8  O   UNL A   1      34.922  20.266  24.827  1.00  0.00    -0.252 OA
BRANCH   7   9
ATOM      9  C   UNL A   1      32.917  21.133  25.771  1.00  0.00     0.128 C 
BRANCH   9  10
ATOM     10  C   UNL A   1      31.842  22.213  25.724  1.00  0.00     0.073 C 
BRANCH  10  11
ATOM     11  C   UNL A   1      31.414  22.935  27.012  1.00  0.00     0.261 C 
BRANCH  11  12
ATOM     12  N   UNL A   1      31.279  24.393  26.944  1.00  0.00    -0.344 N 
ATOM     13  H   UNL A   1      32.034  24.805  27.492  1.00  0.00     0.346 HD
ATOM     14  H   UNL A   1      30.350  24.610  27.305  1.00  0.00     0.346 HD
BRANCH  12  15
ATOM     15  C   UNL A   1      31.337  24.968  25.571  1.00  0.00     0.187 C 
ATOM     16  C   UNL A   1      30.106  25.823  25.238  1.00  0.00     0.093 C 
ATOM     17  C   UNL A   1      32.627  25.811  25.395  1.00  0.00     0.100 C 
ATOM     18  C   UNL A   1      30.259  26.572  23.933  1.00  0.00     0.167 C 
ATOM     19  C   UNL A   1      32.662  26.654  24.095  1.00  0.00     0.078 C 
ATOM     20  O   UNL A   1      31.428  27.375  23.953  1.00  0.00    -0.374 OA
ATOM     21  C   UNL A   1      32.964  25.801  22.847  1.00  0.00     0.064 C 
ATOM     22  C   UNL A   1      33.749  27.749  24.186  1.00  0.00     0.064 C 
ATOM     23  C   UNL A   1      33.076  26.686  21.609  1.00  0.00     0.163 C 
ATOM     24  C   UNL A   1      33.850  28.524  22.870  1.00  0.00     0.163 C 
ATOM     25  O   UNL A   1      34.122  27.639  21.785  1.00  0.00    -0.381 OA
ENDBRANCH  12  15
ENDBRANCH  11  12
ENDBRANCH  10  11
ENDBRANCH   9  10
ENDBRANCH   7   9
ENDBRANCH   6   7
ENDBRANCH   5   6
ENDBRANCH   4   5
ENDBRANCH   3   4
ENDBRANCH   2   3
ENDBRANCH   1   2
BRANCH   1  26
ATOM     26  O   UNL A   1      40.073  22.020  25.992  1.00  0.00    -0.377 OA
BRANCH  26  27
ATOM     27  C   UNL A   1      41.453  21.742  26.140  1.00  0.00     0.188 C 
BRANCH  27  28
ATOM     28  C   UNL A   1      41.783  20.904  27.377  1.00  0.00     0.188 C 
BRANCH  28  29
ATOM     29  O   UNL A   1      42.090  19.546  27.151  1.00  0.00    -0.376 OA
BRANCH  29  30
ATOM     30  C   UNL A   1      42.368  19.097  25.830  1.00  0.00     0.202 C 
BRANCH  30  31
ATOM     31  C   UNL A   1      43.723  18.531  25.319  1.00  0.00     0.261 C 
BRANCH  31  32
ATOM     32  O   UNL A   1      44.292  19.052  24.108  1.00  0.00    -0.460 OA
BRANCH  32  33
ATOM     33  C   UNL A   1      45.435  19.768  24.218  1.00  0.00     0.338 C 
ATOM     34  O   UNL A   1      46.528  19.474  23.776  1.00  0.00    -0.246 OA
BRANCH  33  35
ATOM     35  C   UNL A   1      45.127  21.104  24.787  1.00  0.00     0.060 A 
ATOM     36  C   UNL A   1      44.710  22.117  23.912  1.00  0.00     0.016 A 
ATOM     37  C   UNL A   1      45.316  21.388  26.140  1.00  0.00     0.016 A 
ATOM     38  C   UNL A   1      44.491  23.412  24.385  1.00  0.00     0.010 A 
ATOM     39  C   UNL A   1      45.128  22.699  26.606  1.00  0.00     0.010 A 
ATOM     40  C   UNL A   1      44.735  23.725  25.725  1.00  0.00    -0.014 A 
BRANCH  40  41
ATOM     41  C   UNL A   1      44.816  25.152  26.134  1.00  0.00     0.031 A 
ATOM     42  C   UNL A   1      46.162  25.826  26.083  1.00  0.00     0.074 A 
ATOM     43  C   UNL A   1      43.737  25.868  26.498  1.00  0.00     0.049 A 
ATOM     44  N   UNL A   1      46.511  27.026  26.470  1.00  0.00    -0.248 NA
ATOM     45  C   UNL A   1      47.261  25.033  25.507  1.00  0.00     0.031 C 
ATOM     46  C   UNL A   1      42.356  25.391  26.489  1.00  0.00     0.029 A 
ATOM     47  N   UNL A   1      43.644  27.163  26.955  1.00  0.00    -0.354 N 
ATOM     48  C   UNL A   1      47.871  27.125  26.202  1.00  0.00     0.074 A 
ATOM     49  C   UNL A   1      48.284  25.862  25.630  1.00  0.00     0.031 C 
ATOM     50  C   UNL A   1      41.556  26.371  26.948  1.00  0.00     0.029 A 
ATOM     51  C   UNL A   1      42.371  27.527  27.326  1.00  0.00     0.049 A 
ATOM     52  H   UNL A   1      44.415  27.771  27.012  1.00  0.00     0.167 HD
ATOM     53  C   UNL A   1      48.708  28.167  26.421  1.00  0.00     0.031 A 
ATOM     54  C   UNL A   1      41.923  28.643  27.937  1.00  0.00     0.031 A 
ATOM     55  C   UNL A   1      48.312  29.415  27.013  1.00  0.00     0.049 A 
ATOM     56  C   UNL A   1      42.895  29.744  28.293  1.00  0.00     0.074 A 
ATOM     57  C   UNL A   1      49.093  30.524  27.287  1.00  0.00     0.029 A 
ATOM     58  N   UNL A   1      47.027  29.715  27.436  1.00  0.00    -0.354 N 
ATOM     59  N   UNL A   1      44.181  29.825  28.049  1.00  0.00    -0.248 NA
ATOM     60  C   UNL A   1      42.351  30.908  29.011  1.00  0.00     0.031 C 
ATOM     61  C   UNL A   1      48.297  31.468  27.944  1.00  0.00     0.029 A 
ATOM     62  C   UNL A   1      47.002  30.977  28.006  1.00  0.00     0.049 A 
ATOM     63  H   UNL A   1      46.248  29.121  27.345  1.00  0.00     0.167 HD
ATOM     64  C   UNL A   1      44.590  31.056  28.553  1.00  0.00     0.074 A 
ATOM     65  C   UNL A   1      43.415  31.693  29.108  1.00  0.00     0.031 C 
ATOM     66  C   UNL A   1      45.828  31.609  28.553  1.00  0.00     0.031 A 
BRANCH  53  67
ATOM     67  C   UNL A   1      50.159  27.960  26.086  1.00  0.00    -0.014 A 
ATOM     68  C   UNL A   1      50.671  28.244  24.810  1.00  0.00     0.009 A 
ATOM     69  C   UNL A   1      51.028  27.471  27.073  1.00  0.00     0.009 A 
ATOM     70  C   UNL A   1      52.015  27.998  24.519  1.00  0.00     0.001 A 
ATOM     71  C   UNL A   1      52.377  27.258  26.790  1.00  0.00     0.001 A 
ATOM     72  C   UNL A   1      52.866  27.509  25.509  1.00  0.00     0.000 A 
ENDBRANCH  53  67
BRANCH  54  73
ATOM     73  C   UNL A   1      40.489  28.762  28.325  1.00  0.00    -0.014 A 
ATOM     74  C   UNL A   1      39.562  29.401  27.488  1.00  0.00     0.009 A 
ATOM     75  C   UNL A   1      40.051  28.271  29.565  1.00  0.00     0.009 A 
ATOM     76  C   UNL A   1      38.235  29.568  27.896  1.00  0.00     0.001 A 
ATOM     77  C   UNL A   1      38.717  28.409  29.956  1.00  0.00     0.001 A 
ATOM     78  C   UNL A   1      37.812  29.067  29.126  1.00  0.00     0.000 A 
ENDBRANCH  54  73
BRANCH  66  79
ATOM     79  C   UNL A   1      45.984  32.993  29.126  1.00  0.00    -0.014 A 
ATOM     80  C   UNL A   1      45.787  34.141  28.343  1.00  0.00     0.009 A 
ATOM     81  C   UNL A   1      46.258  33.147  30.496  1.00  0.00     0.009 A 
ATOM     82  C   UNL A   1      45.889  35.412  28.915  1.00  0.00     0.001 A 
ATOM     83  C   UNL A   1      46.326  34.416  31.070  1.00  0.00     0.001 A 
ATOM     84  C   UNL A   1      46.149  35.549  30.278  1.00  0.00     0.000 A 
ENDBRANCH  66  79
ENDBRANCH  40  41
ENDBRANCH  33  35
ENDBRANCH  32  33
ENDBRANCH  31  32
ENDBRANCH  30  31
ENDBRANCH  29  30
ENDBRANCH  28  29
ENDBRANCH  27  28
ENDBRANCH  26  27
ENDBRANCH   1  26
TORSDOF 24
ENDMDL
MODEL 2
REMARK VINA RESULT:      -8.8      4.332      8.808
REMARK SMILES O=C(CCC[NH2+][C@H]1CCOC2(CCOCC2)C1)OCCOCCOCCOCCOC(=O)c1ccc(-c2c3nc(c(-c4ccccc4)c4ccc([nH]4)c(-c4ccccc4)c4nc(c(-c5ccccc5)c5ccc2[nH]5)C=C4)C=C3)cc1
REMARK SMILES IDX 23 1 22 2 21 3 20 4 19 5 18 6 2 7 1 8 3 9 4 10 5 11 6 12
REMARK SMILES IDX 7 15 8 16 17 17 9 18 11 19 10 20 12 21 16 22 13 23 15 24
REMARK SMILES IDX 14 25 24 26 25 27 26 28 27 29 28 30 29 31 30 32 31 33 32 34
REMARK SMILES IDX 33 35 34 36 80 37 35 38 79 39 36 40 37 41 38 42 73 43 39 44
REMARK SMILES IDX 78 45 72 46 74 47 40 48 77 49 71 50 70 51 41 53 63 54 48 55
REMARK SMILES IDX 62 56 49 57 52 58 61 59 75 60 50 61 51 62 60 64 76 65 53 66
REMARK SMILES IDX 42 67 43 68 47 69 44 70 46 71 45 72 64 73 65 74 69 75 66 76
REMARK SMILES IDX 68 77 67 78 54 79 55 80 59 81 56 82 58 83 57 84
REMARK H PARENT 6 13 6 14 74 52 52 63
REMARK Flexibility Score: inf
ROOT
ATOM      1  C   UNL A   1      44.438  21.435  25.015  1.00  0.00     0.188 C 
ENDROOT
BRANCH   1   2
ATOM      2  C   UNL A   1      44.042  22.772  24.399  1.00  0.00     0.188 C 
BRANCH   2   3
ATOM      3  O   UNL A   1      45.018  23.796  24.508  1.00  0.00    -0.376 OA
BRANCH   3   4
ATOM      4  C   UNL A   1      44.807  24.823  25.457  1.00  0.00     0.202 C 
BRANCH   4   5
ATOM      5  C   UNL A   1      45.886  25.878  25.491  1.00  0.00     0.261 C 
BRANCH   5   6
ATOM      6  O   UNL A   1      45.482  27.173  25.044  1.00  0.00    -0.463 OA
BRANCH   6   7
ATOM      7  C   UNL A   1      46.262  28.260  24.887  1.00  0.00     0.306 C 
ATOM      8  O   UNL A   1      46.813  28.410  23.794  1.00  0.00    -0.252 OA
BRANCH   7   9
ATOM      9  C   UNL A   1      46.587  29.224  26.018  1.00  0.00     0.128 C 
BRANCH   9  10
ATOM     10  C   UNL A   1      45.730  30.459  26.274  1.00  0.00     0.073 C 
BRANCH  10  11
ATOM     11  C   UNL A   1      46.331  31.685  26.982  1.00  0.00     0.261 C 
BRANCH  11  12
ATOM     12  N   UNL A   1      46.675  32.835  26.142  1.00  0.00    -0.344 N 
ATOM     13  H   UNL A   1      46.888  32.490  25.206  1.00  0.00     0.346 HD
ATOM     14  H   UNL A   1      47.466  33.293  26.595  1.00  0.00     0.346 HD
BRANCH  12  15
ATOM     15  C   UNL A   1      45.609  33.869  26.021  1.00  0.00     0.187 C 
ATOM     16  C   UNL A   1      44.544  33.498  24.979  1.00  0.00     0.093 C 
ATOM     17  C   UNL A   1      44.937  34.111  27.398  1.00  0.00     0.100 C 
ATOM     18  C   UNL A   1      43.359  34.438  25.005  1.00  0.00     0.167 C 
ATOM     19  C   UNL A   1      43.654  34.979  27.334  1.00  0.00     0.078 C 
ATOM     20  O   UNL A   1      42.787  34.485  26.301  1.00  0.00    -0.374 OA
ATOM     21  C   UNL A   1      43.965  36.476  27.142  1.00  0.00     0.064 C 
ATOM     22  C   UNL A   1      42.835  34.836  28.637  1.00  0.00     0.064 C 
ATOM     23  C   UNL A   1      42.679  37.297  27.176  1.00  0.00     0.163 C 
ATOM     24  C   UNL A   1      41.616  35.761  28.618  1.00  0.00     0.163 C 
ATOM     25  O   UNL A   1      42.018  37.116  28.426  1.00  0.00    -0.381 OA
ENDBRANCH  12  15
ENDBRANCH  11  12
ENDBRANCH  10  11
ENDBRANCH   9  10
ENDBRANCH   7   9
ENDBRANCH   6   7
ENDBRANCH   5   6
ENDBRANCH   4   5
ENDBRANCH   3   4
ENDBRANCH   2   3
ENDBRANCH   1   2
BRANCH   1  26
ATOM     26  O   UNL A   1      44.382  20.265  24.212  1.00  0.00    -0.377 OA
BRANCH  26  27
ATOM     27  C   UNL A   1      44.254  18.971  24.772  1.00  0.00     0.188 C 
BRANCH  27  28
ATOM     28  C   UNL A   1      43.339  18.917  25.997  1.00  0.00     0.188 C 
BRANCH  28  29
ATOM     29  O   UNL A   1      41.966  18.715  25.746  1.00  0.00    -0.376 OA
BRANCH  29  30
ATOM     30  C   UNL A   1      41.022  19.694  26.161  1.00  0.00     0.202 C 
BRANCH  30  31
ATOM     31  C   UNL A   1      41.322  20.950  27.026  1.00  0.00     0.261 C 
BRANCH  31  32
ATOM     32  O   UNL A   1      41.103  22.257  26.472  1.00  0.00    -0.460 OA
BRANCH  32  33
ATOM     33  C   UNL A   1      39.830  22.716  26.453  1.00  0.00     0.338 C 
ATOM     34  O   UNL A   1      38.823  22.072  26.234  1.00  0.00    -0.246 OA
BRANCH  33  35
ATOM     35  C   UNL A   1      39.801  24.111  26.959  1.00  0.00     0.060 A 
ATOM     36  C   UNL A   1      40.433  25.105  26.199  1.00  0.00     0.016 A 
ATOM     37  C   UNL A   1      39.232  24.434  28.192  1.00  0.00     0.016 A 
ATOM     38  C   UNL A   1      40.507  26.416  26.674  1.00  0.00     0.010 A 
ATOM     39  C   UNL A   1      39.338  25.746  28.681  1.00  0.00     0.010 A 
ATOM     40  C   UNL A   1      39.997  26.741  27.934  1.00  0.00    -0.014 A 
BRANCH  40  41
ATOM     41  C   UNL A   1      40.370  28.039  28.555  1.00  0.00     0.031 A 
ATOM     42  C   UNL A   1      41.791  28.217  29.019  1.00  0.00     0.074 A 
ATOM     43  C   UNL A   1      39.506  29.064  28.674  1.00  0.00     0.049 A 
ATOM     44  N   UNL A   1      42.340  29.211  29.669  1.00  0.00    -0.248 NA
ATOM     45  C   UNL A   1      42.719  27.120  28.695  1.00  0.00     0.031 C 
ATOM     46  C   UNL A   1      38.135  29.085  28.173  1.00  0.00     0.029 A 
ATOM     47  N   UNL A   1      39.668  30.295  29.268  1.00  0.00    -0.354 N 
ATOM     48  C   UNL A   1      43.670  28.853  29.847  1.00  0.00     0.074 A 
ATOM     49  C   UNL A   1      43.843  27.547  29.248  1.00  0.00     0.031 C 
ATOM     50  C   UNL A   1      37.569  30.260  28.506  1.00  0.00     0.029 A 
ATOM     51  C   UNL A   1      38.522  31.055  29.283  1.00  0.00     0.049 A 
ATOM     52  H   UNL A   1      40.522  30.602  29.648  1.00  0.00     0.167 HD
ATOM     53  C   UNL A   1      44.662  29.540  30.464  1.00  0.00     0.031 A 
ATOM     54  C   UNL A   1      38.261  32.233  29.887  1.00  0.00     0.031 A 
ATOM     55  C   UNL A   1      44.494  30.824  31.085  1.00  0.00     0.049 A 
ATOM     56  C   UNL A   1      39.344  32.924  30.682  1.00  0.00     0.074 A 
ATOM     57  C   UNL A   1      45.437  31.590  31.747  1.00  0.00     0.029 A 
ATOM     58  N   UNL A   1      43.300  31.526  31.135  1.00  0.00    -0.354 N 
ATOM     59  N   UNL A   1      40.595  32.573  30.858  1.00  0.00    -0.248 NA
ATOM     60  C   UNL A   1      38.975  34.175  31.365  1.00  0.00     0.031 C 
ATOM     61  C   UNL A   1      44.797  32.722  32.261  1.00  0.00     0.029 A 
ATOM     62  C   UNL A   1      43.473  32.699  31.851  1.00  0.00     0.049 A 
ATOM     63  H   UNL A   1      42.455  31.236  30.723  1.00  0.00     0.167 HD
ATOM     64  C   UNL A   1      41.167  33.571  31.641  1.00  0.00     0.074 A 
ATOM     65  C   UNL A   1      40.131  34.548  31.898  1.00  0.00     0.031 C 
ATOM     66  C   UNL A   1      42.439  33.670  32.101  1.00  0.00     0.031 A 
BRANCH  53  67
ATOM     67  C   UNL A   1      46.002  28.865  30.561  1.00  0.00    -0.014 A 
ATOM     68  C   UNL A   1      47.013  29.087  29.612  1.00  0.00     0.009 A 
ATOM     69  C   UNL A   1      46.254  27.990  31.630  1.00  0.00     0.009 A 
ATOM     70  C   UNL A   1      48.230  28.410  29.707  1.00  0.00     0.001 A 
ATOM     71  C   UNL A   1      47.483  27.342  31.742  1.00  0.00     0.001 A 
ATOM     72  C   UNL A   1      48.465  27.541  30.773  1.00  0.00     0.000 A 
ENDBRANCH  53  67
BRANCH  54  73
ATOM     73  C   UNL A   1      36.891  32.817  29.830  1.00  0.00    -0.014 A 
ATOM     74  C   UNL A   1      36.556  33.791  28.878  1.00  0.00     0.009 A 
ATOM     75  C   UNL A   1      35.920  32.429  30.768  1.00  0.00     0.009 A 
ATOM     76  C   UNL A   1      35.288  34.381  28.882  1.00  0.00     0.001 A 
ATOM     77  C   UNL A   1      34.644  32.996  30.749  1.00  0.00     0.001 A 
ATOM     78  C   UNL A   1      34.331  33.980  29.813  1.00  0.00     0.000 A 
ENDBRANCH  54  73
BRANCH  66  79
ATOM     79  C   UNL A   1      42.809  34.896  32.893  1.00  0.00    -0.014 A 
ATOM     80  C   UNL A   1      43.273  36.064  32.269  1.00  0.00     0.009 A 
ATOM     81  C   UNL A   1      42.617  34.903  34.285  1.00  0.00     0.009 A 
ATOM     82  C   UNL A   1      43.561  37.203  33.027  1.00  0.00     0.001 A 
ATOM     83  C   UNL A   1      42.873  36.052  35.034  1.00  0.00     0.001 A 
ATOM     84  C   UNL A   1      43.353  37.199  34.405  1.00  0.00     0.000 A 
ENDBRANCH  66  79
ENDBRANCH  40  41
ENDBRANCH  33  35
ENDBRANCH  32  33
ENDBRANCH  31  32
ENDBRANCH  30  31
ENDBRANCH  29  30
ENDBRANCH  28  29
ENDBRANCH  27  28
ENDBRANCH  26  27
ENDBRANCH   1  26
TORSDOF 24
ENDMDL
MODEL 3
REMARK VINA RESULT:      -8.7      6.235     11.848
REMARK SMILES O=C(CCC[NH2+][C@H]1CCOC2(CCOCC2)C1)OCCOCCOCCOCCOC(=O)c1ccc(-c2c3nc(c(-c4ccccc4)c4ccc([nH]4)c(-c4ccccc4)c4nc(c(-c5ccccc5)c5ccc2[nH]5)C=C4)C=C3)cc1
REMARK SMILES IDX 23 1 22 2 21 3 20 4 19 5 18 6 2 7 1 8 3 9 4 10 5 11 6 12
REMARK SMILES IDX 7 15 8 16 17 17 9 18 11 19 10 20 12 21 16 22 13 23 15 24
REMARK SMILES IDX 14 25 24 26 25 27 26 28 27 29 28 30 29 31 30 32 31 33 32 34
REMARK SMILES IDX 33 35 34 36 80 37 35 38 79 39 36 40 37 41 38 42 73 43 39 44
REMARK SMILES IDX 78 45 72 46 74 47 40 48 77 49 71 50 70 51 41 53 63 54 48 55
REMARK SMILES IDX 62 56 49 57 52 58 61 59 75 60 50 61 51 62 60 64 76 65 53 66
REMARK SMILES IDX 42 67 43 68 47 69 44 70 46 71 45 72 64 73 65 74 69 75 66 76
REMARK SMILES IDX 68 77 67 78 54 79 55 80 59 81 56 82 58 83 57 84
REMARK H PARENT 6 13 6 14 74 52 52 63
REMARK Flexibility Score: inf
ROOT
ATOM      1  C   UNL A   1      35.229  30.372  28.048  1.00  0.00     0.188 C 
ENDROOT
BRANCH   1   2
ATOM      2  C   UNL A   1      34.003  29.567  27.632  1.00  0.00     0.188 C 
BRANCH   2   3
ATOM      3  O   UNL A   1      33.388  29.991  26.426  1.00  0.00    -0.376 OA
BRANCH   3   4
ATOM      4  C   UNL A   1      32.014  29.709  26.242  1.00  0.00     0.202 C 
BRANCH   4   5
ATOM      5  C   UNL A   1      31.691  28.968  24.967  1.00  0.00     0.261 C 
BRANCH   5   6
ATOM      6  O   UNL A   1      31.531  27.556  25.111  1.00  0.00    -0.463 OA
BRANCH   6   7
ATOM      7  C   UNL A   1      30.536  26.795  24.616  1.00  0.00     0.306 C 
ATOM      8  O   UNL A   1      29.917  26.083  25.411  1.00  0.00    -0.252 OA
BRANCH   7   9
ATOM      9  C   UNL A   1      30.231  26.682  23.130  1.00  0.00     0.128 C 
BRANCH   9  10
ATOM     10  C   UNL A   1      31.348  26.691  22.092  1.00  0.00     0.073 C 
BRANCH  10  11
ATOM     11  C   UNL A   1      32.538  25.727  22.228  1.00  0.00     0.261 C 
BRANCH  11  12
ATOM     12  N   UNL A   1      33.554  26.062  23.230  1.00  0.00    -0.344 N 
ATOM     13  H   UNL A   1      33.140  26.721  23.890  1.00  0.00     0.346 HD
ATOM     14  H   UNL A   1      34.346  26.447  22.715  1.00  0.00     0.346 HD
BRANCH  12  15
ATOM     15  C   UNL A   1      34.083  24.905  24.003  1.00  0.00     0.187 C 
ATOM     16  C   UNL A   1      33.834  25.040  25.512  1.00  0.00     0.093 C 
ATOM     17  C   UNL A   1      33.462  23.582  23.483  1.00  0.00     0.100 C 
ATOM     18  C   UNL A   1      34.181  23.778  26.270  1.00  0.00     0.167 C 
ATOM     19  C   UNL A   1      33.752  22.349  24.378  1.00  0.00     0.078 C 
ATOM     20  O   UNL A   1      33.467  22.670  25.748  1.00  0.00    -0.374 OA
ATOM     21  C   UNL A   1      35.192  21.824  24.208  1.00  0.00     0.064 C 
ATOM     22  C   UNL A   1      32.789  21.190  24.035  1.00  0.00     0.064 C 
ATOM     23  C   UNL A   1      35.400  20.561  25.039  1.00  0.00     0.163 C 
ATOM     24  C   UNL A   1      33.131  19.941  24.851  1.00  0.00     0.163 C 
ATOM     25  O   UNL A   1      34.484  19.550  24.626  1.00  0.00    -0.381 OA
ENDBRANCH  12  15
ENDBRANCH  11  12
ENDBRANCH  10  11
ENDBRANCH   9  10
ENDBRANCH   7   9
ENDBRANCH   6   7
ENDBRANCH   5   6
ENDBRANCH   4   5
ENDBRANCH   3   4
ENDBRANCH   2   3
ENDBRANCH   1   2
BRANCH   1  26
ATOM     26  O   UNL A   1      35.045  31.594  28.748  1.00  0.00    -0.377 OA
BRANCH  26  27
ATOM     27  C   UNL A   1      35.500  32.833  28.237  1.00  0.00     0.188 C 
BRANCH  27  28
ATOM     28  C   UNL A   1      35.079  34.039  29.079  1.00  0.00     0.188 C 
BRANCH  28  29
ATOM     29  O   UNL A   1      33.775  34.529  28.865  1.00  0.00    -0.376 OA
BRANCH  29  30
ATOM     30  C   UNL A   1      33.552  35.933  28.800  1.00  0.00     0.202 C 
BRANCH  30  31
ATOM     31  C   UNL A   1      32.825  36.798  29.868  1.00  0.00     0.261 C 
BRANCH  31  32
ATOM     32  O   UNL A   1      33.266  36.749  31.234  1.00  0.00    -0.460 OA
BRANCH  32  33
ATOM     33  C   UNL A   1      32.796  35.738  32.002  1.00  0.00     0.338 C 
ATOM     34  O   UNL A   1      31.649  35.342  32.066  1.00  0.00    -0.246 OA
BRANCH  33  35
ATOM     35  C   UNL A   1      33.936  35.015  32.619  1.00  0.00     0.060 A 
ATOM     36  C   UNL A   1      35.217  35.572  32.499  1.00  0.00     0.016 A 
ATOM     37  C   UNL A   1      33.770  33.776  33.239  1.00  0.00     0.016 A 
ATOM     38  C   UNL A   1      36.331  34.888  32.988  1.00  0.00     0.010 A 
ATOM     39  C   UNL A   1      34.897  33.076  33.698  1.00  0.00     0.010 A 
ATOM     40  C   UNL A   1      36.189  33.618  33.555  1.00  0.00    -0.014 A 
BRANCH  40  41
ATOM     41  C   UNL A   1      37.396  32.777  33.765  1.00  0.00     0.031 A 
ATOM     42  C   UNL A   1      38.185  32.977  35.031  1.00  0.00     0.074 A 
ATOM     43  C   UNL A   1      37.778  31.822  32.896  1.00  0.00     0.049 A 
ATOM     44  N   UNL A   1      39.318  32.437  35.405  1.00  0.00    -0.248 NA
ATOM     45  C   UNL A   1      37.608  33.911  36.012  1.00  0.00     0.031 C 
ATOM     46  C   UNL A   1      37.058  31.434  31.687  1.00  0.00     0.029 A 
ATOM     47  N   UNL A   1      38.885  31.006  32.907  1.00  0.00    -0.354 N 
ATOM     48  C   UNL A   1      39.597  32.979  36.653  1.00  0.00     0.074 A 
ATOM     49  C   UNL A   1      38.523  33.896  36.968  1.00  0.00     0.031 C 
ATOM     50  C   UNL A   1      37.757  30.473  31.055  1.00  0.00     0.029 A 
ATOM     51  C   UNL A   1      38.995  30.211  31.790  1.00  0.00     0.049 A 
ATOM     52  H   UNL A   1      39.538  30.992  33.643  1.00  0.00     0.167 HD
ATOM     53  C   UNL A   1      40.656  32.747  37.465  1.00  0.00     0.031 A 
ATOM     54  C   UNL A   1      39.996  29.400  31.388  1.00  0.00     0.031 A 
ATOM     55  C   UNL A   1      41.740  31.859  37.149  1.00  0.00     0.049 A 
ATOM     56  C   UNL A   1      41.232  29.253  32.245  1.00  0.00     0.074 A 
ATOM     57  C   UNL A   1      42.865  31.571  37.902  1.00  0.00     0.029 A 
ATOM     58  N   UNL A   1      41.844  31.126  35.977  1.00  0.00    -0.354 N 
ATOM     59  N   UNL A   1      41.495  29.779  33.417  1.00  0.00    -0.248 NA
ATOM     60  C   UNL A   1      42.311  28.399  31.720  1.00  0.00     0.031 C 
ATOM     61  C   UNL A   1      43.685  30.720  37.155  1.00  0.00     0.029 A 
ATOM     62  C   UNL A   1      43.033  30.417  35.969  1.00  0.00     0.049 A 
ATOM     63  H   UNL A   1      41.173  31.112  35.257  1.00  0.00     0.167 HD
ATOM     64  C   UNL A   1      42.749  29.297  33.781  1.00  0.00     0.074 A 
ATOM     65  C   UNL A   1      43.190  28.428  32.711  1.00  0.00     0.031 C 
ATOM     66  C   UNL A   1      43.467  29.549  34.904  1.00  0.00     0.031 A 
BRANCH  53  67
ATOM     67  C   UNL A   1      40.724  33.536  38.742  1.00  0.00    -0.014 A 
ATOM     68  C   UNL A   1      41.373  34.779  38.811  1.00  0.00     0.009 A 
ATOM     69  C   UNL A   1      40.122  33.019  39.901  1.00  0.00     0.009 A 
ATOM     70  C   UNL A   1      41.456  35.465  40.025  1.00  0.00     0.001 A 
ATOM     71  C   UNL A   1      40.177  33.722  41.104  1.00  0.00     0.001 A 
ATOM     72  C   UNL A   1      40.855  34.938  41.168  1.00  0.00     0.000 A 
ENDBRANCH  53  67
BRANCH  54  73
ATOM     73  C   UNL A   1      39.916  28.707  30.072  1.00  0.00    -0.014 A 
ATOM     74  C   UNL A   1      40.316  29.346  28.889  1.00  0.00     0.009 A 
ATOM     75  C   UNL A   1      39.393  27.406  29.991  1.00  0.00     0.009 A 
ATOM     76  C   UNL A   1      40.168  28.709  27.653  1.00  0.00     0.001 A 
ATOM     77  C   UNL A   1      39.278  26.758  28.759  1.00  0.00     0.001 A 
ATOM     78  C   UNL A   1      39.655  27.414  27.588  1.00  0.00     0.000 A 
ENDBRANCH  54  73
BRANCH  66  79
ATOM     79  C   UNL A   1      44.788  28.847  35.069  1.00  0.00    -0.014 A 
ATOM     80  C   UNL A   1      45.993  29.437  34.656  1.00  0.00     0.009 A 
ATOM     81  C   UNL A   1      44.833  27.603  35.721  1.00  0.00     0.009 A 
ATOM     82  C   UNL A   1      47.209  28.783  34.868  1.00  0.00     0.001 A 
ATOM     83  C   UNL A   1      46.052  26.968  35.961  1.00  0.00     0.001 A 
ATOM     84  C   UNL A   1      47.239  27.554  35.527  1.00  0.00     0.000 A 
ENDBRANCH  66  79
ENDBRANCH  40  41
ENDBRANCH  33  35
ENDBRANCH  32  33
ENDBRANCH  31  32
ENDBRANCH  30  31
ENDBRANCH  29  30
ENDBRANCH  28  29
ENDBRANCH  27  28
ENDBRANCH  26  27
ENDBRANCH   1  26
TORSDOF 24
ENDMDL
