MODEL 1
REMARK VINA RESULT:      -8.1      0.000      0.000
REMARK SMILES O=C(CS(=O)(=O)N1CCC1)OCCOCCOCCOCCOC(=O)c1ccc(-c2c3nc(c(-c4ccccc4)c4ccc([nH]4)c(-c4ccccc4)c4nc(c(-c5ccccc5)c5ccc2[nH]5)C=C4)C=C3)cc1
REMARK SMILES IDX 17 1 16 2 15 3 14 4 13 5 12 6 11 7 2 8 1 9 3 10 4 11 5 12
REMARK SMILES IDX 6 13 7 14 8 15 10 16 9 17 18 18 19 19 20 20 21 21 22 22
REMARK SMILES IDX 23 23 24 24 25 25 26 26 27 27 73 28 28 29 72 30 29 31 30 32
REMARK SMILES IDX 31 33 66 34 32 35 71 36 65 37 67 38 33 39 70 40 64 41 63 42
REMARK SMILES IDX 34 44 56 45 41 46 55 47 42 48 45 49 54 50 68 51 43 52 44 53
REMARK SMILES IDX 53 55 69 56 46 57 35 58 36 59 40 60 37 61 39 62 38 63 57 64
REMARK SMILES IDX 58 65 62 66 59 67 61 68 60 69 47 70 48 71 52 72 49 73 51 74
REMARK SMILES IDX 50 75
REMARK H PARENT 67 43 45 54
REMARK Flexibility Score: inf
ROOT
ATOM      1  O   UNL A   1      37.233  22.063  24.920  1.00  0.00    -0.377 OA
ENDROOT
BRANCH   1   2
ATOM      2  C   UNL A   1      36.388  20.977  25.239  1.00  0.00     0.188 C 
BRANCH   2   3
ATOM      3  C   UNL A   1      34.855  21.105  25.329  1.00  0.00     0.188 C 
BRANCH   3   4
ATOM      4  O   UNL A   1      34.156  21.771  24.300  1.00  0.00    -0.376 OA
BRANCH   4   5
ATOM      5  C   UNL A   1      33.684  23.105  24.300  1.00  0.00     0.202 C 
BRANCH   5   6
ATOM      6  C   UNL A   1      34.500  24.222  23.671  1.00  0.00     0.261 C 
BRANCH   6   7
ATOM      7  O   UNL A   1      33.857  25.479  23.382  1.00  0.00    -0.462 OA
BRANCH   7   8
ATOM      8  C   UNL A   1      33.095  25.869  22.350  1.00  0.00     0.322 C 
ATOM      9  O   UNL A   1      33.632  25.962  21.243  1.00  0.00    -0.251 OA
BRANCH   8  10
ATOM     10  C   UNL A   1      31.670  26.249  22.510  1.00  0.00     0.276 C 
BRANCH  10  11
ATOM     11  S   UNL A   1      31.512  27.980  22.737  1.00  0.00     0.224 S 
ATOM     12  O   UNL A   1      32.793  28.591  22.450  1.00  0.00    -0.212 OA
ATOM     13  O   UNL A   1      30.322  28.390  22.024  1.00  0.00    -0.212 OA
BRANCH  11  14
ATOM     14  N   UNL A   1      31.205  28.123  24.375  1.00  0.00    -0.201 NA
ATOM     15  C   UNL A   1      31.296  27.051  25.405  1.00  0.00     0.103 C 
ATOM     16  C   UNL A   1      31.795  29.109  25.321  1.00  0.00     0.103 C 
ATOM     17  C   UNL A   1      31.776  28.068  26.447  1.00  0.00     0.033 C 
ENDBRANCH  11  14
ENDBRANCH  10  11
ENDBRANCH   8  10
ENDBRANCH   7   8
ENDBRANCH   6   7
ENDBRANCH   5   6
ENDBRANCH   4   5
ENDBRANCH   3   4
ENDBRANCH   2   3
ENDBRANCH   1   2
BRANCH   1  18
ATOM     18  C   UNL A   1      37.887  22.723  25.980  1.00  0.00     0.188 C 
BRANCH  18  19
ATOM     19  C   UNL A   1      39.379  22.358  26.144  1.00  0.00     0.188 C 
BRANCH  19  20
ATOM     20  O   UNL A   1      39.779  21.002  26.127  1.00  0.00    -0.376 OA
BRANCH  20  21
ATOM     21  C   UNL A   1      41.041  20.562  26.591  1.00  0.00     0.202 C 
BRANCH  21  22
ATOM     22  C   UNL A   1      42.402  20.726  25.879  1.00  0.00     0.261 C 
BRANCH  22  23
ATOM     23  O   UNL A   1      43.302  21.721  26.355  1.00  0.00    -0.460 OA
BRANCH  23  24
ATOM     24  C   UNL A   1      43.202  22.938  25.770  1.00  0.00     0.338 C 
ATOM     25  O   UNL A   1      42.987  23.181  24.606  1.00  0.00    -0.246 OA
BRANCH  24  26
ATOM     26  C   UNL A   1      43.160  23.948  26.852  1.00  0.00     0.060 A 
ATOM     27  C   UNL A   1      42.752  23.526  28.127  1.00  0.00     0.016 A 
ATOM     28  C   UNL A   1      43.545  25.271  26.627  1.00  0.00     0.016 A 
ATOM     29  C   UNL A   1      42.686  24.437  29.174  1.00  0.00     0.010 A 
ATOM     30  C   UNL A   1      43.428  26.197  27.666  1.00  0.00     0.010 A 
ATOM     31  C   UNL A   1      42.948  25.789  28.923  1.00  0.00    -0.014 A 
BRANCH  31  32
ATOM     32  C   UNL A   1      42.386  26.786  29.859  1.00  0.00     0.031 A 
ATOM     33  C   UNL A   1      43.144  27.024  31.138  1.00  0.00     0.074 A 
ATOM     34  C   UNL A   1      41.291  27.505  29.568  1.00  0.00     0.049 A 
ATOM     35  N   UNL A   1      42.885  27.846  32.120  1.00  0.00    -0.248 NA
ATOM     36  C   UNL A   1      44.363  26.219  31.330  1.00  0.00     0.031 C 
ATOM     37  C   UNL A   1      40.517  27.418  28.331  1.00  0.00     0.029 A 
ATOM     38  N   UNL A   1      40.649  28.466  30.306  1.00  0.00    -0.354 N 
ATOM     39  C   UNL A   1      43.900  27.646  33.048  1.00  0.00     0.074 A 
ATOM     40  C   UNL A   1      44.758  26.605  32.530  1.00  0.00     0.031 C 
ATOM     41  C   UNL A   1      39.499  28.296  28.396  1.00  0.00     0.029 A 
ATOM     42  C   UNL A   1      39.535  28.978  29.689  1.00  0.00     0.049 A 
ATOM     43  H   UNL A   1      40.958  28.761  31.193  1.00  0.00     0.167 HD
ATOM     44  C   UNL A   1      44.104  28.273  34.229  1.00  0.00     0.031 A 
ATOM     45  C   UNL A   1      38.644  29.887  30.131  1.00  0.00     0.031 A 
ATOM     46  C   UNL A   1      43.236  29.289  34.753  1.00  0.00     0.049 A 
ATOM     47  C   UNL A   1      38.838  30.506  31.492  1.00  0.00     0.074 A 
ATOM     48  C   UNL A   1      43.349  29.993  35.938  1.00  0.00     0.029 A 
ATOM     49  N   UNL A   1      42.081  29.735  34.127  1.00  0.00    -0.354 N 
ATOM     50  N   UNL A   1      39.808  30.324  32.358  1.00  0.00    -0.248 NA
ATOM     51  C   UNL A   1      37.816  31.468  31.929  1.00  0.00     0.031 C 
ATOM     52  C   UNL A   1      42.226  30.818  36.059  1.00  0.00     0.029 A 
ATOM     53  C   UNL A   1      41.455  30.685  34.914  1.00  0.00     0.049 A 
ATOM     54  H   UNL A   1      41.756  29.422  33.252  1.00  0.00     0.167 HD
ATOM     55  C   UNL A   1      39.536  31.180  33.420  1.00  0.00     0.074 A 
ATOM     56  C   UNL A   1      38.314  31.883  33.085  1.00  0.00     0.031 C 
ATOM     57  C   UNL A   1      40.239  31.374  34.563  1.00  0.00     0.031 A 
BRANCH  44  58
ATOM     58  C   UNL A   1      45.278  27.816  35.051  1.00  0.00    -0.014 A 
ATOM     59  C   UNL A   1      46.544  28.412  34.924  1.00  0.00     0.009 A 
ATOM     60  C   UNL A   1      45.117  26.754  35.952  1.00  0.00     0.009 A 
ATOM     61  C   UNL A   1      47.633  27.919  35.647  1.00  0.00     0.001 A 
ATOM     62  C   UNL A   1      46.198  26.287  36.701  1.00  0.00     0.001 A 
ATOM     63  C   UNL A   1      47.458  26.860  36.537  1.00  0.00     0.000 A 
ENDBRANCH  44  58
BRANCH  45  64
ATOM     64  C   UNL A   1      37.487  30.271  29.281  1.00  0.00    -0.014 A 
ATOM     65  C   UNL A   1      36.505  29.327  28.943  1.00  0.00     0.009 A 
ATOM     66  C   UNL A   1      37.365  31.581  28.789  1.00  0.00     0.009 A 
ATOM     67  C   UNL A   1      35.439  29.681  28.112  1.00  0.00     0.001 A 
ATOM     68  C   UNL A   1      36.282  31.939  27.983  1.00  0.00     0.001 A 
ATOM     69  C   UNL A   1      35.325  30.986  27.639  1.00  0.00     0.000 A 
ENDBRANCH  45  64
BRANCH  57  70
ATOM     70  C   UNL A   1      39.740  32.433  35.511  1.00  0.00    -0.014 A 
ATOM     71  C   UNL A   1      38.859  32.132  36.560  1.00  0.00     0.009 A 
ATOM     72  C   UNL A   1      40.200  33.753  35.368  1.00  0.00     0.009 A 
ATOM     73  C   UNL A   1      38.413  33.140  37.419  1.00  0.00     0.001 A 
ATOM     74  C   UNL A   1      39.782  34.751  36.249  1.00  0.00     0.001 A 
ATOM     75  C   UNL A   1      38.879  34.446  37.266  1.00  0.00     0.000 A 
ENDBRANCH  57  70
ENDBRANCH  31  32
ENDBRANCH  24  26
ENDBRANCH  23  24
ENDBRANCH  22  23
ENDBRANCH  21  22
ENDBRANCH  20  21
ENDBRANCH  19  20
ENDBRANCH  18  19
ENDBRANCH   1  18
TORSDOF 22
ENDMDL
MODEL 2
REMARK VINA RESULT:      -7.7      1.530      2.147
REMARK SMILES O=C(CS(=O)(=O)N1CCC1)OCCOCCOCCOCCOC(=O)c1ccc(-c2c3nc(c(-c4ccccc4)c4ccc([nH]4)c(-c4ccccc4)c4nc(c(-c5ccccc5)c5ccc2[nH]5)C=C4)C=C3)cc1
REMARK SMILES IDX 17 1 16 2 15 3 14 4 13 5 12 6 11 7 2 8 1 9 3 10 4 11 5 12
REMARK SMILES IDX 6 13 7 14 8 15 10 16 9 17 18 18 19 19 20 20 21 21 22 22
REMARK SMILES IDX 23 23 24 24 25 25 26 26 27 27 73 28 28 29 72 30 29 31 30 32
REMARK SMILES IDX 31 33 66 34 32 35 71 36 65 37 67 38 33 39 70 40 64 41 63 42
REMARK SMILES IDX 34 44 56 45 41 46 55 47 42 48 45 49 54 50 68 51 43 52 44 53
REMARK SMILES IDX 53 55 69 56 46 57 35 58 36 59 40 60 37 61 39 62 38 63 57 64
REMARK SMILES IDX 58 65 62 66 59 67 61 68 60 69 47 70 48 71 52 72 49 73 51 74
REMARK SMILES IDX 50 75
REMARK H PARENT 67 43 45 54
REMARK Flexibility Score: inf
ROOT
ATOM      1  O   UNL A   1      36.744  22.482  24.981  1.00  0.00    -0.377 OA
ENDROOT
BRANCH   1   2
ATOM      2  C   UNL A   1      36.002  21.347  25.378  1.00  0.00     0.188 C 
BRANCH   2   3
ATOM      3  C   UNL A   1      34.463  21.296  25.335  1.00  0.00     0.188 C 
BRANCH   3   4
ATOM      4  O   UNL A   1      33.799  21.483  24.104  1.00  0.00    -0.376 OA
BRANCH   4   5
ATOM      5  C   UNL A   1      33.258  22.684  23.588  1.00  0.00     0.202 C 
BRANCH   5   6
ATOM      6  C   UNL A   1      34.046  23.535  22.606  1.00  0.00     0.261 C 
BRANCH   6   7
ATOM      7  O   UNL A   1      33.732  24.938  22.491  1.00  0.00    -0.462 OA
BRANCH   7   8
ATOM      8  C   UNL A   1      32.935  25.602  21.642  1.00  0.00     0.322 C 
ATOM      9  O   UNL A   1      33.215  25.562  20.441  1.00  0.00    -0.251 OA
BRANCH   8  10
ATOM     10  C   UNL A   1      31.788  26.422  22.103  1.00  0.00     0.276 C 
BRANCH  10  11
ATOM     11  S   UNL A   1      32.337  27.724  23.141  1.00  0.00     0.224 S 
ATOM     12  O   UNL A   1      33.773  27.834  23.007  1.00  0.00    -0.212 OA
ATOM     13  O   UNL A   1      31.481  28.861  22.876  1.00  0.00    -0.212 OA
BRANCH  11  14
ATOM     14  N   UNL A   1      31.983  27.162  24.677  1.00  0.00    -0.201 NA
ATOM     15  C   UNL A   1      30.732  26.488  25.122  1.00  0.00     0.103 C 
ATOM     16  C   UNL A   1      32.800  26.238  25.509  1.00  0.00     0.103 C 
ATOM     17  C   UNL A   1      31.529  25.612  26.096  1.00  0.00     0.033 C 
ENDBRANCH  11  14
ENDBRANCH  10  11
ENDBRANCH   8  10
ENDBRANCH   7   8
ENDBRANCH   6   7
ENDBRANCH   5   6
ENDBRANCH   4   5
ENDBRANCH   3   4
ENDBRANCH   2   3
ENDBRANCH   1   2
BRANCH   1  18
ATOM     18  C   UNL A   1      37.071  23.434  25.970  1.00  0.00     0.188 C 
BRANCH  18  19
ATOM     19  C   UNL A   1      38.584  23.600  26.229  1.00  0.00     0.188 C 
BRANCH  19  20
ATOM     20  O   UNL A   1      39.396  22.459  26.424  1.00  0.00    -0.376 OA
BRANCH  20  21
ATOM     21  C   UNL A   1      40.778  22.534  26.717  1.00  0.00     0.202 C 
BRANCH  21  22
ATOM     22  C   UNL A   1      41.898  23.050  25.787  1.00  0.00     0.261 C 
BRANCH  22  23
ATOM     23  O   UNL A   1      42.615  24.219  26.171  1.00  0.00    -0.460 OA
BRANCH  23  24
ATOM     24  C   UNL A   1      41.972  25.396  25.982  1.00  0.00     0.338 C 
ATOM     25  O   UNL A   1      41.336  25.743  25.014  1.00  0.00    -0.246 OA
BRANCH  24  26
ATOM     26  C   UNL A   1      41.970  26.112  27.277  1.00  0.00     0.060 A 
ATOM     27  C   UNL A   1      41.016  25.735  28.235  1.00  0.00     0.016 A 
ATOM     28  C   UNL A   1      42.906  27.110  27.558  1.00  0.00     0.016 A 
ATOM     29  C   UNL A   1      40.966  26.384  29.463  1.00  0.00     0.010 A 
ATOM     30  C   UNL A   1      42.823  27.797  28.771  1.00  0.00     0.010 A 
ATOM     31  C   UNL A   1      41.819  27.468  29.700  1.00  0.00    -0.014 A 
BRANCH  31  32
ATOM     32  C   UNL A   1      41.421  28.445  30.736  1.00  0.00     0.031 A 
ATOM     33  C   UNL A   1      42.245  28.476  31.995  1.00  0.00     0.074 A 
ATOM     34  C   UNL A   1      40.420  29.318  30.550  1.00  0.00     0.049 A 
ATOM     35  N   UNL A   1      42.128  29.239  33.049  1.00  0.00    -0.248 NA
ATOM     36  C   UNL A   1      43.356  27.511  32.069  1.00  0.00     0.031 C 
ATOM     37  C   UNL A   1      39.600  29.435  29.346  1.00  0.00     0.029 A 
ATOM     38  N   UNL A   1      39.931  30.286  31.390  1.00  0.00    -0.354 N 
ATOM     39  C   UNL A   1      43.138  28.834  33.914  1.00  0.00     0.074 A 
ATOM     40  C   UNL A   1      43.837  27.742  33.278  1.00  0.00     0.031 C 
ATOM     41  C   UNL A   1      38.707  30.424  29.524  1.00  0.00     0.029 A 
ATOM     42  C   UNL A   1      38.873  30.985  30.865  1.00  0.00     0.049 A 
ATOM     43  H   UNL A   1      40.305  30.464  32.283  1.00  0.00     0.167 HD
ATOM     44  C   UNL A   1      43.460  29.329  35.131  1.00  0.00     0.031 A 
ATOM     45  C   UNL A   1      38.122  31.958  31.417  1.00  0.00     0.031 A 
ATOM     46  C   UNL A   1      42.748  30.398  35.772  1.00  0.00     0.049 A 
ATOM     47  C   UNL A   1      38.439  32.431  32.813  1.00  0.00     0.074 A 
ATOM     48  C   UNL A   1      42.990  30.980  37.003  1.00  0.00     0.029 A 
ATOM     49  N   UNL A   1      41.641  31.037  35.234  1.00  0.00    -0.354 N 
ATOM     50  N   UNL A   1      39.405  32.055  33.618  1.00  0.00    -0.248 NA
ATOM     51  C   UNL A   1      37.565  33.473  33.369  1.00  0.00     0.031 C 
ATOM     52  C   UNL A   1      41.987  31.926  37.238  1.00  0.00     0.029 A 
ATOM     53  C   UNL A   1      41.169  31.988  36.121  1.00  0.00     0.049 A 
ATOM     54  H   UNL A   1      41.249  30.842  34.352  1.00  0.00     0.167 HD
ATOM     55  C   UNL A   1      39.281  32.845  34.756  1.00  0.00     0.074 A 
ATOM     56  C   UNL A   1      38.150  33.722  34.532  1.00  0.00     0.031 C 
ATOM     57  C   UNL A   1      40.041  32.852  35.880  1.00  0.00     0.031 A 
BRANCH  44  58
ATOM     58  C   UNL A   1      44.592  28.660  35.861  1.00  0.00    -0.014 A 
ATOM     59  C   UNL A   1      45.906  29.153  35.798  1.00  0.00     0.009 A 
ATOM     60  C   UNL A   1      44.340  27.501  36.610  1.00  0.00     0.009 A 
ATOM     61  C   UNL A   1      46.949  28.470  36.427  1.00  0.00     0.001 A 
ATOM     62  C   UNL A   1      45.378  26.840  37.268  1.00  0.00     0.001 A 
ATOM     63  C   UNL A   1      46.684  27.317  37.164  1.00  0.00     0.000 A 
ENDBRANCH  44  58
BRANCH  45  64
ATOM     64  C   UNL A   1      36.996  32.556  30.651  1.00  0.00    -0.014 A 
ATOM     65  C   UNL A   1      37.214  33.650  29.800  1.00  0.00     0.009 A 
ATOM     66  C   UNL A   1      35.696  32.044  30.779  1.00  0.00     0.009 A 
ATOM     67  C   UNL A   1      36.147  34.234  29.111  1.00  0.00     0.001 A 
ATOM     68  C   UNL A   1      34.636  32.611  30.066  1.00  0.00     0.001 A 
ATOM     69  C   UNL A   1      34.863  33.710  29.239  1.00  0.00     0.000 A 
ENDBRANCH  45  64
BRANCH  57  70
ATOM     70  C   UNL A   1      39.715  33.881  36.930  1.00  0.00    -0.014 A 
ATOM     71  C   UNL A   1      40.186  35.199  36.845  1.00  0.00     0.009 A 
ATOM     72  C   UNL A   1      38.881  33.525  38.003  1.00  0.00     0.009 A 
ATOM     73  C   UNL A   1      39.867  36.128  37.840  1.00  0.00     0.001 A 
ATOM     74  C   UNL A   1      38.533  34.463  38.975  1.00  0.00     0.001 A 
ATOM     75  C   UNL A   1      39.037  35.760  38.900  1.00  0.00     0.000 A 
ENDBRANCH  57  70
ENDBRANCH  31  32
ENDBRANCH  24  26
ENDBRANCH  23  24
ENDBRANCH  22  23
ENDBRANCH  21  22
ENDBRANCH  20  21
ENDBRANCH  19  20
ENDBRANCH  18  19
ENDBRANCH   1  18
TORSDOF 22
ENDMDL
MODEL 3
REMARK VINA RESULT:      -7.7      4.075      4.910
REMARK SMILES O=C(CS(=O)(=O)N1CCC1)OCCOCCOCCOCCOC(=O)c1ccc(-c2c3nc(c(-c4ccccc4)c4ccc([nH]4)c(-c4ccccc4)c4nc(c(-c5ccccc5)c5ccc2[nH]5)C=C4)C=C3)cc1
REMARK SMILES IDX 17 1 16 2 15 3 14 4 13 5 12 6 11 7 2 8 1 9 3 10 4 11 5 12
REMARK SMILES IDX 6 13 7 14 8 15 10 16 9 17 18 18 19 19 20 20 21 21 22 22
REMARK SMILES IDX 23 23 24 24 25 25 26 26 27 27 73 28 28 29 72 30 29 31 30 32
REMARK SMILES IDX 31 33 66 34 32 35 71 36 65 37 67 38 33 39 70 40 64 41 63 42
REMARK SMILES IDX 34 44 56 45 41 46 55 47 42 48 45 49 54 50 68 51 43 52 44 53
REMARK SMILES IDX 53 55 69 56 46 57 35 58 36 59 40 60 37 61 39 62 38 63 57 64
REMARK SMILES IDX 58 65 62 66 59 67 61 68 60 69 47 70 48 71 52 72 49 73 51 74
REMARK SMILES IDX 50 75
REMARK H PARENT 67 43 45 54
REMARK Flexibility Score: inf
ROOT
ATOM      1  O   UNL A   1      36.079  21.623  25.147  1.00  0.00    -0.377 OA
ENDROOT
BRANCH   1   2
ATOM      2  C   UNL A   1      35.769  20.255  24.980  1.00  0.00     0.188 C 
BRANCH   2   3
ATOM      3  C   UNL A   1      34.327  19.713  25.007  1.00  0.00     0.188 C 
BRANCH   3   4
ATOM      4  O   UNL A   1      33.320  20.460  25.654  1.00  0.00    -0.376 OA
BRANCH   4   5
ATOM      5  C   UNL A   1      32.828  21.738  25.297  1.00  0.00     0.202 C 
BRANCH   5   6
ATOM      6  C   UNL A   1      31.377  22.114  25.548  1.00  0.00     0.261 C 
BRANCH   6   7
ATOM      7  O   UNL A   1      30.953  23.468  25.292  1.00  0.00    -0.462 OA
BRANCH   7   8
ATOM      8  C   UNL A   1      30.413  24.395  26.097  1.00  0.00     0.322 C 
ATOM      9  O   UNL A   1      30.002  24.028  27.201  1.00  0.00    -0.251 OA
BRANCH   8  10
ATOM     10  C   UNL A   1      30.236  25.807  25.679  1.00  0.00     0.276 C 
BRANCH  10  11
ATOM     11  S   UNL A   1      31.533  26.806  26.308  1.00  0.00     0.224 S 
ATOM     12  O   UNL A   1      31.074  27.419  27.536  1.00  0.00    -0.212 OA
ATOM     13  O   UNL A   1      32.733  25.997  26.289  1.00  0.00    -0.212 OA
BRANCH  11  14
ATOM     14  N   UNL A   1      31.696  27.996  25.144  1.00  0.00    -0.201 NA
ATOM     15  C   UNL A   1      32.781  28.122  24.132  1.00  0.00     0.103 C 
ATOM     16  C   UNL A   1      30.684  28.421  24.140  1.00  0.00     0.103 C 
ATOM     17  C   UNL A   1      31.789  28.695  23.112  1.00  0.00     0.033 C 
ENDBRANCH  11  14
ENDBRANCH  10  11
ENDBRANCH   8  10
ENDBRANCH   7   8
ENDBRANCH   6   7
ENDBRANCH   5   6
ENDBRANCH   4   5
ENDBRANCH   3   4
ENDBRANCH   2   3
ENDBRANCH   1   2
BRANCH   1  18
ATOM     18  C   UNL A   1      37.299  21.950  25.772  1.00  0.00     0.188 C 
BRANCH  18  19
ATOM     19  C   UNL A   1      38.515  21.134  25.280  1.00  0.00     0.188 C 
BRANCH  19  20
ATOM     20  O   UNL A   1      39.685  21.066  26.072  1.00  0.00    -0.376 OA
BRANCH  20  21
ATOM     21  C   UNL A   1      40.446  19.883  26.227  1.00  0.00     0.202 C 
BRANCH  21  22
ATOM     22  C   UNL A   1      41.985  19.767  26.268  1.00  0.00     0.261 C 
BRANCH  22  23
ATOM     23  O   UNL A   1      42.743  20.913  26.645  1.00  0.00    -0.460 OA
BRANCH  23  24
ATOM     24  C   UNL A   1      43.521  21.452  25.677  1.00  0.00     0.338 C 
ATOM     25  O   UNL A   1      43.733  21.013  24.571  1.00  0.00    -0.246 OA
BRANCH  24  26
ATOM     26  C   UNL A   1      43.889  22.818  26.113  1.00  0.00     0.060 A 
ATOM     27  C   UNL A   1      44.190  23.014  27.470  1.00  0.00     0.016 A 
ATOM     28  C   UNL A   1      43.969  23.875  25.205  1.00  0.00     0.016 A 
ATOM     29  C   UNL A   1      44.531  24.279  27.932  1.00  0.00     0.010 A 
ATOM     30  C   UNL A   1      44.260  25.156  25.679  1.00  0.00     0.010 A 
ATOM     31  C   UNL A   1      44.489  25.365  27.051  1.00  0.00    -0.014 A 
BRANCH  31  32
ATOM     32  C   UNL A   1      44.336  26.717  27.628  1.00  0.00     0.031 A 
ATOM     33  C   UNL A   1      45.588  27.537  27.787  1.00  0.00     0.074 A 
ATOM     34  C   UNL A   1      43.136  27.233  27.937  1.00  0.00     0.049 A 
ATOM     35  N   UNL A   1      45.738  28.750  28.248  1.00  0.00    -0.248 NA
ATOM     36  C   UNL A   1      46.844  26.893  27.364  1.00  0.00     0.031 C 
ATOM     37  C   UNL A   1      41.848  26.565  27.758  1.00  0.00     0.029 A 
ATOM     38  N   UNL A   1      42.815  28.457  28.465  1.00  0.00    -0.354 N 
ATOM     39  C   UNL A   1      47.102  29.006  28.182  1.00  0.00     0.074 A 
ATOM     40  C   UNL A   1      47.739  27.815  27.670  1.00  0.00     0.031 C 
ATOM     41  C   UNL A   1      40.871  27.393  28.169  1.00  0.00     0.029 A 
ATOM     42  C   UNL A   1      41.469  28.631  28.668  1.00  0.00     0.049 A 
ATOM     43  H   UNL A   1      43.486  29.146  28.676  1.00  0.00     0.167 HD
ATOM     44  C   UNL A   1      47.770  30.133  28.518  1.00  0.00     0.031 A 
ATOM     45  C   UNL A   1      40.805  29.672  29.209  1.00  0.00     0.031 A 
ATOM     46  C   UNL A   1      47.138  31.306  29.051  1.00  0.00     0.049 A 
ATOM     47  C   UNL A   1      41.578  30.883  29.663  1.00  0.00     0.074 A 
ATOM     48  C   UNL A   1      47.717  32.506  29.422  1.00  0.00     0.029 A 
ATOM     49  N   UNL A   1      45.779  31.420  29.303  1.00  0.00    -0.354 N 
ATOM     50  N   UNL A   1      42.866  31.124  29.584  1.00  0.00    -0.248 NA
ATOM     51  C   UNL A   1      40.800  31.971  30.271  1.00  0.00     0.031 C 
ATOM     52  C   UNL A   1      46.717  33.321  29.961  1.00  0.00     0.029 A 
ATOM     53  C   UNL A   1      45.503  32.659  29.852  1.00  0.00     0.049 A 
ATOM     54  H   UNL A   1      45.109  30.722  29.118  1.00  0.00     0.167 HD
ATOM     55  C   UNL A   1      43.045  32.407  30.090  1.00  0.00     0.074 A 
ATOM     56  C   UNL A   1      41.733  32.891  30.468  1.00  0.00     0.031 C 
ATOM     57  C   UNL A   1      44.190  33.124  30.221  1.00  0.00     0.031 A 
BRANCH  44  58
ATOM     58  C   UNL A   1      49.267  30.108  28.374  1.00  0.00    -0.014 A 
ATOM     59  C   UNL A   1      49.904  30.522  27.192  1.00  0.00     0.009 A 
ATOM     60  C   UNL A   1      50.053  29.639  29.437  1.00  0.00     0.009 A 
ATOM     61  C   UNL A   1      51.290  30.419  27.062  1.00  0.00     0.001 A 
ATOM     62  C   UNL A   1      51.441  29.572  29.319  1.00  0.00     0.001 A 
ATOM     63  C   UNL A   1      52.058  29.948  28.126  1.00  0.00     0.000 A 
ENDBRANCH  44  58
BRANCH  45  64
ATOM     64  C   UNL A   1      39.326  29.619  29.350  1.00  0.00    -0.014 A 
ATOM     65  C   UNL A   1      38.738  29.205  30.556  1.00  0.00     0.009 A 
ATOM     66  C   UNL A   1      38.493  29.967  28.275  1.00  0.00     0.009 A 
ATOM     67  C   UNL A   1      37.349  29.119  30.674  1.00  0.00     0.001 A 
ATOM     68  C   UNL A   1      37.103  29.910  28.406  1.00  0.00     0.001 A 
ATOM     69  C   UNL A   1      36.534  29.478  29.602  1.00  0.00     0.000 A 
ENDBRANCH  45  64
BRANCH  57  70
ATOM     70  C   UNL A   1      44.068  34.533  30.738  1.00  0.00    -0.014 A 
ATOM     71  C   UNL A   1      44.135  34.827  32.108  1.00  0.00     0.009 A 
ATOM     72  C   UNL A   1      43.925  35.589  29.824  1.00  0.00     0.009 A 
ATOM     73  C   UNL A   1      44.015  36.146  32.554  1.00  0.00     0.001 A 
ATOM     74  C   UNL A   1      43.843  36.909  30.268  1.00  0.00     0.001 A 
ATOM     75  C   UNL A   1      43.874  37.185  31.633  1.00  0.00     0.000 A 
ENDBRANCH  57  70
ENDBRANCH  31  32
ENDBRANCH  24  26
ENDBRANCH  23  24
ENDBRANCH  22  23
ENDBRANCH  21  22
ENDBRANCH  20  21
ENDBRANCH  19  20
ENDBRANCH  18  19
ENDBRANCH   1  18
TORSDOF 22
ENDMDL
