MODEL 1
REMARK VINA RESULT:     -11.4      0.000      0.000
REMARK SMILES O=C(OCCOCCOCCOCCOC(=O)c1nnn(-c2cccc(C(F)(F)F)c2)c1[C@@H]1COc2ccccc2O1)c1ccc(-c2c3nc(c(-c4ccccc4)c4ccc([nH]4)c(-c4ccccc4)c4nc(c(-c5ccccc5)c5ccc2[nH]5)C=C4)C=C3)cc1
REMARK SMILES IDX 9 1 8 2 7 3 6 4 5 5 4 6 3 7 2 8 1 9 43 10 44 11 90 12 45 13
REMARK SMILES IDX 89 14 46 15 47 16 48 17 83 18 49 19 88 20 82 21 84 22 50 23
REMARK SMILES IDX 87 24 81 25 80 26 51 28 73 29 58 30 72 31 59 32 62 33 71 34
REMARK SMILES IDX 85 35 60 36 61 37 70 39 86 40 63 41 52 42 53 43 57 44 54 45
REMARK SMILES IDX 56 46 55 47 74 48 75 49 79 50 76 51 78 52 77 53 64 54 65 55
REMARK SMILES IDX 69 56 66 57 68 58 67 59 10 60 11 61 12 62 13 63 14 64 15 65
REMARK SMILES IDX 16 66 17 67 18 68 19 69 32 70 20 71 21 72 33 73 34 74 42 75
REMARK SMILES IDX 35 76 41 77 36 78 40 79 37 80 39 81 38 82 22 83 23 84 31 85
REMARK SMILES IDX 24 86 26 87 25 88 27 89 28 90 29 91 30 92
REMARK H PARENT 84 27 62 38
REMARK Flexibility Score: inf
ROOT
ATOM      1  O   UNL A   1      39.632  21.862  25.913  1.00  0.00    -0.377 OA
ENDROOT
BRANCH   1   2
ATOM      2  C   UNL A   1      40.406  21.111  26.841  1.00  0.00     0.188 C 
BRANCH   2   3
ATOM      3  C   UNL A   1      41.690  20.494  26.263  1.00  0.00     0.188 C 
BRANCH   3   4
ATOM      4  O   UNL A   1      41.750  19.184  25.696  1.00  0.00    -0.376 OA
BRANCH   4   5
ATOM      5  C   UNL A   1      42.579  18.157  26.192  1.00  0.00     0.202 C 
BRANCH   5   6
ATOM      6  C   UNL A   1      44.083  18.322  25.947  1.00  0.00     0.261 C 
BRANCH   6   7
ATOM      7  O   UNL A   1      44.471  18.500  24.579  1.00  0.00    -0.460 OA
BRANCH   7   8
ATOM      8  C   UNL A   1      44.658  19.628  23.860  1.00  0.00     0.338 C 
ATOM      9  O   UNL A   1      44.616  19.535  22.633  1.00  0.00    -0.246 OA
BRANCH   8  10
ATOM     10  C   UNL A   1      44.935  20.976  24.440  1.00  0.00     0.060 A 
ATOM     11  C   UNL A   1      45.803  21.253  25.497  1.00  0.00     0.016 A 
ATOM     12  C   UNL A   1      44.216  22.046  23.870  1.00  0.00     0.016 A 
ATOM     13  C   UNL A   1      45.869  22.520  26.051  1.00  0.00     0.010 A 
ATOM     14  C   UNL A   1      44.280  23.322  24.415  1.00  0.00     0.010 A 
ATOM     15  C   UNL A   1      45.055  23.528  25.552  1.00  0.00    -0.014 A 
BRANCH  15  16
ATOM     16  C   UNL A   1      44.955  24.731  26.359  1.00  0.00     0.031 A 
ATOM     17  C   UNL A   1      46.092  25.682  26.354  1.00  0.00     0.074 A 
ATOM     18  C   UNL A   1      43.852  24.968  27.094  1.00  0.00     0.049 A 
ATOM     19  N   UNL A   1      46.796  26.083  27.364  1.00  0.00    -0.248 NA
ATOM     20  C   UNL A   1      46.509  26.239  25.063  1.00  0.00     0.031 C 
ATOM     21  C   UNL A   1      42.563  24.276  27.016  1.00  0.00     0.029 A 
ATOM     22  N   UNL A   1      43.625  25.969  27.987  1.00  0.00    -0.354 N 
ATOM     23  C   UNL A   1      47.652  27.062  26.868  1.00  0.00     0.074 A 
ATOM     24  C   UNL A   1      47.490  27.061  25.434  1.00  0.00     0.031 C 
ATOM     25  C   UNL A   1      41.629  25.026  27.637  1.00  0.00     0.029 A 
ATOM     26  C   UNL A   1      42.284  26.164  28.260  1.00  0.00     0.049 A 
ATOM     27  H   UNL A   1      44.345  26.501  28.399  1.00  0.00     0.167 HD
ATOM     28  C   UNL A   1      48.315  27.936  27.674  1.00  0.00     0.031 A 
ATOM     29  C   UNL A   1      41.732  27.231  28.878  1.00  0.00     0.031 A 
ATOM     30  C   UNL A   1      48.374  27.510  29.042  1.00  0.00     0.049 A 
ATOM     31  C   UNL A   1      42.787  27.925  29.646  1.00  0.00     0.074 A 
ATOM     32  C   UNL A   1      48.915  26.431  29.711  1.00  0.00     0.029 A 
ATOM     33  N   UNL A   1      47.547  28.134  29.942  1.00  0.00    -0.354 N 
ATOM     34  N   UNL A   1      43.339  27.442  30.722  1.00  0.00    -0.248 NA
ATOM     35  C   UNL A   1      43.508  29.022  29.019  1.00  0.00     0.031 C 
ATOM     36  C   UNL A   1      48.047  26.204  30.818  1.00  0.00     0.029 A 
ATOM     37  C   UNL A   1      47.031  27.160  30.756  1.00  0.00     0.049 A 
ATOM     38  H   UNL A   1      47.362  29.100  29.996  1.00  0.00     0.167 HD
ATOM     39  C   UNL A   1      44.655  27.876  30.673  1.00  0.00     0.074 A 
ATOM     40  C   UNL A   1      44.661  28.950  29.687  1.00  0.00     0.031 C 
ATOM     41  C   UNL A   1      45.663  27.136  31.225  1.00  0.00     0.031 A 
BRANCH  28  42
ATOM     42  C   UNL A   1      48.636  29.349  27.270  1.00  0.00    -0.014 A 
ATOM     43  C   UNL A   1      49.979  29.767  27.226  1.00  0.00     0.009 A 
ATOM     44  C   UNL A   1      47.653  30.354  27.200  1.00  0.00     0.009 A 
ATOM     45  C   UNL A   1      50.316  31.125  27.151  1.00  0.00     0.001 A 
ATOM     46  C   UNL A   1      47.985  31.706  27.083  1.00  0.00     0.001 A 
ATOM     47  C   UNL A   1      49.318  32.093  27.081  1.00  0.00     0.000 A 
ENDBRANCH  28  42
BRANCH  29  48
ATOM     48  C   UNL A   1      40.396  27.805  28.630  1.00  0.00    -0.014 A 
ATOM     49  C   UNL A   1      39.401  27.767  29.614  1.00  0.00     0.009 A 
ATOM     50  C   UNL A   1      40.164  28.597  27.488  1.00  0.00     0.009 A 
ATOM     51  C   UNL A   1      38.223  28.509  29.466  1.00  0.00     0.001 A 
ATOM     52  C   UNL A   1      38.985  29.328  27.335  1.00  0.00     0.001 A 
ATOM     53  C   UNL A   1      38.018  29.293  28.331  1.00  0.00     0.000 A 
ENDBRANCH  29  48
BRANCH  41  54
ATOM     54  C   UNL A   1      45.284  25.993  32.132  1.00  0.00    -0.014 A 
ATOM     55  C   UNL A   1      44.783  24.775  31.638  1.00  0.00     0.009 A 
ATOM     56  C   UNL A   1      45.581  26.084  33.500  1.00  0.00     0.009 A 
ATOM     57  C   UNL A   1      44.546  23.696  32.495  1.00  0.00     0.001 A 
ATOM     58  C   UNL A   1      45.364  24.998  34.353  1.00  0.00     0.001 A 
ATOM     59  C   UNL A   1      44.840  23.808  33.851  1.00  0.00     0.000 A 
ENDBRANCH  41  54
ENDBRANCH  15  16
ENDBRANCH   8  10
ENDBRANCH   7   8
ENDBRANCH   6   7
ENDBRANCH   5   6
ENDBRANCH   4   5
ENDBRANCH   3   4
ENDBRANCH   2   3
ENDBRANCH   1   2
BRANCH   1  60
ATOM     60  C   UNL A   1      39.085  23.063  26.415  1.00  0.00     0.188 C 
BRANCH  60  61
ATOM     61  C   UNL A   1      37.594  23.299  26.111  1.00  0.00     0.188 C 
BRANCH  61  62
ATOM     62  O   UNL A   1      36.715  22.264  25.689  1.00  0.00    -0.376 OA
BRANCH  62  63
ATOM     63  C   UNL A   1      36.396  22.045  24.327  1.00  0.00     0.202 C 
BRANCH  63  64
ATOM     64  C   UNL A   1      36.220  23.274  23.432  1.00  0.00     0.261 C 
BRANCH  64  65
ATOM     65  O   UNL A   1      34.972  23.953  23.604  1.00  0.00    -0.458 OA
BRANCH  65  66
ATOM     66  C   UNL A   1      33.984  23.592  22.725  1.00  0.00     0.361 C 
ATOM     67  O   UNL A   1      33.837  22.474  22.277  1.00  0.00    -0.244 OA
BRANCH  66  68
ATOM     68  C   UNL A   1      33.058  24.690  22.461  1.00  0.00     0.198 A 
ATOM     69  N   UNL A   1      33.186  25.442  21.318  1.00  0.00    -0.122 NA
ATOM     70  C   UNL A   1      31.915  25.101  23.139  1.00  0.00     0.123 A 
ATOM     71  N   UNL A   1      32.188  26.309  21.275  1.00  0.00    -0.061 NA
ATOM     72  N   UNL A   1      31.550  26.260  22.467  1.00  0.00    -0.213 N 
BRANCH  70  73
ATOM     73  C   UNL A   1      31.135  24.487  24.267  1.00  0.00     0.262 C 
ATOM     74  C   UNL A   1      31.405  25.125  25.638  1.00  0.00     0.281 C 
ATOM     75  O   UNL A   1      31.286  23.064  24.251  1.00  0.00    -0.477 OA
ATOM     76  O   UNL A   1      32.659  24.718  26.189  1.00  0.00    -0.485 OA
ATOM     77  C   UNL A   1      32.037  22.557  25.282  1.00  0.00     0.162 A 
ATOM     78  C   UNL A   1      32.728  23.350  26.201  1.00  0.00     0.161 A 
ATOM     79  C   UNL A   1      32.156  21.170  25.339  1.00  0.00     0.050 A 
ATOM     80  C   UNL A   1      33.575  22.767  27.141  1.00  0.00     0.050 A 
ATOM     81  C   UNL A   1      32.985  20.581  26.296  1.00  0.00     0.004 A 
ATOM     82  C   UNL A   1      33.701  21.380  27.190  1.00  0.00     0.004 A 
ENDBRANCH  70  73
BRANCH  72  83
ATOM     83  C   UNL A   1      31.130  27.481  23.020  1.00  0.00     0.067 A 
ATOM     84  C   UNL A   1      31.945  28.156  23.927  1.00  0.00     0.028 A 
ATOM     85  C   UNL A   1      29.856  27.961  22.686  1.00  0.00     0.041 A 
ATOM     86  C   UNL A   1      31.510  29.378  24.437  1.00  0.00     0.003 A 
ATOM     87  C   UNL A   1      29.397  29.161  23.239  1.00  0.00     0.058 A 
ATOM     88  C   UNL A   1      30.249  29.880  24.093  1.00  0.00     0.013 A 
BRANCH  87  89
ATOM     89  C   UNL A   1      28.024  29.678  22.896  1.00  0.00     0.416 C 
ATOM     90  F   UNL A   1      27.821  29.791  21.554  1.00  0.00    -0.166 F 
ATOM     91  F   UNL A   1      27.032  28.871  23.360  1.00  0.00    -0.166 F 
ATOM     92  F   UNL A   1      27.770  30.915  23.413  1.00  0.00    -0.166 F 
ENDBRANCH  87  89
ENDBRANCH  72  83
ENDBRANCH  66  68
ENDBRANCH  65  66
ENDBRANCH  64  65
ENDBRANCH  63  64
ENDBRANCH  62  63
ENDBRANCH  61  62
ENDBRANCH  60  61
ENDBRANCH   1  60
TORSDOF 23
ENDMDL
MODEL 2
REMARK VINA RESULT:     -11.0      1.750      2.172
REMARK SMILES O=C(OCCOCCOCCOCCOC(=O)c1nnn(-c2cccc(C(F)(F)F)c2)c1[C@@H]1COc2ccccc2O1)c1ccc(-c2c3nc(c(-c4ccccc4)c4ccc([nH]4)c(-c4ccccc4)c4nc(c(-c5ccccc5)c5ccc2[nH]5)C=C4)C=C3)cc1
REMARK SMILES IDX 9 1 8 2 7 3 6 4 5 5 4 6 3 7 2 8 1 9 43 10 44 11 90 12 45 13
REMARK SMILES IDX 89 14 46 15 47 16 48 17 83 18 49 19 88 20 82 21 84 22 50 23
REMARK SMILES IDX 87 24 81 25 80 26 51 28 73 29 58 30 72 31 59 32 62 33 71 34
REMARK SMILES IDX 85 35 60 36 61 37 70 39 86 40 63 41 52 42 53 43 57 44 54 45
REMARK SMILES IDX 56 46 55 47 74 48 75 49 79 50 76 51 78 52 77 53 64 54 65 55
REMARK SMILES IDX 69 56 66 57 68 58 67 59 10 60 11 61 12 62 13 63 14 64 15 65
REMARK SMILES IDX 16 66 17 67 18 68 19 69 32 70 20 71 21 72 33 73 34 74 42 75
REMARK SMILES IDX 35 76 41 77 36 78 40 79 37 80 39 81 38 82 22 83 23 84 31 85
REMARK SMILES IDX 24 86 26 87 25 88 27 89 28 90 29 91 30 92
REMARK H PARENT 84 27 62 38
REMARK Flexibility Score: inf
ROOT
ATOM      1  O   UNL A   1      40.138  22.218  26.239  1.00  0.00    -0.377 OA
ENDROOT
BRANCH   1   2
ATOM      2  C   UNL A   1      40.577  21.147  27.066  1.00  0.00     0.188 C 
BRANCH   2   3
ATOM      3  C   UNL A   1      41.903  20.498  26.634  1.00  0.00     0.188 C 
BRANCH   3   4
ATOM      4  O   UNL A   1      41.978  19.328  25.818  1.00  0.00    -0.376 OA
BRANCH   4   5
ATOM      5  C   UNL A   1      42.731  18.186  26.159  1.00  0.00     0.202 C 
BRANCH   5   6
ATOM      6  C   UNL A   1      44.229  18.241  25.840  1.00  0.00     0.261 C 
BRANCH   6   7
ATOM      7  O   UNL A   1      44.561  18.508  24.472  1.00  0.00    -0.460 OA
BRANCH   7   8
ATOM      8  C   UNL A   1      44.642  19.677  23.801  1.00  0.00     0.338 C 
ATOM      9  O   UNL A   1      44.411  19.658  22.591  1.00  0.00    -0.246 OA
BRANCH   8  10
ATOM     10  C   UNL A   1      45.014  20.989  24.410  1.00  0.00     0.060 A 
ATOM     11  C   UNL A   1      45.859  21.177  25.505  1.00  0.00     0.016 A 
ATOM     12  C   UNL A   1      44.417  22.125  23.827  1.00  0.00     0.016 A 
ATOM     13  C   UNL A   1      46.015  22.427  26.078  1.00  0.00     0.010 A 
ATOM     14  C   UNL A   1      44.571  23.385  24.392  1.00  0.00     0.010 A 
ATOM     15  C   UNL A   1      45.315  23.508  25.561  1.00  0.00    -0.014 A 
BRANCH  15  16
ATOM     16  C   UNL A   1      45.289  24.707  26.380  1.00  0.00     0.031 A 
ATOM     17  C   UNL A   1      46.483  25.586  26.385  1.00  0.00     0.074 A 
ATOM     18  C   UNL A   1      44.203  25.005  27.117  1.00  0.00     0.049 A 
ATOM     19  N   UNL A   1      47.210  25.932  27.398  1.00  0.00    -0.248 NA
ATOM     20  C   UNL A   1      46.933  26.129  25.099  1.00  0.00     0.031 C 
ATOM     21  C   UNL A   1      42.873  24.395  27.034  1.00  0.00     0.029 A 
ATOM     22  N   UNL A   1      44.038  26.009  28.021  1.00  0.00    -0.354 N 
ATOM     23  C   UNL A   1      48.125  26.861  26.912  1.00  0.00     0.074 A 
ATOM     24  C   UNL A   1      47.964  26.885  25.478  1.00  0.00     0.031 C 
ATOM     25  C   UNL A   1      41.987  25.195  27.662  1.00  0.00     0.029 A 
ATOM     26  C   UNL A   1      42.711  26.284  28.296  1.00  0.00     0.049 A 
ATOM     27  H   UNL A   1      44.789  26.491  28.438  1.00  0.00     0.167 HD
ATOM     28  C   UNL A   1      48.841  27.685  27.726  1.00  0.00     0.031 A 
ATOM     29  C   UNL A   1      42.226  27.377  28.925  1.00  0.00     0.031 A 
ATOM     30  C   UNL A   1      48.872  27.242  29.090  1.00  0.00     0.049 A 
ATOM     31  C   UNL A   1      43.322  27.997  29.700  1.00  0.00     0.074 A 
ATOM     32  C   UNL A   1      49.345  26.126  29.749  1.00  0.00     0.029 A 
ATOM     33  N   UNL A   1      48.086  27.907  29.997  1.00  0.00    -0.354 N 
ATOM     34  N   UNL A   1      43.842  27.469  30.771  1.00  0.00    -0.248 NA
ATOM     35  C   UNL A   1      44.109  29.053  29.083  1.00  0.00     0.031 C 
ATOM     36  C   UNL A   1      48.464  25.941  30.853  1.00  0.00     0.029 A 
ATOM     37  C   UNL A   1      47.510  26.959  30.801  1.00  0.00     0.049 A 
ATOM     38  H   UNL A   1      47.961  28.882  30.060  1.00  0.00     0.167 HD
ATOM     39  C   UNL A   1      45.183  27.821  30.726  1.00  0.00     0.074 A 
ATOM     40  C   UNL A   1      45.256  28.902  29.750  1.00  0.00     0.031 C 
ATOM     41  C   UNL A   1      46.142  27.015  31.270  1.00  0.00     0.031 A 
BRANCH  28  42
ATOM     42  C   UNL A   1      49.249  29.079  27.337  1.00  0.00    -0.014 A 
ATOM     43  C   UNL A   1      50.616  29.395  27.232  1.00  0.00     0.009 A 
ATOM     44  C   UNL A   1      48.343  30.157  27.339  1.00  0.00     0.009 A 
ATOM     45  C   UNL A   1      51.051  30.725  27.169  1.00  0.00     0.001 A 
ATOM     46  C   UNL A   1      48.772  31.483  27.234  1.00  0.00     0.001 A 
ATOM     47  C   UNL A   1      50.129  31.768  27.171  1.00  0.00     0.000 A 
ENDBRANCH  28  42
BRANCH  29  48
ATOM     48  C   UNL A   1      40.929  28.035  28.683  1.00  0.00    -0.014 A 
ATOM     49  C   UNL A   1      40.677  28.715  27.485  1.00  0.00     0.009 A 
ATOM     50  C   UNL A   1      39.843  27.806  29.552  1.00  0.00     0.009 A 
ATOM     51  C   UNL A   1      39.381  29.136  27.163  1.00  0.00     0.001 A 
ATOM     52  C   UNL A   1      38.553  28.235  29.236  1.00  0.00     0.001 A 
ATOM     53  C   UNL A   1      38.320  28.891  28.034  1.00  0.00     0.000 A 
ENDBRANCH  29  48
BRANCH  41  54
ATOM     54  C   UNL A   1      45.694  25.888  32.165  1.00  0.00    -0.014 A 
ATOM     55  C   UNL A   1      45.818  25.944  33.565  1.00  0.00     0.009 A 
ATOM     56  C   UNL A   1      44.991  24.812  31.603  1.00  0.00     0.009 A 
ATOM     57  C   UNL A   1      45.293  24.933  34.374  1.00  0.00     0.001 A 
ATOM     58  C   UNL A   1      44.448  23.811  32.413  1.00  0.00     0.001 A 
ATOM     59  C   UNL A   1      44.604  23.868  33.796  1.00  0.00     0.000 A 
ENDBRANCH  41  54
ENDBRANCH  15  16
ENDBRANCH   8  10
ENDBRANCH   7   8
ENDBRANCH   6   7
ENDBRANCH   5   6
ENDBRANCH   4   5
ENDBRANCH   3   4
ENDBRANCH   2   3
ENDBRANCH   1   2
BRANCH   1  60
ATOM     60  C   UNL A   1      39.252  23.130  26.851  1.00  0.00     0.188 C 
BRANCH  60  61
ATOM     61  C   UNL A   1      38.115  23.663  25.959  1.00  0.00     0.188 C 
BRANCH  61  62
ATOM     62  O   UNL A   1      36.875  22.985  25.796  1.00  0.00    -0.376 OA
BRANCH  62  63
ATOM     63  C   UNL A   1      36.596  22.171  24.672  1.00  0.00     0.202 C 
BRANCH  63  64
ATOM     64  C   UNL A   1      36.143  22.866  23.385  1.00  0.00     0.261 C 
BRANCH  64  65
ATOM     65  O   UNL A   1      35.304  24.006  23.596  1.00  0.00    -0.458 OA
BRANCH  65  66
ATOM     66  C   UNL A   1      34.243  24.117  22.735  1.00  0.00     0.361 C 
ATOM     67  O   UNL A   1      33.847  23.228  22.012  1.00  0.00    -0.244 OA
BRANCH  66  68
ATOM     68  C   UNL A   1      33.573  25.410  22.857  1.00  0.00     0.198 A 
ATOM     69  N   UNL A   1      33.836  26.412  21.954  1.00  0.00    -0.122 NA
ATOM     70  C   UNL A   1      32.565  25.837  23.715  1.00  0.00     0.123 A 
ATOM     71  N   UNL A   1      33.051  27.439  22.232  1.00  0.00    -0.061 NA
ATOM     72  N   UNL A   1      32.446  27.187  23.415  1.00  0.00    -0.213 N 
BRANCH  70  73
ATOM     73  C   UNL A   1      31.697  25.100  24.696  1.00  0.00     0.262 C 
ATOM     74  C   UNL A   1      32.151  25.230  26.158  1.00  0.00     0.281 C 
ATOM     75  O   UNL A   1      31.507  23.748  24.267  1.00  0.00    -0.477 OA
ATOM     76  O   UNL A   1      33.289  24.418  26.447  1.00  0.00    -0.485 OA
ATOM     77  C   UNL A   1      32.149  22.809  25.035  1.00  0.00     0.162 A 
ATOM     78  C   UNL A   1      33.034  23.126  26.068  1.00  0.00     0.161 A 
ATOM     79  C   UNL A   1      31.940  21.476  24.690  1.00  0.00     0.050 A 
ATOM     80  C   UNL A   1      33.749  22.123  26.719  1.00  0.00     0.050 A 
ATOM     81  C   UNL A   1      32.635  20.466  25.357  1.00  0.00     0.004 A 
ATOM     82  C   UNL A   1      33.546  20.790  26.364  1.00  0.00     0.004 A 
ENDBRANCH  70  73
BRANCH  72  83
ATOM     83  C   UNL A   1      32.316  28.261  24.311  1.00  0.00     0.067 A 
ATOM     84  C   UNL A   1      31.238  29.138  24.202  1.00  0.00     0.028 A 
ATOM     85  C   UNL A   1      33.324  28.459  25.264  1.00  0.00     0.041 A 
ATOM     86  C   UNL A   1      31.125  30.178  25.123  1.00  0.00     0.003 A 
ATOM     87  C   UNL A   1      33.240  29.534  26.154  1.00  0.00     0.058 A 
ATOM     88  C   UNL A   1      32.115  30.373  26.095  1.00  0.00     0.013 A 
BRANCH  87  89
ATOM     89  C   UNL A   1      34.325  29.762  27.174  1.00  0.00     0.416 C 
ATOM     90  F   UNL A   1      34.437  28.740  28.067  1.00  0.00    -0.166 F 
ATOM     91  F   UNL A   1      35.554  29.902  26.605  1.00  0.00    -0.166 F 
ATOM     92  F   UNL A   1      34.133  30.886  27.923  1.00  0.00    -0.166 F 
ENDBRANCH  87  89
ENDBRANCH  72  83
ENDBRANCH  66  68
ENDBRANCH  65  66
ENDBRANCH  64  65
ENDBRANCH  63  64
ENDBRANCH  62  63
ENDBRANCH  61  62
ENDBRANCH  60  61
ENDBRANCH   1  60
TORSDOF 23
ENDMDL
MODEL 3
REMARK VINA RESULT:     -10.7      3.683      6.004
REMARK SMILES O=C(OCCOCCOCCOCCOC(=O)c1nnn(-c2cccc(C(F)(F)F)c2)c1[C@@H]1COc2ccccc2O1)c1ccc(-c2c3nc(c(-c4ccccc4)c4ccc([nH]4)c(-c4ccccc4)c4nc(c(-c5ccccc5)c5ccc2[nH]5)C=C4)C=C3)cc1
REMARK SMILES IDX 9 1 8 2 7 3 6 4 5 5 4 6 3 7 2 8 1 9 43 10 44 11 90 12 45 13
REMARK SMILES IDX 89 14 46 15 47 16 48 17 83 18 49 19 88 20 82 21 84 22 50 23
REMARK SMILES IDX 87 24 81 25 80 26 51 28 73 29 58 30 72 31 59 32 62 33 71 34
REMARK SMILES IDX 85 35 60 36 61 37 70 39 86 40 63 41 52 42 53 43 57 44 54 45
REMARK SMILES IDX 56 46 55 47 74 48 75 49 79 50 76 51 78 52 77 53 64 54 65 55
REMARK SMILES IDX 69 56 66 57 68 58 67 59 10 60 11 61 12 62 13 63 14 64 15 65
REMARK SMILES IDX 16 66 17 67 18 68 19 69 32 70 20 71 21 72 33 73 34 74 42 75
REMARK SMILES IDX 35 76 41 77 36 78 40 79 37 80 39 81 38 82 22 83 23 84 31 85
REMARK SMILES IDX 24 86 26 87 25 88 27 89 28 90 29 91 30 92
REMARK H PARENT 84 27 62 38
REMARK Flexibility Score: inf
ROOT
ATOM      1  O   UNL A   1      34.061  21.982  27.197  1.00  0.00    -0.377 OA
ENDROOT
BRANCH   1   2
ATOM      2  C   UNL A   1      34.378  21.113  26.115  1.00  0.00     0.188 C 
BRANCH   2   3
ATOM      3  C   UNL A   1      35.853  21.132  25.680  1.00  0.00     0.188 C 
BRANCH   3   4
ATOM      4  O   UNL A   1      36.787  22.126  26.106  1.00  0.00    -0.376 OA
BRANCH   4   5
ATOM      5  C   UNL A   1      38.056  22.306  25.518  1.00  0.00     0.202 C 
BRANCH   5   6
ATOM      6  C   UNL A   1      39.262  21.880  26.363  1.00  0.00     0.261 C 
BRANCH   6   7
ATOM      7  O   UNL A   1      40.534  22.361  25.913  1.00  0.00    -0.460 OA
BRANCH   7   8
ATOM      8  C   UNL A   1      41.405  23.214  26.494  1.00  0.00     0.338 C 
ATOM      9  O   UNL A   1      42.583  22.864  26.569  1.00  0.00    -0.246 OA
BRANCH   8  10
ATOM     10  C   UNL A   1      41.044  24.542  27.075  1.00  0.00     0.060 A 
ATOM     11  C   UNL A   1      40.168  25.473  26.515  1.00  0.00     0.016 A 
ATOM     12  C   UNL A   1      41.685  24.875  28.285  1.00  0.00     0.016 A 
ATOM     13  C   UNL A   1      40.022  26.735  27.065  1.00  0.00     0.010 A 
ATOM     14  C   UNL A   1      41.542  26.137  28.848  1.00  0.00     0.010 A 
ATOM     15  C   UNL A   1      40.764  27.082  28.186  1.00  0.00    -0.014 A 
BRANCH  15  16
ATOM     16  C   UNL A   1      40.790  28.493  28.526  1.00  0.00     0.031 A 
ATOM     17  C   UNL A   1      41.995  29.282  28.174  1.00  0.00     0.074 A 
ATOM     18  C   UNL A   1      39.743  29.063  29.150  1.00  0.00     0.049 A 
ATOM     19  N   UNL A   1      42.771  29.945  28.971  1.00  0.00    -0.248 NA
ATOM     20  C   UNL A   1      42.395  29.321  26.763  1.00  0.00     0.031 C 
ATOM     21  C   UNL A   1      38.402  28.501  29.338  1.00  0.00     0.029 A 
ATOM     22  N   UNL A   1      39.632  30.326  29.643  1.00  0.00    -0.354 N 
ATOM     23  C   UNL A   1      43.676  30.615  28.153  1.00  0.00     0.074 A 
ATOM     24  C   UNL A   1      43.451  30.133  26.810  1.00  0.00     0.031 C 
ATOM     25  C   UNL A   1      37.557  29.497  29.674  1.00  0.00     0.029 A 
ATOM     26  C   UNL A   1      38.323  30.719  29.852  1.00  0.00     0.049 A 
ATOM     27  H   UNL A   1      40.407  30.904  29.834  1.00  0.00     0.167 HD
ATOM     28  C   UNL A   1      44.439  31.652  28.594  1.00  0.00     0.031 A 
ATOM     29  C   UNL A   1      37.880  31.977  30.069  1.00  0.00     0.031 A 
ATOM     30  C   UNL A   1      44.525  31.721  30.024  1.00  0.00     0.049 A 
ATOM     31  C   UNL A   1      39.018  32.800  30.532  1.00  0.00     0.074 A 
ATOM     32  C   UNL A   1      45.013  30.897  31.018  1.00  0.00     0.029 A 
ATOM     33  N   UNL A   1      43.789  32.687  30.664  1.00  0.00    -0.354 N 
ATOM     34  N   UNL A   1      39.579  32.671  31.700  1.00  0.00    -0.248 NA
ATOM     35  C   UNL A   1      39.791  33.546  29.552  1.00  0.00     0.031 C 
ATOM     36  C   UNL A   1      44.180  31.141  32.148  1.00  0.00     0.029 A 
ATOM     37  C   UNL A   1      43.238  32.101  31.773  1.00  0.00     0.049 A 
ATOM     38  H   UNL A   1      43.680  33.624  30.381  1.00  0.00     0.167 HD
ATOM     39  C   UNL A   1      40.921  32.946  31.484  1.00  0.00     0.074 A 
ATOM     40  C   UNL A   1      40.965  33.609  30.186  1.00  0.00     0.031 C 
ATOM     41  C   UNL A   1      41.893  32.359  32.242  1.00  0.00     0.031 A 
BRANCH  28  42
ATOM     42  C   UNL A   1      44.847  32.807  27.720  1.00  0.00    -0.014 A 
ATOM     43  C   UNL A   1      43.855  33.599  27.113  1.00  0.00     0.009 A 
ATOM     44  C   UNL A   1      46.167  32.970  27.256  1.00  0.00     0.009 A 
ATOM     45  C   UNL A   1      44.167  34.481  26.071  1.00  0.00     0.001 A 
ATOM     46  C   UNL A   1      46.487  33.880  26.246  1.00  0.00     0.001 A 
ATOM     47  C   UNL A   1      45.483  34.621  25.638  1.00  0.00     0.000 A 
ENDBRANCH  28  42
BRANCH  29  48
ATOM     48  C   UNL A   1      36.583  32.543  29.658  1.00  0.00    -0.014 A 
ATOM     49  C   UNL A   1      35.547  32.720  30.585  1.00  0.00     0.009 A 
ATOM     50  C   UNL A   1      36.432  33.120  28.382  1.00  0.00     0.009 A 
ATOM     51  C   UNL A   1      34.409  33.464  30.248  1.00  0.00     0.001 A 
ATOM     52  C   UNL A   1      35.292  33.853  28.043  1.00  0.00     0.001 A 
ATOM     53  C   UNL A   1      34.285  34.035  28.982  1.00  0.00     0.000 A 
ENDBRANCH  29  48
BRANCH  41  54
ATOM     54  C   UNL A   1      41.470  31.635  33.495  1.00  0.00    -0.014 A 
ATOM     55  C   UNL A   1      41.538  32.231  34.768  1.00  0.00     0.009 A 
ATOM     56  C   UNL A   1      40.847  30.384  33.380  1.00  0.00     0.009 A 
ATOM     57  C   UNL A   1      41.036  31.576  35.895  1.00  0.00     0.001 A 
ATOM     58  C   UNL A   1      40.326  29.738  34.505  1.00  0.00     0.001 A 
ATOM     59  C   UNL A   1      40.427  30.331  35.762  1.00  0.00     0.000 A 
ENDBRANCH  41  54
ENDBRANCH  15  16
ENDBRANCH   8  10
ENDBRANCH   7   8
ENDBRANCH   6   7
ENDBRANCH   5   6
ENDBRANCH   4   5
ENDBRANCH   3   4
ENDBRANCH   2   3
ENDBRANCH   1   2
BRANCH   1  60
ATOM     60  C   UNL A   1      32.858  22.705  27.058  1.00  0.00     0.188 C 
BRANCH  60  61
ATOM     61  C   UNL A   1      31.886  22.191  25.979  1.00  0.00     0.188 C 
BRANCH  61  62
ATOM     62  O   UNL A   1      31.134  23.056  25.138  1.00  0.00    -0.376 OA
BRANCH  62  63
ATOM     63  C   UNL A   1      31.156  22.951  23.726  1.00  0.00     0.202 C 
BRANCH  63  64
ATOM     64  C   UNL A   1      32.026  21.853  23.107  1.00  0.00     0.261 C 
BRANCH  64  65
ATOM     65  O   UNL A   1      33.416  22.183  23.022  1.00  0.00    -0.458 OA
BRANCH  65  66
ATOM     66  C   UNL A   1      33.695  23.390  22.439  1.00  0.00     0.361 C 
ATOM     67  O   UNL A   1      33.666  23.601  21.244  1.00  0.00    -0.244 OA
BRANCH  66  68
ATOM     68  C   UNL A   1      33.940  24.435  23.432  1.00  0.00     0.198 A 
ATOM     69  N   UNL A   1      34.693  24.162  24.548  1.00  0.00    -0.122 NA
ATOM     70  C   UNL A   1      33.622  25.788  23.427  1.00  0.00     0.123 A 
ATOM     71  N   UNL A   1      34.832  25.282  25.239  1.00  0.00    -0.061 NA
ATOM     72  N   UNL A   1      34.013  26.208  24.691  1.00  0.00    -0.213 N 
BRANCH  70  73
ATOM     73  C   UNL A   1      33.072  26.692  22.359  1.00  0.00     0.262 C 
ATOM     74  C   UNL A   1      33.667  28.108  22.367  1.00  0.00     0.281 C 
ATOM     75  O   UNL A   1      31.642  26.665  22.380  1.00  0.00    -0.477 OA
ATOM     76  O   UNL A   1      33.137  28.914  23.421  1.00  0.00    -0.485 OA
ATOM     77  C   UNL A   1      31.055  27.822  22.829  1.00  0.00     0.162 A 
ATOM     78  C   UNL A   1      31.769  28.898  23.362  1.00  0.00     0.161 A 
ATOM     79  C   UNL A   1      29.663  27.860  22.806  1.00  0.00     0.050 A 
ATOM     80  C   UNL A   1      31.098  29.985  23.917  1.00  0.00     0.050 A 
ATOM     81  C   UNL A   1      28.987  28.960  23.340  1.00  0.00     0.004 A 
ATOM     82  C   UNL A   1      29.704  30.017  23.903  1.00  0.00     0.004 A 
ENDBRANCH  70  73
BRANCH  72  83
ATOM     83  C   UNL A   1      33.315  27.050  25.574  1.00  0.00     0.067 A 
ATOM     84  C   UNL A   1      31.987  26.778  25.898  1.00  0.00     0.028 A 
ATOM     85  C   UNL A   1      33.966  28.190  26.062  1.00  0.00     0.041 A 
ATOM     86  C   UNL A   1      31.332  27.618  26.797  1.00  0.00     0.003 A 
ATOM     87  C   UNL A   1      33.292  29.063  26.922  1.00  0.00     0.058 A 
ATOM     88  C   UNL A   1      31.979  28.748  27.309  1.00  0.00     0.013 A 
BRANCH  87  89
ATOM     89  C   UNL A   1      33.980  30.298  27.442  1.00  0.00     0.416 C 
ATOM     90  F   UNL A   1      35.057  30.661  26.691  1.00  0.00    -0.166 F 
ATOM     91  F   UNL A   1      33.157  31.382  27.467  1.00  0.00    -0.166 F 
ATOM     92  F   UNL A   1      34.449  30.158  28.715  1.00  0.00    -0.166 F 
ENDBRANCH  87  89
ENDBRANCH  72  83
ENDBRANCH  66  68
ENDBRANCH  65  66
ENDBRANCH  64  65
ENDBRANCH  63  64
ENDBRANCH  62  63
ENDBRANCH  61  62
ENDBRANCH  60  61
ENDBRANCH   1  60
TORSDOF 23
ENDMDL
