MODEL 1
REMARK VINA RESULT:     -10.0      0.000      0.000
REMARK SMILES Cc1c(N[C@@H]2CC[C@@H]([NH3+])C2)cccc1C(=O)OCCOCCOCCOCCOC(=O)c1ccc(-c2c3nc(c(-c4ccccc4)c4ccc([nH]4)c(-c4ccccc4)c4nc(c(-c5ccccc5)c5ccc2[nH]5)C=C4)C=C3)cc1
REMARK SMILES IDX 22 1 21 2 20 3 19 4 18 5 17 6 15 7 16 8 14 9 1 10 2 11 3 12
REMARK SMILES IDX 11 13 13 14 12 15 4 16 5 18 6 19 10 20 7 21 8 22 9 23 23 27
REMARK SMILES IDX 24 28 25 29 26 30 27 31 28 32 29 33 30 34 31 35 32 36 33 37
REMARK SMILES IDX 79 38 34 39 78 40 35 41 36 42 37 43 72 44 38 45 77 46 71 47
REMARK SMILES IDX 73 48 39 49 76 50 70 51 69 52 40 54 62 55 47 56 61 57 48 58
REMARK SMILES IDX 51 59 60 60 74 61 49 62 50 63 59 65 75 66 52 67 41 68 42 69
REMARK SMILES IDX 46 70 43 71 45 72 44 73 63 74 64 75 68 76 65 77 67 78 66 79
REMARK SMILES IDX 53 80 54 81 58 82 55 83 57 84 56 85
REMARK H PARENT 4 17 9 24 9 25 9 26 73 53 51 64
REMARK Flexibility Score: inf
ROOT
ATOM      1  C   UNL A   1      31.636  28.063  22.919  1.00  0.00     0.188 C 
ENDROOT
BRANCH   1   2
ATOM      2  C   UNL A   1      30.342  27.236  23.000  1.00  0.00     0.188 C 
BRANCH   2   3
ATOM      3  O   UNL A   1      29.602  27.155  24.208  1.00  0.00    -0.376 OA
BRANCH   3   4
ATOM      4  C   UNL A   1      29.918  26.058  25.058  1.00  0.00     0.202 C 
BRANCH   4   5
ATOM      5  C   UNL A   1      30.846  26.289  26.240  1.00  0.00     0.261 C 
BRANCH   5   6
ATOM      6  O   UNL A   1      32.061  25.595  25.998  1.00  0.00    -0.460 OA
BRANCH   6   7
ATOM      7  C   UNL A   1      32.094  24.344  26.475  1.00  0.00     0.338 C 
ATOM      8  O   UNL A   1      31.334  23.848  27.279  1.00  0.00    -0.246 OA
BRANCH   7   9
ATOM      9  C   UNL A   1      32.962  23.554  25.573  1.00  0.00     0.065 A 
ATOM     10  C   UNL A   1      33.891  21.869  27.295  1.00  0.00     0.047 C 
ATOM     11  C   UNL A   1      33.714  22.399  25.894  1.00  0.00    -0.013 A 
ATOM     12  C   UNL A   1      34.370  21.721  24.851  1.00  0.00     0.038 A 
ATOM     13  C   UNL A   1      34.507  22.394  23.629  1.00  0.00     0.026 A 
ATOM     14  C   UNL A   1      33.108  24.179  24.326  1.00  0.00     0.016 A 
ATOM     15  C   UNL A   1      33.926  23.627  23.371  1.00  0.00     0.003 A 
BRANCH  12  16
ATOM     16  N   UNL A   1      34.871  20.447  25.070  1.00  0.00    -0.382 N 
ATOM     17  H   UNL A   1      35.841  20.385  25.228  1.00  0.00     0.160 HD
BRANCH  16  18
ATOM     18  C   UNL A   1      34.140  19.197  25.093  1.00  0.00     0.085 C 
ATOM     19  C   UNL A   1      34.928  18.021  24.515  1.00  0.00     0.031 C 
ATOM     20  C   UNL A   1      32.800  19.274  24.363  1.00  0.00     0.089 C 
ATOM     21  C   UNL A   1      34.024  17.406  23.447  1.00  0.00     0.067 C 
ATOM     22  C   UNL A   1      32.607  17.882  23.770  1.00  0.00     0.182 C 
BRANCH  22  23
ATOM     23  N   UNL A   1      31.970  16.984  24.728  1.00  0.00    -0.355 N 
ATOM     24  H   UNL A   1      31.047  16.718  24.383  1.00  0.00     0.344 HD
ATOM     25  H   UNL A   1      31.874  17.458  25.626  1.00  0.00     0.344 HD
ATOM     26  H   UNL A   1      32.543  16.148  24.844  1.00  0.00     0.344 HD
ENDBRANCH  22  23
ENDBRANCH  16  18
ENDBRANCH  12  16
ENDBRANCH   7   9
ENDBRANCH   6   7
ENDBRANCH   5   6
ENDBRANCH   4   5
ENDBRANCH   3   4
ENDBRANCH   2   3
ENDBRANCH   1   2
BRANCH   1  27
ATOM     27  O   UNL A   1      32.864  27.512  23.370  1.00  0.00    -0.377 OA
BRANCH  27  28
ATOM     28  C   UNL A   1      33.713  28.312  24.186  1.00  0.00     0.188 C 
BRANCH  28  29
ATOM     29  C   UNL A   1      33.090  29.506  24.897  1.00  0.00     0.188 C 
BRANCH  29  30
ATOM     30  O   UNL A   1      33.650  29.608  26.205  1.00  0.00    -0.376 OA
BRANCH  30  31
ATOM     31  C   UNL A   1      32.848  30.275  27.175  1.00  0.00     0.202 C 
BRANCH  31  32
ATOM     32  C   UNL A   1      33.581  31.398  27.921  1.00  0.00     0.261 C 
BRANCH  32  33
ATOM     33  O   UNL A   1      34.834  31.676  27.267  1.00  0.00    -0.460 OA
BRANCH  33  34
ATOM     34  C   UNL A   1      35.906  31.801  28.094  1.00  0.00     0.338 C 
ATOM     35  O   UNL A   1      36.459  32.849  28.384  1.00  0.00    -0.246 OA
BRANCH  34  36
ATOM     36  C   UNL A   1      36.496  30.457  28.363  1.00  0.00     0.060 A 
ATOM     37  C   UNL A   1      36.415  29.897  29.648  1.00  0.00     0.016 A 
ATOM     38  C   UNL A   1      37.416  29.954  27.456  1.00  0.00     0.016 A 
ATOM     39  C   UNL A   1      37.395  28.988  30.083  1.00  0.00     0.010 A 
ATOM     40  C   UNL A   1      38.433  29.156  27.931  1.00  0.00     0.010 A 
ATOM     41  C   UNL A   1      38.479  28.709  29.258  1.00  0.00    -0.014 A 
BRANCH  41  42
ATOM     42  C   UNL A   1      39.759  28.107  29.692  1.00  0.00     0.031 A 
ATOM     43  C   UNL A   1      40.195  26.806  29.071  1.00  0.00     0.074 A 
ATOM     44  C   UNL A   1      40.669  28.908  30.315  1.00  0.00     0.049 A 
ATOM     45  N   UNL A   1      41.336  26.239  29.260  1.00  0.00    -0.248 NA
ATOM     46  C   UNL A   1      39.393  26.056  28.099  1.00  0.00     0.031 C 
ATOM     47  C   UNL A   1      42.121  28.720  30.379  1.00  0.00     0.029 A 
ATOM     48  N   UNL A   1      40.524  30.105  31.008  1.00  0.00    -0.354 N 
ATOM     49  C   UNL A   1      41.571  25.349  28.227  1.00  0.00     0.074 A 
ATOM     50  C   UNL A   1      40.293  25.208  27.581  1.00  0.00     0.031 C 
ATOM     51  C   UNL A   1      42.691  29.625  31.186  1.00  0.00     0.029 A 
ATOM     52  C   UNL A   1      41.608  30.260  31.880  1.00  0.00     0.049 A 
ATOM     53  H   UNL A   1      39.780  30.740  30.902  1.00  0.00     0.167 HD
ATOM     54  C   UNL A   1      42.857  24.956  27.965  1.00  0.00     0.031 A 
ATOM     55  C   UNL A   1      41.482  30.179  33.237  1.00  0.00     0.031 A 
ATOM     56  C   UNL A   1      43.793  25.440  29.005  1.00  0.00     0.049 A 
ATOM     57  C   UNL A   1      42.192  28.891  33.693  1.00  0.00     0.074 A 
ATOM     58  C   UNL A   1      44.977  26.157  28.997  1.00  0.00     0.029 A 
ATOM     59  N   UNL A   1      43.414  25.364  30.348  1.00  0.00    -0.354 N 
ATOM     60  N   UNL A   1      42.243  27.790  32.966  1.00  0.00    -0.248 NA
ATOM     61  C   UNL A   1      43.161  28.864  34.791  1.00  0.00     0.031 C 
ATOM     62  C   UNL A   1      45.182  26.679  30.312  1.00  0.00     0.029 A 
ATOM     63  C   UNL A   1      44.179  26.193  31.145  1.00  0.00     0.049 A 
ATOM     64  H   UNL A   1      42.690  24.790  30.686  1.00  0.00     0.167 HD
ATOM     65  C   UNL A   1      43.355  27.062  33.329  1.00  0.00     0.074 A 
ATOM     66  C   UNL A   1      43.842  27.732  34.530  1.00  0.00     0.031 C 
ATOM     67  C   UNL A   1      44.045  26.128  32.596  1.00  0.00     0.031 A 
BRANCH  54  68
ATOM     68  C   UNL A   1      43.338  24.293  26.671  1.00  0.00    -0.014 A 
ATOM     69  C   UNL A   1      42.946  22.969  26.376  1.00  0.00     0.009 A 
ATOM     70  C   UNL A   1      44.230  24.865  25.742  1.00  0.00     0.009 A 
ATOM     71  C   UNL A   1      43.407  22.268  25.247  1.00  0.00     0.001 A 
ATOM     72  C   UNL A   1      44.670  24.183  24.589  1.00  0.00     0.001 A 
ATOM     73  C   UNL A   1      44.262  22.880  24.343  1.00  0.00     0.000 A 
ENDBRANCH  54  68
BRANCH  55  74
ATOM     74  C   UNL A   1      40.267  30.929  33.692  1.00  0.00    -0.014 A 
ATOM     75  C   UNL A   1      40.206  32.257  33.193  1.00  0.00     0.009 A 
ATOM     76  C   UNL A   1      39.047  30.262  33.901  1.00  0.00     0.009 A 
ATOM     77  C   UNL A   1      39.024  32.772  32.643  1.00  0.00     0.001 A 
ATOM     78  C   UNL A   1      37.853  30.809  33.385  1.00  0.00     0.001 A 
ATOM     79  C   UNL A   1      37.859  32.019  32.688  1.00  0.00     0.000 A 
ENDBRANCH  55  74
BRANCH  67  80
ATOM     80  C   UNL A   1      44.635  24.900  33.251  1.00  0.00    -0.014 A 
ATOM     81  C   UNL A   1      46.009  24.742  33.456  1.00  0.00     0.009 A 
ATOM     82  C   UNL A   1      43.779  23.986  33.917  1.00  0.00     0.009 A 
ATOM     83  C   UNL A   1      46.502  23.724  34.275  1.00  0.00     0.001 A 
ATOM     84  C   UNL A   1      44.266  23.005  34.777  1.00  0.00     0.001 A 
ATOM     85  C   UNL A   1      45.633  22.871  34.949  1.00  0.00     0.000 A 
ENDBRANCH  67  80
ENDBRANCH  41  42
ENDBRANCH  34  36
ENDBRANCH  33  34
ENDBRANCH  32  33
ENDBRANCH  31  32
ENDBRANCH  30  31
ENDBRANCH  29  30
ENDBRANCH  28  29
ENDBRANCH  27  28
ENDBRANCH   1  27
TORSDOF 23
ENDMDL
MODEL 2
REMARK VINA RESULT:      -9.5      3.005      5.190
REMARK SMILES Cc1c(N[C@@H]2CC[C@@H]([NH3+])C2)cccc1C(=O)OCCOCCOCCOCCOC(=O)c1ccc(-c2c3nc(c(-c4ccccc4)c4ccc([nH]4)c(-c4ccccc4)c4nc(c(-c5ccccc5)c5ccc2[nH]5)C=C4)C=C3)cc1
REMARK SMILES IDX 22 1 21 2 20 3 19 4 18 5 17 6 15 7 16 8 14 9 1 10 2 11 3 12
REMARK SMILES IDX 11 13 13 14 12 15 4 16 5 18 6 19 10 20 7 21 8 22 9 23 23 27
REMARK SMILES IDX 24 28 25 29 26 30 27 31 28 32 29 33 30 34 31 35 32 36 33 37
REMARK SMILES IDX 79 38 34 39 78 40 35 41 36 42 37 43 72 44 38 45 77 46 71 47
REMARK SMILES IDX 73 48 39 49 76 50 70 51 69 52 40 54 62 55 47 56 61 57 48 58
REMARK SMILES IDX 51 59 60 60 74 61 49 62 50 63 59 65 75 66 52 67 41 68 42 69
REMARK SMILES IDX 46 70 43 71 45 72 44 73 63 74 64 75 68 76 65 77 67 78 66 79
REMARK SMILES IDX 53 80 54 81 58 82 55 83 57 84 56 85
REMARK H PARENT 4 17 9 24 9 25 9 26 73 53 51 64
REMARK Flexibility Score: inf
ROOT
ATOM      1  C   UNL A   1      34.795  30.395  27.648  1.00  0.00     0.188 C 
ENDROOT
BRANCH   1   2
ATOM      2  C   UNL A   1      33.861  29.628  26.697  1.00  0.00     0.188 C 
BRANCH   2   3
ATOM      3  O   UNL A   1      32.452  29.694  26.848  1.00  0.00    -0.376 OA
BRANCH   3   4
ATOM      4  C   UNL A   1      31.725  30.133  25.705  1.00  0.00     0.202 C 
BRANCH   4   5
ATOM      5  C   UNL A   1      31.485  29.155  24.567  1.00  0.00     0.261 C 
BRANCH   5   6
ATOM      6  O   UNL A   1      31.473  27.840  25.101  1.00  0.00    -0.460 OA
BRANCH   6   7
ATOM      7  C   UNL A   1      31.357  26.866  24.190  1.00  0.00     0.338 C 
ATOM      8  O   UNL A   1      30.804  26.936  23.112  1.00  0.00    -0.246 OA
BRANCH   7   9
ATOM      9  C   UNL A   1      32.345  25.819  24.536  1.00  0.00     0.065 A 
ATOM     10  C   UNL A   1      30.933  23.737  23.957  1.00  0.00     0.047 C 
ATOM     11  C   UNL A   1      32.212  24.421  24.370  1.00  0.00    -0.013 A 
ATOM     12  C   UNL A   1      33.329  23.610  24.643  1.00  0.00     0.038 A 
ATOM     13  C   UNL A   1      34.387  24.187  25.358  1.00  0.00     0.026 A 
ATOM     14  C   UNL A   1      33.436  26.358  25.233  1.00  0.00     0.016 A 
ATOM     15  C   UNL A   1      34.433  25.532  25.694  1.00  0.00     0.003 A 
BRANCH  12  16
ATOM     16  N   UNL A   1      33.333  22.288  24.228  1.00  0.00    -0.382 N 
ATOM     17  H   UNL A   1      33.285  22.139  23.256  1.00  0.00     0.160 HD
BRANCH  16  18
ATOM     18  C   UNL A   1      33.400  21.098  25.052  1.00  0.00     0.085 C 
ATOM     19  C   UNL A   1      34.674  20.280  24.838  1.00  0.00     0.031 C 
ATOM     20  C   UNL A   1      32.203  20.169  24.859  1.00  0.00     0.089 C 
ATOM     21  C   UNL A   1      34.204  18.859  24.529  1.00  0.00     0.067 C 
ATOM     22  C   UNL A   1      32.770  18.767  25.056  1.00  0.00     0.182 C 
BRANCH  22  23
ATOM     23  N   UNL A   1      32.766  18.388  26.465  1.00  0.00    -0.355 N 
ATOM     24  H   UNL A   1      32.450  17.422  26.556  1.00  0.00     0.344 HD
ATOM     25  H   UNL A   1      32.134  19.002  26.979  1.00  0.00     0.344 HD
ATOM     26  H   UNL A   1      33.709  18.476  26.845  1.00  0.00     0.344 HD
ENDBRANCH  22  23
ENDBRANCH  16  18
ENDBRANCH  12  16
ENDBRANCH   7   9
ENDBRANCH   6   7
ENDBRANCH   5   6
ENDBRANCH   4   5
ENDBRANCH   3   4
ENDBRANCH   2   3
ENDBRANCH   1   2
BRANCH   1  27
ATOM     27  O   UNL A   1      34.475  31.720  28.046  1.00  0.00    -0.377 OA
BRANCH  27  28
ATOM     28  C   UNL A   1      35.442  32.746  27.843  1.00  0.00     0.188 C 
BRANCH  28  29
ATOM     29  C   UNL A   1      35.316  34.011  28.680  1.00  0.00     0.188 C 
BRANCH  29  30
ATOM     30  O   UNL A   1      34.468  34.933  27.998  1.00  0.00    -0.376 OA
BRANCH  30  31
ATOM     31  C   UNL A   1      33.729  35.828  28.824  1.00  0.00     0.202 C 
BRANCH  31  32
ATOM     32  C   UNL A   1      33.060  35.153  30.028  1.00  0.00     0.261 C 
BRANCH  32  33
ATOM     33  O   UNL A   1      33.621  35.673  31.249  1.00  0.00    -0.460 OA
BRANCH  33  34
ATOM     34  C   UNL A   1      33.595  34.822  32.309  1.00  0.00     0.338 C 
ATOM     35  O   UNL A   1      32.589  34.395  32.850  1.00  0.00    -0.246 OA
BRANCH  34  36
ATOM     36  C   UNL A   1      34.958  34.717  32.905  1.00  0.00     0.060 A 
ATOM     37  C   UNL A   1      36.090  35.034  32.135  1.00  0.00     0.016 A 
ATOM     38  C   UNL A   1      35.110  33.972  34.065  1.00  0.00     0.016 A 
ATOM     39  C   UNL A   1      37.325  34.426  32.417  1.00  0.00     0.010 A 
ATOM     40  C   UNL A   1      36.293  33.295  34.258  1.00  0.00     0.010 A 
ATOM     41  C   UNL A   1      37.397  33.457  33.412  1.00  0.00    -0.014 A 
BRANCH  41  42
ATOM     42  C   UNL A   1      38.483  32.465  33.571  1.00  0.00     0.031 A 
ATOM     43  C   UNL A   1      38.369  31.146  32.852  1.00  0.00     0.074 A 
ATOM     44  C   UNL A   1      39.696  32.902  34.013  1.00  0.00     0.049 A 
ATOM     45  N   UNL A   1      39.291  30.248  32.799  1.00  0.00    -0.248 NA
ATOM     46  C   UNL A   1      37.209  30.752  32.047  1.00  0.00     0.031 C 
ATOM     47  C   UNL A   1      41.003  32.281  33.781  1.00  0.00     0.029 A 
ATOM     48  N   UNL A   1      40.062  34.028  34.742  1.00  0.00    -0.354 N 
ATOM     49  C   UNL A   1      39.043  29.413  31.724  1.00  0.00     0.074 A 
ATOM     50  C   UNL A   1      37.688  29.716  31.344  1.00  0.00     0.031 C 
ATOM     51  C   UNL A   1      41.965  32.904  34.474  1.00  0.00     0.029 A 
ATOM     52  C   UNL A   1      41.281  33.780  35.382  1.00  0.00     0.049 A 
ATOM     53  H   UNL A   1      39.546  34.865  34.798  1.00  0.00     0.167 HD
ATOM     54  C   UNL A   1      40.071  28.672  31.203  1.00  0.00     0.031 A 
ATOM     55  C   UNL A   1      41.390  33.634  36.735  1.00  0.00     0.031 A 
ATOM     56  C   UNL A   1      41.286  28.767  32.043  1.00  0.00     0.049 A 
ATOM     57  C   UNL A   1      41.734  32.160  37.017  1.00  0.00     0.074 A 
ATOM     58  C   UNL A   1      42.611  29.092  31.811  1.00  0.00     0.029 A 
ATOM     59  N   UNL A   1      41.157  28.704  33.434  1.00  0.00    -0.354 N 
ATOM     60  N   UNL A   1      41.305  31.156  36.275  1.00  0.00    -0.248 NA
ATOM     61  C   UNL A   1      42.832  31.756  37.898  1.00  0.00     0.031 C 
ATOM     62  C   UNL A   1      43.208  29.423  33.068  1.00  0.00     0.029 A 
ATOM     63  C   UNL A   1      42.276  29.197  34.076  1.00  0.00     0.049 A 
ATOM     64  H   UNL A   1      40.366  28.351  33.899  1.00  0.00     0.167 HD
ATOM     65  C   UNL A   1      42.182  30.100  36.396  1.00  0.00     0.074 A 
ATOM     66  C   UNL A   1      43.066  30.495  37.487  1.00  0.00     0.031 C 
ATOM     67  C   UNL A   1      42.398  29.062  35.522  1.00  0.00     0.031 A 
BRANCH  54  68
ATOM     68  C   UNL A   1      40.074  27.999  29.827  1.00  0.00    -0.014 A 
ATOM     69  C   UNL A   1      39.323  26.821  29.625  1.00  0.00     0.009 A 
ATOM     70  C   UNL A   1      40.840  28.409  28.718  1.00  0.00     0.009 A 
ATOM     71  C   UNL A   1      39.336  26.105  28.413  1.00  0.00     0.001 A 
ATOM     72  C   UNL A   1      40.832  27.718  27.489  1.00  0.00     0.001 A 
ATOM     73  C   UNL A   1      40.082  26.561  27.338  1.00  0.00     0.000 A 
ENDBRANCH  54  68
BRANCH  55  74
ATOM     74  C   UNL A   1      40.575  34.677  37.437  1.00  0.00    -0.014 A 
ATOM     75  C   UNL A   1      39.380  34.167  38.010  1.00  0.00     0.009 A 
ATOM     76  C   UNL A   1      41.196  35.753  38.095  1.00  0.00     0.009 A 
ATOM     77  C   UNL A   1      39.003  34.499  39.318  1.00  0.00     0.001 A 
ATOM     78  C   UNL A   1      40.782  36.113  39.394  1.00  0.00     0.001 A 
ATOM     79  C   UNL A   1      39.743  35.432  40.033  1.00  0.00     0.000 A 
ENDBRANCH  55  74
BRANCH  67  80
ATOM     80  C   UNL A   1      42.687  27.665  36.025  1.00  0.00    -0.014 A 
ATOM     81  C   UNL A   1      41.722  26.880  36.663  1.00  0.00     0.009 A 
ATOM     82  C   UNL A   1      43.881  27.014  35.624  1.00  0.00     0.009 A 
ATOM     83  C   UNL A   1      41.940  25.519  36.893  1.00  0.00     0.001 A 
ATOM     84  C   UNL A   1      44.077  25.647  35.804  1.00  0.00     0.001 A 
ATOM     85  C   UNL A   1      43.104  24.901  36.448  1.00  0.00     0.000 A 
ENDBRANCH  67  80
ENDBRANCH  41  42
ENDBRANCH  34  36
ENDBRANCH  33  34
ENDBRANCH  32  33
ENDBRANCH  31  32
ENDBRANCH  30  31
ENDBRANCH  29  30
ENDBRANCH  28  29
ENDBRANCH  27  28
ENDBRANCH   1  27
TORSDOF 23
ENDMDL
MODEL 3
REMARK VINA RESULT:      -9.0      3.444      9.033
REMARK SMILES Cc1c(N[C@@H]2CC[C@@H]([NH3+])C2)cccc1C(=O)OCCOCCOCCOCCOC(=O)c1ccc(-c2c3nc(c(-c4ccccc4)c4ccc([nH]4)c(-c4ccccc4)c4nc(c(-c5ccccc5)c5ccc2[nH]5)C=C4)C=C3)cc1
REMARK SMILES IDX 22 1 21 2 20 3 19 4 18 5 17 6 15 7 16 8 14 9 1 10 2 11 3 12
REMARK SMILES IDX 11 13 13 14 12 15 4 16 5 18 6 19 10 20 7 21 8 22 9 23 23 27
REMARK SMILES IDX 24 28 25 29 26 30 27 31 28 32 29 33 30 34 31 35 32 36 33 37
REMARK SMILES IDX 79 38 34 39 78 40 35 41 36 42 37 43 72 44 38 45 77 46 71 47
REMARK SMILES IDX 73 48 39 49 76 50 70 51 69 52 40 54 62 55 47 56 61 57 48 58
REMARK SMILES IDX 51 59 60 60 74 61 49 62 50 63 59 65 75 66 52 67 41 68 42 69
REMARK SMILES IDX 46 70 43 71 45 72 44 73 63 74 64 75 68 76 65 77 67 78 66 79
REMARK SMILES IDX 53 80 54 81 58 82 55 83 57 84 56 85
REMARK H PARENT 4 17 9 24 9 25 9 26 73 53 51 64
REMARK Flexibility Score: inf
ROOT
ATOM      1  C   UNL A   1      34.296  23.054  24.291  1.00  0.00     0.188 C 
ENDROOT
BRANCH   1   2
ATOM      2  C   UNL A   1      35.711  23.437  24.753  1.00  0.00     0.188 C 
BRANCH   2   3
ATOM      3  O   UNL A   1      36.688  22.442  25.017  1.00  0.00    -0.376 OA
BRANCH   3   4
ATOM      4  C   UNL A   1      37.821  22.867  25.766  1.00  0.00     0.202 C 
BRANCH   4   5
ATOM      5  C   UNL A   1      38.937  21.871  26.038  1.00  0.00     0.261 C 
BRANCH   5   6
ATOM      6  O   UNL A   1      40.078  22.588  26.486  1.00  0.00    -0.460 OA
BRANCH   6   7
ATOM      7  C   UNL A   1      40.816  21.948  27.402  1.00  0.00     0.338 C 
ATOM      8  O   UNL A   1      40.701  20.794  27.757  1.00  0.00    -0.246 OA
BRANCH   7   9
ATOM      9  C   UNL A   1      42.039  22.753  27.621  1.00  0.00     0.065 A 
ATOM     10  C   UNL A   1      43.548  21.677  25.824  1.00  0.00     0.047 C 
ATOM     11  C   UNL A   1      43.245  22.708  26.882  1.00  0.00    -0.013 A 
ATOM     12  C   UNL A   1      44.240  23.657  27.175  1.00  0.00     0.038 A 
ATOM     13  C   UNL A   1      44.117  24.373  28.374  1.00  0.00     0.026 A 
ATOM     14  C   UNL A   1      41.949  23.508  28.800  1.00  0.00     0.016 A 
ATOM     15  C   UNL A   1      43.013  24.277  29.207  1.00  0.00     0.003 A 
BRANCH  12  16
ATOM     16  N   UNL A   1      45.301  23.830  26.300  1.00  0.00    -0.382 N 
ATOM     17  H   UNL A   1      45.822  23.022  26.085  1.00  0.00     0.160 HD
BRANCH  16  18
ATOM     18  C   UNL A   1      45.737  25.056  25.663  1.00  0.00     0.085 C 
ATOM     19  C   UNL A   1      46.724  25.862  26.507  1.00  0.00     0.031 C 
ATOM     20  C   UNL A   1      44.578  25.976  25.282  1.00  0.00     0.089 C 
ATOM     21  C   UNL A   1      46.133  27.267  26.603  1.00  0.00     0.067 C 
ATOM     22  C   UNL A   1      45.139  27.385  25.445  1.00  0.00     0.182 C 
BRANCH  22  23
ATOM     23  N   UNL A   1      45.817  27.828  24.231  1.00  0.00    -0.355 N 
ATOM     24  H   UNL A   1      46.175  27.016  23.727  1.00  0.00     0.344 HD
ATOM     25  H   UNL A   1      46.592  28.443  24.480  1.00  0.00     0.344 HD
ATOM     26  H   UNL A   1      45.159  28.334  23.639  1.00  0.00     0.344 HD
ENDBRANCH  22  23
ENDBRANCH  16  18
ENDBRANCH  12  16
ENDBRANCH   7   9
ENDBRANCH   6   7
ENDBRANCH   5   6
ENDBRANCH   4   5
ENDBRANCH   3   4
ENDBRANCH   2   3
ENDBRANCH   1   2
BRANCH   1  27
ATOM     27  O   UNL A   1      33.164  23.463  25.044  1.00  0.00    -0.377 OA
BRANCH  27  28
ATOM     28  C   UNL A   1      33.326  24.493  26.015  1.00  0.00     0.188 C 
BRANCH  28  29
ATOM     29  C   UNL A   1      32.822  25.885  25.659  1.00  0.00     0.188 C 
BRANCH  29  30
ATOM     30  O   UNL A   1      33.852  26.832  25.934  1.00  0.00    -0.376 OA
BRANCH  30  31
ATOM     31  C   UNL A   1      33.481  27.933  26.759  1.00  0.00     0.202 C 
BRANCH  31  32
ATOM     32  C   UNL A   1      34.300  29.204  26.504  1.00  0.00     0.261 C 
BRANCH  32  33
ATOM     33  O   UNL A   1      34.723  29.769  27.761  1.00  0.00    -0.460 OA
BRANCH  33  34
ATOM     34  C   UNL A   1      34.282  31.030  28.009  1.00  0.00     0.338 C 
ATOM     35  O   UNL A   1      33.317  31.560  27.483  1.00  0.00    -0.246 OA
BRANCH  34  36
ATOM     36  C   UNL A   1      35.309  31.781  28.788  1.00  0.00     0.060 A 
ATOM     37  C   UNL A   1      36.526  32.140  28.185  1.00  0.00     0.016 A 
ATOM     38  C   UNL A   1      35.205  31.790  30.170  1.00  0.00     0.016 A 
ATOM     39  C   UNL A   1      37.681  32.296  28.970  1.00  0.00     0.010 A 
ATOM     40  C   UNL A   1      36.363  31.830  30.914  1.00  0.00     0.010 A 
ATOM     41  C   UNL A   1      37.623  32.021  30.332  1.00  0.00    -0.014 A 
BRANCH  41  42
ATOM     42  C   UNL A   1      38.785  31.758  31.208  1.00  0.00     0.031 A 
ATOM     43  C   UNL A   1      39.256  32.850  32.132  1.00  0.00     0.074 A 
ATOM     44  C   UNL A   1      39.134  30.462  31.444  1.00  0.00     0.049 A 
ATOM     45  N   UNL A   1      40.168  32.718  33.033  1.00  0.00    -0.248 NA
ATOM     46  C   UNL A   1      38.671  34.193  32.175  1.00  0.00     0.031 C 
ATOM     47  C   UNL A   1      39.862  29.935  32.601  1.00  0.00     0.029 A 
ATOM     48  N   UNL A   1      38.889  29.295  30.729  1.00  0.00    -0.354 N 
ATOM     49  C   UNL A   1      40.029  33.730  33.965  1.00  0.00     0.074 A 
ATOM     50  C   UNL A   1      39.139  34.672  33.336  1.00  0.00     0.031 C 
ATOM     51  C   UNL A   1      40.150  28.636  32.442  1.00  0.00     0.029 A 
ATOM     52  C   UNL A   1      39.856  28.341  31.069  1.00  0.00     0.049 A 
ATOM     53  H   UNL A   1      38.155  29.161  30.087  1.00  0.00     0.167 HD
ATOM     54  C   UNL A   1      40.575  33.571  35.211  1.00  0.00     0.031 A 
ATOM     55  C   UNL A   1      40.827  27.931  30.202  1.00  0.00     0.031 A 
ATOM     56  C   UNL A   1      41.414  32.354  35.281  1.00  0.00     0.049 A 
ATOM     57  C   UNL A   1      42.173  28.466  30.724  1.00  0.00     0.074 A 
ATOM     58  C   UNL A   1      41.467  31.250  36.113  1.00  0.00     0.029 A 
ATOM     59  N   UNL A   1      42.273  32.058  34.218  1.00  0.00    -0.354 N 
ATOM     60  N   UNL A   1      42.301  29.612  31.369  1.00  0.00    -0.248 NA
ATOM     61  C   UNL A   1      43.359  27.622  30.874  1.00  0.00     0.031 C 
ATOM     62  C   UNL A   1      42.193  30.222  35.434  1.00  0.00     0.029 A 
ATOM     63  C   UNL A   1      42.674  30.737  34.234  1.00  0.00     0.049 A 
ATOM     64  H   UNL A   1      42.557  32.713  33.540  1.00  0.00     0.167 HD
ATOM     65  C   UNL A   1      43.419  29.554  32.172  1.00  0.00     0.074 A 
ATOM     66  C   UNL A   1      44.090  28.327  31.759  1.00  0.00     0.031 C 
ATOM     67  C   UNL A   1      43.699  30.281  33.303  1.00  0.00     0.031 A 
BRANCH  54  68
ATOM     68  C   UNL A   1      40.215  34.394  36.451  1.00  0.00    -0.014 A 
ATOM     69  C   UNL A   1      39.226  33.920  37.341  1.00  0.00     0.009 A 
ATOM     70  C   UNL A   1      40.735  35.664  36.770  1.00  0.00     0.009 A 
ATOM     71  C   UNL A   1      38.789  34.654  38.459  1.00  0.00     0.001 A 
ATOM     72  C   UNL A   1      40.328  36.391  37.907  1.00  0.00     0.001 A 
ATOM     73  C   UNL A   1      39.349  35.887  38.751  1.00  0.00     0.000 A 
ENDBRANCH  54  68
BRANCH  55  74
ATOM     74  C   UNL A   1      40.244  27.697  28.842  1.00  0.00    -0.014 A 
ATOM     75  C   UNL A   1      41.079  28.150  27.786  1.00  0.00     0.009 A 
ATOM     76  C   UNL A   1      39.437  26.574  28.589  1.00  0.00     0.009 A 
ATOM     77  C   UNL A   1      41.326  27.350  26.662  1.00  0.00     0.001 A 
ATOM     78  C   UNL A   1      39.659  25.798  27.431  1.00  0.00     0.001 A 
ATOM     79  C   UNL A   1      40.657  26.142  26.516  1.00  0.00     0.000 A 
ENDBRANCH  55  74
BRANCH  67  80
ATOM     80  C   UNL A   1      45.107  30.744  33.605  1.00  0.00    -0.014 A 
ATOM     81  C   UNL A   1      45.671  31.876  33.009  1.00  0.00     0.009 A 
ATOM     82  C   UNL A   1      45.802  30.186  34.707  1.00  0.00     0.009 A 
ATOM     83  C   UNL A   1      46.868  32.418  33.484  1.00  0.00     0.001 A 
ATOM     84  C   UNL A   1      46.966  30.756  35.216  1.00  0.00     0.001 A 
ATOM     85  C   UNL A   1      47.503  31.872  34.596  1.00  0.00     0.000 A 
ENDBRANCH  67  80
ENDBRANCH  41  42
ENDBRANCH  34  36
ENDBRANCH  33  34
ENDBRANCH  32  33
ENDBRANCH  31  32
ENDBRANCH  30  31
ENDBRANCH  29  30
ENDBRANCH  28  29
ENDBRANCH  27  28
ENDBRANCH   1  27
TORSDOF 23
ENDMDL
