MODEL 1
REMARK VINA RESULT:     -10.3      0.000      0.000
REMARK SMILES O=C(CC1CCN(C(=O)c2ccc3[nH]ccc3c2)CC1)OCCOCCOCCOCCOC(=O)c1ccc(-c2c3nc(c(-c4ccccc4)c4ccc([nH]4)c(-c4ccccc4)c4nc(c(-c5ccccc5)c5ccc2[nH]5)C=C4)C=C3)cc1
REMARK SMILES IDX 27 1 26 2 25 3 24 4 23 5 22 6 21 7 2 8 1 9 3 10 4 11 5 12
REMARK SMILES IDX 20 13 6 14 19 15 7 16 8 17 9 18 10 19 11 20 18 21 12 22
REMARK SMILES IDX 17 23 13 24 16 25 14 26 15 27 28 29 29 30 30 31 31 32 32 33
REMARK SMILES IDX 33 34 34 35 35 36 36 37 37 38 83 39 38 40 82 41 39 42 40 43
REMARK SMILES IDX 41 44 76 45 42 46 81 47 75 48 77 49 43 50 80 51 74 52 73 53
REMARK SMILES IDX 44 55 66 56 51 57 65 58 52 59 55 60 64 61 78 62 53 63 54 64
REMARK SMILES IDX 63 66 79 67 56 68 45 69 46 70 50 71 47 72 49 73 48 74 67 75
REMARK SMILES IDX 68 76 72 77 69 78 71 79 70 80 57 81 58 82 62 83 59 84 61 85
REMARK SMILES IDX 60 86
REMARK H PARENT 14 28 77 54 55 65
REMARK Flexibility Score: inf
ROOT
ATOM      1  O   UNL A   1      41.034  21.387  26.110  1.00  0.00    -0.377 OA
ENDROOT
BRANCH   1   2
ATOM      2  C   UNL A   1      40.044  22.013  26.911  1.00  0.00     0.188 C 
BRANCH   2   3
ATOM      3  C   UNL A   1      39.793  23.498  26.638  1.00  0.00     0.188 C 
BRANCH   3   4
ATOM      4  O   UNL A   1      38.500  23.848  26.175  1.00  0.00    -0.376 OA
BRANCH   4   5
ATOM      5  C   UNL A   1      37.473  22.979  25.743  1.00  0.00     0.202 C 
BRANCH   5   6
ATOM      6  C   UNL A   1      37.021  22.917  24.289  1.00  0.00     0.261 C 
BRANCH   6   7
ATOM      7  O   UNL A   1      35.865  22.129  23.979  1.00  0.00    -0.463 OA
BRANCH   7   8
ATOM      8  C   UNL A   1      35.234  21.281  24.809  1.00  0.00     0.306 C 
ATOM      9  O   UNL A   1      35.734  20.189  25.069  1.00  0.00    -0.252 OA
BRANCH   8  10
ATOM     10  C   UNL A   1      33.852  21.621  25.300  1.00  0.00     0.126 C 
BRANCH  10  11
ATOM     11  C   UNL A   1      33.758  22.758  26.308  1.00  0.00     0.003 C 
ATOM     12  C   UNL A   1      32.490  22.633  27.152  1.00  0.00     0.026 C 
ATOM     13  C   UNL A   1      33.773  24.093  25.537  1.00  0.00     0.026 C 
ATOM     14  C   UNL A   1      31.248  22.787  26.278  1.00  0.00     0.120 C 
ATOM     15  C   UNL A   1      32.502  24.255  24.706  1.00  0.00     0.120 C 
ATOM     16  N   UNL A   1      31.324  24.056  25.561  1.00  0.00    -0.339 N 
ATOM     17  C   UNL A   1      30.451  25.062  25.952  1.00  0.00     0.253 C 
ATOM     18  O   UNL A   1      29.602  24.937  26.829  1.00  0.00    -0.269 OA
BRANCH  17  19
ATOM     19  C   UNL A   1      30.601  26.381  25.324  1.00  0.00     0.040 A 
ATOM     20  C   UNL A   1      31.530  27.300  25.816  1.00  0.00     0.016 A 
ATOM     21  C   UNL A   1      29.752  26.676  24.253  1.00  0.00     0.024 A 
ATOM     22  C   UNL A   1      31.607  28.580  25.265  1.00  0.00     0.027 A 
ATOM     23  C   UNL A   1      29.837  27.952  23.676  1.00  0.00     0.000 A 
ATOM     24  C   UNL A   1      30.751  28.870  24.194  1.00  0.00     0.045 A 
ATOM     25  C   UNL A   1      29.159  28.586  22.601  1.00  0.00     0.028 A 
ATOM     26  N   UNL A   1      30.620  30.023  23.453  1.00  0.00    -0.361 N 
ATOM     27  C   UNL A   1      29.669  29.856  22.481  1.00  0.00     0.083 A 
ATOM     28  H   UNL A   1      31.136  30.849  23.601  1.00  0.00     0.166 HD
ENDBRANCH  17  19
ENDBRANCH  10  11
ENDBRANCH   8  10
ENDBRANCH   7   8
ENDBRANCH   6   7
ENDBRANCH   5   6
ENDBRANCH   4   5
ENDBRANCH   3   4
ENDBRANCH   2   3
ENDBRANCH   1   2
BRANCH   1  29
ATOM     29  C   UNL A   1      41.549  20.184  26.648  1.00  0.00     0.188 C 
BRANCH  29  30
ATOM     30  C   UNL A   1      42.609  19.479  25.767  1.00  0.00     0.188 C 
BRANCH  30  31
ATOM     31  O   UNL A   1      43.950  19.935  25.679  1.00  0.00    -0.376 OA
BRANCH  31  32
ATOM     32  C   UNL A   1      44.476  20.467  24.475  1.00  0.00     0.202 C 
BRANCH  32  33
ATOM     33  C   UNL A   1      44.872  21.945  24.314  1.00  0.00     0.261 C 
BRANCH  33  34
ATOM     34  O   UNL A   1      44.248  22.877  25.197  1.00  0.00    -0.460 OA
BRANCH  34  35
ATOM     35  C   UNL A   1      44.980  23.275  26.261  1.00  0.00     0.338 C 
ATOM     36  O   UNL A   1      46.146  23.013  26.503  1.00  0.00    -0.246 OA
BRANCH  35  37
ATOM     37  C   UNL A   1      44.193  24.291  26.991  1.00  0.00     0.060 A 
ATOM     38  C   UNL A   1      44.352  25.645  26.646  1.00  0.00     0.016 A 
ATOM     39  C   UNL A   1      43.257  23.909  27.953  1.00  0.00     0.016 A 
ATOM     40  C   UNL A   1      43.575  26.622  27.263  1.00  0.00     0.010 A 
ATOM     41  C   UNL A   1      42.523  24.891  28.613  1.00  0.00     0.010 A 
ATOM     42  C   UNL A   1      42.705  26.249  28.290  1.00  0.00    -0.014 A 
BRANCH  42  43
ATOM     43  C   UNL A   1      42.216  27.268  29.241  1.00  0.00     0.031 A 
ATOM     44  C   UNL A   1      42.963  27.399  30.536  1.00  0.00     0.074 A 
ATOM     45  C   UNL A   1      41.121  28.003  28.999  1.00  0.00     0.049 A 
ATOM     46  N   UNL A   1      42.653  28.070  31.613  1.00  0.00    -0.248 NA
ATOM     47  C   UNL A   1      44.228  26.649  30.631  1.00  0.00     0.031 C 
ATOM     48  C   UNL A   1      40.350  27.999  27.758  1.00  0.00     0.029 A 
ATOM     49  N   UNL A   1      40.452  28.876  29.817  1.00  0.00    -0.354 N 
ATOM     50  C   UNL A   1      43.665  27.795  32.522  1.00  0.00     0.074 A 
ATOM     51  C   UNL A   1      44.588  26.889  31.879  1.00  0.00     0.031 C 
ATOM     52  C   UNL A   1      39.285  28.805  27.911  1.00  0.00     0.029 A 
ATOM     53  C   UNL A   1      39.279  29.337  29.275  1.00  0.00     0.049 A 
ATOM     54  H   UNL A   1      40.780  29.146  30.705  1.00  0.00     0.167 HD
ATOM     55  C   UNL A   1      43.803  28.247  33.789  1.00  0.00     0.031 A 
ATOM     56  C   UNL A   1      38.293  30.064  29.835  1.00  0.00     0.031 A 
ATOM     57  C   UNL A   1      42.859  29.116  34.431  1.00  0.00     0.049 A 
ATOM     58  C   UNL A   1      38.423  30.498  31.272  1.00  0.00     0.074 A 
ATOM     59  C   UNL A   1      42.906  29.652  35.704  1.00  0.00     0.029 A 
ATOM     60  N   UNL A   1      41.681  29.561  33.847  1.00  0.00    -0.354 N 
ATOM     61  N   UNL A   1      39.392  30.257  32.125  1.00  0.00    -0.248 NA
ATOM     62  C   UNL A   1      37.325  31.306  31.824  1.00  0.00     0.031 C 
ATOM     63  C   UNL A   1      41.722  30.364  35.916  1.00  0.00     0.029 A 
ATOM     64  C   UNL A   1      40.976  30.339  34.747  1.00  0.00     0.049 A 
ATOM     65  H   UNL A   1      41.391  29.354  32.930  1.00  0.00     0.167 HD
ATOM     66  C   UNL A   1      39.039  30.910  33.301  1.00  0.00     0.074 A 
ATOM     67  C   UNL A   1      37.767  31.558  33.050  1.00  0.00     0.031 C 
ATOM     68  C   UNL A   1      39.711  30.977  34.476  1.00  0.00     0.031 A 
BRANCH  55  69
ATOM     69  C   UNL A   1      44.982  27.734  34.569  1.00  0.00    -0.014 A 
ATOM     70  C   UNL A   1      45.035  26.415  35.049  1.00  0.00     0.009 A 
ATOM     71  C   UNL A   1      46.046  28.603  34.857  1.00  0.00     0.009 A 
ATOM     72  C   UNL A   1      46.102  25.995  35.846  1.00  0.00     0.001 A 
ATOM     73  C   UNL A   1      47.130  28.169  35.622  1.00  0.00     0.001 A 
ATOM     74  C   UNL A   1      47.149  26.871  36.130  1.00  0.00     0.000 A 
ENDBRANCH  55  69
BRANCH  56  75
ATOM     75  C   UNL A   1      37.082  30.391  29.039  1.00  0.00    -0.014 A 
ATOM     76  C   UNL A   1      36.858  31.697  28.577  1.00  0.00     0.009 A 
ATOM     77  C   UNL A   1      36.155  29.387  28.710  1.00  0.00     0.009 A 
ATOM     78  C   UNL A   1      35.728  31.991  27.809  1.00  0.00     0.001 A 
ATOM     79  C   UNL A   1      35.042  29.680  27.920  1.00  0.00     0.001 A 
ATOM     80  C   UNL A   1      34.827  30.982  27.474  1.00  0.00     0.000 A 
ENDBRANCH  56  75
BRANCH  68  81
ATOM     81  C   UNL A   1      39.120  31.819  35.573  1.00  0.00    -0.014 A 
ATOM     82  C   UNL A   1      39.287  33.211  35.607  1.00  0.00     0.009 A 
ATOM     83  C   UNL A   1      38.308  31.208  36.544  1.00  0.00     0.009 A 
ATOM     84  C   UNL A   1      38.670  33.971  36.604  1.00  0.00     0.001 A 
ATOM     85  C   UNL A   1      37.668  31.973  37.520  1.00  0.00     0.001 A 
ATOM     86  C   UNL A   1      37.856  33.353  37.553  1.00  0.00     0.000 A 
ENDBRANCH  68  81
ENDBRANCH  42  43
ENDBRANCH  35  37
ENDBRANCH  34  35
ENDBRANCH  33  34
ENDBRANCH  32  33
ENDBRANCH  31  32
ENDBRANCH  30  31
ENDBRANCH  29  30
ENDBRANCH   1  29
TORSDOF 22
ENDMDL
MODEL 2
REMARK VINA RESULT:     -10.0      3.731      8.140
REMARK SMILES O=C(CC1CCN(C(=O)c2ccc3[nH]ccc3c2)CC1)OCCOCCOCCOCCOC(=O)c1ccc(-c2c3nc(c(-c4ccccc4)c4ccc([nH]4)c(-c4ccccc4)c4nc(c(-c5ccccc5)c5ccc2[nH]5)C=C4)C=C3)cc1
REMARK SMILES IDX 27 1 26 2 25 3 24 4 23 5 22 6 21 7 2 8 1 9 3 10 4 11 5 12
REMARK SMILES IDX 20 13 6 14 19 15 7 16 8 17 9 18 10 19 11 20 18 21 12 22
REMARK SMILES IDX 17 23 13 24 16 25 14 26 15 27 28 29 29 30 30 31 31 32 32 33
REMARK SMILES IDX 33 34 34 35 35 36 36 37 37 38 83 39 38 40 82 41 39 42 40 43
REMARK SMILES IDX 41 44 76 45 42 46 81 47 75 48 77 49 43 50 80 51 74 52 73 53
REMARK SMILES IDX 44 55 66 56 51 57 65 58 52 59 55 60 64 61 78 62 53 63 54 64
REMARK SMILES IDX 63 66 79 67 56 68 45 69 46 70 50 71 47 72 49 73 48 74 67 75
REMARK SMILES IDX 68 76 72 77 69 78 71 79 70 80 57 81 58 82 62 83 59 84 61 85
REMARK SMILES IDX 60 86
REMARK H PARENT 14 28 77 54 55 65
REMARK Flexibility Score: inf
ROOT
ATOM      1  O   UNL A   1      34.523  23.326  22.934  1.00  0.00    -0.377 OA
ENDROOT
BRANCH   1   2
ATOM      2  C   UNL A   1      34.936  24.088  24.057  1.00  0.00     0.188 C 
BRANCH   2   3
ATOM      3  C   UNL A   1      33.895  25.043  24.646  1.00  0.00     0.188 C 
BRANCH   3   4
ATOM      4  O   UNL A   1      33.322  24.670  25.887  1.00  0.00    -0.376 OA
BRANCH   4   5
ATOM      5  C   UNL A   1      31.954  24.475  26.181  1.00  0.00     0.202 C 
BRANCH   5   6
ATOM      6  C   UNL A   1      30.860  24.708  25.145  1.00  0.00     0.261 C 
BRANCH   6   7
ATOM      7  O   UNL A   1      30.322  26.030  25.023  1.00  0.00    -0.463 OA
BRANCH   7   8
ATOM      8  C   UNL A   1      30.987  27.126  24.619  1.00  0.00     0.306 C 
ATOM      9  O   UNL A   1      31.214  27.301  23.425  1.00  0.00    -0.252 OA
BRANCH   8  10
ATOM     10  C   UNL A   1      31.569  28.058  25.648  1.00  0.00     0.126 C 
BRANCH  10  11
ATOM     11  C   UNL A   1      32.283  29.291  25.112  1.00  0.00     0.003 C 
ATOM     12  C   UNL A   1      33.799  29.110  25.167  1.00  0.00     0.026 C 
ATOM     13  C   UNL A   1      31.846  30.508  25.951  1.00  0.00     0.026 C 
ATOM     14  C   UNL A   1      34.271  28.988  26.614  1.00  0.00     0.120 C 
ATOM     15  C   UNL A   1      32.367  30.396  27.382  1.00  0.00     0.120 C 
ATOM     16  N   UNL A   1      33.816  30.155  27.363  1.00  0.00    -0.339 N 
ATOM     17  C   UNL A   1      34.777  31.080  27.748  1.00  0.00     0.253 C 
ATOM     18  O   UNL A   1      35.979  30.956  27.532  1.00  0.00    -0.269 OA
BRANCH  17  19
ATOM     19  C   UNL A   1      34.318  32.316  28.393  1.00  0.00     0.040 A 
ATOM     20  C   UNL A   1      33.623  33.282  27.662  1.00  0.00     0.016 A 
ATOM     21  C   UNL A   1      34.645  32.490  29.742  1.00  0.00     0.024 A 
ATOM     22  C   UNL A   1      33.263  34.489  28.263  1.00  0.00     0.027 A 
ATOM     23  C   UNL A   1      34.269  33.691  30.362  1.00  0.00     0.000 A 
ATOM     24  C   UNL A   1      33.596  34.658  29.613  1.00  0.00     0.045 A 
ATOM     25  C   UNL A   1      34.419  34.200  31.679  1.00  0.00     0.028 A 
ATOM     26  N   UNL A   1      33.356  35.719  30.458  1.00  0.00    -0.361 N 
ATOM     27  C   UNL A   1      33.840  35.445  31.711  1.00  0.00     0.083 A 
ATOM     28  H   UNL A   1      32.903  36.553  30.199  1.00  0.00     0.166 HD
ENDBRANCH  17  19
ENDBRANCH  10  11
ENDBRANCH   8  10
ENDBRANCH   7   8
ENDBRANCH   6   7
ENDBRANCH   5   6
ENDBRANCH   4   5
ENDBRANCH   3   4
ENDBRANCH   2   3
ENDBRANCH   1   2
BRANCH   1  29
ATOM     29  C   UNL A   1      33.402  22.493  23.170  1.00  0.00     0.188 C 
BRANCH  29  30
ATOM     30  C   UNL A   1      33.511  21.599  24.429  1.00  0.00     0.188 C 
BRANCH  30  31
ATOM     31  O   UNL A   1      34.430  20.521  24.520  1.00  0.00    -0.376 OA
BRANCH  31  32
ATOM     32  C   UNL A   1      35.601  20.609  25.313  1.00  0.00     0.202 C 
BRANCH  32  33
ATOM     33  C   UNL A   1      36.980  20.976  24.736  1.00  0.00     0.261 C 
BRANCH  33  34
ATOM     34  O   UNL A   1      37.730  21.964  25.443  1.00  0.00    -0.460 OA
BRANCH  34  35
ATOM     35  C   UNL A   1      38.895  21.552  25.989  1.00  0.00     0.338 C 
ATOM     36  O   UNL A   1      39.434  20.465  25.865  1.00  0.00    -0.246 OA
BRANCH  35  37
ATOM     37  C   UNL A   1      39.547  22.732  26.595  1.00  0.00     0.060 A 
ATOM     38  C   UNL A   1      39.070  24.012  26.264  1.00  0.00     0.016 A 
ATOM     39  C   UNL A   1      40.569  22.576  27.532  1.00  0.00     0.016 A 
ATOM     40  C   UNL A   1      39.613  25.142  26.870  1.00  0.00     0.010 A 
ATOM     41  C   UNL A   1      41.154  23.708  28.093  1.00  0.00     0.010 A 
ATOM     42  C   UNL A   1      40.697  24.992  27.738  1.00  0.00    -0.014 A 
BRANCH  42  43
ATOM     43  C   UNL A   1      41.560  26.152  28.039  1.00  0.00     0.031 A 
ATOM     44  C   UNL A   1      40.987  27.207  28.939  1.00  0.00     0.074 A 
ATOM     45  C   UNL A   1      42.775  26.298  27.491  1.00  0.00     0.049 A 
ATOM     46  N   UNL A   1      41.441  28.399  29.221  1.00  0.00    -0.248 NA
ATOM     47  C   UNL A   1      39.711  26.873  29.596  1.00  0.00     0.031 C 
ATOM     48  C   UNL A   1      43.453  25.317  26.648  1.00  0.00     0.029 A 
ATOM     49  N   UNL A   1      43.638  27.362  27.543  1.00  0.00    -0.354 N 
ATOM     50  C   UNL A   1      40.491  28.967  30.058  1.00  0.00     0.074 A 
ATOM     51  C   UNL A   1      39.431  27.999  30.227  1.00  0.00     0.031 C 
ATOM     52  C   UNL A   1      44.617  25.842  26.227  1.00  0.00     0.029 A 
ATOM     53  C   UNL A   1      44.736  27.210  26.732  1.00  0.00     0.049 A 
ATOM     54  H   UNL A   1      43.487  28.156  28.105  1.00  0.00     0.167 HD
ATOM     55  C   UNL A   1      40.493  30.195  30.623  1.00  0.00     0.031 A 
ATOM     56  C   UNL A   1      45.696  28.095  26.401  1.00  0.00     0.031 A 
ATOM     57  C   UNL A   1      41.532  31.163  30.417  1.00  0.00     0.049 A 
ATOM     58  C   UNL A   1      45.647  29.486  26.978  1.00  0.00     0.074 A 
ATOM     59  C   UNL A   1      41.649  32.431  30.953  1.00  0.00     0.029 A 
ATOM     60  N   UNL A   1      42.629  30.971  29.588  1.00  0.00    -0.354 N 
ATOM     61  N   UNL A   1      44.760  30.015  27.789  1.00  0.00    -0.248 NA
ATOM     62  C   UNL A   1      46.732  30.402  26.596  1.00  0.00     0.031 C 
ATOM     63  C   UNL A   1      42.780  33.034  30.393  1.00  0.00     0.029 A 
ATOM     64  C   UNL A   1      43.411  32.111  29.571  1.00  0.00     0.049 A 
ATOM     65  H   UNL A   1      42.821  30.146  29.086  1.00  0.00     0.167 HD
ATOM     66  C   UNL A   1      45.197  31.311  28.041  1.00  0.00     0.074 A 
ATOM     67  C   UNL A   1      46.429  31.486  27.298  1.00  0.00     0.031 C 
ATOM     68  C   UNL A   1      44.636  32.264  28.825  1.00  0.00     0.031 A 
BRANCH  55  69
ATOM     69  C   UNL A   1      39.293  30.566  31.449  1.00  0.00    -0.014 A 
ATOM     70  C   UNL A   1      38.159  31.166  30.877  1.00  0.00     0.009 A 
ATOM     71  C   UNL A   1      39.315  30.341  32.834  1.00  0.00     0.009 A 
ATOM     72  C   UNL A   1      37.097  31.581  31.683  1.00  0.00     0.001 A 
ATOM     73  C   UNL A   1      38.236  30.723  33.633  1.00  0.00     0.001 A 
ATOM     74  C   UNL A   1      37.135  31.357  33.060  1.00  0.00     0.000 A 
ENDBRANCH  55  69
BRANCH  56  75
ATOM     75  C   UNL A   1      46.761  27.695  25.446  1.00  0.00    -0.014 A 
ATOM     76  C   UNL A   1      47.845  26.911  25.868  1.00  0.00     0.009 A 
ATOM     77  C   UNL A   1      46.681  28.070  24.095  1.00  0.00     0.009 A 
ATOM     78  C   UNL A   1      48.832  26.519  24.959  1.00  0.00     0.001 A 
ATOM     79  C   UNL A   1      47.654  27.653  23.183  1.00  0.00     0.001 A 
ATOM     80  C   UNL A   1      48.730  26.882  23.616  1.00  0.00     0.000 A 
ENDBRANCH  56  75
BRANCH  68  81
ATOM     81  C   UNL A   1      45.367  33.571  28.970  1.00  0.00    -0.014 A 
ATOM     82  C   UNL A   1      46.261  33.803  30.026  1.00  0.00     0.009 A 
ATOM     83  C   UNL A   1      45.217  34.554  27.978  1.00  0.00     0.009 A 
ATOM     84  C   UNL A   1      46.974  35.003  30.095  1.00  0.00     0.001 A 
ATOM     85  C   UNL A   1      45.953  35.737  28.032  1.00  0.00     0.001 A 
ATOM     86  C   UNL A   1      46.825  35.963  29.095  1.00  0.00     0.000 A 
ENDBRANCH  68  81
ENDBRANCH  42  43
ENDBRANCH  35  37
ENDBRANCH  34  35
ENDBRANCH  33  34
ENDBRANCH  32  33
ENDBRANCH  31  32
ENDBRANCH  30  31
ENDBRANCH  29  30
ENDBRANCH   1  29
TORSDOF 22
ENDMDL
MODEL 3
REMARK VINA RESULT:      -9.8      6.530      9.918
REMARK SMILES O=C(CC1CCN(C(=O)c2ccc3[nH]ccc3c2)CC1)OCCOCCOCCOCCOC(=O)c1ccc(-c2c3nc(c(-c4ccccc4)c4ccc([nH]4)c(-c4ccccc4)c4nc(c(-c5ccccc5)c5ccc2[nH]5)C=C4)C=C3)cc1
REMARK SMILES IDX 27 1 26 2 25 3 24 4 23 5 22 6 21 7 2 8 1 9 3 10 4 11 5 12
REMARK SMILES IDX 20 13 6 14 19 15 7 16 8 17 9 18 10 19 11 20 18 21 12 22
REMARK SMILES IDX 17 23 13 24 16 25 14 26 15 27 28 29 29 30 30 31 31 32 32 33
REMARK SMILES IDX 33 34 34 35 35 36 36 37 37 38 83 39 38 40 82 41 39 42 40 43
REMARK SMILES IDX 41 44 76 45 42 46 81 47 75 48 77 49 43 50 80 51 74 52 73 53
REMARK SMILES IDX 44 55 66 56 51 57 65 58 52 59 55 60 64 61 78 62 53 63 54 64
REMARK SMILES IDX 63 66 79 67 56 68 45 69 46 70 50 71 47 72 49 73 48 74 67 75
REMARK SMILES IDX 68 76 72 77 69 78 71 79 70 80 57 81 58 82 62 83 59 84 61 85
REMARK SMILES IDX 60 86
REMARK H PARENT 14 28 77 54 55 65
REMARK Flexibility Score: inf
ROOT
ATOM      1  O   UNL A   1      40.374  20.450  26.573  1.00  0.00    -0.377 OA
ENDROOT
BRANCH   1   2
ATOM      2  C   UNL A   1      40.934  21.530  27.304  1.00  0.00     0.188 C 
BRANCH   2   3
ATOM      3  C   UNL A   1      40.036  22.755  27.495  1.00  0.00     0.188 C 
BRANCH   3   4
ATOM      4  O   UNL A   1      39.362  23.234  26.344  1.00  0.00    -0.376 OA
BRANCH   4   5
ATOM      5  C   UNL A   1      38.029  22.976  25.955  1.00  0.00     0.202 C 
BRANCH   5   6
ATOM      6  C   UNL A   1      37.611  21.657  25.316  1.00  0.00     0.261 C 
BRANCH   6   7
ATOM      7  O   UNL A   1      36.568  21.689  24.334  1.00  0.00    -0.463 OA
BRANCH   7   8
ATOM      8  C   UNL A   1      35.247  21.608  24.572  1.00  0.00     0.306 C 
ATOM      9  O   UNL A   1      34.757  20.550  24.961  1.00  0.00    -0.252 OA
BRANCH   8  10
ATOM     10  C   UNL A   1      34.362  22.774  24.225  1.00  0.00     0.126 C 
BRANCH  10  11
ATOM     11  C   UNL A   1      34.263  23.878  25.270  1.00  0.00     0.003 C 
ATOM     12  C   UNL A   1      33.145  23.584  26.269  1.00  0.00     0.026 C 
ATOM     13  C   UNL A   1      34.011  25.214  24.543  1.00  0.00     0.026 C 
ATOM     14  C   UNL A   1      31.787  23.591  25.570  1.00  0.00     0.120 C 
ATOM     15  C   UNL A   1      32.631  25.224  23.890  1.00  0.00     0.120 C 
ATOM     16  N   UNL A   1      31.611  24.869  24.886  1.00  0.00    -0.339 N 
ATOM     17  C   UNL A   1      30.681  25.752  25.416  1.00  0.00     0.253 C 
ATOM     18  O   UNL A   1      29.978  25.510  26.393  1.00  0.00    -0.269 OA
BRANCH  17  19
ATOM     19  C   UNL A   1      30.582  27.087  24.812  1.00  0.00     0.040 A 
ATOM     20  C   UNL A   1      31.422  28.120  25.233  1.00  0.00     0.016 A 
ATOM     21  C   UNL A   1      29.593  27.275  23.841  1.00  0.00     0.024 A 
ATOM     22  C   UNL A   1      31.266  29.405  24.711  1.00  0.00     0.027 A 
ATOM     23  C   UNL A   1      29.442  28.557  23.295  1.00  0.00     0.000 A 
ATOM     24  C   UNL A   1      30.271  29.587  23.742  1.00  0.00     0.045 A 
ATOM     25  C   UNL A   1      28.576  29.104  22.311  1.00  0.00     0.028 A 
ATOM     26  N   UNL A   1      29.907  30.720  23.049  1.00  0.00    -0.361 N 
ATOM     27  C   UNL A   1      28.891  30.435  22.175  1.00  0.00     0.083 A 
ATOM     28  H   UNL A   1      30.316  31.607  23.166  1.00  0.00     0.166 HD
ENDBRANCH  17  19
ENDBRANCH  10  11
ENDBRANCH   8  10
ENDBRANCH   7   8
ENDBRANCH   6   7
ENDBRANCH   5   6
ENDBRANCH   4   5
ENDBRANCH   3   4
ENDBRANCH   2   3
ENDBRANCH   1   2
BRANCH   1  29
ATOM     29  C   UNL A   1      41.297  19.433  26.231  1.00  0.00     0.188 C 
BRANCH  29  30
ATOM     30  C   UNL A   1      42.779  19.880  26.209  1.00  0.00     0.188 C 
BRANCH  30  31
ATOM     31  O   UNL A   1      43.440  20.265  25.013  1.00  0.00    -0.376 OA
BRANCH  31  32
ATOM     32  C   UNL A   1      44.829  20.543  24.988  1.00  0.00     0.202 C 
BRANCH  32  33
ATOM     33  C   UNL A   1      45.468  21.695  25.783  1.00  0.00     0.261 C 
BRANCH  33  34
ATOM     34  O   UNL A   1      44.584  22.517  26.546  1.00  0.00    -0.460 OA
BRANCH  34  35
ATOM     35  C   UNL A   1      43.903  23.460  25.860  1.00  0.00     0.338 C 
ATOM     36  O   UNL A   1      42.812  23.351  25.324  1.00  0.00    -0.246 OA
BRANCH  35  37
ATOM     37  C   UNL A   1      44.600  24.748  26.057  1.00  0.00     0.060 A 
ATOM     38  C   UNL A   1      44.634  25.669  24.995  1.00  0.00     0.016 A 
ATOM     39  C   UNL A   1      45.150  25.075  27.297  1.00  0.00     0.016 A 
ATOM     40  C   UNL A   1      45.220  26.920  25.168  1.00  0.00     0.010 A 
ATOM     41  C   UNL A   1      45.789  26.303  27.453  1.00  0.00     0.010 A 
ATOM     42  C   UNL A   1      45.851  27.211  26.380  1.00  0.00    -0.014 A 
BRANCH  42  43
ATOM     43  C   UNL A   1      46.838  28.308  26.445  1.00  0.00     0.031 A 
ATOM     44  C   UNL A   1      46.295  29.701  26.570  1.00  0.00     0.074 A 
ATOM     45  C   UNL A   1      48.157  28.089  26.337  1.00  0.00     0.049 A 
ATOM     46  N   UNL A   1      46.911  30.848  26.466  1.00  0.00    -0.248 NA
ATOM     47  C   UNL A   1      44.848  29.810  26.827  1.00  0.00     0.031 C 
ATOM     48  C   UNL A   1      48.799  26.779  26.266  1.00  0.00     0.029 A 
ATOM     49  N   UNL A   1      49.189  28.985  26.233  1.00  0.00    -0.354 N 
ATOM     50  C   UNL A   1      45.922  31.812  26.611  1.00  0.00     0.074 A 
ATOM     51  C   UNL A   1      44.668  31.118  26.795  1.00  0.00     0.031 C 
ATOM     52  C   UNL A   1      50.120  26.958  26.090  1.00  0.00     0.029 A 
ATOM     53  C   UNL A   1      50.401  28.390  25.987  1.00  0.00     0.049 A 
ATOM     54  H   UNL A   1      49.073  29.958  26.324  1.00  0.00     0.167 HD
ATOM     55  C   UNL A   1      46.046  33.157  26.578  1.00  0.00     0.031 A 
ATOM     56  C   UNL A   1      51.588  28.942  25.668  1.00  0.00     0.031 A 
ATOM     57  C   UNL A   1      47.292  33.835  26.355  1.00  0.00     0.049 A 
ATOM     58  C   UNL A   1      51.698  30.441  25.559  1.00  0.00     0.074 A 
ATOM     59  C   UNL A   1      47.540  35.194  26.320  1.00  0.00     0.029 A 
ATOM     60  N   UNL A   1      48.499  33.196  26.110  1.00  0.00    -0.354 N 
ATOM     61  N   UNL A   1      50.767  31.353  25.719  1.00  0.00    -0.248 NA
ATOM     62  C   UNL A   1      53.021  30.988  25.227  1.00  0.00     0.031 C 
ATOM     63  C   UNL A   1      48.884  35.378  25.982  1.00  0.00     0.029 A 
ATOM     64  C   UNL A   1      49.491  34.134  25.889  1.00  0.00     0.049 A 
ATOM     65  H   UNL A   1      48.630  32.220  26.096  1.00  0.00     0.167 HD
ATOM     66  C   UNL A   1      51.397  32.579  25.542  1.00  0.00     0.074 A 
ATOM     67  C   UNL A   1      52.790  32.294  25.263  1.00  0.00     0.031 C 
ATOM     68  C   UNL A   1      50.873  33.828  25.614  1.00  0.00     0.031 A 
BRANCH  55  69
ATOM     69  C   UNL A   1      44.783  33.961  26.710  1.00  0.00    -0.014 A 
ATOM     70  C   UNL A   1      44.051  34.380  25.586  1.00  0.00     0.009 A 
ATOM     71  C   UNL A   1      44.335  34.335  27.986  1.00  0.00     0.009 A 
ATOM     72  C   UNL A   1      42.932  35.201  25.736  1.00  0.00     0.001 A 
ATOM     73  C   UNL A   1      43.194  35.124  28.136  1.00  0.00     0.001 A 
ATOM     74  C   UNL A   1      42.503  35.570  27.011  1.00  0.00     0.000 A 
ENDBRANCH  55  69
BRANCH  56  75
ATOM     75  C   UNL A   1      52.753  28.063  25.392  1.00  0.00    -0.014 A 
ATOM     76  C   UNL A   1      53.045  27.649  24.084  1.00  0.00     0.009 A 
ATOM     77  C   UNL A   1      53.601  27.659  26.437  1.00  0.00     0.009 A 
ATOM     78  C   UNL A   1      54.156  26.840  23.829  1.00  0.00     0.001 A 
ATOM     79  C   UNL A   1      54.727  26.874  26.175  1.00  0.00     0.001 A 
ATOM     80  C   UNL A   1      55.001  26.462  24.872  1.00  0.00     0.000 A 
ENDBRANCH  56  75
BRANCH  68  81
ATOM     81  C   UNL A   1      51.811  34.991  25.443  1.00  0.00    -0.014 A 
ATOM     82  C   UNL A   1      51.903  35.694  24.233  1.00  0.00     0.009 A 
ATOM     83  C   UNL A   1      52.553  35.441  26.549  1.00  0.00     0.009 A 
ATOM     84  C   UNL A   1      52.736  36.811  24.128  1.00  0.00     0.001 A 
ATOM     85  C   UNL A   1      53.359  36.575  26.450  1.00  0.00     0.001 A 
ATOM     86  C   UNL A   1      53.456  37.254  25.237  1.00  0.00     0.000 A 
ENDBRANCH  68  81
ENDBRANCH  42  43
ENDBRANCH  35  37
ENDBRANCH  34  35
ENDBRANCH  33  34
ENDBRANCH  32  33
ENDBRANCH  31  32
ENDBRANCH  30  31
ENDBRANCH  29  30
ENDBRANCH   1  29
TORSDOF 22
ENDMDL
