MODEL 1
REMARK VINA RESULT:      -8.4      0.000      0.000
REMARK SMILES CS(=O)(=O)c1ccc(C2=NN(c3ccc(C(=O)OCCOCCOCCOCCOC(=O)c4ccc(-c5c6nc(c(-c7ccccc7)c7ccc([nH]7)c(-c7ccccc7)c7nc(c(-c8ccccc8)c8ccc5[nH]8)C=C7)C=C6)cc4)cc3)[C@H](c3ccccc3)C2)cc1
REMARK SMILES IDX 23 1 22 2 21 3 20 4 19 5 18 6 16 7 17 8 15 9 12 10 13 11
REMARK SMILES IDX 82 12 14 13 81 14 11 15 9 16 10 17 90 18 83 19 8 20 5 21
REMARK SMILES IDX 6 22 92 23 7 24 91 25 2 26 1 27 3 28 4 29 84 30 85 31 89 32
REMARK SMILES IDX 86 33 88 34 87 35 24 36 25 37 26 38 27 39 28 40 29 41 30 42
REMARK SMILES IDX 31 43 32 44 33 45 34 46 80 47 35 48 79 49 36 50 37 51 38 52
REMARK SMILES IDX 73 53 39 54 78 55 72 56 74 57 40 58 77 59 71 60 70 61 41 63
REMARK SMILES IDX 63 64 48 65 62 66 49 67 52 68 61 69 75 70 50 71 51 72 60 74
REMARK SMILES IDX 76 75 53 76 42 77 43 78 47 79 44 80 46 81 45 82 64 83 65 84
REMARK SMILES IDX 69 85 66 86 68 87 67 88 54 89 55 90 59 91 56 92 58 93 57 94
REMARK H PARENT 74 62 52 73
REMARK Flexibility Score: inf
ROOT
ATOM      1  C   UNL A   1      40.526  26.804  27.469  1.00  0.00     0.188 C 
ENDROOT
BRANCH   1   2
ATOM      2  C   UNL A   1      41.314  27.992  26.880  1.00  0.00     0.188 C 
BRANCH   2   3
ATOM      3  O   UNL A   1      41.990  28.759  27.862  1.00  0.00    -0.376 OA
BRANCH   3   4
ATOM      4  C   UNL A   1      43.090  29.568  27.493  1.00  0.00     0.202 C 
BRANCH   4   5
ATOM      5  C   UNL A   1      44.458  29.382  28.166  1.00  0.00     0.261 C 
BRANCH   5   6
ATOM      6  O   UNL A   1      44.965  28.049  28.216  1.00  0.00    -0.460 OA
BRANCH   6   7
ATOM      7  C   UNL A   1      45.363  27.486  27.056  1.00  0.00     0.338 C 
ATOM      8  O   UNL A   1      46.315  27.823  26.373  1.00  0.00    -0.246 OA
BRANCH   7   9
ATOM      9  C   UNL A   1      44.546  26.266  26.828  1.00  0.00     0.060 A 
ATOM     10  C   UNL A   1      42.913  24.033  26.348  1.00  0.00     0.060 A 
ATOM     11  C   UNL A   1      43.396  24.797  25.280  1.00  0.00     0.029 A 
ATOM     12  C   UNL A   1      43.374  24.319  27.640  1.00  0.00     0.029 A 
ATOM     13  C   UNL A   1      44.204  25.914  25.516  1.00  0.00     0.018 A 
ATOM     14  C   UNL A   1      44.164  25.439  27.889  1.00  0.00     0.018 A 
BRANCH  10  15
ATOM     15  N   UNL A   1      41.866  23.123  26.187  1.00  0.00    -0.257 N 
ATOM     16  C   UNL A   1      39.797  22.637  26.290  1.00  0.00     0.071 C 
ATOM     17  N   UNL A   1      40.620  23.545  25.862  1.00  0.00    -0.176 NA
ATOM     18  C   UNL A   1      40.407  21.547  27.129  1.00  0.00     0.091 C 
ATOM     19  C   UNL A   1      41.899  21.860  26.946  1.00  0.00     0.144 C 
BRANCH  16  20
ATOM     20  C   UNL A   1      38.355  22.657  25.978  1.00  0.00    -0.002 A 
ATOM     21  C   UNL A   1      35.620  22.783  25.452  1.00  0.00     0.067 A 
ATOM     22  C   UNL A   1      36.250  23.856  26.087  1.00  0.00     0.021 A 
ATOM     23  C   UNL A   1      36.347  21.646  25.078  1.00  0.00     0.021 A 
ATOM     24  C   UNL A   1      37.618  23.785  26.357  1.00  0.00     0.011 A 
ATOM     25  C   UNL A   1      37.724  21.590  25.328  1.00  0.00     0.011 A 
BRANCH  21  26
ATOM     26  S   UNL A   1      33.859  22.822  25.197  1.00  0.00     0.175 S 
ATOM     27  C   UNL A   1      33.645  23.753  23.704  1.00  0.00     0.163 C 
ATOM     28  O   UNL A   1      33.273  23.595  26.276  1.00  0.00    -0.224 OA
ATOM     29  O   UNL A   1      33.444  21.457  24.943  1.00  0.00    -0.224 OA
ENDBRANCH  21  26
ENDBRANCH  16  20
BRANCH  19  30
ATOM     30  C   UNL A   1      42.770  20.829  26.233  1.00  0.00    -0.023 A 
ATOM     31  C   UNL A   1      43.972  21.133  25.582  1.00  0.00     0.006 A 
ATOM     32  C   UNL A   1      42.391  19.471  26.301  1.00  0.00     0.006 A 
ATOM     33  C   UNL A   1      44.772  20.118  25.042  1.00  0.00     0.000 A 
ATOM     34  C   UNL A   1      43.214  18.455  25.814  1.00  0.00     0.000 A 
ATOM     35  C   UNL A   1      44.406  18.781  25.180  1.00  0.00     0.000 A 
ENDBRANCH  19  30
ENDBRANCH  10  15
ENDBRANCH   7   9
ENDBRANCH   6   7
ENDBRANCH   5   6
ENDBRANCH   4   5
ENDBRANCH   3   4
ENDBRANCH   2   3
ENDBRANCH   1   2
BRANCH   1  36
ATOM     36  O   UNL A   1      39.248  27.083  28.021  1.00  0.00    -0.377 OA
BRANCH  36  37
ATOM     37  C   UNL A   1      39.152  27.687  29.311  1.00  0.00     0.188 C 
BRANCH  37  38
ATOM     38  C   UNL A   1      37.960  28.583  29.736  1.00  0.00     0.188 C 
BRANCH  38  39
ATOM     39  O   UNL A   1      37.694  29.679  28.880  1.00  0.00    -0.376 OA
BRANCH  39  40
ATOM     40  C   UNL A   1      36.386  29.823  28.359  1.00  0.00     0.202 C 
BRANCH  40  41
ATOM     41  C   UNL A   1      35.899  31.252  28.088  1.00  0.00     0.261 C 
BRANCH  41  42
ATOM     42  O   UNL A   1      36.307  32.248  29.038  1.00  0.00    -0.460 OA
BRANCH  42  43
ATOM     43  C   UNL A   1      35.595  32.343  30.180  1.00  0.00     0.338 C 
ATOM     44  O   UNL A   1      34.381  32.311  30.302  1.00  0.00    -0.246 OA
BRANCH  43  45
ATOM     45  C   UNL A   1      36.552  32.311  31.303  1.00  0.00     0.060 A 
ATOM     46  C   UNL A   1      37.837  32.842  31.126  1.00  0.00     0.016 A 
ATOM     47  C   UNL A   1      36.171  31.770  32.533  1.00  0.00     0.016 A 
ATOM     48  C   UNL A   1      38.759  32.800  32.173  1.00  0.00     0.010 A 
ATOM     49  C   UNL A   1      37.100  31.710  33.573  1.00  0.00     0.010 A 
ATOM     50  C   UNL A   1      38.409  32.194  33.387  1.00  0.00    -0.014 A 
BRANCH  50  51
ATOM     51  C   UNL A   1      39.456  31.884  34.388  1.00  0.00     0.031 A 
ATOM     52  C   UNL A   1      39.652  32.841  35.532  1.00  0.00     0.074 A 
ATOM     53  C   UNL A   1      40.211  30.776  34.297  1.00  0.00     0.049 A 
ATOM     54  N   UNL A   1      40.537  32.815  36.496  1.00  0.00    -0.248 NA
ATOM     55  C   UNL A   1      38.727  33.985  35.593  1.00  0.00     0.031 C 
ATOM     56  C   UNL A   1      40.088  29.746  33.267  1.00  0.00     0.029 A 
ATOM     57  N   UNL A   1      41.245  30.340  35.089  1.00  0.00    -0.354 N 
ATOM     58  C   UNL A   1      40.281  33.941  37.269  1.00  0.00     0.074 A 
ATOM     59  C   UNL A   1      39.181  34.645  36.646  1.00  0.00     0.031 C 
ATOM     60  C   UNL A   1      41.017  28.799  33.487  1.00  0.00     0.029 A 
ATOM     61  C   UNL A   1      41.825  29.178  34.646  1.00  0.00     0.049 A 
ATOM     62  H   UNL A   1      41.541  30.817  35.899  1.00  0.00     0.167 HD
ATOM     63  C   UNL A   1      40.903  34.352  38.399  1.00  0.00     0.031 A 
ATOM     64  C   UNL A   1      42.900  28.510  35.109  1.00  0.00     0.031 A 
ATOM     65  C   UNL A   1      42.010  33.663  39.006  1.00  0.00     0.049 A 
ATOM     66  C   UNL A   1      43.635  29.037  36.316  1.00  0.00     0.074 A 
ATOM     67  C   UNL A   1      42.700  33.993  40.159  1.00  0.00     0.029 A 
ATOM     68  N   UNL A   1      42.594  32.513  38.503  1.00  0.00    -0.354 N 
ATOM     69  N   UNL A   1      43.369  30.087  37.055  1.00  0.00    -0.248 NA
ATOM     70  C   UNL A   1      44.815  28.279  36.755  1.00  0.00     0.031 C 
ATOM     71  C   UNL A   1      43.747  33.079  40.315  1.00  0.00     0.029 A 
ATOM     72  C   UNL A   1      43.660  32.136  39.302  1.00  0.00     0.049 A 
ATOM     73  H   UNL A   1      42.297  32.033  37.696  1.00  0.00     0.167 HD
ATOM     74  C   UNL A   1      44.325  30.097  38.063  1.00  0.00     0.074 A 
ATOM     75  C   UNL A   1      45.169  28.938  37.849  1.00  0.00     0.031 C 
ATOM     76  C   UNL A   1      44.490  30.980  39.078  1.00  0.00     0.031 A 
BRANCH  63  77
ATOM     77  C   UNL A   1      40.425  35.634  39.025  1.00  0.00    -0.014 A 
ATOM     78  C   UNL A   1      41.170  36.820  38.927  1.00  0.00     0.009 A 
ATOM     79  C   UNL A   1      39.195  35.660  39.701  1.00  0.00     0.009 A 
ATOM     80  C   UNL A   1      40.710  37.995  39.525  1.00  0.00     0.001 A 
ATOM     81  C   UNL A   1      38.722  36.843  40.269  1.00  0.00     0.001 A 
ATOM     82  C   UNL A   1      39.484  38.008  40.189  1.00  0.00     0.000 A 
ENDBRANCH  63  77
BRANCH  64  83
ATOM     83  C   UNL A   1      43.372  27.279  34.419  1.00  0.00    -0.014 A 
ATOM     84  C   UNL A   1      43.051  26.007  34.919  1.00  0.00     0.009 A 
ATOM     85  C   UNL A   1      44.176  27.370  33.272  1.00  0.00     0.009 A 
ATOM     86  C   UNL A   1      43.547  24.856  34.301  1.00  0.00     0.001 A 
ATOM     87  C   UNL A   1      44.643  26.217  32.637  1.00  0.00     0.001 A 
ATOM     88  C   UNL A   1      44.338  24.962  33.159  1.00  0.00     0.000 A 
ENDBRANCH  64  83
BRANCH  76  89
ATOM     89  C   UNL A   1      45.593  30.709  40.065  1.00  0.00    -0.014 A 
ATOM     90  C   UNL A   1      46.880  31.241  39.896  1.00  0.00     0.009 A 
ATOM     91  C   UNL A   1      45.322  29.942  41.212  1.00  0.00     0.009 A 
ATOM     92  C   UNL A   1      47.882  30.981  40.834  1.00  0.00     0.001 A 
ATOM     93  C   UNL A   1      46.315  29.714  42.165  1.00  0.00     0.001 A 
ATOM     94  C   UNL A   1      47.597  30.224  41.971  1.00  0.00     0.000 A 
ENDBRANCH  76  89
ENDBRANCH  50  51
ENDBRANCH  43  45
ENDBRANCH  42  43
ENDBRANCH  41  42
ENDBRANCH  40  41
ENDBRANCH  39  40
ENDBRANCH  38  39
ENDBRANCH  37  38
ENDBRANCH  36  37
ENDBRANCH   1  36
TORSDOF 24
ENDMDL
MODEL 2
REMARK VINA RESULT:      -8.1      1.561      2.206
REMARK SMILES CS(=O)(=O)c1ccc(C2=NN(c3ccc(C(=O)OCCOCCOCCOCCOC(=O)c4ccc(-c5c6nc(c(-c7ccccc7)c7ccc([nH]7)c(-c7ccccc7)c7nc(c(-c8ccccc8)c8ccc5[nH]8)C=C7)C=C6)cc4)cc3)[C@H](c3ccccc3)C2)cc1
REMARK SMILES IDX 23 1 22 2 21 3 20 4 19 5 18 6 16 7 17 8 15 9 12 10 13 11
REMARK SMILES IDX 82 12 14 13 81 14 11 15 9 16 10 17 90 18 83 19 8 20 5 21
REMARK SMILES IDX 6 22 92 23 7 24 91 25 2 26 1 27 3 28 4 29 84 30 85 31 89 32
REMARK SMILES IDX 86 33 88 34 87 35 24 36 25 37 26 38 27 39 28 40 29 41 30 42
REMARK SMILES IDX 31 43 32 44 33 45 34 46 80 47 35 48 79 49 36 50 37 51 38 52
REMARK SMILES IDX 73 53 39 54 78 55 72 56 74 57 40 58 77 59 71 60 70 61 41 63
REMARK SMILES IDX 63 64 48 65 62 66 49 67 52 68 61 69 75 70 50 71 51 72 60 74
REMARK SMILES IDX 76 75 53 76 42 77 43 78 47 79 44 80 46 81 45 82 64 83 65 84
REMARK SMILES IDX 69 85 66 86 68 87 67 88 54 89 55 90 59 91 56 92 58 93 57 94
REMARK H PARENT 74 62 52 73
REMARK Flexibility Score: inf
ROOT
ATOM      1  C   UNL A   1      41.272  27.207  27.070  1.00  0.00     0.188 C 
ENDROOT
BRANCH   1   2
ATOM      2  C   UNL A   1      42.530  28.031  26.730  1.00  0.00     0.188 C 
BRANCH   2   3
ATOM      3  O   UNL A   1      43.294  28.384  27.871  1.00  0.00    -0.376 OA
BRANCH   3   4
ATOM      4  C   UNL A   1      44.705  28.282  27.835  1.00  0.00     0.202 C 
BRANCH   4   5
ATOM      5  C   UNL A   1      45.512  28.130  29.134  1.00  0.00     0.261 C 
BRANCH   5   6
ATOM      6  O   UNL A   1      45.079  27.112  30.035  1.00  0.00    -0.460 OA
BRANCH   6   7
ATOM      7  C   UNL A   1      45.740  25.935  30.013  1.00  0.00     0.338 C 
ATOM      8  O   UNL A   1      46.771  25.669  30.607  1.00  0.00    -0.246 OA
BRANCH   7   9
ATOM      9  C   UNL A   1      44.908  24.948  29.277  1.00  0.00     0.060 A 
ATOM     10  C   UNL A   1      43.310  23.175  27.800  1.00  0.00     0.060 A 
ATOM     11  C   UNL A   1      44.471  23.713  27.237  1.00  0.00     0.029 A 
ATOM     12  C   UNL A   1      43.039  23.426  29.152  1.00  0.00     0.029 A 
ATOM     13  C   UNL A   1      45.267  24.603  27.968  1.00  0.00     0.018 A 
ATOM     14  C   UNL A   1      43.814  24.324  29.884  1.00  0.00     0.018 A 
BRANCH  10  15
ATOM     15  N   UNL A   1      42.334  22.550  27.019  1.00  0.00    -0.257 N 
ATOM     16  C   UNL A   1      40.293  22.167  26.555  1.00  0.00     0.071 C 
ATOM     17  N   UNL A   1      41.124  23.128  26.824  1.00  0.00    -0.176 NA
ATOM     18  C   UNL A   1      40.836  20.773  26.712  1.00  0.00     0.091 C 
ATOM     19  C   UNL A   1      42.324  21.079  26.937  1.00  0.00     0.144 C 
BRANCH  16  20
ATOM     20  C   UNL A   1      38.905  22.412  26.118  1.00  0.00    -0.002 A 
ATOM     21  C   UNL A   1      36.283  22.968  25.351  1.00  0.00     0.067 A 
ATOM     22  C   UNL A   1      37.040  23.957  25.983  1.00  0.00     0.021 A 
ATOM     23  C   UNL A   1      36.826  21.702  25.101  1.00  0.00     0.021 A 
ATOM     24  C   UNL A   1      38.350  23.672  26.374  1.00  0.00     0.011 A 
ATOM     25  C   UNL A   1      38.149  21.428  25.472  1.00  0.00     0.011 A 
BRANCH  21  26
ATOM     26  S   UNL A   1      34.580  23.289  24.943  1.00  0.00     0.175 S 
ATOM     27  C   UNL A   1      33.748  23.332  26.507  1.00  0.00     0.163 C 
ATOM     28  O   UNL A   1      34.076  22.139  24.216  1.00  0.00    -0.224 OA
ATOM     29  O   UNL A   1      34.533  24.618  24.367  1.00  0.00    -0.224 OA
ENDBRANCH  21  26
ENDBRANCH  16  20
BRANCH  19  30
ATOM     30  C   UNL A   1      43.325  20.593  25.893  1.00  0.00    -0.023 A 
ATOM     31  C   UNL A   1      44.124  21.443  25.118  1.00  0.00     0.006 A 
ATOM     32  C   UNL A   1      43.526  19.203  25.753  1.00  0.00     0.006 A 
ATOM     33  C   UNL A   1      45.099  20.923  24.257  1.00  0.00     0.000 A 
ATOM     34  C   UNL A   1      44.533  18.686  24.938  1.00  0.00     0.000 A 
ATOM     35  C   UNL A   1      45.319  19.550  24.186  1.00  0.00     0.000 A 
ENDBRANCH  19  30
ENDBRANCH  10  15
ENDBRANCH   7   9
ENDBRANCH   6   7
ENDBRANCH   5   6
ENDBRANCH   4   5
ENDBRANCH   3   4
ENDBRANCH   2   3
ENDBRANCH   1   2
BRANCH   1  36
ATOM     36  O   UNL A   1      40.071  27.925  27.308  1.00  0.00    -0.377 OA
BRANCH  36  37
ATOM     37  C   UNL A   1      39.379  27.757  28.545  1.00  0.00     0.188 C 
BRANCH  37  38
ATOM     38  C   UNL A   1      38.305  28.753  29.053  1.00  0.00     0.188 C 
BRANCH  38  39
ATOM     39  O   UNL A   1      38.321  30.025  28.431  1.00  0.00    -0.376 OA
BRANCH  39  40
ATOM     40  C   UNL A   1      37.084  30.620  28.087  1.00  0.00     0.202 C 
BRANCH  40  41
ATOM     41  C   UNL A   1      36.737  31.950  28.769  1.00  0.00     0.261 C 
BRANCH  41  42
ATOM     42  O   UNL A   1      37.318  32.163  30.064  1.00  0.00    -0.460 OA
BRANCH  42  43
ATOM     43  C   UNL A   1      36.735  31.549  31.114  1.00  0.00     0.338 C 
ATOM     44  O   UNL A   1      35.616  31.062  31.161  1.00  0.00    -0.246 OA
BRANCH  43  45
ATOM     45  C   UNL A   1      37.760  31.397  32.165  1.00  0.00     0.060 A 
ATOM     46  C   UNL A   1      39.108  31.604  31.844  1.00  0.00     0.016 A 
ATOM     47  C   UNL A   1      37.383  31.067  33.469  1.00  0.00     0.016 A 
ATOM     48  C   UNL A   1      40.090  31.444  32.824  1.00  0.00     0.010 A 
ATOM     49  C   UNL A   1      38.367  30.887  34.442  1.00  0.00     0.010 A 
ATOM     50  C   UNL A   1      39.727  31.042  34.116  1.00  0.00    -0.014 A 
BRANCH  50  51
ATOM     51  C   UNL A   1      40.767  30.590  35.069  1.00  0.00     0.031 A 
ATOM     52  C   UNL A   1      41.172  31.524  36.177  1.00  0.00     0.074 A 
ATOM     53  C   UNL A   1      41.337  29.377  34.966  1.00  0.00     0.049 A 
ATOM     54  N   UNL A   1      42.093  31.376  37.094  1.00  0.00    -0.248 NA
ATOM     55  C   UNL A   1      40.438  32.798  36.258  1.00  0.00     0.031 C 
ATOM     56  C   UNL A   1      41.000  28.362  33.970  1.00  0.00     0.029 A 
ATOM     57  N   UNL A   1      42.333  28.799  35.715  1.00  0.00    -0.354 N 
ATOM     58  C   UNL A   1      42.056  32.541  37.851  1.00  0.00     0.074 A 
ATOM     59  C   UNL A   1      41.046  33.397  37.269  1.00  0.00     0.031 C 
ATOM     60  C   UNL A   1      41.783  27.286  34.165  1.00  0.00     0.029 A 
ATOM     61  C   UNL A   1      42.701  27.553  35.271  1.00  0.00     0.049 A 
ATOM     62  H   UNL A   1      42.743  29.237  36.496  1.00  0.00     0.167 HD
ATOM     63  C   UNL A   1      42.795  32.869  38.937  1.00  0.00     0.031 A 
ATOM     64  C   UNL A   1      43.684  26.735  35.695  1.00  0.00     0.031 A 
ATOM     65  C   UNL A   1      43.814  32.027  39.503  1.00  0.00     0.049 A 
ATOM     66  C   UNL A   1      44.557  27.161  36.849  1.00  0.00     0.074 A 
ATOM     67  C   UNL A   1      44.610  32.264  40.611  1.00  0.00     0.029 A 
ATOM     68  N   UNL A   1      44.186  30.792  38.999  1.00  0.00    -0.354 N 
ATOM     69  N   UNL A   1      44.497  28.252  37.574  1.00  0.00    -0.248 NA
ATOM     70  C   UNL A   1      45.629  26.236  37.245  1.00  0.00     0.031 C 
ATOM     71  C   UNL A   1      45.510  31.202  40.735  1.00  0.00     0.029 A 
ATOM     72  C   UNL A   1      45.223  30.268  39.752  1.00  0.00     0.049 A 
ATOM     73  H   UNL A   1      43.774  30.351  38.221  1.00  0.00     0.167 HD
ATOM     74  C   UNL A   1      45.498  28.129  38.531  1.00  0.00     0.074 A 
ATOM     75  C   UNL A   1      46.139  26.850  38.303  1.00  0.00     0.031 C 
ATOM     76  C   UNL A   1      45.852  28.993  39.514  1.00  0.00     0.031 A 
BRANCH  63  77
ATOM     77  C   UNL A   1      42.556  34.219  39.555  1.00  0.00    -0.014 A 
ATOM     78  C   UNL A   1      41.632  34.396  40.597  1.00  0.00     0.009 A 
ATOM     79  C   UNL A   1      43.287  35.329  39.103  1.00  0.00     0.009 A 
ATOM     80  C   UNL A   1      41.420  35.662  41.148  1.00  0.00     0.001 A 
ATOM     81  C   UNL A   1      43.098  36.586  39.677  1.00  0.00     0.001 A 
ATOM     82  C   UNL A   1      42.158  36.755  40.692  1.00  0.00     0.000 A 
ENDBRANCH  63  77
BRANCH  64  83
ATOM     83  C   UNL A   1      43.922  25.433  35.012  1.00  0.00    -0.014 A 
ATOM     84  C   UNL A   1      43.285  24.263  35.453  1.00  0.00     0.009 A 
ATOM     85  C   UNL A   1      44.816  25.350  33.933  1.00  0.00     0.009 A 
ATOM     86  C   UNL A   1      43.559  23.035  34.847  1.00  0.00     0.001 A 
ATOM     87  C   UNL A   1      45.063  24.126  33.306  1.00  0.00     0.001 A 
ATOM     88  C   UNL A   1      44.443  22.968  33.772  1.00  0.00     0.000 A 
ENDBRANCH  64  83
BRANCH  76  89
ATOM     89  C   UNL A   1      46.952  28.570  40.449  1.00  0.00    -0.014 A 
ATOM     90  C   UNL A   1      46.685  27.847  41.621  1.00  0.00     0.009 A 
ATOM     91  C   UNL A   1      48.288  28.861  40.122  1.00  0.00     0.009 A 
ATOM     92  C   UNL A   1      47.728  27.457  42.465  1.00  0.00     0.001 A 
ATOM     93  C   UNL A   1      49.330  28.440  40.949  1.00  0.00     0.001 A 
ATOM     94  C   UNL A   1      49.049  27.748  42.125  1.00  0.00     0.000 A 
ENDBRANCH  76  89
ENDBRANCH  50  51
ENDBRANCH  43  45
ENDBRANCH  42  43
ENDBRANCH  41  42
ENDBRANCH  40  41
ENDBRANCH  39  40
ENDBRANCH  38  39
ENDBRANCH  37  38
ENDBRANCH  36  37
ENDBRANCH   1  36
TORSDOF 24
ENDMDL
MODEL 3
REMARK VINA RESULT:      -8.0     11.447     14.818
REMARK SMILES CS(=O)(=O)c1ccc(C2=NN(c3ccc(C(=O)OCCOCCOCCOCCOC(=O)c4ccc(-c5c6nc(c(-c7ccccc7)c7ccc([nH]7)c(-c7ccccc7)c7nc(c(-c8ccccc8)c8ccc5[nH]8)C=C7)C=C6)cc4)cc3)[C@H](c3ccccc3)C2)cc1
REMARK SMILES IDX 23 1 22 2 21 3 20 4 19 5 18 6 16 7 17 8 15 9 12 10 13 11
REMARK SMILES IDX 82 12 14 13 81 14 11 15 9 16 10 17 90 18 83 19 8 20 5 21
REMARK SMILES IDX 6 22 92 23 7 24 91 25 2 26 1 27 3 28 4 29 84 30 85 31 89 32
REMARK SMILES IDX 86 33 88 34 87 35 24 36 25 37 26 38 27 39 28 40 29 41 30 42
REMARK SMILES IDX 31 43 32 44 33 45 34 46 80 47 35 48 79 49 36 50 37 51 38 52
REMARK SMILES IDX 73 53 39 54 78 55 72 56 74 57 40 58 77 59 71 60 70 61 41 63
REMARK SMILES IDX 63 64 48 65 62 66 49 67 52 68 61 69 75 70 50 71 51 72 60 74
REMARK SMILES IDX 76 75 53 76 42 77 43 78 47 79 44 80 46 81 45 82 64 83 65 84
REMARK SMILES IDX 69 85 66 86 68 87 67 88 54 89 55 90 59 91 56 92 58 93 57 94
REMARK H PARENT 74 62 52 73
REMARK Flexibility Score: inf
ROOT
ATOM      1  C   UNL A   1      42.401  37.847  27.320  1.00  0.00     0.188 C 
ENDROOT
BRANCH   1   2
ATOM      2  C   UNL A   1      43.433  37.416  28.382  1.00  0.00     0.188 C 
BRANCH   2   3
ATOM      3  O   UNL A   1      43.381  36.033  28.686  1.00  0.00    -0.376 OA
BRANCH   3   4
ATOM      4  C   UNL A   1      42.215  35.481  29.266  1.00  0.00     0.202 C 
BRANCH   4   5
ATOM      5  C   UNL A   1      42.317  34.466  30.414  1.00  0.00     0.261 C 
BRANCH   5   6
ATOM      6  O   UNL A   1      41.739  33.182  30.181  1.00  0.00    -0.460 OA
BRANCH   6   7
ATOM      7  C   UNL A   1      41.042  32.617  31.189  1.00  0.00     0.338 C 
ATOM      8  O   UNL A   1      41.489  32.237  32.258  1.00  0.00    -0.246 OA
BRANCH   7   9
ATOM      9  C   UNL A   1      39.596  32.688  30.852  1.00  0.00     0.060 A 
ATOM     10  C   UNL A   1      36.871  32.702  30.179  1.00  0.00     0.060 A 
ATOM     11  C   UNL A   1      37.339  31.881  31.210  1.00  0.00     0.029 A 
ATOM     12  C   UNL A   1      37.759  33.613  29.591  1.00  0.00     0.029 A 
ATOM     13  C   UNL A   1      38.698  31.866  31.544  1.00  0.00     0.018 A 
ATOM     14  C   UNL A   1      39.116  33.595  29.902  1.00  0.00     0.018 A 
BRANCH  10  15
ATOM     15  N   UNL A   1      35.610  32.520  29.608  1.00  0.00    -0.257 N 
ATOM     16  C   UNL A   1      34.351  31.655  28.125  1.00  0.00     0.071 C 
ATOM     17  N   UNL A   1      35.296  31.367  28.967  1.00  0.00    -0.176 NA
ATOM     18  C   UNL A   1      34.032  33.119  27.979  1.00  0.00     0.091 C 
ATOM     19  C   UNL A   1      34.868  33.700  29.128  1.00  0.00     0.144 C 
BRANCH  16  20
ATOM     20  C   UNL A   1      33.627  30.625  27.355  1.00  0.00    -0.002 A 
ATOM     21  C   UNL A   1      32.350  28.619  25.900  1.00  0.00     0.067 A 
ATOM     22  C   UNL A   1      33.605  28.371  26.461  1.00  0.00     0.021 A 
ATOM     23  C   UNL A   1      31.729  29.864  26.061  1.00  0.00     0.021 A 
ATOM     24  C   UNL A   1      34.246  29.382  27.181  1.00  0.00     0.011 A 
ATOM     25  C   UNL A   1      32.363  30.866  26.806  1.00  0.00     0.011 A 
BRANCH  21  26
ATOM     26  S   UNL A   1      31.573  27.373  24.894  1.00  0.00     0.175 S 
ATOM     27  C   UNL A   1      30.758  26.309  26.054  1.00  0.00     0.163 C 
ATOM     28  O   UNL A   1      32.624  26.598  24.261  1.00  0.00    -0.224 OA
ATOM     29  O   UNL A   1      30.560  28.045  24.106  1.00  0.00    -0.224 OA
ENDBRANCH  21  26
ENDBRANCH  16  20
BRANCH  19  30
ATOM     30  C   UNL A   1      34.135  34.376  30.283  1.00  0.00    -0.023 A 
ATOM     31  C   UNL A   1      34.391  34.117  31.635  1.00  0.00     0.006 A 
ATOM     32  C   UNL A   1      33.198  35.388  29.980  1.00  0.00     0.006 A 
ATOM     33  C   UNL A   1      33.754  34.855  32.640  1.00  0.00     0.000 A 
ATOM     34  C   UNL A   1      32.605  36.161  30.978  1.00  0.00     0.000 A 
ATOM     35  C   UNL A   1      32.883  35.891  32.312  1.00  0.00     0.000 A 
ENDBRANCH  19  30
ENDBRANCH  10  15
ENDBRANCH   7   9
ENDBRANCH   6   7
ENDBRANCH   5   6
ENDBRANCH   4   5
ENDBRANCH   3   4
ENDBRANCH   2   3
ENDBRANCH   1   2
BRANCH   1  36
ATOM     36  O   UNL A   1      41.885  39.167  27.414  1.00  0.00    -0.377 OA
BRANCH  36  37
ATOM     37  C   UNL A   1      42.447  40.204  26.612  1.00  0.00     0.188 C 
BRANCH  37  38
ATOM     38  C   UNL A   1      41.598  41.092  25.665  1.00  0.00     0.188 C 
BRANCH  38  39
ATOM     39  O   UNL A   1      42.326  41.756  24.648  1.00  0.00    -0.376 OA
BRANCH  39  40
ATOM     40  C   UNL A   1      41.731  41.883  23.370  1.00  0.00     0.202 C 
BRANCH  40  41
ATOM     41  C   UNL A   1      42.489  42.718  22.330  1.00  0.00     0.261 C 
BRANCH  41  42
ATOM     42  O   UNL A   1      43.915  42.560  22.313  1.00  0.00    -0.460 OA
BRANCH  42  43
ATOM     43  C   UNL A   1      44.662  43.677  22.204  1.00  0.00     0.338 C 
ATOM     44  O   UNL A   1      44.605  44.526  21.327  1.00  0.00    -0.246 OA
BRANCH  43  45
ATOM     45  C   UNL A   1      45.454  43.805  23.443  1.00  0.00     0.060 A 
ATOM     46  C   UNL A   1      46.128  42.683  23.945  1.00  0.00     0.016 A 
ATOM     47  C   UNL A   1      45.541  45.036  24.096  1.00  0.00     0.016 A 
ATOM     48  C   UNL A   1      46.864  42.784  25.126  1.00  0.00     0.010 A 
ATOM     49  C   UNL A   1      46.260  45.131  25.289  1.00  0.00     0.010 A 
ATOM     50  C   UNL A   1      46.897  43.997  25.827  1.00  0.00    -0.014 A 
BRANCH  50  51
ATOM     51  C   UNL A   1      47.422  44.037  27.212  1.00  0.00     0.031 A 
ATOM     52  C   UNL A   1      48.866  44.405  27.415  1.00  0.00     0.074 A 
ATOM     53  C   UNL A   1      46.639  43.765  28.270  1.00  0.00     0.049 A 
ATOM     54  N   UNL A   1      49.565  44.454  28.521  1.00  0.00    -0.248 NA
ATOM     55  C   UNL A   1      49.625  44.765  26.205  1.00  0.00     0.031 C 
ATOM     56  C   UNL A   1      45.214  43.443  28.211  1.00  0.00     0.029 A 
ATOM     57  N   UNL A   1      46.944  43.709  29.608  1.00  0.00    -0.354 N 
ATOM     58  C   UNL A   1      50.845  44.836  28.137  1.00  0.00     0.074 A 
ATOM     59  C   UNL A   1      50.835  44.977  26.698  1.00  0.00     0.031 C 
ATOM     60  C   UNL A   1      44.770  43.216  29.460  1.00  0.00     0.029 A 
ATOM     61  C   UNL A   1      45.885  43.336  30.398  1.00  0.00     0.049 A 
ATOM     62  H   UNL A   1      47.837  43.918  29.965  1.00  0.00     0.167 HD
ATOM     63  C   UNL A   1      51.931  45.056  28.914  1.00  0.00     0.031 A 
ATOM     64  C   UNL A   1      45.831  43.095  31.723  1.00  0.00     0.031 A 
ATOM     65  C   UNL A   1      51.946  44.895  30.343  1.00  0.00     0.049 A 
ATOM     66  C   UNL A   1      47.078  43.256  32.556  1.00  0.00     0.074 A 
ATOM     67  C   UNL A   1      52.995  45.106  31.222  1.00  0.00     0.029 A 
ATOM     68  N   UNL A   1      50.865  44.475  31.101  1.00  0.00    -0.354 N 
ATOM     69  N   UNL A   1      48.276  43.644  32.189  1.00  0.00    -0.248 NA
ATOM     70  C   UNL A   1      46.960  42.952  33.989  1.00  0.00     0.031 C 
ATOM     71  C   UNL A   1      52.566  44.746  32.504  1.00  0.00     0.029 A 
ATOM     72  C   UNL A   1      51.229  44.386  32.434  1.00  0.00     0.049 A 
ATOM     73  H   UNL A   1      49.970  44.270  30.745  1.00  0.00     0.167 HD
ATOM     74  C   UNL A   1      49.043  43.663  33.348  1.00  0.00     0.074 A 
ATOM     75  C   UNL A   1      48.170  43.262  34.432  1.00  0.00     0.031 C 
ATOM     76  C   UNL A   1      50.350  43.987  33.503  1.00  0.00     0.031 A 
BRANCH  63  77
ATOM     77  C   UNL A   1      53.208  45.448  28.223  1.00  0.00    -0.014 A 
ATOM     78  C   UNL A   1      53.576  46.795  28.072  1.00  0.00     0.009 A 
ATOM     79  C   UNL A   1      54.070  44.452  27.739  1.00  0.00     0.009 A 
ATOM     80  C   UNL A   1      54.763  47.134  27.418  1.00  0.00     0.001 A 
ATOM     81  C   UNL A   1      55.270  44.793  27.115  1.00  0.00     0.001 A 
ATOM     82  C   UNL A   1      55.612  46.134  26.946  1.00  0.00     0.000 A 
ENDBRANCH  63  77
BRANCH  64  83
ATOM     83  C   UNL A   1      44.558  42.650  32.352  1.00  0.00    -0.014 A 
ATOM     84  C   UNL A   1      43.654  43.582  32.884  1.00  0.00     0.009 A 
ATOM     85  C   UNL A   1      44.256  41.282  32.452  1.00  0.00     0.009 A 
ATOM     86  C   UNL A   1      42.490  43.154  33.526  1.00  0.00     0.001 A 
ATOM     87  C   UNL A   1      43.075  40.858  33.066  1.00  0.00     0.001 A 
ATOM     88  C   UNL A   1      42.199  41.794  33.613  1.00  0.00     0.000 A 
ENDBRANCH  64  83
BRANCH  76  89
ATOM     89  C   UNL A   1      50.910  43.969  34.900  1.00  0.00    -0.014 A 
ATOM     90  C   UNL A   1      51.530  42.827  35.430  1.00  0.00     0.009 A 
ATOM     91  C   UNL A   1      50.856  45.135  35.682  1.00  0.00     0.009 A 
ATOM     92  C   UNL A   1      52.050  42.843  36.726  1.00  0.00     0.001 A 
ATOM     93  C   UNL A   1      51.408  45.158  36.963  1.00  0.00     0.001 A 
ATOM     94  C   UNL A   1      51.995  44.010  37.489  1.00  0.00     0.000 A 
ENDBRANCH  76  89
ENDBRANCH  50  51
ENDBRANCH  43  45
ENDBRANCH  42  43
ENDBRANCH  41  42
ENDBRANCH  40  41
ENDBRANCH  39  40
ENDBRANCH  38  39
ENDBRANCH  37  38
ENDBRANCH  36  37
ENDBRANCH   1  36
TORSDOF 24
ENDMDL
