MODEL 1
REMARK VINA RESULT:     -12.4      0.000      0.000
REMARK SMILES COC(=O)c1ccc(C)c(NC(=O)[C@H]2CC=CC[C@H]2C(=O)OCCOCCOCCOCCOC(=O)c2ccc(-c3c4nc(c(-c5ccccc5)c5ccc([nH]5)c(-c5ccccc5)c5nc(c(-c6ccccc6)c6ccc3[nH]6)C=C5)C=C4)cc2)c1
REMARK SMILES IDX 27 1 26 2 25 3 24 4 23 5 22 6 20 7 21 8 19 9 14 10 15 11
REMARK SMILES IDX 16 12 18 13 17 14 12 15 11 16 13 18 10 19 5 20 6 21 85 22
REMARK SMILES IDX 7 23 8 24 9 25 3 26 4 27 2 28 1 29 28 30 29 31 30 32 31 33
REMARK SMILES IDX 32 34 33 35 34 36 35 37 36 38 37 39 38 40 84 41 39 42 83 43
REMARK SMILES IDX 40 44 41 45 42 46 77 47 43 48 82 49 76 50 78 51 44 52 81 53
REMARK SMILES IDX 75 54 74 55 45 57 67 58 52 59 66 60 53 61 56 62 65 63 79 64
REMARK SMILES IDX 54 65 55 66 64 68 80 69 57 70 46 71 47 72 51 73 48 74 50 75
REMARK SMILES IDX 49 76 68 77 69 78 73 79 70 80 72 81 71 82 58 83 59 84 63 85
REMARK SMILES IDX 60 86 62 87 61 88
REMARK H PARENT 11 17 78 56 56 67
REMARK Flexibility Score: inf
ROOT
ATOM      1  C   UNL A   1      33.354  35.477  29.099  1.00  0.00     0.188 C 
ENDROOT
BRANCH   1   2
ATOM      2  C   UNL A   1      34.265  34.539  27.890  1.00  0.00     0.188 C 
BRANCH   2   3
ATOM      3  O   UNL A   1      34.503  33.066  27.655  1.00  0.00    -0.376 OA
BRANCH   3   4
ATOM      4  C   UNL A   1      33.705  31.935  28.141  1.00  0.00     0.202 C 
BRANCH   4   5
ATOM      5  C   UNL A   1      33.317  30.725  26.889  1.00  0.00     0.261 C 
BRANCH   5   6
ATOM      6  O   UNL A   1      31.941  30.123  26.611  1.00  0.00    -0.463 OA
BRANCH   6   7
ATOM      7  C   UNL A   1      31.526  29.791  25.366  1.00  0.00     0.310 C 
ATOM      8  O   UNL A   1      30.721  30.497  24.771  1.00  0.00    -0.252 OA
BRANCH   7   9
ATOM      9  C   UNL A   1      32.134  28.450  24.742  1.00  0.00     0.116 C 
ATOM     10  C   UNL A   1      32.793  27.092  25.469  1.00  0.00     0.097 C 
ATOM     11  C   UNL A   1      33.892  26.655  24.412  1.00  0.00     0.041 C 
ATOM     12  C   UNL A   1      33.511  26.771  22.951  1.00  0.00    -0.030 C 
ATOM     13  C   UNL A   1      31.471  28.137  23.402  1.00  0.00     0.043 C 
ATOM     14  C   UNL A   1      32.415  27.399  22.500  1.00  0.00    -0.030 C 
BRANCH  10  15
ATOM     15  C   UNL A   1      32.071  25.633  26.206  1.00  0.00     0.228 C 
ATOM     16  N   UNL A   1      32.142  24.182  26.020  1.00  0.00    -0.326 N 
ATOM     17  H   UNL A   1      31.260  23.791  26.217  1.00  0.00     0.169 HD
ATOM     18  O   UNL A   1      31.147  25.904  27.013  1.00  0.00    -0.274 OA
BRANCH  16  19
ATOM     19  C   UNL A   1      33.166  22.987  25.603  1.00  0.00     0.044 A 
ATOM     20  C   UNL A   1      36.460  22.873  25.540  1.00  0.00     0.062 A 
ATOM     21  C   UNL A   1      36.378  23.062  23.728  1.00  0.00     0.016 A 
ATOM     22  C   UNL A   1      34.825  22.778  26.496  1.00  0.00     0.042 A 
ATOM     23  C   UNL A   1      34.712  23.045  22.897  1.00  0.00     0.006 A 
ATOM     24  C   UNL A   1      33.139  22.942  23.852  1.00  0.00    -0.027 A 
ATOM     25  C   UNL A   1      31.812  23.315  23.387  1.00  0.00     0.046 C 
BRANCH  20  26
ATOM     26  C   UNL A   1      37.813  22.204  25.709  1.00  0.00     0.337 C 
ATOM     27  O   UNL A   1      37.889  20.991  25.518  1.00  0.00    -0.246 OA
BRANCH  26  28
ATOM     28  O   UNL A   1      38.938  22.874  26.010  1.00  0.00    -0.465 OA
ATOM     29  C   UNL A   1      39.892  22.155  26.733  1.00  0.00     0.282 C 
ENDBRANCH  26  28
ENDBRANCH  20  26
ENDBRANCH  16  19
ENDBRANCH  10  15
ENDBRANCH   7   9
ENDBRANCH   6   7
ENDBRANCH   5   6
ENDBRANCH   4   5
ENDBRANCH   3   4
ENDBRANCH   2   3
ENDBRANCH   1   2
BRANCH   1  30
ATOM     30  O   UNL A   1      32.784  35.182  30.394  1.00  0.00    -0.377 OA
BRANCH  30  31
ATOM     31  C   UNL A   1      32.954  36.012  31.485  1.00  0.00     0.188 C 
BRANCH  31  32
ATOM     32  C   UNL A   1      33.376  35.173  32.615  1.00  0.00     0.188 C 
BRANCH  32  33
ATOM     33  O   UNL A   1      33.734  33.818  32.475  1.00  0.00    -0.376 OA
BRANCH  33  34
ATOM     34  C   UNL A   1      34.825  33.384  33.267  1.00  0.00     0.202 C 
BRANCH  34  35
ATOM     35  C   UNL A   1      36.177  33.564  32.548  1.00  0.00     0.261 C 
BRANCH  35  36
ATOM     36  O   UNL A   1      37.204  32.856  33.391  1.00  0.00    -0.460 OA
BRANCH  36  37
ATOM     37  C   UNL A   1      38.492  33.251  33.704  1.00  0.00     0.338 C 
ATOM     38  O   UNL A   1      38.984  34.315  33.356  1.00  0.00    -0.246 OA
BRANCH  37  39
ATOM     39  C   UNL A   1      39.374  32.111  34.362  1.00  0.00     0.060 A 
ATOM     40  C   UNL A   1      40.725  32.027  34.038  1.00  0.00     0.016 A 
ATOM     41  C   UNL A   1      38.843  30.885  34.769  1.00  0.00     0.016 A 
ATOM     42  C   UNL A   1      41.325  30.758  33.752  1.00  0.00     0.010 A 
ATOM     43  C   UNL A   1      39.390  29.659  34.196  1.00  0.00     0.010 A 
ATOM     44  C   UNL A   1      40.574  29.595  33.428  1.00  0.00    -0.014 A 
BRANCH  44  45
ATOM     45  C   UNL A   1      40.913  28.300  32.155  1.00  0.00     0.031 A 
ATOM     46  C   UNL A   1      42.509  27.732  33.033  1.00  0.00     0.074 A 
ATOM     47  C   UNL A   1      40.334  27.913  30.380  1.00  0.00     0.049 A 
ATOM     48  N   UNL A   1      43.580  27.200  32.448  1.00  0.00    -0.248 NA
ATOM     49  C   UNL A   1      42.884  27.725  34.479  1.00  0.00     0.031 C 
ATOM     50  C   UNL A   1      40.358  26.561  29.266  1.00  0.00     0.029 A 
ATOM     51  N   UNL A   1      39.354  28.507  29.395  1.00  0.00    -0.354 N 
ATOM     52  C   UNL A   1      44.225  26.308  33.282  1.00  0.00     0.074 A 
ATOM     53  C   UNL A   1      43.888  26.824  34.581  1.00  0.00     0.031 C 
ATOM     54  C   UNL A   1      39.764  26.765  28.080  1.00  0.00     0.029 A 
ATOM     55  C   UNL A   1      39.242  28.069  28.094  1.00  0.00     0.049 A 
ATOM     56  H   UNL A   1      38.769  29.239  29.697  1.00  0.00     0.167 HD
ATOM     57  C   UNL A   1      44.799  25.154  32.777  1.00  0.00     0.031 A 
ATOM     58  C   UNL A   1      39.315  29.081  27.215  1.00  0.00     0.031 A 
ATOM     59  C   UNL A   1      44.564  24.976  31.275  1.00  0.00     0.049 A 
ATOM     60  C   UNL A   1      40.984  28.923  27.115  1.00  0.00     0.074 A 
ATOM     61  C   UNL A   1      44.044  23.938  30.502  1.00  0.00     0.029 A 
ATOM     62  N   UNL A   1      44.599  26.066  30.366  1.00  0.00    -0.354 N 
ATOM     63  N   UNL A   1      41.845  28.448  28.031  1.00  0.00    -0.248 NA
ATOM     64  C   UNL A   1      41.574  28.750  25.787  1.00  0.00     0.031 C 
ATOM     65  C   UNL A   1      43.505  24.491  29.281  1.00  0.00     0.029 A 
ATOM     66  C   UNL A   1      43.801  25.863  29.198  1.00  0.00     0.049 A 
ATOM     67  H   UNL A   1      45.123  26.885  30.524  1.00  0.00     0.167 HD
ATOM     68  C   UNL A   1      42.890  27.689  27.465  1.00  0.00     0.074 A 
ATOM     69  C   UNL A   1      42.649  27.974  26.037  1.00  0.00     0.031 C 
ATOM     70  C   UNL A   1      43.856  26.793  27.998  1.00  0.00     0.031 A 
BRANCH  57  71
ATOM     71  C   UNL A   1      45.378  23.976  33.648  1.00  0.00    -0.014 A 
ATOM     72  C   UNL A   1      46.605  24.141  34.340  1.00  0.00     0.009 A 
ATOM     73  C   UNL A   1      44.765  22.729  33.901  1.00  0.00     0.009 A 
ATOM     74  C   UNL A   1      47.175  23.185  35.206  1.00  0.00     0.001 A 
ATOM     75  C   UNL A   1      45.321  21.762  34.789  1.00  0.00     0.001 A 
ATOM     76  C   UNL A   1      46.521  21.994  35.450  1.00  0.00     0.000 A 
ENDBRANCH  57  71
BRANCH  58  77
ATOM     77  C   UNL A   1      38.089  30.006  27.842  1.00  0.00    -0.014 A 
ATOM     78  C   UNL A   1      36.801  29.369  28.094  1.00  0.00     0.009 A 
ATOM     79  C   UNL A   1      38.224  31.179  28.584  1.00  0.00     0.009 A 
ATOM     80  C   UNL A   1      35.950  29.689  29.201  1.00  0.00     0.001 A 
ATOM     81  C   UNL A   1      37.396  31.486  29.717  1.00  0.00     0.001 A 
ATOM     82  C   UNL A   1      36.314  30.689  30.083  1.00  0.00     0.000 A 
ENDBRANCH  58  77
BRANCH  70  83
ATOM     83  C   UNL A   1      45.222  26.657  27.307  1.00  0.00    -0.014 A 
ATOM     84  C   UNL A   1      46.332  27.387  27.720  1.00  0.00     0.009 A 
ATOM     85  C   UNL A   1      45.480  25.626  26.363  1.00  0.00     0.009 A 
ATOM     86  C   UNL A   1      47.589  27.198  27.153  1.00  0.00     0.001 A 
ATOM     87  C   UNL A   1      46.757  25.349  25.881  1.00  0.00     0.001 A 
ATOM     88  C   UNL A   1      47.808  26.167  26.251  1.00  0.00     0.000 A 
ENDBRANCH  70  83
ENDBRANCH  44  45
ENDBRANCH  37  39
ENDBRANCH  36  37
ENDBRANCH  35  36
ENDBRANCH  34  35
ENDBRANCH  33  34
ENDBRANCH  32  33
ENDBRANCH  31  32
ENDBRANCH  30  31
ENDBRANCH   1  30
TORSDOF 24
ENDMDL
MODEL 2
REMARK VINA RESULT:     -11.4      2.519      9.212
REMARK SMILES COC(=O)c1ccc(C)c(NC(=O)[C@H]2CC=CC[C@H]2C(=O)OCCOCCOCCOCCOC(=O)c2ccc(-c3c4nc(c(-c5ccccc5)c5ccc([nH]5)c(-c5ccccc5)c5nc(c(-c6ccccc6)c6ccc3[nH]6)C=C5)C=C4)cc2)c1
REMARK SMILES IDX 27 1 26 2 25 3 24 4 23 5 22 6 20 7 21 8 19 9 14 10 15 11
REMARK SMILES IDX 16 12 18 13 17 14 12 15 11 16 13 18 10 19 5 20 6 21 85 22
REMARK SMILES IDX 7 23 8 24 9 25 3 26 4 27 2 28 1 29 28 30 29 31 30 32 31 33
REMARK SMILES IDX 32 34 33 35 34 36 35 37 36 38 37 39 38 40 84 41 39 42 83 43
REMARK SMILES IDX 40 44 41 45 42 46 77 47 43 48 82 49 76 50 78 51 44 52 81 53
REMARK SMILES IDX 75 54 74 55 45 57 67 58 52 59 66 60 53 61 56 62 65 63 79 64
REMARK SMILES IDX 54 65 55 66 64 68 80 69 57 70 46 71 47 72 51 73 48 74 50 75
REMARK SMILES IDX 49 76 68 77 69 78 73 79 70 80 72 81 71 82 58 83 59 84 63 85
REMARK SMILES IDX 60 86 62 87 61 88
REMARK H PARENT 11 17 78 56 56 67
REMARK Flexibility Score: inf
ROOT
ATOM      1  C   UNL A   1      31.828  30.730  26.297  1.00  0.00     0.188 C 
ENDROOT
BRANCH   1   2
ATOM      2  C   UNL A   1      31.206  32.326  26.784  1.00  0.00     0.188 C 
BRANCH   2   3
ATOM      3  O   UNL A   1      31.845  33.608  27.263  1.00  0.00    -0.376 OA
BRANCH   3   4
ATOM      4  C   UNL A   1      32.956  33.763  28.209  1.00  0.00     0.202 C 
BRANCH   4   5
ATOM      5  C   UNL A   1      33.628  35.414  28.281  1.00  0.00     0.261 C 
BRANCH   5   6
ATOM      6  O   UNL A   1      33.449  36.412  29.422  1.00  0.00    -0.463 OA
BRANCH   6   7
ATOM      7  C   UNL A   1      32.987  36.052  30.643  1.00  0.00     0.310 C 
ATOM      8  O   UNL A   1      31.879  36.414  31.018  1.00  0.00    -0.252 OA
BRANCH   7   9
ATOM      9  C   UNL A   1      33.958  35.153  31.541  1.00  0.00     0.116 C 
ATOM     10  C   UNL A   1      34.920  33.837  31.151  1.00  0.00     0.097 C 
ATOM     11  C   UNL A   1      34.867  32.986  32.489  1.00  0.00     0.041 C 
ATOM     12  C   UNL A   1      34.925  33.761  33.788  1.00  0.00    -0.030 C 
ATOM     13  C   UNL A   1      34.523  35.971  32.700  1.00  0.00     0.043 C 
ATOM     14  C   UNL A   1      34.807  35.094  33.883  1.00  0.00    -0.030 C 
BRANCH  10  15
ATOM     15  C   UNL A   1      36.543  33.688  30.421  1.00  0.00     0.228 C 
ATOM     16  N   UNL A   1      37.862  33.185  30.815  1.00  0.00    -0.326 N 
ATOM     17  H   UNL A   1      38.555  33.742  30.392  1.00  0.00     0.169 HD
ATOM     18  O   UNL A   1      36.640  34.294  29.325  1.00  0.00    -0.274 OA
BRANCH  16  19
ATOM     19  C   UNL A   1      38.585  32.030  31.705  1.00  0.00     0.044 A 
ATOM     20  C   UNL A   1      39.120  31.806  34.950  1.00  0.00     0.062 A 
ATOM     21  C   UNL A   1      40.857  32.268  34.641  1.00  0.00     0.016 A 
ATOM     22  C   UNL A   1      37.970  31.628  33.453  1.00  0.00     0.042 A 
ATOM     23  C   UNL A   1      41.443  32.438  32.882  1.00  0.00     0.006 A 
ATOM     24  C   UNL A   1      40.304  32.250  31.445  1.00  0.00    -0.027 A 
ATOM     25  C   UNL A   1      40.521  32.738  30.092  1.00  0.00     0.046 C 
BRANCH  20  26
ATOM     26  C   UNL A   1      39.239  31.070  36.273  1.00  0.00     0.337 C 
ATOM     27  O   UNL A   1      39.425  29.854  36.246  1.00  0.00    -0.246 OA
BRANCH  26  28
ATOM     28  O   UNL A   1      39.198  31.682  37.468  1.00  0.00    -0.465 OA
ATOM     29  C   UNL A   1      38.408  32.832  37.529  1.00  0.00     0.282 C 
ENDBRANCH  26  28
ENDBRANCH  20  26
ENDBRANCH  16  19
ENDBRANCH  10  15
ENDBRANCH   7   9
ENDBRANCH   6   7
ENDBRANCH   5   6
ENDBRANCH   4   5
ENDBRANCH   3   4
ENDBRANCH   2   3
ENDBRANCH   1   2
BRANCH   1  30
ATOM     30  O   UNL A   1      32.675  29.737  26.918  1.00  0.00    -0.377 OA
BRANCH  30  31
ATOM     31  C   UNL A   1      33.569  28.970  26.197  1.00  0.00     0.188 C 
BRANCH  31  32
ATOM     32  C   UNL A   1      32.956  28.690  24.890  1.00  0.00     0.188 C 
BRANCH  32  33
ATOM     33  O   UNL A   1      32.438  27.428  24.539  1.00  0.00    -0.376 OA
BRANCH  33  34
ATOM     34  C   UNL A   1      32.540  27.080  23.170  1.00  0.00     0.202 C 
BRANCH  34  35
ATOM     35  C   UNL A   1      33.881  26.393  22.841  1.00  0.00     0.261 C 
BRANCH  35  36
ATOM     36  O   UNL A   1      34.056  25.295  23.857  1.00  0.00    -0.460 OA
BRANCH  36  37
ATOM     37  C   UNL A   1      34.518  24.005  23.669  1.00  0.00     0.338 C 
ATOM     38  O   UNL A   1      34.251  23.318  22.693  1.00  0.00    -0.246 OA
BRANCH  37  39
ATOM     39  C   UNL A   1      35.243  23.389  24.937  1.00  0.00     0.060 A 
ATOM     40  C   UNL A   1      35.301  24.131  26.112  1.00  0.00     0.016 A 
ATOM     41  C   UNL A   1      36.282  22.461  24.835  1.00  0.00     0.016 A 
ATOM     42  C   UNL A   1      36.519  24.206  26.864  1.00  0.00     0.010 A 
ATOM     43  C   UNL A   1      37.570  22.783  25.442  1.00  0.00     0.010 A 
ATOM     44  C   UNL A   1      37.790  23.863  26.326  1.00  0.00    -0.014 A 
BRANCH  44  45
ATOM     45  C   UNL A   1      39.419  24.706  26.546  1.00  0.00     0.031 A 
ATOM     46  C   UNL A   1      40.369  23.052  26.578  1.00  0.00     0.074 A 
ATOM     47  C   UNL A   1      40.027  26.434  27.076  1.00  0.00     0.049 A 
ATOM     48  N   UNL A   1      41.509  22.814  27.223  1.00  0.00    -0.248 NA
ATOM     49  C   UNL A   1      40.089  21.746  25.908  1.00  0.00     0.031 C 
ATOM     50  C   UNL A   1      41.498  27.382  26.992  1.00  0.00     0.029 A 
ATOM     51  N   UNL A   1      39.388  27.746  27.465  1.00  0.00    -0.354 N 
ATOM     52  C   UNL A   1      42.277  21.871  26.569  1.00  0.00     0.074 A 
ATOM     53  C   UNL A   1      41.275  21.095  25.891  1.00  0.00     0.031 C 
ATOM     54  C   UNL A   1      41.428  28.624  27.495  1.00  0.00     0.029 A 
ATOM     55  C   UNL A   1      40.110  28.819  27.940  1.00  0.00     0.049 A 
ATOM     56  H   UNL A   1      38.411  27.839  27.376  1.00  0.00     0.167 HD
ATOM     57  C   UNL A   1      43.657  21.981  26.535  1.00  0.00     0.031 A 
ATOM     58  C   UNL A   1      39.606  29.296  29.089  1.00  0.00     0.031 A 
ATOM     59  C   UNL A   1      44.173  23.254  27.211  1.00  0.00     0.049 A 
ATOM     60  C   UNL A   1      40.573  28.258  29.987  1.00  0.00     0.074 A 
ATOM     61  C   UNL A   1      45.015  24.286  26.798  1.00  0.00     0.029 A 
ATOM     62  N   UNL A   1      43.596  23.769  28.402  1.00  0.00    -0.354 N 
ATOM     63  N   UNL A   1      41.081  27.062  29.642  1.00  0.00    -0.248 NA
ATOM     64  C   UNL A   1      41.428  28.845  31.020  1.00  0.00     0.031 C 
ATOM     65  C   UNL A   1      44.699  25.477  27.551  1.00  0.00     0.029 A 
ATOM     66  C   UNL A   1      43.753  25.182  28.548  1.00  0.00     0.049 A 
ATOM     67  H   UNL A   1      43.133  23.207  29.065  1.00  0.00     0.167 HD
ATOM     68  C   UNL A   1      42.386  26.853  30.131  1.00  0.00     0.074 A 
ATOM     69  C   UNL A   1      42.499  28.025  31.024  1.00  0.00     0.031 C 
ATOM     70  C   UNL A   1      43.411  25.914  29.836  1.00  0.00     0.031 A 
BRANCH  57  71
ATOM     71  C   UNL A   1      44.614  21.088  25.658  1.00  0.00    -0.014 A 
ATOM     72  C   UNL A   1      44.195  19.800  25.238  1.00  0.00     0.009 A 
ATOM     73  C   UNL A   1      45.880  21.451  25.149  1.00  0.00     0.009 A 
ATOM     74  C   UNL A   1      44.936  18.951  24.390  1.00  0.00     0.001 A 
ATOM     75  C   UNL A   1      46.630  20.610  24.276  1.00  0.00     0.001 A 
ATOM     76  C   UNL A   1      46.153  19.364  23.887  1.00  0.00     0.000 A 
ENDBRANCH  57  71
BRANCH  58  77
ATOM     77  C   UNL A   1      38.058  29.564  28.556  1.00  0.00    -0.014 A 
ATOM     78  C   UNL A   1      36.952  29.233  29.448  1.00  0.00     0.009 A 
ATOM     79  C   UNL A   1      37.659  30.468  27.572  1.00  0.00     0.009 A 
ATOM     80  C   UNL A   1      35.739  29.991  29.537  1.00  0.00     0.001 A 
ATOM     81  C   UNL A   1      36.461  31.254  27.675  1.00  0.00     0.001 A 
ATOM     82  C   UNL A   1      35.546  31.081  28.709  1.00  0.00     0.000 A 
ENDBRANCH  58  77
BRANCH  70  83
ATOM     83  C   UNL A   1      44.404  25.509  30.935  1.00  0.00    -0.014 A 
ATOM     84  C   UNL A   1      45.565  26.235  31.184  1.00  0.00     0.009 A 
ATOM     85  C   UNL A   1      44.085  24.512  31.898  1.00  0.00     0.009 A 
ATOM     86  C   UNL A   1      46.419  25.920  32.237  1.00  0.00     0.001 A 
ATOM     87  C   UNL A   1      44.870  24.273  33.023  1.00  0.00     0.001 A 
ATOM     88  C   UNL A   1      46.063  24.956  33.169  1.00  0.00     0.000 A 
ENDBRANCH  70  83
ENDBRANCH  44  45
ENDBRANCH  37  39
ENDBRANCH  36  37
ENDBRANCH  35  36
ENDBRANCH  34  35
ENDBRANCH  33  34
ENDBRANCH  32  33
ENDBRANCH  31  32
ENDBRANCH  30  31
ENDBRANCH   1  30
TORSDOF 24
ENDMDL
MODEL 3
REMARK VINA RESULT:     -10.6      4.969     10.247
REMARK SMILES COC(=O)c1ccc(C)c(NC(=O)[C@H]2CC=CC[C@H]2C(=O)OCCOCCOCCOCCOC(=O)c2ccc(-c3c4nc(c(-c5ccccc5)c5ccc([nH]5)c(-c5ccccc5)c5nc(c(-c6ccccc6)c6ccc3[nH]6)C=C5)C=C4)cc2)c1
REMARK SMILES IDX 27 1 26 2 25 3 24 4 23 5 22 6 20 7 21 8 19 9 14 10 15 11
REMARK SMILES IDX 16 12 18 13 17 14 12 15 11 16 13 18 10 19 5 20 6 21 85 22
REMARK SMILES IDX 7 23 8 24 9 25 3 26 4 27 2 28 1 29 28 30 29 31 30 32 31 33
REMARK SMILES IDX 32 34 33 35 34 36 35 37 36 38 37 39 38 40 84 41 39 42 83 43
REMARK SMILES IDX 40 44 41 45 42 46 77 47 43 48 82 49 76 50 78 51 44 52 81 53
REMARK SMILES IDX 75 54 74 55 45 57 67 58 52 59 66 60 53 61 56 62 65 63 79 64
REMARK SMILES IDX 54 65 55 66 64 68 80 69 57 70 46 71 47 72 51 73 48 74 50 75
REMARK SMILES IDX 49 76 68 77 69 78 73 79 70 80 72 81 71 82 58 83 59 84 63 85
REMARK SMILES IDX 60 86 62 87 61 88
REMARK H PARENT 11 17 78 56 56 67
REMARK Flexibility Score: inf
ROOT
ATOM      1  C   UNL A   1      41.408  24.984  27.173  1.00  0.00     0.188 C 
ENDROOT
BRANCH   1   2
ATOM      2  C   UNL A   1      39.893  24.051  27.245  1.00  0.00     0.188 C 
BRANCH   2   3
ATOM      3  O   UNL A   1      39.218  23.059  26.327  1.00  0.00    -0.376 OA
BRANCH   3   4
ATOM      4  C   UNL A   1      39.457  21.615  26.229  1.00  0.00     0.202 C 
BRANCH   4   5
ATOM      5  C   UNL A   1      38.290  20.752  25.191  1.00  0.00     0.261 C 
BRANCH   5   6
ATOM      6  O   UNL A   1      36.809  21.087  25.027  1.00  0.00    -0.463 OA
BRANCH   6   7
ATOM      7  C   UNL A   1      36.373  22.129  24.280  1.00  0.00     0.310 C 
ATOM      8  O   UNL A   1      36.984  22.472  23.276  1.00  0.00    -0.252 OA
BRANCH   7   9
ATOM      9  C   UNL A   1      35.046  22.866  24.785  1.00  0.00     0.116 C 
ATOM     10  C   UNL A   1      34.544  24.458  24.644  1.00  0.00     0.097 C 
ATOM     11  C   UNL A   1      33.727  24.664  25.988  1.00  0.00     0.041 C 
ATOM     12  C   UNL A   1      32.861  23.507  26.438  1.00  0.00    -0.030 C 
ATOM     13  C   UNL A   1      33.879  21.884  24.840  1.00  0.00     0.043 C 
ATOM     14  C   UNL A   1      32.900  22.277  25.906  1.00  0.00    -0.030 C 
BRANCH  10  15
ATOM     15  C   UNL A   1      33.756  25.375  23.328  1.00  0.00     0.228 C 
ATOM     16  N   UNL A   1      32.658  26.334  23.189  1.00  0.00    -0.326 N 
ATOM     17  H   UNL A   1      32.211  26.184  22.325  1.00  0.00     0.169 HD
ATOM     18  O   UNL A   1      34.141  25.014  22.188  1.00  0.00    -0.274 OA
BRANCH  16  19
ATOM     19  C   UNL A   1      31.916  27.561  23.959  1.00  0.00     0.044 A 
ATOM     20  C   UNL A   1      32.976  29.597  26.325  1.00  0.00     0.062 A 
ATOM     21  C   UNL A   1      32.007  28.623  27.524  1.00  0.00     0.016 A 
ATOM     22  C   UNL A   1      32.890  29.096  24.498  1.00  0.00     0.042 A 
ATOM     23  C   UNL A   1      30.904  27.261  26.893  1.00  0.00     0.006 A 
ATOM     24  C   UNL A   1      30.834  26.802  25.110  1.00  0.00    -0.027 A 
ATOM     25  C   UNL A   1      30.351  25.547  24.552  1.00  0.00     0.046 C 
BRANCH  20  26
ATOM     26  C   UNL A   1      33.079  30.933  27.041  1.00  0.00     0.337 C 
ATOM     27  O   UNL A   1      34.186  31.296  27.436  1.00  0.00    -0.246 OA
BRANCH  26  28
ATOM     28  O   UNL A   1      32.035  31.759  27.224  1.00  0.00    -0.465 OA
ATOM     29  C   UNL A   1      31.193  31.917  26.122  1.00  0.00     0.282 C 
ENDBRANCH  26  28
ENDBRANCH  20  26
ENDBRANCH  16  19
ENDBRANCH  10  15
ENDBRANCH   7   9
ENDBRANCH   6   7
ENDBRANCH   5   6
ENDBRANCH   4   5
ENDBRANCH   3   4
ENDBRANCH   2   3
ENDBRANCH   1   2
BRANCH   1  30
ATOM     30  O   UNL A   1      42.173  25.754  28.127  1.00  0.00    -0.377 OA
BRANCH  30  31
ATOM     31  C   UNL A   1      42.165  27.135  28.142  1.00  0.00     0.188 C 
BRANCH  31  32
ATOM     32  C   UNL A   1      41.723  27.559  29.478  1.00  0.00     0.188 C 
BRANCH  32  33
ATOM     33  O   UNL A   1      40.366  27.653  29.845  1.00  0.00    -0.376 OA
BRANCH  33  34
ATOM     34  C   UNL A   1      39.954  28.903  30.367  1.00  0.00     0.202 C 
BRANCH  34  35
ATOM     35  C   UNL A   1      40.201  30.058  29.376  1.00  0.00     0.261 C 
BRANCH  35  36
ATOM     36  O   UNL A   1      39.098  29.983  28.353  1.00  0.00    -0.460 OA
BRANCH  36  37
ATOM     37  C   UNL A   1      37.745  30.218  28.516  1.00  0.00     0.338 C 
ATOM     38  O   UNL A   1      36.869  29.611  27.917  1.00  0.00    -0.246 OA
BRANCH  37  39
ATOM     39  C   UNL A   1      37.414  31.507  29.376  1.00  0.00     0.060 A 
ATOM     40  C   UNL A   1      37.828  32.754  28.918  1.00  0.00     0.016 A 
ATOM     41  C   UNL A   1      37.261  31.469  30.764  1.00  0.00     0.016 A 
ATOM     42  C   UNL A   1      38.426  33.696  29.817  1.00  0.00     0.010 A 
ATOM     43  C   UNL A   1      38.125  32.309  31.588  1.00  0.00     0.010 A 
ATOM     44  C   UNL A   1      38.957  33.334  31.086  1.00  0.00    -0.014 A 
BRANCH  44  45
ATOM     45  C   UNL A   1      40.505  33.910  31.912  1.00  0.00     0.031 A 
ATOM     46  C   UNL A   1      39.555  34.570  33.429  1.00  0.00     0.074 A 
ATOM     47  C   UNL A   1      42.306  34.267  31.393  1.00  0.00     0.049 A 
ATOM     48  N   UNL A   1      39.923  35.586  34.205  1.00  0.00    -0.248 NA
ATOM     49  C   UNL A   1      38.284  34.110  34.067  1.00  0.00     0.031 C 
ATOM     50  C   UNL A   1      43.865  34.489  32.161  1.00  0.00     0.029 A 
ATOM     51  N   UNL A   1      43.119  34.164  30.124  1.00  0.00    -0.354 N 
ATOM     52  C   UNL A   1      39.494  35.415  35.506  1.00  0.00     0.074 A 
ATOM     53  C   UNL A   1      38.318  34.608  35.324  1.00  0.00     0.031 C 
ATOM     54  C   UNL A   1      44.904  34.693  31.336  1.00  0.00     0.029 A 
ATOM     55  C   UNL A   1      44.410  34.634  30.022  1.00  0.00     0.049 A 
ATOM     56  H   UNL A   1      42.708  33.744  29.334  1.00  0.00     0.167 HD
ATOM     57  C   UNL A   1      40.283  35.815  36.571  1.00  0.00     0.031 A 
ATOM     58  C   UNL A   1      44.570  35.440  28.960  1.00  0.00     0.031 A 
ATOM     59  C   UNL A   1      41.644  36.364  36.135  1.00  0.00     0.049 A 
ATOM     60  C   UNL A   1      44.161  36.788  29.875  1.00  0.00     0.074 A 
ATOM     61  C   UNL A   1      42.958  36.059  36.486  1.00  0.00     0.029 A 
ATOM     62  N   UNL A   1      41.800  37.178  34.982  1.00  0.00    -0.354 N 
ATOM     63  N   UNL A   1      43.383  36.864  30.968  1.00  0.00    -0.248 NA
ATOM     64  C   UNL A   1      45.100  37.910  29.893  1.00  0.00     0.031 C 
ATOM     65  C   UNL A   1      43.830  36.423  35.392  1.00  0.00     0.029 A 
ATOM     66  C   UNL A   1      43.101  37.092  34.394  1.00  0.00     0.049 A 
ATOM     67  H   UNL A   1      41.083  37.747  34.620  1.00  0.00     0.167 HD
ATOM     68  C   UNL A   1      43.859  37.786  31.922  1.00  0.00     0.074 A 
ATOM     69  C   UNL A   1      44.929  38.423  31.128  1.00  0.00     0.031 C 
ATOM     70  C   UNL A   1      43.562  38.030  33.291  1.00  0.00     0.031 A 
BRANCH  57  71
ATOM     71  C   UNL A   1      39.992  35.489  38.085  1.00  0.00    -0.014 A 
ATOM     72  C   UNL A   1      39.398  36.470  38.920  1.00  0.00     0.009 A 
ATOM     73  C   UNL A   1      40.194  34.255  38.740  1.00  0.00     0.009 A 
ATOM     74  C   UNL A   1      39.024  36.261  40.264  1.00  0.00     0.001 A 
ATOM     75  C   UNL A   1      39.803  34.026  40.092  1.00  0.00     0.001 A 
ATOM     76  C   UNL A   1      39.208  35.026  40.851  1.00  0.00     0.000 A 
ENDBRANCH  57  71
BRANCH  58  77
ATOM     77  C   UNL A   1      44.021  34.387  27.801  1.00  0.00    -0.014 A 
ATOM     78  C   UNL A   1      43.261  34.928  26.680  1.00  0.00     0.009 A 
ATOM     79  C   UNL A   1      44.552  33.135  27.492  1.00  0.00     0.009 A 
ATOM     80  C   UNL A   1      43.344  34.430  25.339  1.00  0.00     0.001 A 
ATOM     81  C   UNL A   1      44.669  32.648  26.146  1.00  0.00     0.001 A 
ATOM     82  C   UNL A   1      44.147  33.341  25.058  1.00  0.00     0.000 A 
ENDBRANCH  58  77
BRANCH  70  83
ATOM     83  C   UNL A   1      43.714  39.450  33.855  1.00  0.00    -0.014 A 
ATOM     84  C   UNL A   1      42.878  40.492  33.464  1.00  0.00     0.009 A 
ATOM     85  C   UNL A   1      44.561  39.725  34.963  1.00  0.00     0.009 A 
ATOM     86  C   UNL A   1      42.958  41.756  34.040  1.00  0.00     0.001 A 
ATOM     87  C   UNL A   1      44.560  40.950  35.626  1.00  0.00     0.001 A 
ATOM     88  C   UNL A   1      43.781  41.981  35.135  1.00  0.00     0.000 A 
ENDBRANCH  70  83
ENDBRANCH  44  45
ENDBRANCH  37  39
ENDBRANCH  36  37
ENDBRANCH  35  36
ENDBRANCH  34  35
ENDBRANCH  33  34
ENDBRANCH  32  33
ENDBRANCH  31  32
ENDBRANCH  30  31
ENDBRANCH   1  30
TORSDOF 24
ENDMDL
