MODEL 1
REMARK VINA RESULT:      -9.2      0.000      0.000
REMARK SMILES NC(=O)CC[N@@H+]1[C@@H](C(=O)OCCOCCOCCOCCOC(=O)c2ccc(-c3c4nc(c(-c5ccccc5)c5ccc([nH]5)c(-c5ccccc5)c5nc(c(-c6ccccc6)c6ccc3[nH]6)C=C5)C=C4)cc2)CC[C@@H]2CCCC[C@H]21
REMARK SMILES IDX 15 1 14 2 13 3 12 4 11 5 10 6 8 7 9 8 7 9 6 10 80 11 73 13
REMARK SMILES IDX 75 14 79 15 74 16 76 17 78 18 77 19 5 20 4 21 2 22 1 23 3 26
REMARK SMILES IDX 16 27 17 28 18 29 19 30 20 31 21 32 22 33 23 34 24 35 25 36
REMARK SMILES IDX 26 37 72 38 27 39 71 40 28 41 29 42 30 43 65 44 31 45 70 46
REMARK SMILES IDX 64 47 66 48 32 49 69 50 63 51 62 52 33 54 55 55 40 56 54 57
REMARK SMILES IDX 41 58 44 59 53 60 67 61 42 62 43 63 52 65 68 66 45 67 34 68
REMARK SMILES IDX 35 69 39 70 36 71 38 72 37 73 56 74 57 75 61 76 58 77 60 78
REMARK SMILES IDX 59 79 46 80 47 81 51 82 48 83 50 84 49 85
REMARK H PARENT 6 12 1 24 1 25 66 53 44 64
REMARK Flexibility Score: inf
ROOT
ATOM      1  C   UNL A   1      38.293  22.156  25.597  1.00  0.00     0.188 C 
ENDROOT
BRANCH   1   2
ATOM      2  C   UNL A   1      36.773  22.122  25.376  1.00  0.00     0.188 C 
BRANCH   2   3
ATOM      3  O   UNL A   1      36.187  20.851  25.605  1.00  0.00    -0.376 OA
BRANCH   3   4
ATOM      4  C   UNL A   1      34.954  20.566  24.962  1.00  0.00     0.202 C 
BRANCH   4   5
ATOM      5  C   UNL A   1      34.095  21.751  24.474  1.00  0.00     0.261 C 
BRANCH   5   6
ATOM      6  O   UNL A   1      32.938  22.059  25.272  1.00  0.00    -0.459 OA
BRANCH   6   7
ATOM      7  C   UNL A   1      33.065  23.171  26.034  1.00  0.00     0.364 C 
ATOM      8  O   UNL A   1      33.835  23.189  26.987  1.00  0.00    -0.245 OA
BRANCH   7   9
ATOM      9  C   UNL A   1      32.295  24.412  25.491  1.00  0.00     0.295 C 
ATOM     10  N   UNL A   1      33.242  25.474  25.098  1.00  0.00    -0.320 N 
ATOM     11  C   UNL A   1      32.698  26.846  24.967  1.00  0.00     0.187 C 
ATOM     12  H   UNL A   1      33.791  25.442  25.957  1.00  0.00     0.349 HD
ATOM     13  C   UNL A   1      31.167  24.886  26.437  1.00  0.00     0.078 C 
ATOM     14  C   UNL A   1      31.492  27.220  25.861  1.00  0.00     0.048 C 
ATOM     15  C   UNL A   1      33.792  27.896  25.278  1.00  0.00     0.065 C 
ATOM     16  C   UNL A   1      30.462  26.111  25.864  1.00  0.00     0.016 C 
ATOM     17  C   UNL A   1      30.926  28.571  25.401  1.00  0.00     0.010 C 
ATOM     18  C   UNL A   1      33.313  29.311  24.945  1.00  0.00     0.006 C 
ATOM     19  C   UNL A   1      31.978  29.662  25.600  1.00  0.00     0.001 C 
BRANCH  10  20
ATOM     20  C   UNL A   1      34.223  25.198  24.001  1.00  0.00     0.273 C 
BRANCH  20  21
ATOM     21  C   UNL A   1      34.199  25.524  22.487  1.00  0.00     0.161 C 
BRANCH  21  22
ATOM     22  C   UNL A   1      33.104  24.992  21.587  1.00  0.00     0.223 C 
ATOM     23  N   UNL A   1      32.384  23.919  21.992  1.00  0.00    -0.369 N 
ATOM     24  H   UNL A   1      31.670  23.560  21.417  1.00  0.00     0.159 HD
ATOM     25  H   UNL A   1      32.577  23.496  22.859  1.00  0.00     0.159 HD
ATOM     26  O   UNL A   1      32.916  25.431  20.453  1.00  0.00    -0.275 OA
ENDBRANCH  21  22
ENDBRANCH  20  21
ENDBRANCH  10  20
ENDBRANCH   7   9
ENDBRANCH   6   7
ENDBRANCH   5   6
ENDBRANCH   4   5
ENDBRANCH   3   4
ENDBRANCH   2   3
ENDBRANCH   1   2
BRANCH   1  27
ATOM     27  O   UNL A   1      38.967  20.927  25.810  1.00  0.00    -0.377 OA
BRANCH  27  28
ATOM     28  C   UNL A   1      40.135  20.904  26.629  1.00  0.00     0.188 C 
BRANCH  28  29
ATOM     29  C   UNL A   1      41.410  21.645  26.176  1.00  0.00     0.188 C 
BRANCH  29  30
ATOM     30  O   UNL A   1      42.390  20.811  25.585  1.00  0.00    -0.376 OA
BRANCH  30  31
ATOM     31  C   UNL A   1      43.730  21.274  25.595  1.00  0.00     0.202 C 
BRANCH  31  32
ATOM     32  C   UNL A   1      44.213  22.111  24.398  1.00  0.00     0.261 C 
BRANCH  32  33
ATOM     33  O   UNL A   1      43.820  23.495  24.366  1.00  0.00    -0.460 OA
BRANCH  33  34
ATOM     34  C   UNL A   1      44.631  24.413  24.930  1.00  0.00     0.338 C 
ATOM     35  O   UNL A   1      45.787  24.662  24.626  1.00  0.00    -0.246 OA
BRANCH  34  36
ATOM     36  C   UNL A   1      43.812  25.235  25.848  1.00  0.00     0.060 A 
ATOM     37  C   UNL A   1      43.940  26.633  25.817  1.00  0.00     0.016 A 
ATOM     38  C   UNL A   1      42.906  24.632  26.723  1.00  0.00     0.016 A 
ATOM     39  C   UNL A   1      43.194  27.426  26.689  1.00  0.00     0.010 A 
ATOM     40  C   UNL A   1      42.182  25.425  27.617  1.00  0.00     0.010 A 
ATOM     41  C   UNL A   1      42.354  26.821  27.631  1.00  0.00    -0.014 A 
BRANCH  41  42
ATOM     42  C   UNL A   1      41.844  27.616  28.774  1.00  0.00     0.031 A 
ATOM     43  C   UNL A   1      42.599  27.545  30.074  1.00  0.00     0.074 A 
ATOM     44  C   UNL A   1      40.759  28.403  28.667  1.00  0.00     0.049 A 
ATOM     45  N   UNL A   1      42.323  28.095  31.228  1.00  0.00    -0.248 NA
ATOM     46  C   UNL A   1      43.833  26.741  30.070  1.00  0.00     0.031 C 
ATOM     47  C   UNL A   1      39.973  28.605  27.452  1.00  0.00     0.029 A 
ATOM     48  N   UNL A   1      40.127  29.173  29.612  1.00  0.00    -0.354 N 
ATOM     49  C   UNL A   1      43.339  27.693  32.087  1.00  0.00     0.074 A 
ATOM     50  C   UNL A   1      44.221  26.832  31.332  1.00  0.00     0.031 C 
ATOM     51  C   UNL A   1      38.952  29.435  27.729  1.00  0.00     0.029 A 
ATOM     52  C   UNL A   1      38.991  29.791  29.147  1.00  0.00     0.049 A 
ATOM     53  H   UNL A   1      40.456  29.273  30.534  1.00  0.00     0.167 HD
ATOM     54  C   UNL A   1      43.523  28.012  33.389  1.00  0.00     0.031 A 
ATOM     55  C   UNL A   1      38.075  30.534  29.800  1.00  0.00     0.031 A 
ATOM     56  C   UNL A   1      42.637  28.856  34.145  1.00  0.00     0.049 A 
ATOM     57  C   UNL A   1      38.255  30.807  31.271  1.00  0.00     0.074 A 
ATOM     58  C   UNL A   1      42.743  29.247  35.468  1.00  0.00     0.029 A 
ATOM     59  N   UNL A   1      41.478  29.431  33.647  1.00  0.00    -0.354 N 
ATOM     60  N   UNL A   1      39.226  30.434  32.071  1.00  0.00    -0.248 NA
ATOM     61  C   UNL A   1      37.215  31.614  31.928  1.00  0.00     0.031 C 
ATOM     62  C   UNL A   1      41.614  30.004  35.789  1.00  0.00     0.029 A 
ATOM     63  C   UNL A   1      40.843  30.148  34.646  1.00  0.00     0.049 A 
ATOM     64  H   UNL A   1      41.155  29.341  32.721  1.00  0.00     0.167 HD
ATOM     65  C   UNL A   1      38.929  30.983  33.313  1.00  0.00     0.074 A 
ATOM     66  C   UNL A   1      37.697  31.729  33.157  1.00  0.00     0.031 C 
ATOM     67  C   UNL A   1      39.616  30.884  34.478  1.00  0.00     0.031 A 
BRANCH  54  68
ATOM     68  C   UNL A   1      44.706  27.409  34.092  1.00  0.00    -0.014 A 
ATOM     69  C   UNL A   1      44.597  26.214  34.820  1.00  0.00     0.009 A 
ATOM     70  C   UNL A   1      45.961  28.029  33.991  1.00  0.00     0.009 A 
ATOM     71  C   UNL A   1      45.716  25.668  35.453  1.00  0.00     0.001 A 
ATOM     72  C   UNL A   1      47.083  27.465  34.597  1.00  0.00     0.001 A 
ATOM     73  C   UNL A   1      46.959  26.290  35.335  1.00  0.00     0.000 A 
ENDBRANCH  54  68
BRANCH  55  74
ATOM     74  C   UNL A   1      36.881  31.048  29.076  1.00  0.00    -0.014 A 
ATOM     75  C   UNL A   1      35.791  30.209  28.795  1.00  0.00     0.009 A 
ATOM     76  C   UNL A   1      36.837  32.383  28.642  1.00  0.00     0.009 A 
ATOM     77  C   UNL A   1      34.693  30.691  28.075  1.00  0.00     0.001 A 
ATOM     78  C   UNL A   1      35.725  32.870  27.951  1.00  0.00     0.001 A 
ATOM     79  C   UNL A   1      34.659  32.022  27.660  1.00  0.00     0.000 A 
ENDBRANCH  55  74
BRANCH  67  80
ATOM     80  C   UNL A   1      39.081  31.631  35.669  1.00  0.00    -0.014 A 
ATOM     81  C   UNL A   1      39.458  32.956  35.938  1.00  0.00     0.009 A 
ATOM     82  C   UNL A   1      38.139  31.011  36.508  1.00  0.00     0.009 A 
ATOM     83  C   UNL A   1      38.931  33.631  37.041  1.00  0.00     0.001 A 
ATOM     84  C   UNL A   1      37.587  31.700  37.588  1.00  0.00     0.001 A 
ATOM     85  C   UNL A   1      37.992  33.006  37.861  1.00  0.00     0.000 A 
ENDBRANCH  67  80
ENDBRANCH  41  42
ENDBRANCH  34  36
ENDBRANCH  33  34
ENDBRANCH  32  33
ENDBRANCH  31  32
ENDBRANCH  30  31
ENDBRANCH  29  30
ENDBRANCH  28  29
ENDBRANCH  27  28
ENDBRANCH   1  27
TORSDOF 23
ENDMDL
MODEL 2
REMARK VINA RESULT:      -9.1      3.376      4.918
REMARK SMILES NC(=O)CC[N@@H+]1[C@@H](C(=O)OCCOCCOCCOCCOC(=O)c2ccc(-c3c4nc(c(-c5ccccc5)c5ccc([nH]5)c(-c5ccccc5)c5nc(c(-c6ccccc6)c6ccc3[nH]6)C=C5)C=C4)cc2)CC[C@@H]2CCCC[C@H]21
REMARK SMILES IDX 15 1 14 2 13 3 12 4 11 5 10 6 8 7 9 8 7 9 6 10 80 11 73 13
REMARK SMILES IDX 75 14 79 15 74 16 76 17 78 18 77 19 5 20 4 21 2 22 1 23 3 26
REMARK SMILES IDX 16 27 17 28 18 29 19 30 20 31 21 32 22 33 23 34 24 35 25 36
REMARK SMILES IDX 26 37 72 38 27 39 71 40 28 41 29 42 30 43 65 44 31 45 70 46
REMARK SMILES IDX 64 47 66 48 32 49 69 50 63 51 62 52 33 54 55 55 40 56 54 57
REMARK SMILES IDX 41 58 44 59 53 60 67 61 42 62 43 63 52 65 68 66 45 67 34 68
REMARK SMILES IDX 35 69 39 70 36 71 38 72 37 73 56 74 57 75 61 76 58 77 60 78
REMARK SMILES IDX 59 79 46 80 47 81 51 82 48 83 50 84 49 85
REMARK H PARENT 6 12 1 24 1 25 66 53 44 64
REMARK Flexibility Score: inf
ROOT
ATOM      1  C   UNL A   1      36.076  22.972  24.744  1.00  0.00     0.188 C 
ENDROOT
BRANCH   1   2
ATOM      2  C   UNL A   1      34.604  23.410  24.692  1.00  0.00     0.188 C 
BRANCH   2   3
ATOM      3  O   UNL A   1      33.707  22.370  24.337  1.00  0.00    -0.376 OA
BRANCH   3   4
ATOM      4  C   UNL A   1      32.966  22.519  23.135  1.00  0.00     0.202 C 
BRANCH   4   5
ATOM      5  C   UNL A   1      33.120  23.833  22.341  1.00  0.00     0.261 C 
BRANCH   5   6
ATOM      6  O   UNL A   1      31.900  24.423  21.859  1.00  0.00    -0.459 OA
BRANCH   6   7
ATOM      7  C   UNL A   1      31.821  25.764  22.030  1.00  0.00     0.364 C 
ATOM      8  O   UNL A   1      31.037  26.432  21.365  1.00  0.00    -0.245 OA
BRANCH   7   9
ATOM      9  C   UNL A   1      32.666  26.310  23.219  1.00  0.00     0.295 C 
ATOM     10  N   UNL A   1      31.838  26.409  24.436  1.00  0.00    -0.320 N 
ATOM     11  C   UNL A   1      32.339  27.285  25.522  1.00  0.00     0.187 C 
ATOM     12  H   UNL A   1      31.059  26.891  23.988  1.00  0.00     0.349 HD
ATOM     13  C   UNL A   1      33.439  27.603  22.870  1.00  0.00     0.078 C 
ATOM     14  C   UNL A   1      33.205  28.499  25.112  1.00  0.00     0.048 C 
ATOM     15  C   UNL A   1      31.160  27.867  26.338  1.00  0.00     0.065 C 
ATOM     16  C   UNL A   1      34.232  28.100  24.074  1.00  0.00     0.016 C 
ATOM     17  C   UNL A   1      33.827  29.120  26.370  1.00  0.00     0.010 C 
ATOM     18  C   UNL A   1      31.658  28.600  27.586  1.00  0.00     0.006 C 
ATOM     19  C   UNL A   1      32.720  29.655  27.278  1.00  0.00     0.001 C 
BRANCH  10  20
ATOM     20  C   UNL A   1      31.243  25.160  25.010  1.00  0.00     0.273 C 
BRANCH  20  21
ATOM     21  C   UNL A   1      31.348  24.516  26.414  1.00  0.00     0.161 C 
BRANCH  21  22
ATOM     22  C   UNL A   1      30.713  23.174  26.712  1.00  0.00     0.223 C 
ATOM     23  N   UNL A   1      30.965  22.131  25.886  1.00  0.00    -0.369 N 
ATOM     24  H   UNL A   1      30.559  21.252  26.065  1.00  0.00     0.159 HD
ATOM     25  H   UNL A   1      31.552  22.252  25.105  1.00  0.00     0.159 HD
ATOM     26  O   UNL A   1      29.890  23.024  27.613  1.00  0.00    -0.275 OA
ENDBRANCH  21  22
ENDBRANCH  20  21
ENDBRANCH  10  20
ENDBRANCH   7   9
ENDBRANCH   6   7
ENDBRANCH   5   6
ENDBRANCH   4   5
ENDBRANCH   3   4
ENDBRANCH   2   3
ENDBRANCH   1   2
BRANCH   1  27
ATOM     27  O   UNL A   1      36.699  22.863  26.014  1.00  0.00    -0.377 OA
BRANCH  27  28
ATOM     28  C   UNL A   1      38.112  23.024  26.114  1.00  0.00     0.188 C 
BRANCH  28  29
ATOM     29  C   UNL A   1      39.035  21.788  26.065  1.00  0.00     0.188 C 
BRANCH  29  30
ATOM     30  O   UNL A   1      38.529  20.712  25.295  1.00  0.00    -0.376 OA
BRANCH  30  31
ATOM     31  C   UNL A   1      39.153  19.449  25.455  1.00  0.00     0.202 C 
BRANCH  31  32
ATOM     32  C   UNL A   1      40.516  19.403  26.166  1.00  0.00     0.261 C 
BRANCH  32  33
ATOM     33  O   UNL A   1      41.682  19.249  25.336  1.00  0.00    -0.460 OA
BRANCH  33  34
ATOM     34  C   UNL A   1      42.879  19.636  25.822  1.00  0.00     0.338 C 
ATOM     35  O   UNL A   1      43.942  19.042  25.725  1.00  0.00    -0.246 OA
BRANCH  34  36
ATOM     36  C   UNL A   1      42.739  21.025  26.314  1.00  0.00     0.060 A 
ATOM     37  C   UNL A   1      42.903  22.090  25.416  1.00  0.00     0.016 A 
ATOM     38  C   UNL A   1      42.426  21.275  27.652  1.00  0.00     0.016 A 
ATOM     39  C   UNL A   1      42.797  23.409  25.861  1.00  0.00     0.010 A 
ATOM     40  C   UNL A   1      42.351  22.596  28.104  1.00  0.00     0.010 A 
ATOM     41  C   UNL A   1      42.577  23.665  27.220  1.00  0.00    -0.014 A 
BRANCH  41  42
ATOM     42  C   UNL A   1      42.816  25.028  27.754  1.00  0.00     0.031 A 
ATOM     43  C   UNL A   1      44.233  25.417  28.083  1.00  0.00     0.074 A 
ATOM     44  C   UNL A   1      41.818  25.912  27.923  1.00  0.00     0.049 A 
ATOM     45  N   UNL A   1      44.691  26.520  28.615  1.00  0.00    -0.248 NA
ATOM     46  C   UNL A   1      45.273  24.422  27.768  1.00  0.00     0.031 C 
ATOM     47  C   UNL A   1      40.414  25.682  27.591  1.00  0.00     0.029 A 
ATOM     48  N   UNL A   1      41.842  27.187  28.432  1.00  0.00    -0.354 N 
ATOM     49  C   UNL A   1      46.067  26.346  28.711  1.00  0.00     0.074 A 
ATOM     50  C   UNL A   1      46.366  25.024  28.209  1.00  0.00     0.031 C 
ATOM     51  C   UNL A   1      39.706  26.778  27.918  1.00  0.00     0.029 A 
ATOM     52  C   UNL A   1      40.600  27.768  28.517  1.00  0.00     0.049 A 
ATOM     53  H   UNL A   1      42.670  27.642  28.708  1.00  0.00     0.167 HD
ATOM     54  C   UNL A   1      46.999  27.209  29.175  1.00  0.00     0.031 A 
ATOM     55  C   UNL A   1      40.226  28.951  29.046  1.00  0.00     0.031 A 
ATOM     56  C   UNL A   1      46.700  28.519  29.689  1.00  0.00     0.049 A 
ATOM     57  C   UNL A   1      41.272  29.863  29.634  1.00  0.00     0.074 A 
ATOM     58  C   UNL A   1      47.577  29.473  30.173  1.00  0.00     0.029 A 
ATOM     59  N   UNL A   1      45.425  29.054  29.793  1.00  0.00    -0.354 N 
ATOM     60  N   UNL A   1      42.571  29.695  29.708  1.00  0.00    -0.248 NA
ATOM     61  C   UNL A   1      40.798  31.133  30.205  1.00  0.00     0.031 C 
ATOM     62  C   UNL A   1      46.827  30.559  30.632  1.00  0.00     0.029 A 
ATOM     63  C   UNL A   1      45.490  30.313  30.363  1.00  0.00     0.049 A 
ATOM     64  H   UNL A   1      44.598  28.604  29.505  1.00  0.00     0.167 HD
ATOM     65  C   UNL A   1      43.071  30.847  30.304  1.00  0.00     0.074 A 
ATOM     66  C   UNL A   1      41.938  31.713  30.557  1.00  0.00     0.031 C 
ATOM     67  C   UNL A   1      44.354  31.163  30.611  1.00  0.00     0.031 A 
BRANCH  54  68
ATOM     68  C   UNL A   1      48.429  26.748  29.189  1.00  0.00    -0.014 A 
ATOM     69  C   UNL A   1      49.291  26.998  28.110  1.00  0.00     0.009 A 
ATOM     70  C   UNL A   1      48.932  26.086  30.320  1.00  0.00     0.009 A 
ATOM     71  C   UNL A   1      50.620  26.569  28.153  1.00  0.00     0.001 A 
ATOM     72  C   UNL A   1      50.268  25.688  30.374  1.00  0.00     0.001 A 
ATOM     73  C   UNL A   1      51.108  25.922  29.288  1.00  0.00     0.000 A 
ENDBRANCH  54  68
BRANCH  55  74
ATOM     74  C   UNL A   1      38.788  29.332  29.075  1.00  0.00    -0.014 A 
ATOM     75  C   UNL A   1      37.993  29.062  30.199  1.00  0.00     0.009 A 
ATOM     76  C   UNL A   1      38.198  29.952  27.961  1.00  0.00     0.009 A 
ATOM     77  C   UNL A   1      36.632  29.385  30.198  1.00  0.00     0.001 A 
ATOM     78  C   UNL A   1      36.845  30.302  27.975  1.00  0.00     0.001 A 
ATOM     79  C   UNL A   1      36.062  30.009  29.089  1.00  0.00     0.000 A 
ENDBRANCH  55  74
BRANCH  67  80
ATOM     80  C   UNL A   1      44.613  32.516  31.216  1.00  0.00    -0.014 A 
ATOM     81  C   UNL A   1      44.651  32.707  32.606  1.00  0.00     0.009 A 
ATOM     82  C   UNL A   1      44.878  33.611  30.374  1.00  0.00     0.009 A 
ATOM     83  C   UNL A   1      44.913  33.971  33.139  1.00  0.00     0.001 A 
ATOM     84  C   UNL A   1      45.173  34.864  30.910  1.00  0.00     0.001 A 
ATOM     85  C   UNL A   1      45.180  35.046  32.292  1.00  0.00     0.000 A 
ENDBRANCH  67  80
ENDBRANCH  41  42
ENDBRANCH  34  36
ENDBRANCH  33  34
ENDBRANCH  32  33
ENDBRANCH  31  32
ENDBRANCH  30  31
ENDBRANCH  29  30
ENDBRANCH  28  29
ENDBRANCH  27  28
ENDBRANCH   1  27
TORSDOF 23
ENDMDL
MODEL 3
REMARK VINA RESULT:      -9.1      1.253      6.074
REMARK SMILES NC(=O)CC[N@@H+]1[C@@H](C(=O)OCCOCCOCCOCCOC(=O)c2ccc(-c3c4nc(c(-c5ccccc5)c5ccc([nH]5)c(-c5ccccc5)c5nc(c(-c6ccccc6)c6ccc3[nH]6)C=C5)C=C4)cc2)CC[C@@H]2CCCC[C@H]21
REMARK SMILES IDX 15 1 14 2 13 3 12 4 11 5 10 6 8 7 9 8 7 9 6 10 80 11 73 13
REMARK SMILES IDX 75 14 79 15 74 16 76 17 78 18 77 19 5 20 4 21 2 22 1 23 3 26
REMARK SMILES IDX 16 27 17 28 18 29 19 30 20 31 21 32 22 33 23 34 24 35 25 36
REMARK SMILES IDX 26 37 72 38 27 39 71 40 28 41 29 42 30 43 65 44 31 45 70 46
REMARK SMILES IDX 64 47 66 48 32 49 69 50 63 51 62 52 33 54 55 55 40 56 54 57
REMARK SMILES IDX 41 58 44 59 53 60 67 61 42 62 43 63 52 65 68 66 45 67 34 68
REMARK SMILES IDX 35 69 39 70 36 71 38 72 37 73 56 74 57 75 61 76 58 77 60 78
REMARK SMILES IDX 59 79 46 80 47 81 51 82 48 83 50 84 49 85
REMARK H PARENT 6 12 1 24 1 25 66 53 44 64
REMARK Flexibility Score: inf
ROOT
ATOM      1  C   UNL A   1      38.691  22.263  25.841  1.00  0.00     0.188 C 
ENDROOT
BRANCH   1   2
ATOM      2  C   UNL A   1      37.180  22.527  25.948  1.00  0.00     0.188 C 
BRANCH   2   3
ATOM      3  O   UNL A   1      36.380  21.373  25.755  1.00  0.00    -0.376 OA
BRANCH   3   4
ATOM      4  C   UNL A   1      35.384  21.421  24.745  1.00  0.00     0.202 C 
BRANCH   4   5
ATOM      5  C   UNL A   1      34.647  22.756  24.509  1.00  0.00     0.261 C 
BRANCH   5   6
ATOM      6  O   UNL A   1      34.992  23.459  23.302  1.00  0.00    -0.459 OA
BRANCH   6   7
ATOM      7  C   UNL A   1      33.956  24.105  22.716  1.00  0.00     0.364 C 
ATOM      8  O   UNL A   1      33.497  23.710  21.651  1.00  0.00    -0.245 OA
BRANCH   7   9
ATOM      9  C   UNL A   1      33.335  25.241  23.584  1.00  0.00     0.295 C 
ATOM     10  N   UNL A   1      31.872  25.292  23.393  1.00  0.00    -0.320 N 
ATOM     11  C   UNL A   1      31.185  26.543  23.791  1.00  0.00     0.187 C 
ATOM     12  H   UNL A   1      31.903  25.269  22.374  1.00  0.00     0.349 HD
ATOM     13  C   UNL A   1      34.047  26.601  23.401  1.00  0.00     0.078 C 
ATOM     14  C   UNL A   1      31.993  27.858  23.695  1.00  0.00     0.048 C 
ATOM     15  C   UNL A   1      29.918  26.765  22.930  1.00  0.00     0.065 C 
ATOM     16  C   UNL A   1      33.386  27.676  24.259  1.00  0.00     0.016 C 
ATOM     17  C   UNL A   1      31.206  28.984  24.381  1.00  0.00     0.010 C 
ATOM     18  C   UNL A   1      29.084  27.932  23.462  1.00  0.00     0.006 C 
ATOM     19  C   UNL A   1      29.892  29.217  23.636  1.00  0.00     0.001 C 
BRANCH  10  20
ATOM     20  C   UNL A   1      31.050  24.102  23.782  1.00  0.00     0.273 C 
BRANCH  20  21
ATOM     21  C   UNL A   1      30.961  23.294  25.100  1.00  0.00     0.161 C 
BRANCH  21  22
ATOM     22  C   UNL A   1      30.791  23.986  26.436  1.00  0.00     0.223 C 
ATOM     23  N   UNL A   1      31.749  24.845  26.857  1.00  0.00    -0.369 N 
ATOM     24  H   UNL A   1      31.654  25.302  27.724  1.00  0.00     0.159 HD
ATOM     25  H   UNL A   1      32.542  25.010  26.299  1.00  0.00     0.159 HD
ATOM     26  O   UNL A   1      29.868  23.714  27.202  1.00  0.00    -0.275 OA
ENDBRANCH  21  22
ENDBRANCH  20  21
ENDBRANCH  10  20
ENDBRANCH   7   9
ENDBRANCH   6   7
ENDBRANCH   5   6
ENDBRANCH   4   5
ENDBRANCH   3   4
ENDBRANCH   2   3
ENDBRANCH   1   2
BRANCH   1  27
ATOM     27  O   UNL A   1      39.130  20.918  25.744  1.00  0.00    -0.377 OA
BRANCH  27  28
ATOM     28  C   UNL A   1      40.373  20.546  26.338  1.00  0.00     0.188 C 
BRANCH  28  29
ATOM     29  C   UNL A   1      41.584  21.500  26.256  1.00  0.00     0.188 C 
BRANCH  29  30
ATOM     30  O   UNL A   1      42.663  21.006  25.485  1.00  0.00    -0.376 OA
BRANCH  30  31
ATOM     31  C   UNL A   1      43.871  21.749  25.507  1.00  0.00     0.202 C 
BRANCH  31  32
ATOM     32  C   UNL A   1      44.057  22.854  24.454  1.00  0.00     0.261 C 
BRANCH  32  33
ATOM     33  O   UNL A   1      43.457  24.132  24.735  1.00  0.00    -0.460 OA
BRANCH  33  34
ATOM     34  C   UNL A   1      44.246  25.139  25.163  1.00  0.00     0.338 C 
ATOM     35  O   UNL A   1      45.308  25.501  24.681  1.00  0.00    -0.246 OA
BRANCH  34  36
ATOM     36  C   UNL A   1      43.498  25.889  26.197  1.00  0.00     0.060 A 
ATOM     37  C   UNL A   1      43.776  27.250  26.394  1.00  0.00     0.016 A 
ATOM     38  C   UNL A   1      42.512  25.255  26.958  1.00  0.00     0.016 A 
ATOM     39  C   UNL A   1      43.098  27.971  27.378  1.00  0.00     0.010 A 
ATOM     40  C   UNL A   1      41.856  25.970  27.964  1.00  0.00     0.010 A 
ATOM     41  C   UNL A   1      42.176  27.318  28.205  1.00  0.00    -0.014 A 
BRANCH  41  42
ATOM     42  C   UNL A   1      41.728  27.971  29.458  1.00  0.00     0.031 A 
ATOM     43  C   UNL A   1      40.497  28.835  29.401  1.00  0.00     0.074 A 
ATOM     44  C   UNL A   1      42.371  27.790  30.625  1.00  0.00     0.049 A 
ATOM     45  N   UNL A   1      39.942  29.557  30.339  1.00  0.00    -0.248 NA
ATOM     46  C   UNL A   1      39.799  28.893  28.104  1.00  0.00     0.031 C 
ATOM     47  C   UNL A   1      43.537  26.935  30.828  1.00  0.00     0.029 A 
ATOM     48  N   UNL A   1      42.128  28.333  31.863  1.00  0.00    -0.354 N 
ATOM     49  C   UNL A   1      38.841  30.163  29.744  1.00  0.00     0.074 A 
ATOM     50  C   UNL A   1      38.821  29.748  28.360  1.00  0.00     0.031 C 
ATOM     51  C   UNL A   1      43.920  27.022  32.115  1.00  0.00     0.029 A 
ATOM     52  C   UNL A   1      43.048  27.966  32.814  1.00  0.00     0.049 A 
ATOM     53  H   UNL A   1      41.366  28.927  32.051  1.00  0.00     0.167 HD
ATOM     54  C   UNL A   1      37.927  30.991  30.301  1.00  0.00     0.031 A 
ATOM     55  C   UNL A   1      43.188  28.370  34.092  1.00  0.00     0.031 A 
ATOM     56  C   UNL A   1      37.955  31.417  31.674  1.00  0.00     0.049 A 
ATOM     57  C   UNL A   1      42.206  29.359  34.668  1.00  0.00     0.074 A 
ATOM     58  C   UNL A   1      37.067  32.246  32.335  1.00  0.00     0.029 A 
ATOM     59  N   UNL A   1      38.926  31.053  32.593  1.00  0.00    -0.354 N 
ATOM     60  N   UNL A   1      41.162  29.915  34.101  1.00  0.00    -0.248 NA
ATOM     61  C   UNL A   1      42.420  29.769  36.065  1.00  0.00     0.031 C 
ATOM     62  C   UNL A   1      37.538  32.438  33.637  1.00  0.00     0.029 A 
ATOM     63  C   UNL A   1      38.677  31.666  33.808  1.00  0.00     0.049 A 
ATOM     64  H   UNL A   1      39.682  30.448  32.409  1.00  0.00     0.167 HD
ATOM     65  C   UNL A   1      40.579  30.715  35.078  1.00  0.00     0.074 A 
ATOM     66  C   UNL A   1      41.376  30.558  36.278  1.00  0.00     0.031 C 
ATOM     67  C   UNL A   1      39.479  31.504  34.993  1.00  0.00     0.031 A 
BRANCH  54  68
ATOM     68  C   UNL A   1      36.842  31.527  29.410  1.00  0.00    -0.014 A 
ATOM     69  C   UNL A   1      36.910  32.820  28.868  1.00  0.00     0.009 A 
ATOM     70  C   UNL A   1      35.752  30.708  29.077  1.00  0.00     0.009 A 
ATOM     71  C   UNL A   1      35.894  33.290  28.032  1.00  0.00     0.001 A 
ATOM     72  C   UNL A   1      34.755  31.168  28.217  1.00  0.00     0.001 A 
ATOM     73  C   UNL A   1      34.822  32.461  27.701  1.00  0.00     0.000 A 
ENDBRANCH  54  68
BRANCH  55  74
ATOM     74  C   UNL A   1      44.322  27.867  34.913  1.00  0.00    -0.014 A 
ATOM     75  C   UNL A   1      44.175  26.738  35.733  1.00  0.00     0.009 A 
ATOM     76  C   UNL A   1      45.559  28.533  34.895  1.00  0.00     0.009 A 
ATOM     77  C   UNL A   1      45.234  26.300  36.534  1.00  0.00     0.001 A 
ATOM     78  C   UNL A   1      46.625  28.075  35.673  1.00  0.00     0.001 A 
ATOM     79  C   UNL A   1      46.459  26.965  36.498  1.00  0.00     0.000 A 
ENDBRANCH  55  74
BRANCH  67  80
ATOM     80  C   UNL A   1      39.043  32.229  36.237  1.00  0.00    -0.014 A 
ATOM     81  C   UNL A   1      39.521  33.512  36.548  1.00  0.00     0.009 A 
ATOM     82  C   UNL A   1      38.093  31.636  37.086  1.00  0.00     0.009 A 
ATOM     83  C   UNL A   1      39.084  34.169  37.701  1.00  0.00     0.001 A 
ATOM     84  C   UNL A   1      37.632  32.309  38.217  1.00  0.00     0.001 A 
ATOM     85  C   UNL A   1      38.136  33.571  38.530  1.00  0.00     0.000 A 
ENDBRANCH  67  80
ENDBRANCH  41  42
ENDBRANCH  34  36
ENDBRANCH  33  34
ENDBRANCH  32  33
ENDBRANCH  31  32
ENDBRANCH  30  31
ENDBRANCH  29  30
ENDBRANCH  28  29
ENDBRANCH  27  28
ENDBRANCH   1  27
TORSDOF 23
ENDMDL
