MODEL 1
REMARK VINA RESULT:     -10.4      0.000      0.000
REMARK SMILES Cc1ccc(CNc2ccc(C(=O)OCCOCCOCCOCCOC(=O)c3ccc(-c4c5nc(c(-c6ccccc6)c6ccc([nH]6)c(-c6ccccc6)c6nc(c(-c7ccccc7)c7ccc4[nH]7)C=C6)C=C5)cc3)cc2Br)cc1
REMARK SMILES IDX 19 1 18 2 17 3 16 4 15 5 14 6 12 7 13 8 11 9 8 10 9 11 78 12
REMARK SMILES IDX 10 13 77 14 79 15 7 16 6 18 5 19 1 20 2 21 3 22 81 23 4 24
REMARK SMILES IDX 80 25 20 26 21 27 22 28 23 29 24 30 25 31 26 32 27 33 28 34
REMARK SMILES IDX 29 35 30 36 76 37 31 38 75 39 32 40 33 41 34 42 69 43 35 44
REMARK SMILES IDX 74 45 68 46 70 47 36 48 73 49 67 50 66 51 37 53 59 54 44 55
REMARK SMILES IDX 58 56 45 57 48 58 57 59 71 60 46 61 47 62 56 64 72 65 49 66
REMARK SMILES IDX 38 67 39 68 43 69 40 70 42 71 41 72 60 73 61 74 65 75 62 76
REMARK SMILES IDX 64 77 63 78 50 79 51 80 55 81 52 82 54 83 53 84
REMARK H PARENT 7 17 70 52 48 63
REMARK Flexibility Score: inf
ROOT
ATOM      1  C   UNL A   1      34.620  34.733  28.167  1.00  0.00     0.188 C 
ENDROOT
BRANCH   1   2
ATOM      2  C   UNL A   1      35.590  33.493  28.377  1.00  0.00     0.188 C 
BRANCH   2   3
ATOM      3  O   UNL A   1      35.470  32.226  27.528  1.00  0.00    -0.376 OA
BRANCH   3   4
ATOM      4  C   UNL A   1      34.499  30.955  27.550  1.00  0.00     0.202 C 
BRANCH   4   5
ATOM      5  C   UNL A   1      32.785  30.438  27.121  1.00  0.00     0.261 C 
BRANCH   5   6
ATOM      6  O   UNL A   1      31.962  29.726  25.653  1.00  0.00    -0.460 OA
BRANCH   6   7
ATOM      7  C   UNL A   1      31.914  28.691  24.481  1.00  0.00     0.338 C 
ATOM      8  O   UNL A   1      32.236  29.110  23.359  1.00  0.00    -0.246 OA
BRANCH   7   9
ATOM      9  C   UNL A   1      31.359  27.110  24.341  1.00  0.00     0.061 A 
ATOM     10  C   UNL A   1      31.097  24.194  24.095  1.00  0.00     0.049 A 
ATOM     11  C   UNL A   1      30.657  25.037  23.108  1.00  0.00     0.028 A 
ATOM     12  C   UNL A   1      31.516  24.821  25.283  1.00  0.00     0.042 A 
ATOM     13  C   UNL A   1      30.664  26.427  23.308  1.00  0.00     0.018 A 
ATOM     14  C   UNL A   1      31.693  26.235  25.386  1.00  0.00     0.033 A 
ATOM     15  Br  UNL A   1      31.862  23.772  26.831  1.00  0.00    -0.049 Br
BRANCH  10  16
ATOM     16  N   UNL A   1      31.134  22.824  23.862  1.00  0.00    -0.380 N 
ATOM     17  H   UNL A   1      30.442  22.242  24.254  1.00  0.00     0.160 HD
BRANCH  16  18
ATOM     18  C   UNL A   1      32.199  22.240  23.035  1.00  0.00     0.148 C 
BRANCH  18  19
ATOM     19  C   UNL A   1      32.489  20.850  23.560  1.00  0.00    -0.029 A 
ATOM     20  C   UNL A   1      32.598  16.960  25.409  1.00  0.00     0.044 C 
ATOM     21  C   UNL A   1      32.652  18.295  24.729  1.00  0.00    -0.051 A 
ATOM     22  C   UNL A   1      32.940  19.435  25.482  1.00  0.00     0.004 A 
ATOM     23  C   UNL A   1      32.357  18.434  23.367  1.00  0.00     0.004 A 
ATOM     24  C   UNL A   1      32.885  20.696  24.896  1.00  0.00     0.006 A 
ATOM     25  C   UNL A   1      32.275  19.704  22.784  1.00  0.00     0.006 A 
ENDBRANCH  18  19
ENDBRANCH  16  18
ENDBRANCH  10  16
ENDBRANCH   7   9
ENDBRANCH   6   7
ENDBRANCH   5   6
ENDBRANCH   4   5
ENDBRANCH   3   4
ENDBRANCH   2   3
ENDBRANCH   1   2
BRANCH   1  26
ATOM     26  O   UNL A   1      33.435  34.809  28.949  1.00  0.00    -0.377 OA
BRANCH  26  27
ATOM     27  C   UNL A   1      32.924  36.120  29.077  1.00  0.00     0.188 C 
BRANCH  27  28
ATOM     28  C   UNL A   1      33.339  36.775  30.399  1.00  0.00     0.188 C 
BRANCH  28  29
ATOM     29  O   UNL A   1      32.251  36.844  31.325  1.00  0.00    -0.376 OA
BRANCH  29  30
ATOM     30  C   UNL A   1      32.339  35.985  32.456  1.00  0.00     0.202 C 
BRANCH  30  31
ATOM     31  C   UNL A   1      33.783  35.707  32.898  1.00  0.00     0.261 C 
BRANCH  31  32
ATOM     32  O   UNL A   1      33.934  34.302  33.183  1.00  0.00    -0.460 OA
BRANCH  32  33
ATOM     33  C   UNL A   1      34.648  33.605  32.276  1.00  0.00     0.338 C 
ATOM     34  O   UNL A   1      34.180  32.780  31.477  1.00  0.00    -0.246 OA
BRANCH  33  35
ATOM     35  C   UNL A   1      36.100  33.757  32.555  1.00  0.00     0.060 A 
ATOM     36  C   UNL A   1      36.912  34.429  31.652  1.00  0.00     0.016 A 
ATOM     37  C   UNL A   1      36.709  33.001  33.566  1.00  0.00     0.016 A 
ATOM     38  C   UNL A   1      38.294  34.192  31.682  1.00  0.00     0.010 A 
ATOM     39  C   UNL A   1      38.054  32.630  33.462  1.00  0.00     0.010 A 
ATOM     40  C   UNL A   1      38.849  33.113  32.418  1.00  0.00    -0.014 A 
BRANCH  40  41
ATOM     41  C   UNL A   1      40.331  32.516  32.236  1.00  0.00     0.031 A 
ATOM     42  C   UNL A   1      39.681  31.094  31.390  1.00  0.00     0.074 A 
ATOM     43  C   UNL A   1      41.801  32.807  32.923  1.00  0.00     0.049 A 
ATOM     44  N   UNL A   1      39.760  29.843  31.796  1.00  0.00    -0.248 NA
ATOM     45  C   UNL A   1      38.795  31.138  30.206  1.00  0.00     0.031 C 
ATOM     46  C   UNL A   1      43.337  32.115  32.813  1.00  0.00     0.029 A 
ATOM     47  N   UNL A   1      42.324  33.546  34.117  1.00  0.00    -0.354 N 
ATOM     48  C   UNL A   1      39.611  29.051  30.697  1.00  0.00     0.074 A 
ATOM     49  C   UNL A   1      38.707  29.835  29.877  1.00  0.00     0.031 C 
ATOM     50  C   UNL A   1      44.219  32.429  33.758  1.00  0.00     0.029 A 
ATOM     51  C   UNL A   1      43.448  32.984  34.789  1.00  0.00     0.049 A 
ATOM     52  H   UNL A   1      41.910  34.383  34.425  1.00  0.00     0.167 HD
ATOM     53  C   UNL A   1      40.489  28.038  30.372  1.00  0.00     0.031 A 
ATOM     54  C   UNL A   1      43.511  32.492  36.071  1.00  0.00     0.031 A 
ATOM     55  C   UNL A   1      41.763  27.981  31.174  1.00  0.00     0.049 A 
ATOM     56  C   UNL A   1      43.838  30.968  36.059  1.00  0.00     0.074 A 
ATOM     57  C   UNL A   1      43.072  28.300  30.807  1.00  0.00     0.029 A 
ATOM     58  N   UNL A   1      41.832  27.811  32.570  1.00  0.00    -0.354 N 
ATOM     59  N   UNL A   1      43.651  30.195  35.015  1.00  0.00    -0.248 NA
ATOM     60  C   UNL A   1      44.367  30.200  37.179  1.00  0.00     0.031 C 
ATOM     61  C   UNL A   1      43.889  28.411  31.963  1.00  0.00     0.029 A 
ATOM     62  C   UNL A   1      43.124  28.098  33.071  1.00  0.00     0.049 A 
ATOM     63  H   UNL A   1      41.074  27.527  33.130  1.00  0.00     0.167 HD
ATOM     64  C   UNL A   1      43.866  28.874  35.311  1.00  0.00     0.074 A 
ATOM     65  C   UNL A   1      44.416  28.953  36.661  1.00  0.00     0.031 C 
ATOM     66  C   UNL A   1      43.548  27.832  34.465  1.00  0.00     0.031 A 
BRANCH  53  67
ATOM     67  C   UNL A   1      40.357  27.425  28.974  1.00  0.00    -0.014 A 
ATOM     68  C   UNL A   1      39.636  26.242  28.734  1.00  0.00     0.009 A 
ATOM     69  C   UNL A   1      41.003  27.980  27.850  1.00  0.00     0.009 A 
ATOM     70  C   UNL A   1      39.683  25.571  27.503  1.00  0.00     0.001 A 
ATOM     71  C   UNL A   1      41.089  27.296  26.625  1.00  0.00     0.001 A 
ATOM     72  C   UNL A   1      40.444  26.078  26.458  1.00  0.00     0.000 A 
ENDBRANCH  53  67
BRANCH  54  73
ATOM     73  C   UNL A   1      42.684  33.196  37.111  1.00  0.00    -0.014 A 
ATOM     74  C   UNL A   1      41.740  32.431  37.832  1.00  0.00     0.009 A 
ATOM     75  C   UNL A   1      42.968  34.483  37.593  1.00  0.00     0.009 A 
ATOM     76  C   UNL A   1      41.245  32.855  39.072  1.00  0.00     0.001 A 
ATOM     77  C   UNL A   1      42.495  34.895  38.852  1.00  0.00     0.001 A 
ATOM     78  C   UNL A   1      41.663  34.067  39.605  1.00  0.00     0.000 A 
ENDBRANCH  54  73
BRANCH  66  79
ATOM     79  C   UNL A   1      43.767  26.373  34.807  1.00  0.00    -0.014 A 
ATOM     80  C   UNL A   1      42.761  25.495  35.222  1.00  0.00     0.009 A 
ATOM     81  C   UNL A   1      45.055  25.814  34.613  1.00  0.00     0.009 A 
ATOM     82  C   UNL A   1      43.037  24.146  35.481  1.00  0.00     0.001 A 
ATOM     83  C   UNL A   1      45.323  24.461  34.822  1.00  0.00     0.001 A 
ATOM     84  C   UNL A   1      44.312  23.627  35.271  1.00  0.00     0.000 A 
ENDBRANCH  66  79
ENDBRANCH  40  41
ENDBRANCH  33  35
ENDBRANCH  32  33
ENDBRANCH  31  32
ENDBRANCH  30  31
ENDBRANCH  29  30
ENDBRANCH  28  29
ENDBRANCH  27  28
ENDBRANCH  26  27
ENDBRANCH   1  26
TORSDOF 23
ENDMDL
MODEL 2
REMARK VINA RESULT:      -8.9      3.152      6.273
REMARK SMILES Cc1ccc(CNc2ccc(C(=O)OCCOCCOCCOCCOC(=O)c3ccc(-c4c5nc(c(-c6ccccc6)c6ccc([nH]6)c(-c6ccccc6)c6nc(c(-c7ccccc7)c7ccc4[nH]7)C=C6)C=C5)cc3)cc2Br)cc1
REMARK SMILES IDX 19 1 18 2 17 3 16 4 15 5 14 6 12 7 13 8 11 9 8 10 9 11 78 12
REMARK SMILES IDX 10 13 77 14 79 15 7 16 6 18 5 19 1 20 2 21 3 22 81 23 4 24
REMARK SMILES IDX 80 25 20 26 21 27 22 28 23 29 24 30 25 31 26 32 27 33 28 34
REMARK SMILES IDX 29 35 30 36 76 37 31 38 75 39 32 40 33 41 34 42 69 43 35 44
REMARK SMILES IDX 74 45 68 46 70 47 36 48 73 49 67 50 66 51 37 53 59 54 44 55
REMARK SMILES IDX 58 56 45 57 48 58 57 59 71 60 46 61 47 62 56 64 72 65 49 66
REMARK SMILES IDX 38 67 39 68 43 69 40 70 42 71 41 72 60 73 61 74 65 75 62 76
REMARK SMILES IDX 64 77 63 78 50 79 51 80 55 81 52 82 54 83 53 84
REMARK H PARENT 7 17 70 52 48 63
REMARK Flexibility Score: inf
ROOT
ATOM      1  C   UNL A   1      37.693  32.599  29.147  1.00  0.00     0.188 C 
ENDROOT
BRANCH   1   2
ATOM      2  C   UNL A   1      38.464  31.451  29.928  1.00  0.00     0.188 C 
BRANCH   2   3
ATOM      3  O   UNL A   1      37.829  30.083  30.179  1.00  0.00    -0.376 OA
BRANCH   3   4
ATOM      4  C   UNL A   1      38.320  28.573  29.990  1.00  0.00     0.202 C 
BRANCH   4   5
ATOM      5  C   UNL A   1      39.250  27.489  28.828  1.00  0.00     0.261 C 
BRANCH   5   6
ATOM      6  O   UNL A   1      38.814  26.203  27.605  1.00  0.00    -0.460 OA
BRANCH   6   7
ATOM      7  C   UNL A   1      39.010  24.776  26.993  1.00  0.00     0.338 C 
ATOM      8  O   UNL A   1      40.180  24.386  26.864  1.00  0.00    -0.246 OA
BRANCH   7   9
ATOM      9  C   UNL A   1      37.972  23.652  26.296  1.00  0.00     0.061 A 
ATOM     10  C   UNL A   1      35.873  21.671  25.744  1.00  0.00     0.049 A 
ATOM     11  C   UNL A   1      37.202  21.351  25.647  1.00  0.00     0.028 A 
ATOM     12  C   UNL A   1      35.595  23.034  25.955  1.00  0.00     0.042 A 
ATOM     13  C   UNL A   1      38.184  22.347  25.778  1.00  0.00     0.018 A 
ATOM     14  C   UNL A   1      36.609  23.987  26.274  1.00  0.00     0.033 A 
ATOM     15  Br  UNL A   1      33.806  23.663  25.808  1.00  0.00    -0.049 Br
BRANCH  10  16
ATOM     16  N   UNL A   1      34.917  20.666  25.666  1.00  0.00    -0.380 N 
ATOM     17  H   UNL A   1      34.550  20.275  26.492  1.00  0.00     0.160 HD
BRANCH  16  18
ATOM     18  C   UNL A   1      34.450  20.185  24.358  1.00  0.00     0.148 C 
BRANCH  18  19
ATOM     19  C   UNL A   1      33.806  18.830  24.562  1.00  0.00    -0.029 A 
ATOM     20  C   UNL A   1      32.670  14.779  25.490  1.00  0.00     0.044 C 
ATOM     21  C   UNL A   1      32.975  16.200  25.123  1.00  0.00    -0.051 A 
ATOM     22  C   UNL A   1      33.796  16.461  24.024  1.00  0.00     0.004 A 
ATOM     23  C   UNL A   1      32.509  17.271  25.896  1.00  0.00     0.004 A 
ATOM     24  C   UNL A   1      34.184  17.765  23.732  1.00  0.00     0.006 A 
ATOM     25  C   UNL A   1      32.922  18.579  25.619  1.00  0.00     0.006 A 
ENDBRANCH  18  19
ENDBRANCH  16  18
ENDBRANCH  10  16
ENDBRANCH   7   9
ENDBRANCH   6   7
ENDBRANCH   5   6
ENDBRANCH   4   5
ENDBRANCH   3   4
ENDBRANCH   2   3
ENDBRANCH   1   2
BRANCH   1  26
ATOM     26  O   UNL A   1      36.868  33.490  29.887  1.00  0.00    -0.377 OA
BRANCH  26  27
ATOM     27  C   UNL A   1      35.647  32.916  30.306  1.00  0.00     0.188 C 
BRANCH  27  28
ATOM     28  C   UNL A   1      35.493  32.938  31.831  1.00  0.00     0.188 C 
BRANCH  28  29
ATOM     29  O   UNL A   1      36.320  33.935  32.438  1.00  0.00    -0.376 OA
BRANCH  29  30
ATOM     30  C   UNL A   1      37.128  33.499  33.524  1.00  0.00     0.202 C 
BRANCH  30  31
ATOM     31  C   UNL A   1      36.369  33.431  34.858  1.00  0.00     0.261 C 
BRANCH  31  32
ATOM     32  O   UNL A   1      37.048  32.525  35.749  1.00  0.00    -0.460 OA
BRANCH  32  33
ATOM     33  C   UNL A   1      37.999  33.086  36.524  1.00  0.00     0.338 C 
ATOM     34  O   UNL A   1      37.902  34.183  37.095  1.00  0.00    -0.246 OA
BRANCH  33  35
ATOM     35  C   UNL A   1      39.277  32.342  36.369  1.00  0.00     0.060 A 
ATOM     36  C   UNL A   1      40.470  32.923  36.776  1.00  0.00     0.016 A 
ATOM     37  C   UNL A   1      39.332  31.190  35.573  1.00  0.00     0.016 A 
ATOM     38  C   UNL A   1      41.672  32.439  36.241  1.00  0.00     0.010 A 
ATOM     39  C   UNL A   1      40.514  30.846  34.906  1.00  0.00     0.010 A 
ATOM     40  C   UNL A   1      41.692  31.565  35.122  1.00  0.00    -0.014 A 
BRANCH  40  41
ATOM     41  C   UNL A   1      42.971  31.250  34.200  1.00  0.00     0.031 A 
ATOM     42  C   UNL A   1      42.309  32.260  32.895  1.00  0.00     0.074 A 
ATOM     43  C   UNL A   1      44.171  30.120  34.211  1.00  0.00     0.049 A 
ATOM     44  N   UNL A   1      41.958  31.848  31.693  1.00  0.00    -0.248 NA
ATOM     45  C   UNL A   1      41.882  33.669  33.041  1.00  0.00     0.031 C 
ATOM     46  C   UNL A   1      45.453  29.718  33.190  1.00  0.00     0.029 A 
ATOM     47  N   UNL A   1      44.444  28.821  34.908  1.00  0.00    -0.354 N 
ATOM     48  C   UNL A   1      41.985  32.933  30.870  1.00  0.00     0.074 A 
ATOM     49  C   UNL A   1      41.600  34.006  31.768  1.00  0.00     0.031 C 
ATOM     50  C   UNL A   1      46.036  28.536  33.375  1.00  0.00     0.029 A 
ATOM     51  C   UNL A   1      45.130  27.817  34.166  1.00  0.00     0.049 A 
ATOM     52  H   UNL A   1      44.162  28.668  35.838  1.00  0.00     0.167 HD
ATOM     53  C   UNL A   1      42.656  32.950  29.665  1.00  0.00     0.031 A 
ATOM     54  C   UNL A   1      44.664  26.584  33.775  1.00  0.00     0.031 A 
ATOM     55  C   UNL A   1      43.558  31.775  29.391  1.00  0.00     0.049 A 
ATOM     56  C   UNL A   1      44.610  26.485  32.221  1.00  0.00     0.074 A 
ATOM     57  C   UNL A   1      44.951  31.692  29.382  1.00  0.00     0.029 A 
ATOM     58  N   UNL A   1      43.137  30.433  29.321  1.00  0.00    -0.354 N 
ATOM     59  N   UNL A   1      44.589  27.531  31.428  1.00  0.00    -0.248 NA
ATOM     60  C   UNL A   1      44.559  25.252  31.445  1.00  0.00     0.031 C 
ATOM     61  C   UNL A   1      45.360  30.333  29.401  1.00  0.00     0.029 A 
ATOM     62  C   UNL A   1      44.231  29.537  29.354  1.00  0.00     0.049 A 
ATOM     63  H   UNL A   1      42.196  30.152  29.257  1.00  0.00     0.167 HD
ATOM     64  C   UNL A   1      44.382  27.178  30.120  1.00  0.00     0.074 A 
ATOM     65  C   UNL A   1      44.476  25.723  30.182  1.00  0.00     0.031 C 
ATOM     66  C   UNL A   1      44.114  28.080  29.111  1.00  0.00     0.031 A 
BRANCH  53  67
ATOM     67  C   UNL A   1      42.837  34.313  28.989  1.00  0.00    -0.014 A 
ATOM     68  C   UNL A   1      41.784  35.236  28.861  1.00  0.00     0.009 A 
ATOM     69  C   UNL A   1      44.057  34.701  28.399  1.00  0.00     0.009 A 
ATOM     70  C   UNL A   1      41.889  36.390  28.068  1.00  0.00     0.001 A 
ATOM     71  C   UNL A   1      44.161  35.831  27.571  1.00  0.00     0.001 A 
ATOM     72  C   UNL A   1      43.067  36.667  27.389  1.00  0.00     0.000 A 
ENDBRANCH  53  67
BRANCH  54  73
ATOM     73  C   UNL A   1      43.739  25.874  34.725  1.00  0.00    -0.014 A 
ATOM     74  C   UNL A   1      44.260  25.468  35.974  1.00  0.00     0.009 A 
ATOM     75  C   UNL A   1      42.346  25.824  34.566  1.00  0.00     0.009 A 
ATOM     76  C   UNL A   1      43.425  25.205  37.067  1.00  0.00     0.001 A 
ATOM     77  C   UNL A   1      41.509  25.590  35.671  1.00  0.00     0.001 A 
ATOM     78  C   UNL A   1      42.048  25.315  36.927  1.00  0.00     0.000 A 
ENDBRANCH  54  73
BRANCH  66  79
ATOM     79  C   UNL A   1      43.863  27.682  27.671  1.00  0.00    -0.014 A 
ATOM     80  C   UNL A   1      44.866  27.472  26.719  1.00  0.00     0.009 A 
ATOM     81  C   UNL A   1      42.535  27.412  27.261  1.00  0.00     0.009 A 
ATOM     82  C   UNL A   1      44.554  27.064  25.415  1.00  0.00     0.001 A 
ATOM     83  C   UNL A   1      42.224  26.958  25.979  1.00  0.00     0.001 A 
ATOM     84  C   UNL A   1      43.237  26.798  25.049  1.00  0.00     0.000 A 
ENDBRANCH  66  79
ENDBRANCH  40  41
ENDBRANCH  33  35
ENDBRANCH  32  33
ENDBRANCH  31  32
ENDBRANCH  30  31
ENDBRANCH  29  30
ENDBRANCH  28  29
ENDBRANCH  27  28
ENDBRANCH  26  27
ENDBRANCH   1  26
TORSDOF 23
ENDMDL
MODEL 3
REMARK VINA RESULT:      -8.9      5.688      8.151
REMARK SMILES Cc1ccc(CNc2ccc(C(=O)OCCOCCOCCOCCOC(=O)c3ccc(-c4c5nc(c(-c6ccccc6)c6ccc([nH]6)c(-c6ccccc6)c6nc(c(-c7ccccc7)c7ccc4[nH]7)C=C6)C=C5)cc3)cc2Br)cc1
REMARK SMILES IDX 19 1 18 2 17 3 16 4 15 5 14 6 12 7 13 8 11 9 8 10 9 11 78 12
REMARK SMILES IDX 10 13 77 14 79 15 7 16 6 18 5 19 1 20 2 21 3 22 81 23 4 24
REMARK SMILES IDX 80 25 20 26 21 27 22 28 23 29 24 30 25 31 26 32 27 33 28 34
REMARK SMILES IDX 29 35 30 36 76 37 31 38 75 39 32 40 33 41 34 42 69 43 35 44
REMARK SMILES IDX 74 45 68 46 70 47 36 48 73 49 67 50 66 51 37 53 59 54 44 55
REMARK SMILES IDX 58 56 45 57 48 58 57 59 71 60 46 61 47 62 56 64 72 65 49 66
REMARK SMILES IDX 38 67 39 68 43 69 40 70 42 71 41 72 60 73 61 74 65 75 62 76
REMARK SMILES IDX 64 77 63 78 50 79 51 80 55 81 52 82 54 83 53 84
REMARK H PARENT 7 17 70 52 48 63
REMARK Flexibility Score: inf
ROOT
ATOM      1  C   UNL A   1      39.806  30.361  33.624  1.00  0.00     0.188 C 
ENDROOT
BRANCH   1   2
ATOM      2  C   UNL A   1      39.974  29.504  32.297  1.00  0.00     0.188 C 
BRANCH   2   3
ATOM      3  O   UNL A   1      38.841  29.369  31.279  1.00  0.00    -0.376 OA
BRANCH   3   4
ATOM      4  C   UNL A   1      38.783  29.184  29.691  1.00  0.00     0.202 C 
BRANCH   4   5
ATOM      5  C   UNL A   1      37.901  29.796  28.196  1.00  0.00     0.261 C 
BRANCH   5   6
ATOM      6  O   UNL A   1      36.204  29.660  27.531  1.00  0.00    -0.460 OA
BRANCH   6   7
ATOM      7  C   UNL A   1      34.730  30.177  27.430  1.00  0.00     0.338 C 
ATOM      8  O   UNL A   1      34.454  31.192  28.087  1.00  0.00    -0.246 OA
BRANCH   7   9
ATOM      9  C   UNL A   1      33.326  29.573  26.730  1.00  0.00     0.061 A 
ATOM     10  C   UNL A   1      31.341  28.129  25.115  1.00  0.00     0.049 A 
ATOM     11  C   UNL A   1      31.470  29.491  25.039  1.00  0.00     0.028 A 
ATOM     12  C   UNL A   1      32.095  27.506  26.127  1.00  0.00     0.042 A 
ATOM     13  C   UNL A   1      32.326  30.173  25.921  1.00  0.00     0.018 A 
ATOM     14  C   UNL A   1      33.096  28.196  26.877  1.00  0.00     0.033 A 
ATOM     15  Br  UNL A   1      31.786  25.676  26.540  1.00  0.00    -0.049 Br
BRANCH  10  16
ATOM     16  N   UNL A   1      30.532  27.464  24.201  1.00  0.00    -0.380 N 
ATOM     17  H   UNL A   1      29.619  27.201  24.457  1.00  0.00     0.160 HD
BRANCH  16  18
ATOM     18  C   UNL A   1      31.034  27.152  22.855  1.00  0.00     0.148 C 
BRANCH  18  19
ATOM     19  C   UNL A   1      31.425  25.690  22.830  1.00  0.00    -0.029 A 
ATOM     20  C   UNL A   1      32.853  21.678  23.479  1.00  0.00     0.044 C 
ATOM     21  C   UNL A   1      32.323  23.043  23.162  1.00  0.00    -0.051 A 
ATOM     22  C   UNL A   1      33.210  24.044  22.757  1.00  0.00     0.004 A 
ATOM     23  C   UNL A   1      30.968  23.358  23.326  1.00  0.00     0.004 A 
ATOM     24  C   UNL A   1      32.758  25.346  22.567  1.00  0.00     0.006 A 
ATOM     25  C   UNL A   1      30.520  24.673  23.161  1.00  0.00     0.006 A 
ENDBRANCH  18  19
ENDBRANCH  16  18
ENDBRANCH  10  16
ENDBRANCH   7   9
ENDBRANCH   6   7
ENDBRANCH   5   6
ENDBRANCH   4   5
ENDBRANCH   3   4
ENDBRANCH   2   3
ENDBRANCH   1   2
BRANCH   1  26
ATOM     26  O   UNL A   1      38.667  30.130  34.443  1.00  0.00    -0.377 OA
BRANCH  26  27
ATOM     27  C   UNL A   1      37.584  30.993  34.164  1.00  0.00     0.188 C 
BRANCH  27  28
ATOM     28  C   UNL A   1      37.802  32.397  34.739  1.00  0.00     0.188 C 
BRANCH  28  29
ATOM     29  O   UNL A   1      37.600  32.432  36.154  1.00  0.00    -0.376 OA
BRANCH  29  30
ATOM     30  C   UNL A   1      38.672  32.959  36.926  1.00  0.00     0.202 C 
BRANCH  30  31
ATOM     31  C   UNL A   1      39.982  33.094  36.134  1.00  0.00     0.261 C 
BRANCH  31  32
ATOM     32  O   UNL A   1      40.469  34.446  36.242  1.00  0.00    -0.460 OA
BRANCH  32  33
ATOM     33  C   UNL A   1      40.158  35.252  35.206  1.00  0.00     0.338 C 
ATOM     34  O   UNL A   1      39.370  36.209  35.255  1.00  0.00    -0.246 OA
BRANCH  33  35
ATOM     35  C   UNL A   1      40.672  34.666  33.940  1.00  0.00     0.060 A 
ATOM     36  C   UNL A   1      42.019  34.774  33.624  1.00  0.00     0.016 A 
ATOM     37  C   UNL A   1      39.782  34.254  32.939  1.00  0.00     0.016 A 
ATOM     38  C   UNL A   1      42.410  34.633  32.285  1.00  0.00     0.010 A 
ATOM     39  C   UNL A   1      40.157  34.304  31.592  1.00  0.00     0.010 A 
ATOM     40  C   UNL A   1      41.464  34.641  31.226  1.00  0.00    -0.014 A 
BRANCH  40  41
ATOM     41  C   UNL A   1      41.798  34.865  29.670  1.00  0.00     0.031 A 
ATOM     42  C   UNL A   1      42.576  33.269  29.582  1.00  0.00     0.074 A 
ATOM     43  C   UNL A   1      41.851  36.167  28.661  1.00  0.00     0.049 A 
ATOM     44  N   UNL A   1      43.846  33.034  29.315  1.00  0.00    -0.248 NA
ATOM     45  C   UNL A   1      41.949  31.991  29.985  1.00  0.00     0.031 C 
ATOM     46  C   UNL A   1      42.302  36.427  27.055  1.00  0.00     0.029 A 
ATOM     47  N   UNL A   1      41.841  37.659  28.799  1.00  0.00    -0.354 N 
ATOM     48  C   UNL A   1      43.933  31.754  28.858  1.00  0.00     0.074 A 
ATOM     49  C   UNL A   1      42.876  31.093  29.601  1.00  0.00     0.031 C 
ATOM     50  C   UNL A   1      42.501  37.685  26.671  1.00  0.00     0.029 A 
ATOM     51  C   UNL A   1      42.621  38.404  27.868  1.00  0.00     0.049 A 
ATOM     52  H   UNL A   1      41.319  38.107  29.503  1.00  0.00     0.167 HD
ATOM     53  C   UNL A   1      44.572  31.412  27.684  1.00  0.00     0.031 A 
ATOM     54  C   UNL A   1      43.718  39.192  28.119  1.00  0.00     0.031 A 
ATOM     55  C   UNL A   1      44.988  32.557  26.797  1.00  0.00     0.049 A 
ATOM     56  C   UNL A   1      44.982  38.616  27.412  1.00  0.00     0.074 A 
ATOM     57  C   UNL A   1      44.460  32.989  25.580  1.00  0.00     0.029 A 
ATOM     58  N   UNL A   1      45.874  33.585  27.169  1.00  0.00    -0.354 N 
ATOM     59  N   UNL A   1      45.085  37.370  27.013  1.00  0.00    -0.248 NA
ATOM     60  C   UNL A   1      46.204  39.353  27.113  1.00  0.00     0.031 C 
ATOM     61  C   UNL A   1      44.945  34.288  25.271  1.00  0.00     0.029 A 
ATOM     62  C   UNL A   1      45.838  34.666  26.256  1.00  0.00     0.049 A 
ATOM     63  H   UNL A   1      46.450  33.557  27.968  1.00  0.00     0.167 HD
ATOM     64  C   UNL A   1      46.347  37.078  26.566  1.00  0.00     0.074 A 
ATOM     65  C   UNL A   1      46.976  38.394  26.556  1.00  0.00     0.031 C 
ATOM     66  C   UNL A   1      46.788  35.802  26.282  1.00  0.00     0.031 A 
BRANCH  53  67
ATOM     67  C   UNL A   1      44.347  29.991  27.158  1.00  0.00    -0.014 A 
ATOM     68  C   UNL A   1      45.401  29.078  26.977  1.00  0.00     0.009 A 
ATOM     69  C   UNL A   1      43.073  29.530  26.766  1.00  0.00     0.009 A 
ATOM     70  C   UNL A   1      45.230  27.857  26.308  1.00  0.00     0.001 A 
ATOM     71  C   UNL A   1      42.898  28.328  26.060  1.00  0.00     0.001 A 
ATOM     72  C   UNL A   1      43.984  27.499  25.812  1.00  0.00     0.000 A 
ENDBRANCH  53  67
BRANCH  54  73
ATOM     73  C   UNL A   1      43.721  39.964  29.410  1.00  0.00    -0.014 A 
ATOM     74  C   UNL A   1      44.907  39.963  30.178  1.00  0.00     0.009 A 
ATOM     75  C   UNL A   1      42.728  40.890  29.767  1.00  0.00     0.009 A 
ATOM     76  C   UNL A   1      45.165  40.956  31.131  1.00  0.00     0.001 A 
ATOM     77  C   UNL A   1      43.000  41.904  30.702  1.00  0.00     0.001 A 
ATOM     78  C   UNL A   1      44.230  41.957  31.357  1.00  0.00     0.000 A 
ENDBRANCH  54  73
BRANCH  66  79
ATOM     79  C   UNL A   1      48.192  35.482  25.810  1.00  0.00    -0.014 A 
ATOM     80  C   UNL A   1      48.852  34.272  26.046  1.00  0.00     0.009 A 
ATOM     81  C   UNL A   1      48.867  36.424  24.995  1.00  0.00     0.009 A 
ATOM     82  C   UNL A   1      50.138  34.037  25.539  1.00  0.00     0.001 A 
ATOM     83  C   UNL A   1      50.126  36.174  24.448  1.00  0.00     0.001 A 
ATOM     84  C   UNL A   1      50.769  34.982  24.733  1.00  0.00     0.000 A 
ENDBRANCH  66  79
ENDBRANCH  40  41
ENDBRANCH  33  35
ENDBRANCH  32  33
ENDBRANCH  31  32
ENDBRANCH  30  31
ENDBRANCH  29  30
ENDBRANCH  28  29
ENDBRANCH  27  28
ENDBRANCH  26  27
ENDBRANCH   1  26
TORSDOF 23
ENDMDL
