MODEL 1
REMARK VINA RESULT:      -9.7      0.000      0.000
REMARK SMILES C[C@]1(C(=O)N2CCC(CC(=O)OCCOCCOCCOCCOC(=O)c3ccc(-c4c5nc(c(-c6ccccc6)c6ccc([nH]6)c(-c6ccccc6)c6nc(c(-c7ccccc7)c7ccc4[nH]7)C=C6)C=C5)cc3)CC2)CCC[NH2+]1
REMARK SMILES IDX 18 1 17 2 16 3 15 4 14 5 13 6 12 7 10 8 11 9 9 10 8 11 3 12
REMARK SMILES IDX 4 13 5 14 6 15 76 16 7 17 75 18 2 19 1 20 77 21 80 22 78 23
REMARK SMILES IDX 79 24 19 27 20 28 21 29 22 30 23 31 24 32 25 33 26 34 27 35
REMARK SMILES IDX 28 36 74 37 29 38 73 39 30 40 31 41 32 42 67 43 33 44 72 45
REMARK SMILES IDX 66 46 68 47 34 48 71 49 65 50 64 51 35 53 57 54 42 55 56 56
REMARK SMILES IDX 43 57 46 58 55 59 69 60 44 61 45 62 54 64 70 65 47 66 36 67
REMARK SMILES IDX 37 68 41 69 38 70 40 71 39 72 58 73 59 74 63 75 60 76 62 77
REMARK SMILES IDX 61 78 48 79 49 80 53 81 50 82 52 83 51 84
REMARK H PARENT 80 25 80 26 68 52 46 63
REMARK Flexibility Score: inf
ROOT
ATOM      1  O   UNL A   1      31.236  27.131  26.932  1.00  0.00    -0.377 OA
ENDROOT
BRANCH   1   2
ATOM      2  C   UNL A   1      30.494  26.633  25.832  1.00  0.00     0.188 C 
BRANCH   2   3
ATOM      3  C   UNL A   1      30.541  25.129  25.541  1.00  0.00     0.188 C 
BRANCH   3   4
ATOM      4  O   UNL A   1      30.738  24.738  24.201  1.00  0.00    -0.376 OA
BRANCH   4   5
ATOM      5  C   UNL A   1      30.733  25.696  23.156  1.00  0.00     0.202 C 
BRANCH   5   6
ATOM      6  C   UNL A   1      31.897  25.970  22.183  1.00  0.00     0.261 C 
BRANCH   6   7
ATOM      7  O   UNL A   1      33.230  25.677  22.632  1.00  0.00    -0.463 OA
BRANCH   7   8
ATOM      8  C   UNL A   1      33.679  26.407  23.679  1.00  0.00     0.306 C 
ATOM      9  O   UNL A   1      33.692  27.635  23.705  1.00  0.00    -0.252 OA
BRANCH   8  10
ATOM     10  C   UNL A   1      34.133  25.606  24.888  1.00  0.00     0.126 C 
BRANCH  10  11
ATOM     11  C   UNL A   1      34.637  24.163  24.764  1.00  0.00     0.003 C 
ATOM     12  C   UNL A   1      33.671  20.386  25.751  1.00  0.00     0.283 C 
ATOM     13  O   UNL A   1      33.308  20.603  26.912  1.00  0.00    -0.268 OA
ATOM     14  N   UNL A   1      34.467  21.301  25.076  1.00  0.00    -0.337 N 
ATOM     15  C   UNL A   1      35.440  22.060  25.844  1.00  0.00     0.120 C 
ATOM     16  C   UNL A   1      34.104  21.870  23.786  1.00  0.00     0.120 C 
ATOM     17  C   UNL A   1      34.952  23.482  26.102  1.00  0.00     0.026 C 
ATOM     18  C   UNL A   1      33.612  23.312  23.973  1.00  0.00     0.026 C 
BRANCH  12  19
ATOM     19  C   UNL A   1      33.329  19.051  25.018  1.00  0.00     0.173 C 
ATOM     20  C   UNL A   1      32.306  19.288  23.900  1.00  0.00     0.090 C 
ATOM     21  C   UNL A   1      34.563  18.273  24.552  1.00  0.00     0.084 C 
ATOM     22  N   UNL A   1      32.782  18.127  26.042  1.00  0.00    -0.334 N 
ATOM     23  C   UNL A   1      34.138  16.815  24.605  1.00  0.00     0.068 C 
ATOM     24  C   UNL A   1      33.127  16.753  25.734  1.00  0.00     0.261 C 
ATOM     25  H   UNL A   1      31.766  18.218  26.065  1.00  0.00     0.347 HD
ATOM     26  H   UNL A   1      33.182  18.369  26.947  1.00  0.00     0.347 HD
ENDBRANCH  12  19
ENDBRANCH  10  11
ENDBRANCH   8  10
ENDBRANCH   7   8
ENDBRANCH   6   7
ENDBRANCH   5   6
ENDBRANCH   4   5
ENDBRANCH   3   4
ENDBRANCH   2   3
ENDBRANCH   1   2
BRANCH   1  27
ATOM     27  C   UNL A   1      31.822  28.428  26.868  1.00  0.00     0.188 C 
BRANCH  27  28
ATOM     28  C   UNL A   1      31.602  29.352  25.653  1.00  0.00     0.188 C 
BRANCH  28  29
ATOM     29  O   UNL A   1      32.120  30.663  25.794  1.00  0.00    -0.376 OA
BRANCH  29  30
ATOM     30  C   UNL A   1      31.762  31.411  26.948  1.00  0.00     0.202 C 
BRANCH  30  31
ATOM     31  C   UNL A   1      32.082  32.914  26.943  1.00  0.00     0.261 C 
BRANCH  31  32
ATOM     32  O   UNL A   1      32.200  33.533  28.236  1.00  0.00    -0.460 OA
BRANCH  32  33
ATOM     33  C   UNL A   1      33.227  34.392  28.422  1.00  0.00     0.338 C 
ATOM     34  O   UNL A   1      33.174  35.603  28.489  1.00  0.00    -0.246 OA
BRANCH  33  35
ATOM     35  C   UNL A   1      34.432  33.597  28.729  1.00  0.00     0.060 A 
ATOM     36  C   UNL A   1      34.273  32.364  29.372  1.00  0.00     0.016 A 
ATOM     37  C   UNL A   1      35.707  34.075  28.416  1.00  0.00     0.016 A 
ATOM     38  C   UNL A   1      35.394  31.624  29.742  1.00  0.00     0.010 A 
ATOM     39  C   UNL A   1      36.831  33.338  28.803  1.00  0.00     0.010 A 
ATOM     40  C   UNL A   1      36.679  32.128  29.501  1.00  0.00    -0.014 A 
BRANCH  40  41
ATOM     41  C   UNL A   1      37.843  31.448  30.120  1.00  0.00     0.031 A 
ATOM     42  C   UNL A   1      38.171  31.728  31.561  1.00  0.00     0.074 A 
ATOM     43  C   UNL A   1      38.560  30.543  29.432  1.00  0.00     0.049 A 
ATOM     44  N   UNL A   1      39.096  31.198  32.321  1.00  0.00    -0.248 NA
ATOM     45  C   UNL A   1      37.341  32.739  32.237  1.00  0.00     0.031 C 
ATOM     46  C   UNL A   1      38.326  30.159  28.041  1.00  0.00     0.029 A 
ATOM     47  N   UNL A   1      39.630  29.777  29.819  1.00  0.00    -0.354 N 
ATOM     48  C   UNL A   1      38.964  31.813  33.560  1.00  0.00     0.074 A 
ATOM     49  C   UNL A   1      37.892  32.778  33.441  1.00  0.00     0.031 C 
ATOM     50  C   UNL A   1      39.225  29.223  27.692  1.00  0.00     0.029 A 
ATOM     51  C   UNL A   1      40.112  28.964  28.824  1.00  0.00     0.049 A 
ATOM     52  H   UNL A   1      40.015  29.806  30.725  1.00  0.00     0.167 HD
ATOM     53  C   UNL A   1      39.667  31.592  34.697  1.00  0.00     0.031 A 
ATOM     54  C   UNL A   1      41.158  28.115  28.822  1.00  0.00     0.031 A 
ATOM     55  C   UNL A   1      40.750  30.649  34.810  1.00  0.00     0.049 A 
ATOM     56  C   UNL A   1      41.964  27.931  30.080  1.00  0.00     0.074 A 
ATOM     57  C   UNL A   1      41.508  30.335  35.925  1.00  0.00     0.029 A 
ATOM     58  N   UNL A   1      41.239  29.879  33.766  1.00  0.00    -0.354 N 
ATOM     59  N   UNL A   1      41.800  28.484  31.257  1.00  0.00    -0.248 NA
ATOM     60  C   UNL A   1      43.089  26.989  30.009  1.00  0.00     0.031 C 
ATOM     61  C   UNL A   1      42.501  29.430  35.538  1.00  0.00     0.029 A 
ATOM     62  C   UNL A   1      42.314  29.119  34.201  1.00  0.00     0.049 A 
ATOM     63  H   UNL A   1      40.877  29.873  32.850  1.00  0.00     0.167 HD
ATOM     64  C   UNL A   1      42.786  27.938  32.074  1.00  0.00     0.074 A 
ATOM     65  C   UNL A   1      43.523  26.993  31.261  1.00  0.00     0.031 C 
ATOM     66  C   UNL A   1      43.054  28.196  33.378  1.00  0.00     0.031 A 
BRANCH  53  67
ATOM     67  C   UNL A   1      39.315  32.427  35.899  1.00  0.00    -0.014 A 
ATOM     68  C   UNL A   1      39.930  33.665  36.145  1.00  0.00     0.009 A 
ATOM     69  C   UNL A   1      38.333  31.971  36.793  1.00  0.00     0.009 A 
ATOM     70  C   UNL A   1      39.598  34.408  37.281  1.00  0.00     0.001 A 
ATOM     71  C   UNL A   1      37.980  32.731  37.910  1.00  0.00     0.001 A 
ATOM     72  C   UNL A   1      38.621  33.942  38.159  1.00  0.00     0.000 A 
ENDBRANCH  53  67
BRANCH  54  73
ATOM     73  C   UNL A   1      41.514  27.380  27.578  1.00  0.00    -0.014 A 
ATOM     74  C   UNL A   1      40.985  26.108  27.314  1.00  0.00     0.009 A 
ATOM     75  C   UNL A   1      42.399  27.951  26.649  1.00  0.00     0.009 A 
ATOM     76  C   UNL A   1      41.354  25.414  26.158  1.00  0.00     0.001 A 
ATOM     77  C   UNL A   1      42.740  27.271  25.480  1.00  0.00     0.001 A 
ATOM     78  C   UNL A   1      42.225  25.999  25.239  1.00  0.00     0.000 A 
ENDBRANCH  54  73
BRANCH  66  79
ATOM     79  C   UNL A   1      44.178  27.416  34.012  1.00  0.00    -0.014 A 
ATOM     80  C   UNL A   1      43.940  26.236  34.734  1.00  0.00     0.009 A 
ATOM     81  C   UNL A   1      45.500  27.872  33.881  1.00  0.00     0.009 A 
ATOM     82  C   UNL A   1      44.993  25.562  35.358  1.00  0.00     0.001 A 
ATOM     83  C   UNL A   1      46.555  27.176  34.474  1.00  0.00     0.001 A 
ATOM     84  C   UNL A   1      46.298  26.032  35.226  1.00  0.00     0.000 A 
ENDBRANCH  66  79
ENDBRANCH  40  41
ENDBRANCH  33  35
ENDBRANCH  32  33
ENDBRANCH  31  32
ENDBRANCH  30  31
ENDBRANCH  29  30
ENDBRANCH  28  29
ENDBRANCH  27  28
ENDBRANCH   1  27
TORSDOF 22
ENDMDL
MODEL 2
REMARK VINA RESULT:      -9.3      5.236     10.739
REMARK SMILES C[C@]1(C(=O)N2CCC(CC(=O)OCCOCCOCCOCCOC(=O)c3ccc(-c4c5nc(c(-c6ccccc6)c6ccc([nH]6)c(-c6ccccc6)c6nc(c(-c7ccccc7)c7ccc4[nH]7)C=C6)C=C5)cc3)CC2)CCC[NH2+]1
REMARK SMILES IDX 18 1 17 2 16 3 15 4 14 5 13 6 12 7 10 8 11 9 9 10 8 11 3 12
REMARK SMILES IDX 4 13 5 14 6 15 76 16 7 17 75 18 2 19 1 20 77 21 80 22 78 23
REMARK SMILES IDX 79 24 19 27 20 28 21 29 22 30 23 31 24 32 25 33 26 34 27 35
REMARK SMILES IDX 28 36 74 37 29 38 73 39 30 40 31 41 32 42 67 43 33 44 72 45
REMARK SMILES IDX 66 46 68 47 34 48 71 49 65 50 64 51 35 53 57 54 42 55 56 56
REMARK SMILES IDX 43 57 46 58 55 59 69 60 44 61 45 62 54 64 70 65 47 66 36 67
REMARK SMILES IDX 37 68 41 69 38 70 40 71 39 72 58 73 59 74 63 75 60 76 62 77
REMARK SMILES IDX 61 78 48 79 49 80 53 81 50 82 52 83 51 84
REMARK H PARENT 80 25 80 26 68 52 46 63
REMARK Flexibility Score: inf
ROOT
ATOM      1  O   UNL A   1      37.965  23.160  26.480  1.00  0.00    -0.377 OA
ENDROOT
BRANCH   1   2
ATOM      2  C   UNL A   1      37.327  23.342  25.228  1.00  0.00     0.188 C 
BRANCH   2   3
ATOM      3  C   UNL A   1      36.632  22.138  24.582  1.00  0.00     0.188 C 
BRANCH   3   4
ATOM      4  O   UNL A   1      36.710  20.907  25.263  1.00  0.00    -0.376 OA
BRANCH   4   5
ATOM      5  C   UNL A   1      36.331  19.698  24.627  1.00  0.00     0.202 C 
BRANCH   5   6
ATOM      6  C   UNL A   1      35.111  18.832  25.000  1.00  0.00     0.261 C 
BRANCH   6   7
ATOM      7  O   UNL A   1      34.090  18.647  24.008  1.00  0.00    -0.463 OA
BRANCH   7   8
ATOM      8  C   UNL A   1      32.843  19.038  24.356  1.00  0.00     0.306 C 
ATOM      9  O   UNL A   1      32.154  18.468  25.198  1.00  0.00    -0.252 OA
BRANCH   8  10
ATOM     10  C   UNL A   1      32.336  20.295  23.669  1.00  0.00     0.126 C 
BRANCH  10  11
ATOM     11  C   UNL A   1      33.006  21.660  23.875  1.00  0.00     0.003 C 
ATOM     12  C   UNL A   1      32.193  25.597  23.944  1.00  0.00     0.283 C 
ATOM     13  O   UNL A   1      31.464  25.637  22.947  1.00  0.00    -0.268 OA
ATOM     14  N   UNL A   1      33.056  24.530  24.148  1.00  0.00    -0.337 N 
ATOM     15  C   UNL A   1      33.653  23.900  22.982  1.00  0.00     0.120 C 
ATOM     16  C   UNL A   1      33.055  23.728  25.364  1.00  0.00     0.120 C 
ATOM     17  C   UNL A   1      32.959  22.582  22.651  1.00  0.00     0.026 C 
ATOM     18  C   UNL A   1      32.377  22.378  25.095  1.00  0.00     0.026 C 
BRANCH  12  19
ATOM     19  C   UNL A   1      32.242  26.770  24.973  1.00  0.00     0.173 C 
ATOM     20  C   UNL A   1      31.227  26.550  26.101  1.00  0.00     0.090 C 
ATOM     21  C   UNL A   1      33.653  27.080  25.482  1.00  0.00     0.084 C 
ATOM     22  N   UNL A   1      31.931  28.012  24.224  1.00  0.00    -0.334 N 
ATOM     23  C   UNL A   1      33.632  28.570  25.779  1.00  0.00     0.068 C 
ATOM     24  C   UNL A   1      32.641  29.144  24.786  1.00  0.00     0.261 C 
ATOM     25  H   UNL A   1      30.928  28.190  24.272  1.00  0.00     0.347 HD
ATOM     26  H   UNL A   1      32.225  27.891  23.255  1.00  0.00     0.347 HD
ENDBRANCH  12  19
ENDBRANCH  10  11
ENDBRANCH   8  10
ENDBRANCH   7   8
ENDBRANCH   6   7
ENDBRANCH   5   6
ENDBRANCH   4   5
ENDBRANCH   3   4
ENDBRANCH   2   3
ENDBRANCH   1   2
BRANCH   1  27
ATOM     27  C   UNL A   1      39.344  23.484  26.633  1.00  0.00     0.188 C 
BRANCH  27  28
ATOM     28  C   UNL A   1      40.369  22.436  27.110  1.00  0.00     0.188 C 
BRANCH  28  29
ATOM     29  O   UNL A   1      40.896  21.605  26.091  1.00  0.00    -0.376 OA
BRANCH  29  30
ATOM     30  C   UNL A   1      40.945  20.203  26.320  1.00  0.00     0.202 C 
BRANCH  30  31
ATOM     31  C   UNL A   1      42.306  19.508  26.163  1.00  0.00     0.261 C 
BRANCH  31  32
ATOM     32  O   UNL A   1      42.843  19.477  24.829  1.00  0.00    -0.460 OA
BRANCH  32  33
ATOM     33  C   UNL A   1      44.182  19.594  24.694  1.00  0.00     0.338 C 
ATOM     34  O   UNL A   1      44.956  18.764  24.262  1.00  0.00    -0.246 OA
BRANCH  33  35
ATOM     35  C   UNL A   1      44.547  20.994  24.986  1.00  0.00     0.060 A 
ATOM     36  C   UNL A   1      45.308  21.260  26.129  1.00  0.00     0.016 A 
ATOM     37  C   UNL A   1      44.116  22.035  24.160  1.00  0.00     0.016 A 
ATOM     38  C   UNL A   1      45.607  22.577  26.473  1.00  0.00     0.010 A 
ATOM     39  C   UNL A   1      44.403  23.357  24.517  1.00  0.00     0.010 A 
ATOM     40  C   UNL A   1      45.118  23.635  25.695  1.00  0.00    -0.014 A 
BRANCH  40  41
ATOM     41  C   UNL A   1      45.235  25.020  26.212  1.00  0.00     0.031 A 
ATOM     42  C   UNL A   1      46.568  25.713  26.146  1.00  0.00     0.074 A 
ATOM     43  C   UNL A   1      44.158  25.677  26.673  1.00  0.00     0.049 A 
ATOM     44  N   UNL A   1      46.883  26.941  26.476  1.00  0.00    -0.248 NA
ATOM     45  C   UNL A   1      47.696  24.917  25.636  1.00  0.00     0.031 C 
ATOM     46  C   UNL A   1      42.805  25.130  26.760  1.00  0.00     0.029 A 
ATOM     47  N   UNL A   1      44.035  26.958  27.148  1.00  0.00    -0.354 N 
ATOM     48  C   UNL A   1      48.244  27.062  26.219  1.00  0.00     0.074 A 
ATOM     49  C   UNL A   1      48.699  25.777  25.738  1.00  0.00     0.031 C 
ATOM     50  C   UNL A   1      41.986  26.073  27.255  1.00  0.00     0.029 A 
ATOM     51  C   UNL A   1      42.760  27.278  27.545  1.00  0.00     0.049 A 
ATOM     52  H   UNL A   1      44.789  27.590  27.200  1.00  0.00     0.167 HD
ATOM     53  C   UNL A   1      49.041  28.147  26.366  1.00  0.00     0.031 A 
ATOM     54  C   UNL A   1      42.275  28.410  28.091  1.00  0.00     0.031 A 
ATOM     55  C   UNL A   1      48.594  29.421  26.867  1.00  0.00     0.049 A 
ATOM     56  C   UNL A   1      43.194  29.583  28.301  1.00  0.00     0.074 A 
ATOM     57  C   UNL A   1      49.320  30.588  27.030  1.00  0.00     0.029 A 
ATOM     58  N   UNL A   1      47.305  29.690  27.303  1.00  0.00    -0.354 N 
ATOM     59  N   UNL A   1      44.467  29.701  28.012  1.00  0.00    -0.248 NA
ATOM     60  C   UNL A   1      42.599  30.786  28.899  1.00  0.00     0.031 C 
ATOM     61  C   UNL A   1      48.490  31.541  27.630  1.00  0.00     0.029 A 
ATOM     62  C   UNL A   1      47.225  30.993  27.770  1.00  0.00     0.049 A 
ATOM     63  H   UNL A   1      46.557  29.050  27.284  1.00  0.00     0.167 HD
ATOM     64  C   UNL A   1      44.820  30.998  28.369  1.00  0.00     0.074 A 
ATOM     65  C   UNL A   1      43.619  31.633  28.870  1.00  0.00     0.031 C 
ATOM     66  C   UNL A   1      46.028  31.609  28.287  1.00  0.00     0.031 A 
BRANCH  53  67
ATOM     67  C   UNL A   1      50.498  27.984  26.023  1.00  0.00    -0.014 A 
ATOM     68  C   UNL A   1      51.443  27.593  26.984  1.00  0.00     0.009 A 
ATOM     69  C   UNL A   1      50.927  28.209  24.705  1.00  0.00     0.009 A 
ATOM     70  C   UNL A   1      52.793  27.470  26.642  1.00  0.00     0.001 A 
ATOM     71  C   UNL A   1      52.271  28.053  24.358  1.00  0.00     0.001 A 
ATOM     72  C   UNL A   1      53.204  27.697  25.329  1.00  0.00     0.000 A 
ENDBRANCH  53  67
BRANCH  54  73
ATOM     73  C   UNL A   1      40.844  28.485  28.490  1.00  0.00    -0.014 A 
ATOM     74  C   UNL A   1      39.868  28.955  27.600  1.00  0.00     0.009 A 
ATOM     75  C   UNL A   1      40.450  28.092  29.780  1.00  0.00     0.009 A 
ATOM     76  C   UNL A   1      38.533  29.053  27.999  1.00  0.00     0.001 A 
ATOM     77  C   UNL A   1      39.110  28.160  30.166  1.00  0.00     0.001 A 
ATOM     78  C   UNL A   1      38.154  28.649  29.279  1.00  0.00     0.000 A 
ENDBRANCH  54  73
BRANCH  66  79
ATOM     79  C   UNL A   1      46.098  33.050  28.724  1.00  0.00    -0.014 A 
ATOM     80  C   UNL A   1      46.410  33.404  30.046  1.00  0.00     0.009 A 
ATOM     81  C   UNL A   1      45.851  34.071  27.791  1.00  0.00     0.009 A 
ATOM     82  C   UNL A   1      46.415  34.745  30.438  1.00  0.00     0.001 A 
ATOM     83  C   UNL A   1      45.894  35.412  28.177  1.00  0.00     0.001 A 
ATOM     84  C   UNL A   1      46.159  35.747  29.503  1.00  0.00     0.000 A 
ENDBRANCH  66  79
ENDBRANCH  40  41
ENDBRANCH  33  35
ENDBRANCH  32  33
ENDBRANCH  31  32
ENDBRANCH  30  31
ENDBRANCH  29  30
ENDBRANCH  28  29
ENDBRANCH  27  28
ENDBRANCH   1  27
TORSDOF 22
ENDMDL
MODEL 3
REMARK VINA RESULT:      -9.1      3.109      5.170
REMARK SMILES C[C@]1(C(=O)N2CCC(CC(=O)OCCOCCOCCOCCOC(=O)c3ccc(-c4c5nc(c(-c6ccccc6)c6ccc([nH]6)c(-c6ccccc6)c6nc(c(-c7ccccc7)c7ccc4[nH]7)C=C6)C=C5)cc3)CC2)CCC[NH2+]1
REMARK SMILES IDX 18 1 17 2 16 3 15 4 14 5 13 6 12 7 10 8 11 9 9 10 8 11 3 12
REMARK SMILES IDX 4 13 5 14 6 15 76 16 7 17 75 18 2 19 1 20 77 21 80 22 78 23
REMARK SMILES IDX 79 24 19 27 20 28 21 29 22 30 23 31 24 32 25 33 26 34 27 35
REMARK SMILES IDX 28 36 74 37 29 38 73 39 30 40 31 41 32 42 67 43 33 44 72 45
REMARK SMILES IDX 66 46 68 47 34 48 71 49 65 50 64 51 35 53 57 54 42 55 56 56
REMARK SMILES IDX 43 57 46 58 55 59 69 60 44 61 45 62 54 64 70 65 47 66 36 67
REMARK SMILES IDX 37 68 41 69 38 70 40 71 39 72 58 73 59 74 63 75 60 76 62 77
REMARK SMILES IDX 61 78 48 79 49 80 53 81 50 82 52 83 51 84
REMARK H PARENT 80 25 80 26 68 52 46 63
REMARK Flexibility Score: inf
ROOT
ATOM      1  O   UNL A   1      32.292  24.193  25.707  1.00  0.00    -0.377 OA
ENDROOT
BRANCH   1   2
ATOM      2  C   UNL A   1      31.807  23.664  24.484  1.00  0.00     0.188 C 
BRANCH   2   3
ATOM      3  C   UNL A   1      32.424  22.364  23.956  1.00  0.00     0.188 C 
BRANCH   3   4
ATOM      4  O   UNL A   1      33.636  21.943  24.538  1.00  0.00    -0.376 OA
BRANCH   4   5
ATOM      5  C   UNL A   1      34.846  22.640  24.286  1.00  0.00     0.202 C 
BRANCH   5   6
ATOM      6  C   UNL A   1      35.811  23.180  25.360  1.00  0.00     0.261 C 
BRANCH   6   7
ATOM      7  O   UNL A   1      37.197  23.318  25.009  1.00  0.00    -0.463 OA
BRANCH   7   8
ATOM      8  C   UNL A   1      38.086  23.147  26.014  1.00  0.00     0.306 C 
ATOM      9  O   UNL A   1      38.354  24.008  26.848  1.00  0.00    -0.252 OA
BRANCH   8  10
ATOM     10  C   UNL A   1      38.720  21.769  26.100  1.00  0.00     0.126 C 
BRANCH  10  11
ATOM     11  C   UNL A   1      40.159  21.565  26.593  1.00  0.00     0.003 C 
ATOM     12  C   UNL A   1      43.814  20.496  25.305  1.00  0.00     0.283 C 
ATOM     13  O   UNL A   1      43.474  19.535  24.607  1.00  0.00    -0.268 OA
ATOM     14  N   UNL A   1      42.968  20.995  26.285  1.00  0.00    -0.337 N 
ATOM     15  C   UNL A   1      42.109  20.058  26.989  1.00  0.00     0.120 C 
ATOM     16  C   UNL A   1      42.558  22.391  26.345  1.00  0.00     0.120 C 
ATOM     17  C   UNL A   1      40.676  20.127  26.470  1.00  0.00     0.026 C 
ATOM     18  C   UNL A   1      41.114  22.530  25.845  1.00  0.00     0.026 C 
BRANCH  12  19
ATOM     19  C   UNL A   1      45.231  21.141  25.181  1.00  0.00     0.173 C 
ATOM     20  C   UNL A   1      46.313  20.062  25.050  1.00  0.00     0.090 C 
ATOM     21  C   UNL A   1      45.320  22.220  24.097  1.00  0.00     0.084 C 
ATOM     22  N   UNL A   1      45.444  21.951  26.405  1.00  0.00    -0.334 N 
ATOM     23  C   UNL A   1      46.374  23.188  24.609  1.00  0.00     0.068 C 
ATOM     24  C   UNL A   1      46.260  23.114  26.119  1.00  0.00     0.261 C 
ATOM     25  H   UNL A   1      45.913  21.379  27.107  1.00  0.00     0.347 HD
ATOM     26  H   UNL A   1      44.537  22.265  26.750  1.00  0.00     0.347 HD
ENDBRANCH  12  19
ENDBRANCH  10  11
ENDBRANCH   8  10
ENDBRANCH   7   8
ENDBRANCH   6   7
ENDBRANCH   5   6
ENDBRANCH   4   5
ENDBRANCH   3   4
ENDBRANCH   2   3
ENDBRANCH   1   2
BRANCH   1  27
ATOM     27  C   UNL A   1      32.210  25.592  25.961  1.00  0.00     0.188 C 
BRANCH  27  28
ATOM     28  C   UNL A   1      31.501  26.548  24.981  1.00  0.00     0.188 C 
BRANCH  28  29
ATOM     29  O   UNL A   1      31.124  27.799  25.529  1.00  0.00    -0.376 OA
BRANCH  29  30
ATOM     30  C   UNL A   1      31.534  28.982  24.858  1.00  0.00     0.202 C 
BRANCH  30  31
ATOM     31  C   UNL A   1      32.776  29.708  25.401  1.00  0.00     0.261 C 
BRANCH  31  32
ATOM     32  O   UNL A   1      32.771  29.986  26.812  1.00  0.00    -0.460 OA
BRANCH  32  33
ATOM     33  C   UNL A   1      33.252  31.185  27.211  1.00  0.00     0.338 C 
ATOM     34  O   UNL A   1      32.633  32.221  27.343  1.00  0.00    -0.246 OA
BRANCH  33  35
ATOM     35  C   UNL A   1      34.646  30.989  27.654  1.00  0.00     0.060 A 
ATOM     36  C   UNL A   1      35.091  29.686  27.900  1.00  0.00     0.016 A 
ATOM     37  C   UNL A   1      35.496  32.080  27.854  1.00  0.00     0.016 A 
ATOM     38  C   UNL A   1      36.378  29.472  28.390  1.00  0.00     0.010 A 
ATOM     39  C   UNL A   1      36.781  31.865  28.361  1.00  0.00     0.010 A 
ATOM     40  C   UNL A   1      37.214  30.563  28.666  1.00  0.00    -0.014 A 
BRANCH  40  41
ATOM     41  C   UNL A   1      38.474  30.329  29.413  1.00  0.00     0.031 A 
ATOM     42  C   UNL A   1      38.555  30.745  30.857  1.00  0.00     0.074 A 
ATOM     43  C   UNL A   1      39.510  29.695  28.838  1.00  0.00     0.049 A 
ATOM     44  N   UNL A   1      39.528  30.577  31.716  1.00  0.00    -0.248 NA
ATOM     45  C   UNL A   1      37.379  31.442  31.405  1.00  0.00     0.031 C 
ATOM     46  C   UNL A   1      39.546  29.213  27.459  1.00  0.00     0.029 A 
ATOM     47  N   UNL A   1      40.731  29.340  29.353  1.00  0.00    -0.354 N 
ATOM     48  C   UNL A   1      39.085  31.150  32.903  1.00  0.00     0.074 A 
ATOM     49  C   UNL A   1      37.772  31.698  32.644  1.00  0.00     0.031 C 
ATOM     50  C   UNL A   1      40.731  28.620  27.238  1.00  0.00     0.029 A 
ATOM     51  C   UNL A   1      41.545  28.705  28.449  1.00  0.00     0.049 A 
ATOM     52  H   UNL A   1      40.999  29.523  30.283  1.00  0.00     0.167 HD
ATOM     53  C   UNL A   1      39.713  31.211  34.102  1.00  0.00     0.031 A 
ATOM     54  C   UNL A   1      42.807  28.253  28.579  1.00  0.00     0.031 A 
ATOM     55  C   UNL A   1      41.030  30.686  34.356  1.00  0.00     0.049 A 
ATOM     56  C   UNL A   1      43.508  28.387  29.905  1.00  0.00     0.074 A 
ATOM     57  C   UNL A   1      41.741  30.677  35.543  1.00  0.00     0.029 A 
ATOM     58  N   UNL A   1      41.841  30.092  33.400  1.00  0.00    -0.354 N 
ATOM     59  N   UNL A   1      43.062  28.888  31.031  1.00  0.00    -0.248 NA
ATOM     60  C   UNL A   1      44.882  27.872  29.978  1.00  0.00     0.031 C 
ATOM     61  C   UNL A   1      43.009  30.143  35.289  1.00  0.00     0.029 A 
ATOM     62  C   UNL A   1      43.060  29.747  33.963  1.00  0.00     0.049 A 
ATOM     63  H   UNL A   1      41.588  29.938  32.461  1.00  0.00     0.167 HD
ATOM     64  C   UNL A   1      44.091  28.728  31.953  1.00  0.00     0.074 A 
ATOM     65  C   UNL A   1      45.171  28.057  31.258  1.00  0.00     0.031 C 
ATOM     66  C   UNL A   1      44.137  29.099  33.257  1.00  0.00     0.031 A 
BRANCH  53  67
ATOM     67  C   UNL A   1      38.994  31.916  35.221  1.00  0.00    -0.014 A 
ATOM     68  C   UNL A   1      38.865  33.314  35.251  1.00  0.00     0.009 A 
ATOM     69  C   UNL A   1      38.420  31.162  36.257  1.00  0.00     0.009 A 
ATOM     70  C   UNL A   1      38.212  33.943  36.314  1.00  0.00     0.001 A 
ATOM     71  C   UNL A   1      37.739  31.791  37.302  1.00  0.00     0.001 A 
ATOM     72  C   UNL A   1      37.646  33.180  37.336  1.00  0.00     0.000 A 
ENDBRANCH  53  67
BRANCH  54  73
ATOM     73  C   UNL A   1      43.500  27.642  27.413  1.00  0.00    -0.014 A 
ATOM     74  C   UNL A   1      44.460  28.359  26.685  1.00  0.00     0.009 A 
ATOM     75  C   UNL A   1      43.190  26.331  27.016  1.00  0.00     0.009 A 
ATOM     76  C   UNL A   1      45.079  27.786  25.571  1.00  0.00     0.001 A 
ATOM     77  C   UNL A   1      43.833  25.747  25.923  1.00  0.00     0.001 A 
ATOM     78  C   UNL A   1      44.770  26.478  25.196  1.00  0.00     0.000 A 
ENDBRANCH  54  73
BRANCH  66  79
ATOM     79  C   UNL A   1      45.390  28.758  34.022  1.00  0.00    -0.014 A 
ATOM     80  C   UNL A   1      45.525  27.541  34.709  1.00  0.00     0.009 A 
ATOM     81  C   UNL A   1      46.456  29.672  34.051  1.00  0.00     0.009 A 
ATOM     82  C   UNL A   1      46.675  27.273  35.456  1.00  0.00     0.001 A 
ATOM     83  C   UNL A   1      47.619  29.385  34.767  1.00  0.00     0.001 A 
ATOM     84  C   UNL A   1      47.721  28.194  35.483  1.00  0.00     0.000 A 
ENDBRANCH  66  79
ENDBRANCH  40  41
ENDBRANCH  33  35
ENDBRANCH  32  33
ENDBRANCH  31  32
ENDBRANCH  30  31
ENDBRANCH  29  30
ENDBRANCH  28  29
ENDBRANCH  27  28
ENDBRANCH   1  27
TORSDOF 22
ENDMDL
