MODEL 1
REMARK VINA RESULT:      -8.8      0.000      0.000
REMARK SMILES Cc1cnccc1N[C@@H]1C=C[C@@H](C(=O)OCCOCCOCCOCCOC(=O)c2ccc(-c3c4nc(c(-c5ccccc5)c5ccc([nH]5)c(-c5ccccc5)c5nc(c(-c6ccccc6)c6ccc3[nH]6)C=C5)C=C4)cc2)C1
REMARK SMILES IDX 21 1 20 2 19 3 18 4 17 5 16 6 15 7 13 8 14 9 12 10 9 11
REMARK SMILES IDX 10 12 78 13 11 14 8 15 7 17 1 18 2 19 3 20 4 21 6 22 5 23
REMARK SMILES IDX 22 24 23 25 24 26 25 27 26 28 27 29 28 30 29 31 30 32 31 33
REMARK SMILES IDX 77 34 32 35 76 36 33 37 34 38 35 39 70 40 36 41 75 42 69 43
REMARK SMILES IDX 71 44 37 45 74 46 68 47 67 48 38 50 60 51 45 52 59 53 46 54
REMARK SMILES IDX 49 55 58 56 72 57 47 58 48 59 57 61 73 62 50 63 39 64 40 65
REMARK SMILES IDX 44 66 41 67 43 68 42 69 61 70 62 71 66 72 63 73 65 74 64 75
REMARK SMILES IDX 51 76 52 77 56 78 53 79 55 80 54 81
REMARK H PARENT 8 16 71 49 49 60
REMARK Flexibility Score: inf
ROOT
ATOM      1  O   UNL A   1      36.009  24.328  26.026  1.00  0.00    -0.377 OA
ENDROOT
BRANCH   1   2
ATOM      2  C   UNL A   1      34.966  24.665  25.136  1.00  0.00     0.188 C 
BRANCH   2   3
ATOM      3  C   UNL A   1      33.668  25.166  25.782  1.00  0.00     0.188 C 
BRANCH   3   4
ATOM      4  O   UNL A   1      33.533  26.529  26.140  1.00  0.00    -0.376 OA
BRANCH   4   5
ATOM      5  C   UNL A   1      34.268  27.547  25.469  1.00  0.00     0.202 C 
BRANCH   5   6
ATOM      6  C   UNL A   1      33.631  28.577  24.519  1.00  0.00     0.261 C 
BRANCH   6   7
ATOM      7  O   UNL A   1      32.849  29.597  25.154  1.00  0.00    -0.463 OA
BRANCH   7   8
ATOM      8  C   UNL A   1      31.518  29.559  24.914  1.00  0.00     0.312 C 
ATOM      9  O   UNL A   1      30.774  30.529  25.045  1.00  0.00    -0.252 OA
BRANCH   8  10
ATOM     10  C   UNL A   1      31.061  28.267  24.242  1.00  0.00     0.124 C 
ATOM     11  C   UNL A   1      29.426  26.429  24.269  1.00  0.00     0.103 C 
ATOM     12  C   UNL A   1      28.973  27.544  23.399  1.00  0.00    -0.006 C 
ATOM     13  C   UNL A   1      30.601  27.039  25.046  1.00  0.00     0.048 C 
ATOM     14  C   UNL A   1      29.847  28.556  23.395  1.00  0.00    -0.014 C 
BRANCH  11  15
ATOM     15  N   UNL A   1      29.711  25.214  23.501  1.00  0.00    -0.379 N 
ATOM     16  H   UNL A   1      28.945  24.905  22.965  1.00  0.00     0.161 HD
BRANCH  15  17
ATOM     17  C   UNL A   1      30.830  24.410  23.372  1.00  0.00     0.040 A 
ATOM     18  C   UNL A   1      31.910  25.964  21.612  1.00  0.00     0.048 C 
ATOM     19  C   UNL A   1      31.832  24.699  22.420  1.00  0.00    -0.010 A 
ATOM     20  C   UNL A   1      32.895  23.795  22.261  1.00  0.00     0.116 A 
ATOM     21  N   UNL A   1      33.040  22.644  22.943  1.00  0.00    -0.264 NA
ATOM     22  C   UNL A   1      31.031  23.253  24.122  1.00  0.00     0.046 A 
ATOM     23  C   UNL A   1      32.107  22.408  23.874  1.00  0.00     0.113 A 
ENDBRANCH  15  17
ENDBRANCH  11  15
ENDBRANCH   8  10
ENDBRANCH   7   8
ENDBRANCH   6   7
ENDBRANCH   5   6
ENDBRANCH   4   5
ENDBRANCH   3   4
ENDBRANCH   2   3
ENDBRANCH   1   2
BRANCH   1  24
ATOM     24  C   UNL A   1      36.888  23.263  25.684  1.00  0.00     0.188 C 
BRANCH  24  25
ATOM     25  C   UNL A   1      38.393  23.344  26.019  1.00  0.00     0.188 C 
BRANCH  25  26
ATOM     26  O   UNL A   1      39.012  22.101  26.295  1.00  0.00    -0.376 OA
BRANCH  26  27
ATOM     27  C   UNL A   1      38.477  20.922  25.711  1.00  0.00     0.202 C 
BRANCH  27  28
ATOM     28  C   UNL A   1      39.417  19.723  25.506  1.00  0.00     0.261 C 
BRANCH  28  29
ATOM     29  O   UNL A   1      40.436  19.526  26.501  1.00  0.00    -0.460 OA
BRANCH  29  30
ATOM     30  C   UNL A   1      41.725  19.595  26.119  1.00  0.00     0.338 C 
ATOM     31  O   UNL A   1      42.329  18.807  25.409  1.00  0.00    -0.246 OA
BRANCH  30  32
ATOM     32  C   UNL A   1      42.253  20.910  26.543  1.00  0.00     0.060 A 
ATOM     33  C   UNL A   1      42.209  21.254  27.900  1.00  0.00     0.016 A 
ATOM     34  C   UNL A   1      42.789  21.797  25.607  1.00  0.00     0.016 A 
ATOM     35  C   UNL A   1      42.666  22.503  28.321  1.00  0.00     0.010 A 
ATOM     36  C   UNL A   1      43.225  23.058  26.027  1.00  0.00     0.010 A 
ATOM     37  C   UNL A   1      43.132  23.429  27.380  1.00  0.00    -0.014 A 
BRANCH  37  38
ATOM     38  C   UNL A   1      43.323  24.846  27.776  1.00  0.00     0.031 A 
ATOM     39  C   UNL A   1      44.729  25.356  27.949  1.00  0.00     0.074 A 
ATOM     40  C   UNL A   1      42.280  25.677  27.957  1.00  0.00     0.049 A 
ATOM     41  N   UNL A   1      45.145  26.536  28.328  1.00  0.00    -0.248 NA
ATOM     42  C   UNL A   1      45.809  24.401  27.653  1.00  0.00     0.031 C 
ATOM     43  C   UNL A   1      40.875  25.327  27.767  1.00  0.00     0.029 A 
ATOM     44  N   UNL A   1      42.253  26.994  28.347  1.00  0.00    -0.354 N 
ATOM     45  C   UNL A   1      46.534  26.462  28.328  1.00  0.00     0.074 A 
ATOM     46  C   UNL A   1      46.887  25.113  27.943  1.00  0.00     0.031 C 
ATOM     47  C   UNL A   1      40.118  26.403  28.049  1.00  0.00     0.029 A 
ATOM     48  C   UNL A   1      40.984  27.502  28.475  1.00  0.00     0.049 A 
ATOM     49  H   UNL A   1      43.066  27.521  28.518  1.00  0.00     0.167 HD
ATOM     50  C   UNL A   1      47.436  27.429  28.620  1.00  0.00     0.031 A 
ATOM     51  C   UNL A   1      40.569  28.709  28.909  1.00  0.00     0.031 A 
ATOM     52  C   UNL A   1      47.086  28.764  29.023  1.00  0.00     0.049 A 
ATOM     53  C   UNL A   1      41.590  29.739  29.323  1.00  0.00     0.074 A 
ATOM     54  C   UNL A   1      47.927  29.820  29.329  1.00  0.00     0.029 A 
ATOM     55  N   UNL A   1      45.789  29.224  29.191  1.00  0.00    -0.354 N 
ATOM     56  N   UNL A   1      42.900  29.666  29.296  1.00  0.00    -0.248 NA
ATOM     57  C   UNL A   1      41.072  31.021  29.823  1.00  0.00     0.031 C 
ATOM     58  C   UNL A   1      47.140  30.896  29.750  1.00  0.00     0.029 A 
ATOM     59  C   UNL A   1      45.808  30.536  29.632  1.00  0.00     0.049 A 
ATOM     60  H   UNL A   1      44.976  28.695  29.023  1.00  0.00     0.167 HD
ATOM     61  C   UNL A   1      43.360  30.900  29.743  1.00  0.00     0.074 A 
ATOM     62  C   UNL A   1      42.189  31.707  30.019  1.00  0.00     0.031 C 
ATOM     63  C   UNL A   1      44.635  31.328  29.907  1.00  0.00     0.031 A 
BRANCH  50  64
ATOM     64  C   UNL A   1      48.892  27.055  28.559  1.00  0.00    -0.014 A 
ATOM     65  C   UNL A   1      49.647  27.226  27.387  1.00  0.00     0.009 A 
ATOM     66  C   UNL A   1      49.523  26.539  29.701  1.00  0.00     0.009 A 
ATOM     67  C   UNL A   1      50.991  26.851  27.350  1.00  0.00     0.001 A 
ATOM     68  C   UNL A   1      50.876  26.197  29.673  1.00  0.00     0.001 A 
ATOM     69  C   UNL A   1      51.606  26.343  28.494  1.00  0.00     0.000 A 
ENDBRANCH  50  64
BRANCH  51  70
ATOM     70  C   UNL A   1      39.116  29.009  29.005  1.00  0.00    -0.014 A 
ATOM     71  C   UNL A   1      38.414  29.520  27.902  1.00  0.00     0.009 A 
ATOM     72  C   UNL A   1      38.426  28.813  30.212  1.00  0.00     0.009 A 
ATOM     73  C   UNL A   1      37.061  29.851  28.014  1.00  0.00     0.001 A 
ATOM     74  C   UNL A   1      37.066  29.113  30.311  1.00  0.00     0.001 A 
ATOM     75  C   UNL A   1      36.387  29.641  29.216  1.00  0.00     0.000 A 
ENDBRANCH  51  70
BRANCH  63  76
ATOM     76  C   UNL A   1      44.839  32.746  30.371  1.00  0.00    -0.014 A 
ATOM     77  C   UNL A   1      44.977  33.062  31.732  1.00  0.00     0.009 A 
ATOM     78  C   UNL A   1      44.941  33.778  29.423  1.00  0.00     0.009 A 
ATOM     79  C   UNL A   1      45.174  34.385  32.134  1.00  0.00     0.001 A 
ATOM     80  C   UNL A   1      45.174  35.094  29.826  1.00  0.00     0.001 A 
ATOM     81  C   UNL A   1      45.278  35.397  31.182  1.00  0.00     0.000 A 
ENDBRANCH  63  76
ENDBRANCH  37  38
ENDBRANCH  30  32
ENDBRANCH  29  30
ENDBRANCH  28  29
ENDBRANCH  27  28
ENDBRANCH  26  27
ENDBRANCH  25  26
ENDBRANCH  24  25
ENDBRANCH   1  24
TORSDOF 22
ENDMDL
MODEL 2
REMARK VINA RESULT:      -8.7      2.486      7.859
REMARK SMILES Cc1cnccc1N[C@@H]1C=C[C@@H](C(=O)OCCOCCOCCOCCOC(=O)c2ccc(-c3c4nc(c(-c5ccccc5)c5ccc([nH]5)c(-c5ccccc5)c5nc(c(-c6ccccc6)c6ccc3[nH]6)C=C5)C=C4)cc2)C1
REMARK SMILES IDX 21 1 20 2 19 3 18 4 17 5 16 6 15 7 13 8 14 9 12 10 9 11
REMARK SMILES IDX 10 12 78 13 11 14 8 15 7 17 1 18 2 19 3 20 4 21 6 22 5 23
REMARK SMILES IDX 22 24 23 25 24 26 25 27 26 28 27 29 28 30 29 31 30 32 31 33
REMARK SMILES IDX 77 34 32 35 76 36 33 37 34 38 35 39 70 40 36 41 75 42 69 43
REMARK SMILES IDX 71 44 37 45 74 46 68 47 67 48 38 50 60 51 45 52 59 53 46 54
REMARK SMILES IDX 49 55 58 56 72 57 47 58 48 59 57 61 73 62 50 63 39 64 40 65
REMARK SMILES IDX 44 66 41 67 43 68 42 69 61 70 62 71 66 72 63 73 65 74 64 75
REMARK SMILES IDX 51 76 52 77 56 78 53 79 55 80 54 81
REMARK H PARENT 8 16 71 49 49 60
REMARK Flexibility Score: inf
ROOT
ATOM      1  O   UNL A   1      30.130  27.916  24.183  1.00  0.00    -0.377 OA
ENDROOT
BRANCH   1   2
ATOM      2  C   UNL A   1      30.196  26.510  24.299  1.00  0.00     0.188 C 
BRANCH   2   3
ATOM      3  C   UNL A   1      30.000  25.944  25.711  1.00  0.00     0.188 C 
BRANCH   3   4
ATOM      4  O   UNL A   1      31.106  25.432  26.431  1.00  0.00    -0.376 OA
BRANCH   4   5
ATOM      5  C   UNL A   1      32.404  26.001  26.297  1.00  0.00     0.202 C 
BRANCH   5   6
ATOM      6  C   UNL A   1      33.478  25.465  25.333  1.00  0.00     0.261 C 
BRANCH   6   7
ATOM      7  O   UNL A   1      32.980  24.898  24.113  1.00  0.00    -0.463 OA
BRANCH   7   8
ATOM      8  C   UNL A   1      33.830  24.080  23.450  1.00  0.00     0.312 C 
ATOM      9  O   UNL A   1      34.694  24.481  22.674  1.00  0.00    -0.252 OA
BRANCH   8  10
ATOM     10  C   UNL A   1      33.775  22.631  23.931  1.00  0.00     0.124 C 
ATOM     11  C   UNL A   1      34.067  21.110  25.841  1.00  0.00     0.103 C 
ATOM     12  C   UNL A   1      32.662  21.576  25.730  1.00  0.00    -0.006 C 
ATOM     13  C   UNL A   1      34.827  22.039  24.884  1.00  0.00     0.048 C 
ATOM     14  C   UNL A   1      32.499  22.419  24.705  1.00  0.00    -0.014 C 
BRANCH  11  15
ATOM     15  N   UNL A   1      34.192  19.672  25.591  1.00  0.00    -0.379 N 
ATOM     16  H   UNL A   1      34.707  19.200  26.286  1.00  0.00     0.161 HD
BRANCH  15  17
ATOM     17  C   UNL A   1      33.737  18.837  24.585  1.00  0.00     0.040 A 
ATOM     18  C   UNL A   1      35.416  16.968  25.187  1.00  0.00     0.048 C 
ATOM     19  C   UNL A   1      34.362  17.599  24.321  1.00  0.00    -0.010 A 
ATOM     20  C   UNL A   1      33.925  16.841  23.224  1.00  0.00     0.116 A 
ATOM     21  N   UNL A   1      32.946  17.202  22.375  1.00  0.00    -0.264 NA
ATOM     22  C   UNL A   1      32.676  19.165  23.742  1.00  0.00     0.046 A 
ATOM     23  C   UNL A   1      32.331  18.355  22.666  1.00  0.00     0.113 A 
ENDBRANCH  15  17
ENDBRANCH  11  15
ENDBRANCH   8  10
ENDBRANCH   7   8
ENDBRANCH   6   7
ENDBRANCH   5   6
ENDBRANCH   4   5
ENDBRANCH   3   4
ENDBRANCH   2   3
ENDBRANCH   1   2
BRANCH   1  24
ATOM     24  C   UNL A   1      31.108  28.588  23.398  1.00  0.00     0.188 C 
BRANCH  24  25
ATOM     25  C   UNL A   1      32.458  29.014  24.014  1.00  0.00     0.188 C 
BRANCH  25  26
ATOM     26  O   UNL A   1      32.463  29.123  25.426  1.00  0.00    -0.376 OA
BRANCH  26  27
ATOM     27  C   UNL A   1      31.868  30.262  26.029  1.00  0.00     0.202 C 
BRANCH  27  28
ATOM     28  C   UNL A   1      32.704  31.071  27.034  1.00  0.00     0.261 C 
BRANCH  28  29
ATOM     29  O   UNL A   1      33.848  30.410  27.600  1.00  0.00    -0.460 OA
BRANCH  29  30
ATOM     30  C   UNL A   1      34.667  31.118  28.400  1.00  0.00     0.338 C 
ATOM     31  O   UNL A   1      34.386  32.110  29.054  1.00  0.00    -0.246 OA
BRANCH  30  32
ATOM     32  C   UNL A   1      35.939  30.374  28.518  1.00  0.00     0.060 A 
ATOM     33  C   UNL A   1      36.236  29.723  29.723  1.00  0.00     0.016 A 
ATOM     34  C   UNL A   1      36.833  30.317  27.447  1.00  0.00     0.016 A 
ATOM     35  C   UNL A   1      37.446  29.046  29.873  1.00  0.00     0.010 A 
ATOM     36  C   UNL A   1      38.057  29.658  27.607  1.00  0.00     0.010 A 
ATOM     37  C   UNL A   1      38.383  29.050  28.833  1.00  0.00    -0.014 A 
BRANCH  37  38
ATOM     38  C   UNL A   1      39.774  28.606  29.095  1.00  0.00     0.031 A 
ATOM     39  C   UNL A   1      40.705  29.552  29.804  1.00  0.00     0.074 A 
ATOM     40  C   UNL A   1      40.203  27.382  28.737  1.00  0.00     0.049 A 
ATOM     41  N   UNL A   1      41.969  29.405  30.106  1.00  0.00    -0.248 NA
ATOM     42  C   UNL A   1      40.128  30.837  30.230  1.00  0.00     0.031 C 
ATOM     43  C   UNL A   1      39.391  26.351  28.096  1.00  0.00     0.029 A 
ATOM     44  N   UNL A   1      41.444  26.806  28.864  1.00  0.00    -0.354 N 
ATOM     45  C   UNL A   1      42.341  30.583  30.744  1.00  0.00     0.074 A 
ATOM     46  C   UNL A   1      41.179  31.444  30.758  1.00  0.00     0.031 C 
ATOM     47  C   UNL A   1      40.157  25.268  27.879  1.00  0.00     0.029 A 
ATOM     48  C   UNL A   1      41.521  25.544  28.329  1.00  0.00     0.049 A 
ATOM     49  H   UNL A   1      42.204  27.256  29.297  1.00  0.00     0.167 HD
ATOM     50  C   UNL A   1      43.541  30.919  31.274  1.00  0.00     0.031 A 
ATOM     51  C   UNL A   1      42.577  24.717  28.197  1.00  0.00     0.031 A 
ATOM     52  C   UNL A   1      44.703  30.072  31.243  1.00  0.00     0.049 A 
ATOM     53  C   UNL A   1      43.927  25.151  28.708  1.00  0.00     0.074 A 
ATOM     54  C   UNL A   1      45.962  30.317  31.764  1.00  0.00     0.029 A 
ATOM     55  N   UNL A   1      44.753  28.822  30.646  1.00  0.00    -0.354 N 
ATOM     56  N   UNL A   1      44.262  26.256  29.331  1.00  0.00    -0.248 NA
ATOM     57  C   UNL A   1      45.046  24.219  28.499  1.00  0.00     0.031 C 
ATOM     58  C   UNL A   1      46.792  29.245  31.420  1.00  0.00     0.029 A 
ATOM     59  C   UNL A   1      46.031  28.300  30.753  1.00  0.00     0.049 A 
ATOM     60  H   UNL A   1      43.993  28.374  30.210  1.00  0.00     0.167 HD
ATOM     61  C   UNL A   1      45.618  26.137  29.617  1.00  0.00     0.074 A 
ATOM     62  C   UNL A   1      46.039  24.846  29.113  1.00  0.00     0.031 C 
ATOM     63  C   UNL A   1      46.439  27.014  30.243  1.00  0.00     0.031 A 
BRANCH  50  64
ATOM     64  C   UNL A   1      43.665  32.285  31.892  1.00  0.00    -0.014 A 
ATOM     65  C   UNL A   1      43.435  32.497  33.261  1.00  0.00     0.009 A 
ATOM     66  C   UNL A   1      44.036  33.376  31.091  1.00  0.00     0.009 A 
ATOM     67  C   UNL A   1      43.535  33.780  33.805  1.00  0.00     0.001 A 
ATOM     68  C   UNL A   1      44.169  34.651  31.643  1.00  0.00     0.001 A 
ATOM     69  C   UNL A   1      43.908  34.853  32.997  1.00  0.00     0.000 A 
ENDBRANCH  50  64
BRANCH  51  70
ATOM     70  C   UNL A   1      42.414  23.398  27.528  1.00  0.00    -0.014 A 
ATOM     71  C   UNL A   1      42.112  22.247  28.273  1.00  0.00     0.009 A 
ATOM     72  C   UNL A   1      42.588  23.278  26.140  1.00  0.00     0.009 A 
ATOM     73  C   UNL A   1      42.013  21.002  27.645  1.00  0.00     0.001 A 
ATOM     74  C   UNL A   1      42.455  22.038  25.511  1.00  0.00     0.001 A 
ATOM     75  C   UNL A   1      42.179  20.900  26.265  1.00  0.00     0.000 A 
ENDBRANCH  51  70
BRANCH  63  76
ATOM     76  C   UNL A   1      47.870  26.598  30.456  1.00  0.00    -0.014 A 
ATOM     77  C   UNL A   1      48.257  25.838  31.571  1.00  0.00     0.009 A 
ATOM     78  C   UNL A   1      48.840  26.935  29.497  1.00  0.00     0.009 A 
ATOM     79  C   UNL A   1      49.591  25.457  31.739  1.00  0.00     0.001 A 
ATOM     80  C   UNL A   1      50.165  26.523  29.650  1.00  0.00     0.001 A 
ATOM     81  C   UNL A   1      50.541  25.795  30.777  1.00  0.00     0.000 A 
ENDBRANCH  63  76
ENDBRANCH  37  38
ENDBRANCH  30  32
ENDBRANCH  29  30
ENDBRANCH  28  29
ENDBRANCH  27  28
ENDBRANCH  26  27
ENDBRANCH  25  26
ENDBRANCH  24  25
ENDBRANCH   1  24
TORSDOF 22
ENDMDL
MODEL 3
REMARK VINA RESULT:      -8.5      2.332      7.086
REMARK SMILES Cc1cnccc1N[C@@H]1C=C[C@@H](C(=O)OCCOCCOCCOCCOC(=O)c2ccc(-c3c4nc(c(-c5ccccc5)c5ccc([nH]5)c(-c5ccccc5)c5nc(c(-c6ccccc6)c6ccc3[nH]6)C=C5)C=C4)cc2)C1
REMARK SMILES IDX 21 1 20 2 19 3 18 4 17 5 16 6 15 7 13 8 14 9 12 10 9 11
REMARK SMILES IDX 10 12 78 13 11 14 8 15 7 17 1 18 2 19 3 20 4 21 6 22 5 23
REMARK SMILES IDX 22 24 23 25 24 26 25 27 26 28 27 29 28 30 29 31 30 32 31 33
REMARK SMILES IDX 77 34 32 35 76 36 33 37 34 38 35 39 70 40 36 41 75 42 69 43
REMARK SMILES IDX 71 44 37 45 74 46 68 47 67 48 38 50 60 51 45 52 59 53 46 54
REMARK SMILES IDX 49 55 58 56 72 57 47 58 48 59 57 61 73 62 50 63 39 64 40 65
REMARK SMILES IDX 44 66 41 67 43 68 42 69 61 70 62 71 66 72 63 73 65 74 64 75
REMARK SMILES IDX 51 76 52 77 56 78 53 79 55 80 54 81
REMARK H PARENT 8 16 71 49 49 60
REMARK Flexibility Score: inf
ROOT
ATOM      1  O   UNL A   1      34.210  22.289  23.592  1.00  0.00    -0.377 OA
ENDROOT
BRANCH   1   2
ATOM      2  C   UNL A   1      33.027  22.414  22.831  1.00  0.00     0.188 C 
BRANCH   2   3
ATOM      3  C   UNL A   1      32.535  23.847  22.588  1.00  0.00     0.188 C 
BRANCH   3   4
ATOM      4  O   UNL A   1      33.264  24.714  21.739  1.00  0.00    -0.376 OA
BRANCH   4   5
ATOM      5  C   UNL A   1      32.836  26.050  21.502  1.00  0.00     0.202 C 
BRANCH   5   6
ATOM      6  C   UNL A   1      33.250  27.248  22.374  1.00  0.00     0.261 C 
BRANCH   6   7
ATOM      7  O   UNL A   1      32.684  27.274  23.691  1.00  0.00    -0.463 OA
BRANCH   7   8
ATOM      8  C   UNL A   1      32.068  28.424  24.049  1.00  0.00     0.312 C 
ATOM      9  O   UNL A   1      30.883  28.660  23.824  1.00  0.00    -0.252 OA
BRANCH   8  10
ATOM     10  C   UNL A   1      32.915  29.305  24.964  1.00  0.00     0.124 C 
ATOM     11  C   UNL A   1      33.227  30.153  27.252  1.00  0.00     0.103 C 
ATOM     12  C   UNL A   1      34.001  28.906  27.026  1.00  0.00    -0.006 C 
ATOM     13  C   UNL A   1      32.292  30.217  26.036  1.00  0.00     0.048 C 
ATOM     14  C   UNL A   1      33.821  28.429  25.790  1.00  0.00    -0.014 C 
BRANCH  11  15
ATOM     15  N   UNL A   1      34.099  31.311  27.468  1.00  0.00    -0.379 N 
ATOM     16  H   UNL A   1      34.915  31.291  26.917  1.00  0.00     0.161 HD
BRANCH  15  17
ATOM     17  C   UNL A   1      34.015  32.426  28.283  1.00  0.00     0.040 A 
ATOM     18  C   UNL A   1      31.990  33.384  26.995  1.00  0.00     0.048 C 
ATOM     19  C   UNL A   1      33.087  33.457  28.019  1.00  0.00    -0.010 A 
ATOM     20  C   UNL A   1      33.115  34.612  28.817  1.00  0.00     0.116 A 
ATOM     21  N   UNL A   1      33.974  34.834  29.829  1.00  0.00    -0.264 NA
ATOM     22  C   UNL A   1      34.850  32.637  29.379  1.00  0.00     0.046 A 
ATOM     23  C   UNL A   1      34.816  33.827  30.096  1.00  0.00     0.113 A 
ENDBRANCH  15  17
ENDBRANCH  11  15
ENDBRANCH   8  10
ENDBRANCH   7   8
ENDBRANCH   6   7
ENDBRANCH   5   6
ENDBRANCH   4   5
ENDBRANCH   3   4
ENDBRANCH   2   3
ENDBRANCH   1   2
BRANCH   1  24
ATOM     24  C   UNL A   1      34.188  21.494  24.771  1.00  0.00     0.188 C 
BRANCH  24  25
ATOM     25  C   UNL A   1      35.211  20.354  24.973  1.00  0.00     0.188 C 
BRANCH  25  26
ATOM     26  O   UNL A   1      36.502  20.774  25.376  1.00  0.00    -0.376 OA
BRANCH  26  27
ATOM     27  C   UNL A   1      37.627  20.366  24.612  1.00  0.00     0.202 C 
BRANCH  27  28
ATOM     28  C   UNL A   1      38.726  19.554  25.318  1.00  0.00     0.261 C 
BRANCH  28  29
ATOM     29  O   UNL A   1      39.613  20.285  26.182  1.00  0.00    -0.460 OA
BRANCH  29  30
ATOM     30  C   UNL A   1      40.921  19.966  26.176  1.00  0.00     0.338 C 
ATOM     31  O   UNL A   1      41.431  18.947  25.738  1.00  0.00    -0.246 OA
BRANCH  30  32
ATOM     32  C   UNL A   1      41.679  21.157  26.615  1.00  0.00     0.060 A 
ATOM     33  C   UNL A   1      41.850  21.386  27.986  1.00  0.00     0.016 A 
ATOM     34  C   UNL A   1      42.220  22.041  25.679  1.00  0.00     0.016 A 
ATOM     35  C   UNL A   1      42.529  22.523  28.427  1.00  0.00     0.010 A 
ATOM     36  C   UNL A   1      42.880  23.192  26.122  1.00  0.00     0.010 A 
ATOM     37  C   UNL A   1      43.005  23.455  27.498  1.00  0.00    -0.014 A 
BRANCH  37  38
ATOM     38  C   UNL A   1      43.445  24.794  27.961  1.00  0.00     0.031 A 
ATOM     39  C   UNL A   1      42.392  25.814  28.300  1.00  0.00     0.074 A 
ATOM     40  C   UNL A   1      44.747  25.100  28.104  1.00  0.00     0.049 A 
ATOM     41  N   UNL A   1      42.529  27.057  28.683  1.00  0.00    -0.248 NA
ATOM     42  C   UNL A   1      40.994  25.368  28.190  1.00  0.00     0.031 C 
ATOM     43  C   UNL A   1      45.864  24.189  27.865  1.00  0.00     0.029 A 
ATOM     44  N   UNL A   1      45.345  26.276  28.486  1.00  0.00    -0.354 N 
ATOM     45  C   UNL A   1      41.238  27.545  28.847  1.00  0.00     0.074 A 
ATOM     46  C   UNL A   1      40.332  26.474  28.493  1.00  0.00     0.031 C 
ATOM     47  C   UNL A   1      47.015  24.843  28.100  1.00  0.00     0.029 A 
ATOM     48  C   UNL A   1      46.717  26.227  28.466  1.00  0.00     0.049 A 
ATOM     49  H   UNL A   1      44.837  27.077  28.748  1.00  0.00     0.167 HD
ATOM     50  C   UNL A   1      40.839  28.771  29.259  1.00  0.00     0.031 A 
ATOM     51  C   UNL A   1      47.626  27.196  28.694  1.00  0.00     0.031 A 
ATOM     52  C   UNL A   1      41.738  29.843  29.593  1.00  0.00     0.049 A 
ATOM     53  C   UNL A   1      47.158  28.582  29.057  1.00  0.00     0.074 A 
ATOM     54  C   UNL A   1      41.432  31.119  30.032  1.00  0.00     0.029 A 
ATOM     55  N   UNL A   1      43.120  29.769  29.509  1.00  0.00    -0.354 N 
ATOM     56  N   UNL A   1      45.935  29.025  29.234  1.00  0.00    -0.248 NA
ATOM     57  C   UNL A   1      48.199  29.602  29.256  1.00  0.00     0.031 C 
ATOM     58  C   UNL A   1      42.626  31.838  30.147  1.00  0.00     0.029 A 
ATOM     59  C   UNL A   1      43.679  30.988  29.853  1.00  0.00     0.049 A 
ATOM     60  H   UNL A   1      43.627  28.968  29.244  1.00  0.00     0.167 HD
ATOM     61  C   UNL A   1      46.063  30.362  29.596  1.00  0.00     0.074 A 
ATOM     62  C   UNL A   1      47.481  30.652  29.628  1.00  0.00     0.031 C 
ATOM     63  C   UNL A   1      45.093  31.266  29.879  1.00  0.00     0.031 A 
BRANCH  50  64
ATOM     64  C   UNL A   1      39.359  29.030  29.324  1.00  0.00    -0.014 A 
ATOM     65  C   UNL A   1      38.657  28.987  30.540  1.00  0.00     0.009 A 
ATOM     66  C   UNL A   1      38.657  29.340  28.148  1.00  0.00     0.009 A 
ATOM     67  C   UNL A   1      37.278  29.209  30.569  1.00  0.00     0.001 A 
ATOM     68  C   UNL A   1      37.286  29.597  28.185  1.00  0.00     0.001 A 
ATOM     69  C   UNL A   1      36.596  29.520  29.393  1.00  0.00     0.000 A 
ENDBRANCH  50  64
BRANCH  51  70
ATOM     70  C   UNL A   1      49.078  26.903  28.562  1.00  0.00    -0.014 A 
ATOM     71  C   UNL A   1      49.755  27.155  27.358  1.00  0.00     0.009 A 
ATOM     72  C   UNL A   1      49.792  26.343  29.634  1.00  0.00     0.009 A 
ATOM     73  C   UNL A   1      51.108  26.828  27.223  1.00  0.00     0.001 A 
ATOM     74  C   UNL A   1      51.152  26.049  29.507  1.00  0.00     0.001 A 
ATOM     75  C   UNL A   1      51.805  26.281  28.299  1.00  0.00     0.000 A 
ENDBRANCH  51  70
BRANCH  63  76
ATOM     76  C   UNL A   1      45.529  32.648  30.287  1.00  0.00    -0.014 A 
ATOM     77  C   UNL A   1      45.841  32.957  31.621  1.00  0.00     0.009 A 
ATOM     78  C   UNL A   1      45.673  33.647  29.310  1.00  0.00     0.009 A 
ATOM     79  C   UNL A   1      46.252  34.246  31.970  1.00  0.00     0.001 A 
ATOM     80  C   UNL A   1      46.117  34.924  29.657  1.00  0.00     0.001 A 
ATOM     81  C   UNL A   1      46.395  35.225  30.989  1.00  0.00     0.000 A 
ENDBRANCH  63  76
ENDBRANCH  37  38
ENDBRANCH  30  32
ENDBRANCH  29  30
ENDBRANCH  28  29
ENDBRANCH  27  28
ENDBRANCH  26  27
ENDBRANCH  25  26
ENDBRANCH  24  25
ENDBRANCH   1  24
TORSDOF 22
ENDMDL
