MODEL 1
REMARK VINA RESULT:      -9.8      0.000      0.000
REMARK SMILES Cc1ccc(-c2c(C(=O)OCCOCCOCCOCCOC(=O)c3ccc(-c4c5nc(c(-c6ccccc6)c6ccc([nH]6)c(-c6ccccc6)c6nc(c(-c7ccccc7)c7ccc4[nH]7)C=C6)C=C5)cc3)nnn2Cc2c(F)cccc2Cl)cc1
REMARK SMILES IDX 16 1 15 2 14 3 13 4 12 5 11 6 10 7 8 8 9 9 7 10 6 11 75 12
REMARK SMILES IDX 73 13 74 14 5 15 1 16 2 17 3 18 86 19 4 20 85 21 76 22 77 23
REMARK SMILES IDX 78 24 83 25 79 26 80 27 82 28 84 29 81 30 17 31 18 32 19 33
REMARK SMILES IDX 20 34 21 35 22 36 23 37 24 38 25 39 26 40 72 41 27 42 71 43
REMARK SMILES IDX 28 44 29 45 30 46 65 47 31 48 70 49 64 50 66 51 32 52 69 53
REMARK SMILES IDX 63 54 62 55 33 57 55 58 40 59 54 60 41 61 44 62 53 63 67 64
REMARK SMILES IDX 42 65 43 66 52 68 68 69 45 70 34 71 35 72 39 73 36 74 38 75
REMARK SMILES IDX 37 76 56 77 57 78 61 79 58 80 60 81 59 82 46 83 47 84 51 85
REMARK SMILES IDX 48 86 50 87 49 88
REMARK H PARENT 66 56 44 67
REMARK Flexibility Score: inf
ROOT
ATOM      1  O   UNL A   1      42.425  22.144  25.365  1.00  0.00    -0.377 OA
ENDROOT
BRANCH   1   2
ATOM      2  C   UNL A   1      42.334  21.367  26.552  1.00  0.00     0.188 C 
BRANCH   2   3
ATOM      3  C   UNL A   1      40.912  21.047  27.039  1.00  0.00     0.188 C 
BRANCH   3   4
ATOM      4  O   UNL A   1      39.867  20.943  26.079  1.00  0.00    -0.376 OA
BRANCH   4   5
ATOM      5  C   UNL A   1      38.905  21.999  26.040  1.00  0.00     0.202 C 
BRANCH   5   6
ATOM      6  C   UNL A   1      37.720  21.846  25.079  1.00  0.00     0.261 C 
BRANCH   6   7
ATOM      7  O   UNL A   1      37.061  23.108  24.909  1.00  0.00    -0.458 OA
BRANCH   7   8
ATOM      8  C   UNL A   1      35.793  23.156  25.371  1.00  0.00     0.361 C 
ATOM      9  O   UNL A   1      35.473  23.115  26.560  1.00  0.00    -0.244 OA
BRANCH   8  10
ATOM     10  C   UNL A   1      34.888  23.628  24.356  1.00  0.00     0.198 A 
ATOM     11  C   UNL A   1      33.950  24.658  24.310  1.00  0.00     0.104 A 
ATOM     12  N   UNL A   1      33.767  24.734  22.935  1.00  0.00    -0.239 N 
ATOM     13  N   UNL A   1      34.884  22.948  23.153  1.00  0.00    -0.122 NA
ATOM     14  N   UNL A   1      34.074  23.573  22.331  1.00  0.00    -0.066 NA
BRANCH  11  15
ATOM     15  C   UNL A   1      33.381  25.622  25.257  1.00  0.00     0.002 A 
ATOM     16  C   UNL A   1      31.424  28.506  27.852  1.00  0.00     0.044 C 
ATOM     17  C   UNL A   1      32.103  27.501  26.965  1.00  0.00    -0.051 A 
ATOM     18  C   UNL A   1      33.441  27.667  26.581  1.00  0.00     0.004 A 
ATOM     19  C   UNL A   1      31.417  26.373  26.513  1.00  0.00     0.004 A 
ATOM     20  C   UNL A   1      34.077  26.734  25.741  1.00  0.00     0.011 A 
ATOM     21  C   UNL A   1      32.050  25.447  25.677  1.00  0.00     0.011 A 
ENDBRANCH  11  15
BRANCH  12  22
ATOM     22  C   UNL A   1      33.539  25.878  22.064  1.00  0.00     0.187 C 
BRANCH  22  23
ATOM     23  C   UNL A   1      32.506  26.869  22.531  1.00  0.00     0.028 A 
ATOM     24  C   UNL A   1      31.177  26.438  22.509  1.00  0.00     0.129 A 
ATOM     25  C   UNL A   1      32.738  28.195  22.935  1.00  0.00     0.049 A 
ATOM     26  F   UNL A   1      30.882  25.234  21.993  1.00  0.00    -0.207 F 
ATOM     27  C   UNL A   1      30.132  27.224  22.983  1.00  0.00     0.040 A 
ATOM     28  C   UNL A   1      31.706  28.963  23.489  1.00  0.00     0.021 A 
ATOM     29  Cl  UNL A   1      34.240  29.011  22.707  1.00  0.00    -0.084 Cl
ATOM     30  C   UNL A   1      30.404  28.474  23.522  1.00  0.00     0.005 A 
ENDBRANCH  22  23
ENDBRANCH  12  22
ENDBRANCH   8  10
ENDBRANCH   7   8
ENDBRANCH   6   7
ENDBRANCH   5   6
ENDBRANCH   4   5
ENDBRANCH   3   4
ENDBRANCH   2   3
ENDBRANCH   1   2
BRANCH   1  31
ATOM     31  C   UNL A   1      43.776  22.423  24.993  1.00  0.00     0.188 C 
BRANCH  31  32
ATOM     32  C   UNL A   1      44.710  22.216  26.176  1.00  0.00     0.188 C 
BRANCH  32  33
ATOM     33  O   UNL A   1      46.067  22.615  26.003  1.00  0.00    -0.376 OA
BRANCH  33  34
ATOM     34  C   UNL A   1      46.368  24.007  25.979  1.00  0.00     0.202 C 
BRANCH  34  35
ATOM     35  C   UNL A   1      45.612  24.870  27.002  1.00  0.00     0.261 C 
BRANCH  35  36
ATOM     36  O   UNL A   1      46.344  24.892  28.242  1.00  0.00    -0.460 OA
BRANCH  36  37
ATOM     37  C   UNL A   1      45.650  24.471  29.335  1.00  0.00     0.338 C 
ATOM     38  O   UNL A   1      45.005  23.438  29.409  1.00  0.00    -0.246 OA
BRANCH  37  39
ATOM     39  C   UNL A   1      45.491  25.620  30.282  1.00  0.00     0.060 A 
ATOM     40  C   UNL A   1      44.520  25.521  31.291  1.00  0.00     0.016 A 
ATOM     41  C   UNL A   1      45.976  26.875  29.917  1.00  0.00     0.016 A 
ATOM     42  C   UNL A   1      43.883  26.675  31.769  1.00  0.00     0.010 A 
ATOM     43  C   UNL A   1      45.270  28.004  30.316  1.00  0.00     0.010 A 
ATOM     44  C   UNL A   1      44.154  27.912  31.168  1.00  0.00    -0.014 A 
BRANCH  44  45
ATOM     45  C   UNL A   1      43.135  28.992  31.047  1.00  0.00     0.031 A 
ATOM     46  C   UNL A   1      43.138  30.239  31.912  1.00  0.00     0.074 A 
ATOM     47  C   UNL A   1      42.479  29.065  29.858  1.00  0.00     0.049 A 
ATOM     48  N   UNL A   1      42.325  31.249  31.794  1.00  0.00    -0.248 NA
ATOM     49  C   UNL A   1      44.058  30.428  33.028  1.00  0.00     0.031 C 
ATOM     50  C   UNL A   1      42.189  30.325  29.197  1.00  0.00     0.029 A 
ATOM     51  N   UNL A   1      42.102  28.151  28.887  1.00  0.00    -0.354 N 
ATOM     52  C   UNL A   1      42.763  32.289  32.598  1.00  0.00     0.074 A 
ATOM     53  C   UNL A   1      43.799  31.685  33.402  1.00  0.00     0.031 C 
ATOM     54  C   UNL A   1      41.649  30.127  27.998  1.00  0.00     0.029 A 
ATOM     55  C   UNL A   1      41.263  28.757  27.944  1.00  0.00     0.049 A 
ATOM     56  H   UNL A   1      42.384  27.208  28.863  1.00  0.00     0.167 HD
ATOM     57  C   UNL A   1      42.276  33.567  32.449  1.00  0.00     0.031 A 
ATOM     58  C   UNL A   1      39.973  28.398  27.696  1.00  0.00     0.031 A 
ATOM     59  C   UNL A   1      41.183  33.673  31.451  1.00  0.00     0.049 A 
ATOM     60  C   UNL A   1      38.929  29.398  28.176  1.00  0.00     0.074 A 
ATOM     61  C   UNL A   1      40.913  34.524  30.388  1.00  0.00     0.029 A 
ATOM     62  N   UNL A   1      40.192  32.691  31.384  1.00  0.00    -0.354 N 
ATOM     63  N   UNL A   1      39.217  30.532  28.777  1.00  0.00    -0.248 NA
ATOM     64  C   UNL A   1      37.483  29.198  28.091  1.00  0.00     0.031 C 
ATOM     65  C   UNL A   1      39.803  34.016  29.658  1.00  0.00     0.029 A 
ATOM     66  C   UNL A   1      39.342  32.892  30.314  1.00  0.00     0.049 A 
ATOM     67  H   UNL A   1      40.108  31.947  32.024  1.00  0.00     0.167 HD
ATOM     68  C   UNL A   1      38.081  31.092  29.303  1.00  0.00     0.074 A 
ATOM     69  C   UNL A   1      37.016  30.263  28.768  1.00  0.00     0.031 C 
ATOM     70  C   UNL A   1      38.107  32.124  30.202  1.00  0.00     0.031 A 
BRANCH  57  71
ATOM     71  C   UNL A   1      42.894  34.828  33.098  1.00  0.00    -0.014 A 
ATOM     72  C   UNL A   1      42.160  35.589  34.036  1.00  0.00     0.009 A 
ATOM     73  C   UNL A   1      44.162  35.364  32.803  1.00  0.00     0.009 A 
ATOM     74  C   UNL A   1      42.622  36.805  34.578  1.00  0.00     0.001 A 
ATOM     75  C   UNL A   1      44.650  36.562  33.361  1.00  0.00     0.001 A 
ATOM     76  C   UNL A   1      43.872  37.295  34.238  1.00  0.00     0.000 A 
ENDBRANCH  57  71
BRANCH  58  77
ATOM     77  C   UNL A   1      39.899  26.995  27.200  1.00  0.00    -0.014 A 
ATOM     78  C   UNL A   1      40.894  26.729  26.231  1.00  0.00     0.009 A 
ATOM     79  C   UNL A   1      39.584  25.978  28.117  1.00  0.00     0.009 A 
ATOM     80  C   UNL A   1      41.778  25.662  26.403  1.00  0.00     0.001 A 
ATOM     81  C   UNL A   1      40.464  24.894  28.273  1.00  0.00     0.001 A 
ATOM     82  C   UNL A   1      41.597  24.781  27.465  1.00  0.00     0.000 A 
ENDBRANCH  58  77
BRANCH  70  83
ATOM     83  C   UNL A   1      36.971  32.551  31.121  1.00  0.00    -0.014 A 
ATOM     84  C   UNL A   1      35.838  33.262  30.711  1.00  0.00     0.009 A 
ATOM     85  C   UNL A   1      36.947  32.071  32.457  1.00  0.00     0.009 A 
ATOM     86  C   UNL A   1      34.766  33.508  31.584  1.00  0.00     0.001 A 
ATOM     87  C   UNL A   1      35.862  32.271  33.316  1.00  0.00     0.001 A 
ATOM     88  C   UNL A   1      34.771  33.002  32.880  1.00  0.00     0.000 A 
ENDBRANCH  70  83
ENDBRANCH  44  45
ENDBRANCH  37  39
ENDBRANCH  36  37
ENDBRANCH  35  36
ENDBRANCH  34  35
ENDBRANCH  33  34
ENDBRANCH  32  33
ENDBRANCH  31  32
ENDBRANCH   1  31
TORSDOF 23
ENDMDL
MODEL 2
REMARK VINA RESULT:      -9.2      3.068      6.080
REMARK SMILES Cc1ccc(-c2c(C(=O)OCCOCCOCCOCCOC(=O)c3ccc(-c4c5nc(c(-c6ccccc6)c6ccc([nH]6)c(-c6ccccc6)c6nc(c(-c7ccccc7)c7ccc4[nH]7)C=C6)C=C5)cc3)nnn2Cc2c(F)cccc2Cl)cc1
REMARK SMILES IDX 16 1 15 2 14 3 13 4 12 5 11 6 10 7 8 8 9 9 7 10 6 11 75 12
REMARK SMILES IDX 73 13 74 14 5 15 1 16 2 17 3 18 86 19 4 20 85 21 76 22 77 23
REMARK SMILES IDX 78 24 83 25 79 26 80 27 82 28 84 29 81 30 17 31 18 32 19 33
REMARK SMILES IDX 20 34 21 35 22 36 23 37 24 38 25 39 26 40 72 41 27 42 71 43
REMARK SMILES IDX 28 44 29 45 30 46 65 47 31 48 70 49 64 50 66 51 32 52 69 53
REMARK SMILES IDX 63 54 62 55 33 57 55 58 40 59 54 60 41 61 44 62 53 63 67 64
REMARK SMILES IDX 42 65 43 66 52 68 68 69 45 70 34 71 35 72 39 73 36 74 38 75
REMARK SMILES IDX 37 76 56 77 57 78 61 79 58 80 60 81 59 82 46 83 47 84 51 85
REMARK SMILES IDX 48 86 50 87 49 88
REMARK H PARENT 66 56 44 67
REMARK Flexibility Score: inf
ROOT
ATOM      1  O   UNL A   1      39.631  21.522  26.952  1.00  0.00    -0.377 OA
ENDROOT
BRANCH   1   2
ATOM      2  C   UNL A   1      38.977  21.013  25.798  1.00  0.00     0.188 C 
BRANCH   2   3
ATOM      3  C   UNL A   1      37.923  21.932  25.161  1.00  0.00     0.188 C 
BRANCH   3   4
ATOM      4  O   UNL A   1      37.405  23.013  25.929  1.00  0.00    -0.376 OA
BRANCH   4   5
ATOM      5  C   UNL A   1      36.146  23.557  25.528  1.00  0.00     0.202 C 
BRANCH   5   6
ATOM      6  C   UNL A   1      34.885  22.753  25.866  1.00  0.00     0.261 C 
BRANCH   6   7
ATOM      7  O   UNL A   1      34.244  23.309  27.022  1.00  0.00    -0.458 OA
BRANCH   7   8
ATOM      8  C   UNL A   1      32.941  22.983  27.164  1.00  0.00     0.361 C 
ATOM      9  O   UNL A   1      32.436  22.528  28.190  1.00  0.00    -0.244 OA
BRANCH   8  10
ATOM     10  C   UNL A   1      32.144  23.566  26.117  1.00  0.00     0.198 A 
ATOM     11  C   UNL A   1      31.945  24.874  25.677  1.00  0.00     0.104 A 
ATOM     12  N   UNL A   1      31.376  24.609  24.438  1.00  0.00    -0.239 N 
ATOM     13  N   UNL A   1      31.371  22.704  25.362  1.00  0.00    -0.122 NA
ATOM     14  N   UNL A   1      30.794  23.399  24.409  1.00  0.00    -0.066 NA
BRANCH  11  15
ATOM     15  C   UNL A   1      32.335  26.216  26.119  1.00  0.00     0.002 A 
ATOM     16  C   UNL A   1      33.230  30.318  27.242  1.00  0.00     0.044 C 
ATOM     17  C   UNL A   1      32.922  28.895  26.867  1.00  0.00    -0.051 A 
ATOM     18  C   UNL A   1      33.924  28.046  26.381  1.00  0.00     0.004 A 
ATOM     19  C   UNL A   1      31.629  28.388  27.004  1.00  0.00     0.004 A 
ATOM     20  C   UNL A   1      33.637  26.716  26.017  1.00  0.00     0.011 A 
ATOM     21  C   UNL A   1      31.344  27.067  26.641  1.00  0.00     0.011 A 
ENDBRANCH  11  15
BRANCH  12  22
ATOM     22  C   UNL A   1      31.508  25.296  23.160  1.00  0.00     0.187 C 
BRANCH  22  23
ATOM     23  C   UNL A   1      31.054  26.731  23.130  1.00  0.00     0.028 A 
ATOM     24  C   UNL A   1      32.045  27.691  22.911  1.00  0.00     0.129 A 
ATOM     25  C   UNL A   1      29.749  27.202  23.351  1.00  0.00     0.049 A 
ATOM     26  F   UNL A   1      33.330  27.309  22.840  1.00  0.00    -0.207 F 
ATOM     27  C   UNL A   1      31.754  29.046  22.785  1.00  0.00     0.040 A 
ATOM     28  C   UNL A   1      29.433  28.551  23.146  1.00  0.00     0.021 A 
ATOM     29  Cl  UNL A   1      28.473  26.220  23.969  1.00  0.00    -0.084 Cl
ATOM     30  C   UNL A   1      30.434  29.472  22.853  1.00  0.00     0.005 A 
ENDBRANCH  22  23
ENDBRANCH  12  22
ENDBRANCH   8  10
ENDBRANCH   7   8
ENDBRANCH   6   7
ENDBRANCH   5   6
ENDBRANCH   4   5
ENDBRANCH   3   4
ENDBRANCH   2   3
ENDBRANCH   1   2
BRANCH   1  31
ATOM     31  C   UNL A   1      40.815  20.792  27.281  1.00  0.00     0.188 C 
BRANCH  31  32
ATOM     32  C   UNL A   1      41.146  19.789  26.186  1.00  0.00     0.188 C 
BRANCH  32  33
ATOM     33  O   UNL A   1      42.417  19.149  26.262  1.00  0.00    -0.376 OA
BRANCH  33  34
ATOM     34  C   UNL A   1      43.473  19.637  25.440  1.00  0.00     0.202 C 
BRANCH  34  35
ATOM     35  C   UNL A   1      43.952  21.065  25.746  1.00  0.00     0.261 C 
BRANCH  35  36
ATOM     36  O   UNL A   1      43.279  21.992  24.873  1.00  0.00    -0.460 OA
BRANCH  36  37
ATOM     37  C   UNL A   1      44.072  22.948  24.317  1.00  0.00     0.338 C 
ATOM     38  O   UNL A   1      45.115  22.741  23.717  1.00  0.00    -0.246 OA
BRANCH  37  39
ATOM     39  C   UNL A   1      43.679  24.285  24.865  1.00  0.00     0.060 A 
ATOM     40  C   UNL A   1      44.664  25.282  24.956  1.00  0.00     0.016 A 
ATOM     41  C   UNL A   1      42.521  24.393  25.630  1.00  0.00     0.016 A 
ATOM     42  C   UNL A   1      44.589  26.253  25.965  1.00  0.00     0.010 A 
ATOM     43  C   UNL A   1      42.504  25.290  26.692  1.00  0.00     0.010 A 
ATOM     44  C   UNL A   1      43.580  26.164  26.934  1.00  0.00    -0.014 A 
BRANCH  44  45
ATOM     45  C   UNL A   1      43.772  26.608  28.344  1.00  0.00     0.031 A 
ATOM     46  C   UNL A   1      45.023  26.306  29.147  1.00  0.00     0.074 A 
ATOM     47  C   UNL A   1      43.018  27.666  28.745  1.00  0.00     0.049 A 
ATOM     48  N   UNL A   1      45.278  26.737  30.349  1.00  0.00    -0.248 NA
ATOM     49  C   UNL A   1      46.092  25.441  28.658  1.00  0.00     0.031 C 
ATOM     50  C   UNL A   1      43.547  28.739  29.568  1.00  0.00     0.029 A 
ATOM     51  N   UNL A   1      41.767  28.162  28.415  1.00  0.00    -0.354 N 
ATOM     52  C   UNL A   1      46.594  26.449  30.673  1.00  0.00     0.074 A 
ATOM     53  C   UNL A   1      47.021  25.570  29.610  1.00  0.00     0.031 C 
ATOM     54  C   UNL A   1      42.652  29.710  29.726  1.00  0.00     0.029 A 
ATOM     55  C   UNL A   1      41.400  29.187  29.294  1.00  0.00     0.049 A 
ATOM     56  H   UNL A   1      41.214  27.839  27.667  1.00  0.00     0.167 HD
ATOM     57  C   UNL A   1      47.218  27.044  31.745  1.00  0.00     0.031 A 
ATOM     58  C   UNL A   1      40.323  29.157  30.128  1.00  0.00     0.031 A 
ATOM     59  C   UNL A   1      46.316  27.901  32.555  1.00  0.00     0.049 A 
ATOM     60  C   UNL A   1      40.665  29.016  31.606  1.00  0.00     0.074 A 
ATOM     61  C   UNL A   1      46.402  29.183  33.079  1.00  0.00     0.029 A 
ATOM     62  N   UNL A   1      45.012  27.487  32.832  1.00  0.00    -0.354 N 
ATOM     63  N   UNL A   1      41.892  28.938  32.073  1.00  0.00    -0.248 NA
ATOM     64  C   UNL A   1      39.682  28.886  32.680  1.00  0.00     0.031 C 
ATOM     65  C   UNL A   1      45.136  29.553  33.610  1.00  0.00     0.029 A 
ATOM     66  C   UNL A   1      44.290  28.469  33.481  1.00  0.00     0.049 A 
ATOM     67  H   UNL A   1      44.652  26.602  32.595  1.00  0.00     0.167 HD
ATOM     68  C   UNL A   1      41.874  28.574  33.395  1.00  0.00     0.074 A 
ATOM     69  C   UNL A   1      40.467  28.642  33.745  1.00  0.00     0.031 C 
ATOM     70  C   UNL A   1      42.991  28.159  34.069  1.00  0.00     0.031 A 
BRANCH  57  71
ATOM     71  C   UNL A   1      48.740  27.001  32.016  1.00  0.00    -0.014 A 
ATOM     72  C   UNL A   1      49.347  25.836  32.537  1.00  0.00     0.009 A 
ATOM     73  C   UNL A   1      49.635  28.074  31.838  1.00  0.00     0.009 A 
ATOM     74  C   UNL A   1      50.705  25.769  32.908  1.00  0.00     0.001 A 
ATOM     75  C   UNL A   1      51.002  28.012  32.175  1.00  0.00     0.001 A 
ATOM     76  C   UNL A   1      51.536  26.863  32.728  1.00  0.00     0.000 A 
ENDBRANCH  57  71
BRANCH  58  77
ATOM     77  C   UNL A   1      39.055  29.054  29.354  1.00  0.00    -0.014 A 
ATOM     78  C   UNL A   1      37.982  28.614  30.163  1.00  0.00     0.009 A 
ATOM     79  C   UNL A   1      38.788  30.029  28.378  1.00  0.00     0.009 A 
ATOM     80  C   UNL A   1      36.808  29.366  30.248  1.00  0.00     0.001 A 
ATOM     81  C   UNL A   1      37.595  30.769  28.452  1.00  0.00     0.001 A 
ATOM     82  C   UNL A   1      36.645  30.483  29.434  1.00  0.00     0.000 A 
ENDBRANCH  58  77
BRANCH  70  83
ATOM     83  C   UNL A   1      43.020  27.383  35.379  1.00  0.00    -0.014 A 
ATOM     84  C   UNL A   1      41.891  26.884  36.036  1.00  0.00     0.009 A 
ATOM     85  C   UNL A   1      44.272  26.979  35.914  1.00  0.00     0.009 A 
ATOM     86  C   UNL A   1      42.000  26.064  37.171  1.00  0.00     0.001 A 
ATOM     87  C   UNL A   1      44.388  26.125  37.014  1.00  0.00     0.001 A 
ATOM     88  C   UNL A   1      43.246  25.674  37.651  1.00  0.00     0.000 A 
ENDBRANCH  70  83
ENDBRANCH  44  45
ENDBRANCH  37  39
ENDBRANCH  36  37
ENDBRANCH  35  36
ENDBRANCH  34  35
ENDBRANCH  33  34
ENDBRANCH  32  33
ENDBRANCH  31  32
ENDBRANCH   1  31
TORSDOF 23
ENDMDL
MODEL 3
REMARK VINA RESULT:      -9.1      3.247      6.824
REMARK SMILES Cc1ccc(-c2c(C(=O)OCCOCCOCCOCCOC(=O)c3ccc(-c4c5nc(c(-c6ccccc6)c6ccc([nH]6)c(-c6ccccc6)c6nc(c(-c7ccccc7)c7ccc4[nH]7)C=C6)C=C5)cc3)nnn2Cc2c(F)cccc2Cl)cc1
REMARK SMILES IDX 16 1 15 2 14 3 13 4 12 5 11 6 10 7 8 8 9 9 7 10 6 11 75 12
REMARK SMILES IDX 73 13 74 14 5 15 1 16 2 17 3 18 86 19 4 20 85 21 76 22 77 23
REMARK SMILES IDX 78 24 83 25 79 26 80 27 82 28 84 29 81 30 17 31 18 32 19 33
REMARK SMILES IDX 20 34 21 35 22 36 23 37 24 38 25 39 26 40 72 41 27 42 71 43
REMARK SMILES IDX 28 44 29 45 30 46 65 47 31 48 70 49 64 50 66 51 32 52 69 53
REMARK SMILES IDX 63 54 62 55 33 57 55 58 40 59 54 60 41 61 44 62 53 63 67 64
REMARK SMILES IDX 42 65 43 66 52 68 68 69 45 70 34 71 35 72 39 73 36 74 38 75
REMARK SMILES IDX 37 76 56 77 57 78 61 79 58 80 60 81 59 82 46 83 47 84 51 85
REMARK SMILES IDX 48 86 50 87 49 88
REMARK H PARENT 66 56 44 67
REMARK Flexibility Score: inf
ROOT
ATOM      1  O   UNL A   1      38.205  22.992  26.450  1.00  0.00    -0.377 OA
ENDROOT
BRANCH   1   2
ATOM      2  C   UNL A   1      38.525  21.794  25.754  1.00  0.00     0.188 C 
BRANCH   2   3
ATOM      3  C   UNL A   1      37.355  21.095  25.045  1.00  0.00     0.188 C 
BRANCH   3   4
ATOM      4  O   UNL A   1      36.497  21.870  24.215  1.00  0.00    -0.376 OA
BRANCH   4   5
ATOM      5  C   UNL A   1      35.174  22.121  24.692  1.00  0.00     0.202 C 
BRANCH   5   6
ATOM      6  C   UNL A   1      34.880  21.814  26.165  1.00  0.00     0.261 C 
BRANCH   6   7
ATOM      7  O   UNL A   1      34.298  22.962  26.798  1.00  0.00    -0.458 OA
BRANCH   7   8
ATOM      8  C   UNL A   1      32.992  22.837  27.117  1.00  0.00     0.361 C 
ATOM      9  O   UNL A   1      32.562  22.555  28.235  1.00  0.00    -0.244 OA
BRANCH   8  10
ATOM     10  C   UNL A   1      32.153  23.427  26.106  1.00  0.00     0.198 A 
ATOM     11  C   UNL A   1      31.951  24.737  25.672  1.00  0.00     0.104 A 
ATOM     12  N   UNL A   1      31.321  24.476  24.461  1.00  0.00    -0.239 N 
ATOM     13  N   UNL A   1      31.336  22.574  25.391  1.00  0.00    -0.122 NA
ATOM     14  N   UNL A   1      30.724  23.273  24.464  1.00  0.00    -0.066 NA
BRANCH  11  15
ATOM     15  C   UNL A   1      32.378  26.075  26.091  1.00  0.00     0.002 A 
ATOM     16  C   UNL A   1      33.368  30.167  27.169  1.00  0.00     0.044 C 
ATOM     17  C   UNL A   1      33.027  28.748  26.809  1.00  0.00    -0.051 A 
ATOM     18  C   UNL A   1      33.986  27.901  26.237  1.00  0.00     0.004 A 
ATOM     19  C   UNL A   1      31.749  28.241  27.047  1.00  0.00     0.004 A 
ATOM     20  C   UNL A   1      33.667  26.574  25.887  1.00  0.00     0.011 A 
ATOM     21  C   UNL A   1      31.434  26.923  26.698  1.00  0.00     0.011 A 
ENDBRANCH  11  15
BRANCH  12  22
ATOM     22  C   UNL A   1      31.402  25.157  23.176  1.00  0.00     0.187 C 
BRANCH  22  23
ATOM     23  C   UNL A   1      31.080  26.628  23.186  1.00  0.00     0.028 A 
ATOM     24  C   UNL A   1      29.743  26.969  23.414  1.00  0.00     0.129 A 
ATOM     25  C   UNL A   1      31.972  27.684  22.938  1.00  0.00     0.049 A 
ATOM     26  F   UNL A   1      28.821  25.997  23.510  1.00  0.00    -0.207 F 
ATOM     27  C   UNL A   1      29.321  28.290  23.522  1.00  0.00     0.040 A 
ATOM     28  C   UNL A   1      31.574  29.014  23.126  1.00  0.00     0.021 A 
ATOM     29  Cl  UNL A   1      33.561  27.460  22.307  1.00  0.00    -0.084 Cl
ATOM     30  C   UNL A   1      30.250  29.316  23.428  1.00  0.00     0.005 A 
ENDBRANCH  22  23
ENDBRANCH  12  22
ENDBRANCH   8  10
ENDBRANCH   7   8
ENDBRANCH   6   7
ENDBRANCH   5   6
ENDBRANCH   4   5
ENDBRANCH   3   4
ENDBRANCH   2   3
ENDBRANCH   1   2
BRANCH   1  31
ATOM     31  C   UNL A   1      39.318  23.521  27.174  1.00  0.00     0.188 C 
BRANCH  31  32
ATOM     32  C   UNL A   1      39.346  25.039  27.076  1.00  0.00     0.188 C 
BRANCH  32  33
ATOM     33  O   UNL A   1      40.611  25.672  27.249  1.00  0.00    -0.376 OA
BRANCH  33  34
ATOM     34  C   UNL A   1      40.647  26.965  27.846  1.00  0.00     0.202 C 
BRANCH  34  35
ATOM     35  C   UNL A   1      39.691  27.180  29.031  1.00  0.00     0.261 C 
BRANCH  35  36
ATOM     36  O   UNL A   1      38.933  28.386  28.819  1.00  0.00    -0.460 OA
BRANCH  36  37
ATOM     37  C   UNL A   1      39.658  29.537  28.828  1.00  0.00     0.338 C 
ATOM     38  O   UNL A   1      40.743  29.695  28.292  1.00  0.00    -0.246 OA
BRANCH  37  39
ATOM     39  C   UNL A   1      39.114  30.446  29.887  1.00  0.00     0.060 A 
ATOM     40  C   UNL A   1      38.665  31.720  29.504  1.00  0.00     0.016 A 
ATOM     41  C   UNL A   1      39.434  30.204  31.221  1.00  0.00     0.016 A 
ATOM     42  C   UNL A   1      38.750  32.794  30.401  1.00  0.00     0.010 A 
ATOM     43  C   UNL A   1      39.615  31.289  32.071  1.00  0.00     0.010 A 
ATOM     44  C   UNL A   1      39.370  32.607  31.644  1.00  0.00    -0.014 A 
BRANCH  44  45
ATOM     45  C   UNL A   1      40.139  33.682  32.334  1.00  0.00     0.031 A 
ATOM     46  C   UNL A   1      39.684  34.329  33.629  1.00  0.00     0.074 A 
ATOM     47  C   UNL A   1      41.464  33.754  32.038  1.00  0.00     0.049 A 
ATOM     48  N   UNL A   1      40.352  35.210  34.316  1.00  0.00    -0.248 NA
ATOM     49  C   UNL A   1      38.389  34.053  34.242  1.00  0.00     0.031 C 
ATOM     50  C   UNL A   1      42.481  33.997  33.045  1.00  0.00     0.029 A 
ATOM     51  N   UNL A   1      42.239  33.460  30.928  1.00  0.00    -0.354 N 
ATOM     52  C   UNL A   1      39.735  35.406  35.540  1.00  0.00     0.074 A 
ATOM     53  C   UNL A   1      38.474  34.717  35.399  1.00  0.00     0.031 C 
ATOM     54  C   UNL A   1      43.702  33.904  32.528  1.00  0.00     0.029 A 
ATOM     55  C   UNL A   1      43.550  33.916  31.112  1.00  0.00     0.049 A 
ATOM     56  H   UNL A   1      41.915  32.997  30.122  1.00  0.00     0.167 HD
ATOM     57  C   UNL A   1      40.376  36.046  36.575  1.00  0.00     0.031 A 
ATOM     58  C   UNL A   1      44.169  34.856  30.345  1.00  0.00     0.031 A 
ATOM     59  C   UNL A   1      41.706  36.590  36.202  1.00  0.00     0.049 A 
ATOM     60  C   UNL A   1      44.391  36.197  31.034  1.00  0.00     0.074 A 
ATOM     61  C   UNL A   1      42.970  36.551  36.776  1.00  0.00     0.029 A 
ATOM     62  N   UNL A   1      41.892  37.211  34.966  1.00  0.00    -0.354 N 
ATOM     63  N   UNL A   1      44.035  36.455  32.274  1.00  0.00    -0.248 NA
ATOM     64  C   UNL A   1      44.965  37.378  30.392  1.00  0.00     0.031 C 
ATOM     65  C   UNL A   1      43.912  37.091  35.857  1.00  0.00     0.029 A 
ATOM     66  C   UNL A   1      43.217  37.532  34.748  1.00  0.00     0.049 A 
ATOM     67  H   UNL A   1      41.166  37.399  34.328  1.00  0.00     0.167 HD
ATOM     68  C   UNL A   1      44.139  37.798  32.526  1.00  0.00     0.074 A 
ATOM     69  C   UNL A   1      44.809  38.314  31.347  1.00  0.00     0.031 C 
ATOM     70  C   UNL A   1      43.591  38.393  33.631  1.00  0.00     0.031 A 
BRANCH  57  71
ATOM     71  C   UNL A   1      39.884  36.066  38.042  1.00  0.00    -0.014 A 
ATOM     72  C   UNL A   1      39.682  34.859  38.750  1.00  0.00     0.009 A 
ATOM     73  C   UNL A   1      39.547  37.218  38.778  1.00  0.00     0.009 A 
ATOM     74  C   UNL A   1      39.133  34.806  40.047  1.00  0.00     0.001 A 
ATOM     75  C   UNL A   1      39.026  37.181  40.087  1.00  0.00     0.001 A 
ATOM     76  C   UNL A   1      38.802  35.971  40.717  1.00  0.00     0.000 A 
ENDBRANCH  57  71
BRANCH  58  77
ATOM     77  C   UNL A   1      44.283  34.397  28.932  1.00  0.00    -0.014 A 
ATOM     78  C   UNL A   1      43.350  35.048  28.093  1.00  0.00     0.009 A 
ATOM     79  C   UNL A   1      45.565  34.136  28.417  1.00  0.00     0.009 A 
ATOM     80  C   UNL A   1      43.783  35.730  26.954  1.00  0.00     0.001 A 
ATOM     81  C   UNL A   1      45.990  34.807  27.258  1.00  0.00     0.001 A 
ATOM     82  C   UNL A   1      45.120  35.658  26.573  1.00  0.00     0.000 A 
ENDBRANCH  58  77
BRANCH  70  83
ATOM     83  C   UNL A   1      43.313  39.880  33.813  1.00  0.00    -0.014 A 
ATOM     84  C   UNL A   1      43.844  40.671  34.836  1.00  0.00     0.009 A 
ATOM     85  C   UNL A   1      42.602  40.577  32.801  1.00  0.00     0.009 A 
ATOM     86  C   UNL A   1      43.652  42.062  34.868  1.00  0.00     0.001 A 
ATOM     87  C   UNL A   1      42.448  41.966  32.801  1.00  0.00     0.001 A 
ATOM     88  C   UNL A   1      42.967  42.710  33.846  1.00  0.00     0.000 A 
ENDBRANCH  70  83
ENDBRANCH  44  45
ENDBRANCH  37  39
ENDBRANCH  36  37
ENDBRANCH  35  36
ENDBRANCH  34  35
ENDBRANCH  33  34
ENDBRANCH  32  33
ENDBRANCH  31  32
ENDBRANCH   1  31
TORSDOF 23
ENDMDL
