MODEL 1
REMARK VINA RESULT:      -8.8      0.000      0.000
REMARK SMILES CC(C)C[C@H](CNC(=O)c1ccc(O)cc1O)C(=O)OCCOCCOCCOCCOC(=O)c1ccc(-c2c3nc(c(-c4ccccc4)c4ccc([nH]4)c(-c4ccccc4)c4nc(c(-c5ccccc5)c5ccc2[nH]5)C=C4)C=C3)cc1
REMARK SMILES IDX 25 1 24 2 23 3 22 4 21 5 20 6 18 7 19 8 5 9 4 10 2 11 1 12
REMARK SMILES IDX 3 13 6 14 7 15 8 16 9 18 10 19 11 20 16 21 12 22 15 23 13 24
REMARK SMILES IDX 17 25 14 27 26 29 27 30 28 31 29 32 30 33 31 34 32 35 33 36
REMARK SMILES IDX 34 37 35 38 36 39 82 40 37 41 81 42 38 43 39 44 40 45 75 46
REMARK SMILES IDX 41 47 80 48 74 49 76 50 42 51 79 52 73 53 72 54 43 56 65 57
REMARK SMILES IDX 50 58 64 59 51 60 54 61 63 62 77 63 52 64 53 65 62 67 78 68
REMARK SMILES IDX 55 69 44 70 45 71 49 72 46 73 48 74 47 75 66 76 67 77 71 78
REMARK SMILES IDX 68 79 70 80 69 81 56 82 57 83 61 84 58 85 60 86 59 87
REMARK H PARENT 7 17 17 26 14 28 76 55 54 66
REMARK Flexibility Score: inf
ROOT
ATOM      1  C   UNL A   1      35.028  31.627  27.957  1.00  0.00     0.188 C 
ENDROOT
BRANCH   1   2
ATOM      2  C   UNL A   1      33.599  31.271  27.536  1.00  0.00     0.188 C 
BRANCH   2   3
ATOM      3  O   UNL A   1      33.485  30.008  26.920  1.00  0.00    -0.376 OA
BRANCH   3   4
ATOM      4  C   UNL A   1      32.970  29.748  25.633  1.00  0.00     0.202 C 
BRANCH   4   5
ATOM      5  C   UNL A   1      32.324  28.450  25.097  1.00  0.00     0.261 C 
BRANCH   5   6
ATOM      6  O   UNL A   1      31.842  27.441  25.987  1.00  0.00    -0.463 OA
BRANCH   6   7
ATOM      7  C   UNL A   1      32.486  26.250  25.916  1.00  0.00     0.310 C 
ATOM      8  O   UNL A   1      33.708  26.155  25.914  1.00  0.00    -0.252 OA
BRANCH   7   9
ATOM      9  C   UNL A   1      31.548  25.049  25.764  1.00  0.00     0.118 C 
BRANCH   9  10
ATOM     10  C   UNL A   1      30.110  25.576  25.637  1.00  0.00     0.020 C 
BRANCH  10  11
ATOM     11  C   UNL A   1      29.555  25.599  24.197  1.00  0.00    -0.017 C 
ATOM     12  C   UNL A   1      29.086  26.991  23.763  1.00  0.00     0.007 C 
ATOM     13  C   UNL A   1      30.609  25.074  23.226  1.00  0.00     0.007 C 
ENDBRANCH  10  11
ENDBRANCH   9  10
BRANCH   9  14
ATOM     14  C   UNL A   1      31.700  23.972  26.863  1.00  0.00     0.131 C 
BRANCH  14  15
ATOM     15  N   UNL A   1      32.998  23.318  26.924  1.00  0.00    -0.351 N 
ATOM     16  C   UNL A   1      33.610  22.425  26.086  1.00  0.00     0.255 C 
ATOM     17  H   UNL A   1      33.535  23.564  27.711  1.00  0.00     0.163 HD
ATOM     18  O   UNL A   1      34.635  21.857  26.469  1.00  0.00    -0.269 OA
BRANCH  16  19
ATOM     19  C   UNL A   1      33.065  22.041  24.767  1.00  0.00     0.081 A 
ATOM     20  C   UNL A   1      33.270  22.813  23.616  1.00  0.00     0.021 A 
ATOM     21  C   UNL A   1      32.444  20.788  24.647  1.00  0.00     0.132 A 
ATOM     22  C   UNL A   1      32.798  22.360  22.375  1.00  0.00     0.047 A 
ATOM     23  C   UNL A   1      31.954  20.347  23.420  1.00  0.00     0.093 A 
ATOM     24  C   UNL A   1      32.136  21.136  22.291  1.00  0.00     0.119 A 
BRANCH  21  25
ATOM     25  O   UNL A   1      32.315  19.926  25.705  1.00  0.00    -0.507 OA
ATOM     26  H   UNL A   1      32.128  19.020  25.552  1.00  0.00     0.293 HD
ENDBRANCH  21  25
BRANCH  24  27
ATOM     27  O   UNL A   1      31.667  20.656  21.104  1.00  0.00    -0.508 OA
ATOM     28  H   UNL A   1      31.188  21.217  20.529  1.00  0.00     0.293 HD
ENDBRANCH  24  27
ENDBRANCH  16  19
ENDBRANCH  14  15
ENDBRANCH   9  14
ENDBRANCH   7   9
ENDBRANCH   6   7
ENDBRANCH   5   6
ENDBRANCH   4   5
ENDBRANCH   3   4
ENDBRANCH   2   3
ENDBRANCH   1   2
BRANCH   1  29
ATOM     29  O   UNL A   1      35.273  32.839  28.639  1.00  0.00    -0.377 OA
BRANCH  29  30
ATOM     30  C   UNL A   1      34.172  33.734  28.657  1.00  0.00     0.188 C 
BRANCH  30  31
ATOM     31  C   UNL A   1      34.585  35.144  28.222  1.00  0.00     0.188 C 
BRANCH  31  32
ATOM     32  O   UNL A   1      33.773  36.238  28.600  1.00  0.00    -0.376 OA
BRANCH  32  33
ATOM     33  C   UNL A   1      32.921  36.222  29.733  1.00  0.00     0.202 C 
BRANCH  33  34
ATOM     34  C   UNL A   1      33.263  36.687  31.169  1.00  0.00     0.261 C 
BRANCH  34  35
ATOM     35  O   UNL A   1      34.227  35.972  31.939  1.00  0.00    -0.460 OA
BRANCH  35  36
ATOM     36  C   UNL A   1      33.872  34.757  32.396  1.00  0.00     0.338 C 
ATOM     37  O   UNL A   1      32.778  34.406  32.802  1.00  0.00    -0.246 OA
BRANCH  36  38
ATOM     38  C   UNL A   1      35.017  33.856  32.147  1.00  0.00     0.060 A 
ATOM     39  C   UNL A   1      34.879  32.490  32.428  1.00  0.00     0.016 A 
ATOM     40  C   UNL A   1      36.210  34.354  31.617  1.00  0.00     0.016 A 
ATOM     41  C   UNL A   1      35.946  31.620  32.217  1.00  0.00     0.010 A 
ATOM     42  C   UNL A   1      37.292  33.490  31.441  1.00  0.00     0.010 A 
ATOM     43  C   UNL A   1      37.174  32.131  31.782  1.00  0.00    -0.014 A 
BRANCH  43  44
ATOM     44  C   UNL A   1      38.399  31.320  31.963  1.00  0.00     0.031 A 
ATOM     45  C   UNL A   1      39.292  31.670  33.122  1.00  0.00     0.074 A 
ATOM     46  C   UNL A   1      38.713  30.306  31.141  1.00  0.00     0.049 A 
ATOM     47  N   UNL A   1      40.460  31.182  33.450  1.00  0.00    -0.248 NA
ATOM     48  C   UNL A   1      38.799  32.719  34.031  1.00  0.00     0.031 C 
ATOM     49  C   UNL A   1      37.897  29.831  30.027  1.00  0.00     0.029 A 
ATOM     50  N   UNL A   1      39.823  29.500  31.120  1.00  0.00    -0.354 N 
ATOM     51  C   UNL A   1      40.846  31.878  34.588  1.00  0.00     0.074 A 
ATOM     52  C   UNL A   1      39.805  32.836  34.880  1.00  0.00     0.031 C 
ATOM     53  C   UNL A   1      38.546  28.823  29.416  1.00  0.00     0.029 A 
ATOM     54  C   UNL A   1      39.836  28.614  30.072  1.00  0.00     0.049 A 
ATOM     55  H   UNL A   1      40.541  29.554  31.792  1.00  0.00     0.167 HD
ATOM     56  C   UNL A   1      41.970  31.733  35.327  1.00  0.00     0.031 A 
ATOM     57  C   UNL A   1      40.797  27.757  29.676  1.00  0.00     0.031 A 
ATOM     58  C   UNL A   1      43.015  30.796  35.020  1.00  0.00     0.049 A 
ATOM     59  C   UNL A   1      42.084  27.677  30.457  1.00  0.00     0.074 A 
ATOM     60  C   UNL A   1      44.194  30.566  35.703  1.00  0.00     0.029 A 
ATOM     61  N   UNL A   1      43.007  29.941  33.929  1.00  0.00    -0.354 N 
ATOM     62  N   UNL A   1      42.438  28.329  31.539  1.00  0.00    -0.248 NA
ATOM     63  C   UNL A   1      43.101  26.737  29.964  1.00  0.00     0.031 C 
ATOM     64  C   UNL A   1      44.931  29.616  34.989  1.00  0.00     0.029 A 
ATOM     65  C   UNL A   1      44.176  29.202  33.903  1.00  0.00     0.049 A 
ATOM     66  H   UNL A   1      42.279  29.872  33.270  1.00  0.00     0.167 HD
ATOM     67  C   UNL A   1      43.701  27.853  31.876  1.00  0.00     0.074 A 
ATOM     68  C   UNL A   1      44.046  26.852  30.888  1.00  0.00     0.031 C 
ATOM     69  C   UNL A   1      44.499  28.206  32.913  1.00  0.00     0.031 A 
BRANCH  56  70
ATOM     70  C   UNL A   1      42.143  32.654  36.502  1.00  0.00    -0.014 A 
ATOM     71  C   UNL A   1      41.718  32.291  37.790  1.00  0.00     0.009 A 
ATOM     72  C   UNL A   1      42.739  33.911  36.314  1.00  0.00     0.009 A 
ATOM     73  C   UNL A   1      41.850  33.184  38.856  1.00  0.00     0.001 A 
ATOM     74  C   UNL A   1      42.901  34.787  37.387  1.00  0.00     0.001 A 
ATOM     75  C   UNL A   1      42.445  34.429  38.655  1.00  0.00     0.000 A 
ENDBRANCH  56  70
BRANCH  57  76
ATOM     76  C   UNL A   1      40.594  26.920  28.465  1.00  0.00    -0.014 A 
ATOM     77  C   UNL A   1      39.925  25.689  28.546  1.00  0.00     0.009 A 
ATOM     78  C   UNL A   1      41.082  27.341  27.217  1.00  0.00     0.009 A 
ATOM     79  C   UNL A   1      39.770  24.889  27.411  1.00  0.00     0.001 A 
ATOM     80  C   UNL A   1      40.901  26.555  26.079  1.00  0.00     0.001 A 
ATOM     81  C   UNL A   1      40.253  25.325  26.178  1.00  0.00     0.000 A 
ENDBRANCH  57  76
BRANCH  69  82
ATOM     82  C   UNL A   1      45.801  27.467  33.073  1.00  0.00    -0.014 A 
ATOM     83  C   UNL A   1      45.880  26.257  33.777  1.00  0.00     0.009 A 
ATOM     84  C   UNL A   1      46.956  27.967  32.448  1.00  0.00     0.009 A 
ATOM     85  C   UNL A   1      47.098  25.579  33.878  1.00  0.00     0.001 A 
ATOM     86  C   UNL A   1      48.162  27.269  32.522  1.00  0.00     0.001 A 
ATOM     87  C   UNL A   1      48.234  26.081  33.245  1.00  0.00     0.000 A 
ENDBRANCH  69  82
ENDBRANCH  43  44
ENDBRANCH  36  38
ENDBRANCH  35  36
ENDBRANCH  34  35
ENDBRANCH  33  34
ENDBRANCH  32  33
ENDBRANCH  31  32
ENDBRANCH  30  31
ENDBRANCH  29  30
ENDBRANCH   1  29
TORSDOF 27
ENDMDL
MODEL 2
REMARK VINA RESULT:      -8.7      3.241      9.556
REMARK SMILES CC(C)C[C@H](CNC(=O)c1ccc(O)cc1O)C(=O)OCCOCCOCCOCCOC(=O)c1ccc(-c2c3nc(c(-c4ccccc4)c4ccc([nH]4)c(-c4ccccc4)c4nc(c(-c5ccccc5)c5ccc2[nH]5)C=C4)C=C3)cc1
REMARK SMILES IDX 25 1 24 2 23 3 22 4 21 5 20 6 18 7 19 8 5 9 4 10 2 11 1 12
REMARK SMILES IDX 3 13 6 14 7 15 8 16 9 18 10 19 11 20 16 21 12 22 15 23 13 24
REMARK SMILES IDX 17 25 14 27 26 29 27 30 28 31 29 32 30 33 31 34 32 35 33 36
REMARK SMILES IDX 34 37 35 38 36 39 82 40 37 41 81 42 38 43 39 44 40 45 75 46
REMARK SMILES IDX 41 47 80 48 74 49 76 50 42 51 79 52 73 53 72 54 43 56 65 57
REMARK SMILES IDX 50 58 64 59 51 60 54 61 63 62 77 63 52 64 53 65 62 67 78 68
REMARK SMILES IDX 55 69 44 70 45 71 49 72 46 73 48 74 47 75 66 76 67 77 71 78
REMARK SMILES IDX 68 79 70 80 69 81 56 82 57 83 61 84 58 85 60 86 59 87
REMARK H PARENT 7 17 17 26 14 28 76 55 54 66
REMARK Flexibility Score: inf
ROOT
ATOM      1  C   UNL A   1      38.745  21.341  26.089  1.00  0.00     0.188 C 
ENDROOT
BRANCH   1   2
ATOM      2  C   UNL A   1      37.735  21.957  25.116  1.00  0.00     0.188 C 
BRANCH   2   3
ATOM      3  O   UNL A   1      36.514  22.324  25.719  1.00  0.00    -0.376 OA
BRANCH   3   4
ATOM      4  C   UNL A   1      35.489  21.448  26.133  1.00  0.00     0.202 C 
BRANCH   4   5
ATOM      5  C   UNL A   1      34.056  21.308  25.572  1.00  0.00     0.261 C 
BRANCH   5   6
ATOM      6  O   UNL A   1      33.276  22.458  25.237  1.00  0.00    -0.463 OA
BRANCH   6   7
ATOM      7  C   UNL A   1      33.359  22.859  23.946  1.00  0.00     0.310 C 
ATOM      8  O   UNL A   1      33.791  22.139  23.053  1.00  0.00    -0.252 OA
BRANCH   7   9
ATOM      9  C   UNL A   1      32.936  24.314  23.723  1.00  0.00     0.118 C 
BRANCH   9  10
ATOM     10  C   UNL A   1      33.931  24.958  22.745  1.00  0.00     0.020 C 
BRANCH  10  11
ATOM     11  C   UNL A   1      33.336  26.072  21.857  1.00  0.00    -0.017 C 
ATOM     12  C   UNL A   1      31.826  25.921  21.647  1.00  0.00     0.007 C 
ATOM     13  C   UNL A   1      33.647  27.438  22.462  1.00  0.00     0.007 C 
ENDBRANCH  10  11
ENDBRANCH   9  10
BRANCH   9  14
ATOM     14  C   UNL A   1      32.749  25.135  25.020  1.00  0.00     0.131 C 
BRANCH  14  15
ATOM     15  N   UNL A   1      31.453  24.998  25.666  1.00  0.00    -0.351 N 
ATOM     16  C   UNL A   1      30.368  25.830  25.720  1.00  0.00     0.255 C 
ATOM     17  H   UNL A   1      31.335  24.151  26.153  1.00  0.00     0.163 HD
ATOM     18  O   UNL A   1      29.459  25.572  26.511  1.00  0.00    -0.269 OA
BRANCH  16  19
ATOM     19  C   UNL A   1      30.257  27.076  24.932  1.00  0.00     0.081 A 
ATOM     20  C   UNL A   1      31.178  28.124  25.052  1.00  0.00     0.021 A 
ATOM     21  C   UNL A   1      29.273  27.142  23.933  1.00  0.00     0.132 A 
ATOM     22  C   UNL A   1      31.071  29.250  24.221  1.00  0.00     0.047 A 
ATOM     23  C   UNL A   1      29.150  28.269  23.125  1.00  0.00     0.093 A 
ATOM     24  C   UNL A   1      30.052  29.315  23.273  1.00  0.00     0.119 A 
BRANCH  21  25
ATOM     25  O   UNL A   1      28.412  26.106  23.679  1.00  0.00    -0.507 OA
ATOM     26  H   UNL A   1      27.498  26.202  23.861  1.00  0.00     0.293 HD
ENDBRANCH  21  25
BRANCH  24  27
ATOM     27  O   UNL A   1      29.915  30.388  22.442  1.00  0.00    -0.508 OA
ATOM     28  H   UNL A   1      29.527  31.179  22.760  1.00  0.00     0.293 HD
ENDBRANCH  24  27
ENDBRANCH  16  19
ENDBRANCH  14  15
ENDBRANCH   9  14
ENDBRANCH   7   9
ENDBRANCH   6   7
ENDBRANCH   5   6
ENDBRANCH   4   5
ENDBRANCH   3   4
ENDBRANCH   2   3
ENDBRANCH   1   2
BRANCH   1  29
ATOM     29  O   UNL A   1      40.127  21.429  25.809  1.00  0.00    -0.377 OA
BRANCH  29  30
ATOM     30  C   UNL A   1      40.968  21.076  26.894  1.00  0.00     0.188 C 
BRANCH  30  31
ATOM     31  C   UNL A   1      42.091  20.132  26.452  1.00  0.00     0.188 C 
BRANCH  31  32
ATOM     32  O   UNL A   1      42.925  20.521  25.377  1.00  0.00    -0.376 OA
BRANCH  32  33
ATOM     33  C   UNL A   1      43.350  21.857  25.166  1.00  0.00     0.202 C 
BRANCH  33  34
ATOM     34  C   UNL A   1      44.755  22.447  25.437  1.00  0.00     0.261 C 
BRANCH  34  35
ATOM     35  O   UNL A   1      44.901  23.570  26.303  1.00  0.00    -0.460 OA
BRANCH  35  36
ATOM     36  C   UNL A   1      44.734  24.790  25.762  1.00  0.00     0.338 C 
ATOM     37  O   UNL A   1      45.064  25.162  24.649  1.00  0.00    -0.246 OA
BRANCH  36  38
ATOM     38  C   UNL A   1      43.904  25.567  26.708  1.00  0.00     0.060 A 
ATOM     39  C   UNL A   1      44.133  26.944  26.838  1.00  0.00     0.016 A 
ATOM     40  C   UNL A   1      42.893  24.943  27.441  1.00  0.00     0.016 A 
ATOM     41  C   UNL A   1      43.376  27.698  27.732  1.00  0.00     0.010 A 
ATOM     42  C   UNL A   1      42.160  25.690  28.365  1.00  0.00     0.010 A 
ATOM     43  C   UNL A   1      42.431  27.059  28.542  1.00  0.00    -0.014 A 
BRANCH  43  44
ATOM     44  C   UNL A   1      41.943  27.743  29.760  1.00  0.00     0.031 A 
ATOM     45  C   UNL A   1      40.676  28.546  29.639  1.00  0.00     0.074 A 
ATOM     46  C   UNL A   1      42.586  27.656  30.935  1.00  0.00     0.049 A 
ATOM     47  N   UNL A   1      40.087  29.309  30.522  1.00  0.00    -0.248 NA
ATOM     48  C   UNL A   1      39.985  28.480  28.339  1.00  0.00     0.031 C 
ATOM     49  C   UNL A   1      43.782  26.858  31.193  1.00  0.00     0.029 A 
ATOM     50  N   UNL A   1      42.317  28.266  32.134  1.00  0.00    -0.354 N 
ATOM     51  C   UNL A   1      38.971  29.827  29.878  1.00  0.00     0.074 A 
ATOM     52  C   UNL A   1      38.977  29.314  28.527  1.00  0.00     0.031 C 
ATOM     53  C   UNL A   1      44.156  27.043  32.473  1.00  0.00     0.029 A 
ATOM     54  C   UNL A   1      43.251  28.001  33.105  1.00  0.00     0.049 A 
ATOM     55  H   UNL A   1      41.531  28.840  32.283  1.00  0.00     0.167 HD
ATOM     56  C   UNL A   1      38.022  30.659  30.366  1.00  0.00     0.031 A 
ATOM     57  C   UNL A   1      43.371  28.503  34.349  1.00  0.00     0.031 A 
ATOM     58  C   UNL A   1      38.032  31.187  31.703  1.00  0.00     0.049 A 
ATOM     59  C   UNL A   1      42.357  29.502  34.844  1.00  0.00     0.074 A 
ATOM     60  C   UNL A   1      37.119  32.034  32.301  1.00  0.00     0.029 A 
ATOM     61  N   UNL A   1      39.016  30.923  32.644  1.00  0.00    -0.354 N 
ATOM     62  N   UNL A   1      41.298  29.979  34.235  1.00  0.00    -0.248 NA
ATOM     63  C   UNL A   1      42.554  30.027  36.203  1.00  0.00     0.031 C 
ATOM     64  C   UNL A   1      37.584  32.336  33.585  1.00  0.00     0.029 A 
ATOM     65  C   UNL A   1      38.747  31.616  33.811  1.00  0.00     0.049 A 
ATOM     66  H   UNL A   1      39.790  30.332  32.503  1.00  0.00     0.167 HD
ATOM     67  C   UNL A   1      40.683  30.830  35.147  1.00  0.00     0.074 A 
ATOM     68  C   UNL A   1      41.484  30.797  36.353  1.00  0.00     0.031 C 
ATOM     69  C   UNL A   1      39.553  31.566  35.004  1.00  0.00     0.031 A 
BRANCH  56  70
ATOM     70  C   UNL A   1      36.933  31.088  29.424  1.00  0.00    -0.014 A 
ATOM     71  C   UNL A   1      35.903  30.212  29.044  1.00  0.00     0.009 A 
ATOM     72  C   UNL A   1      36.942  32.392  28.905  1.00  0.00     0.009 A 
ATOM     73  C   UNL A   1      34.928  30.622  28.132  1.00  0.00     0.001 A 
ATOM     74  C   UNL A   1      35.947  32.810  28.021  1.00  0.00     0.001 A 
ATOM     75  C   UNL A   1      34.948  31.921  27.625  1.00  0.00     0.000 A 
ENDBRANCH  56  70
BRANCH  57  76
ATOM     76  C   UNL A   1      44.510  28.090  35.211  1.00  0.00    -0.014 A 
ATOM     77  C   UNL A   1      44.397  26.988  36.072  1.00  0.00     0.009 A 
ATOM     78  C   UNL A   1      45.718  28.808  35.188  1.00  0.00     0.009 A 
ATOM     79  C   UNL A   1      45.458  26.628  36.906  1.00  0.00     0.001 A 
ATOM     80  C   UNL A   1      46.787  28.428  36.001  1.00  0.00     0.001 A 
ATOM     81  C   UNL A   1      46.653  27.345  36.866  1.00  0.00     0.000 A 
ENDBRANCH  57  76
BRANCH  69  82
ATOM     82  C   UNL A   1      39.079  32.354  36.195  1.00  0.00    -0.014 A 
ATOM     83  C   UNL A   1      39.487  33.678  36.413  1.00  0.00     0.009 A 
ATOM     84  C   UNL A   1      38.153  31.774  37.078  1.00  0.00     0.009 A 
ATOM     85  C   UNL A   1      39.002  34.393  37.511  1.00  0.00     0.001 A 
ATOM     86  C   UNL A   1      37.644  32.503  38.154  1.00  0.00     0.001 A 
ATOM     87  C   UNL A   1      38.076  33.808  38.374  1.00  0.00     0.000 A 
ENDBRANCH  69  82
ENDBRANCH  43  44
ENDBRANCH  36  38
ENDBRANCH  35  36
ENDBRANCH  34  35
ENDBRANCH  33  34
ENDBRANCH  32  33
ENDBRANCH  31  32
ENDBRANCH  30  31
ENDBRANCH  29  30
ENDBRANCH   1  29
TORSDOF 27
ENDMDL
MODEL 3
REMARK VINA RESULT:      -8.6      1.700      2.665
REMARK SMILES CC(C)C[C@H](CNC(=O)c1ccc(O)cc1O)C(=O)OCCOCCOCCOCCOC(=O)c1ccc(-c2c3nc(c(-c4ccccc4)c4ccc([nH]4)c(-c4ccccc4)c4nc(c(-c5ccccc5)c5ccc2[nH]5)C=C4)C=C3)cc1
REMARK SMILES IDX 25 1 24 2 23 3 22 4 21 5 20 6 18 7 19 8 5 9 4 10 2 11 1 12
REMARK SMILES IDX 3 13 6 14 7 15 8 16 9 18 10 19 11 20 16 21 12 22 15 23 13 24
REMARK SMILES IDX 17 25 14 27 26 29 27 30 28 31 29 32 30 33 31 34 32 35 33 36
REMARK SMILES IDX 34 37 35 38 36 39 82 40 37 41 81 42 38 43 39 44 40 45 75 46
REMARK SMILES IDX 41 47 80 48 74 49 76 50 42 51 79 52 73 53 72 54 43 56 65 57
REMARK SMILES IDX 50 58 64 59 51 60 54 61 63 62 77 63 52 64 53 65 62 67 78 68
REMARK SMILES IDX 55 69 44 70 45 71 49 72 46 73 48 74 47 75 66 76 67 77 71 78
REMARK SMILES IDX 68 79 70 80 69 81 56 82 57 83 61 84 58 85 60 86 59 87
REMARK H PARENT 7 17 17 26 14 28 76 55 54 66
REMARK Flexibility Score: inf
ROOT
ATOM      1  C   UNL A   1      35.503  31.576  27.862  1.00  0.00     0.188 C 
ENDROOT
BRANCH   1   2
ATOM      2  C   UNL A   1      33.986  31.366  27.833  1.00  0.00     0.188 C 
BRANCH   2   3
ATOM      3  O   UNL A   1      33.515  30.778  26.641  1.00  0.00    -0.376 OA
BRANCH   3   4
ATOM      4  C   UNL A   1      32.177  30.746  26.195  1.00  0.00     0.202 C 
BRANCH   4   5
ATOM      5  C   UNL A   1      31.417  29.586  25.512  1.00  0.00     0.261 C 
BRANCH   5   6
ATOM      6  O   UNL A   1      32.020  28.302  25.345  1.00  0.00    -0.463 OA
BRANCH   6   7
ATOM      7  C   UNL A   1      31.648  27.364  26.250  1.00  0.00     0.310 C 
ATOM      8  O   UNL A   1      31.250  27.648  27.374  1.00  0.00    -0.252 OA
BRANCH   7   9
ATOM      9  C   UNL A   1      31.842  25.925  25.763  1.00  0.00     0.118 C 
BRANCH   9  10
ATOM     10  C   UNL A   1      32.898  25.933  24.648  1.00  0.00     0.020 C 
BRANCH  10  11
ATOM     11  C   UNL A   1      32.422  25.343  23.303  1.00  0.00    -0.017 C 
ATOM     12  C   UNL A   1      32.139  26.418  22.250  1.00  0.00     0.007 C 
ATOM     13  C   UNL A   1      33.458  24.353  22.777  1.00  0.00     0.007 C 
ENDBRANCH  10  11
ENDBRANCH   9  10
BRANCH   9  14
ATOM     14  C   UNL A   1      30.536  25.204  25.352  1.00  0.00     0.131 C 
BRANCH  14  15
ATOM     15  N   UNL A   1      29.964  24.323  26.359  1.00  0.00    -0.351 N 
ATOM     16  C   UNL A   1      30.436  23.181  26.947  1.00  0.00     0.255 C 
ATOM     17  H   UNL A   1      29.074  24.600  26.675  1.00  0.00     0.163 HD
ATOM     18  O   UNL A   1      29.666  22.499  27.626  1.00  0.00    -0.269 OA
BRANCH  16  19
ATOM     19  C   UNL A   1      31.810  22.671  26.748  1.00  0.00     0.081 A 
ATOM     20  C   UNL A   1      32.747  22.615  27.788  1.00  0.00     0.021 A 
ATOM     21  C   UNL A   1      32.130  22.096  25.509  1.00  0.00     0.132 A 
ATOM     22  C   UNL A   1      34.010  22.047  27.564  1.00  0.00     0.047 A 
ATOM     23  C   UNL A   1      33.391  21.554  25.277  1.00  0.00     0.093 A 
ATOM     24  C   UNL A   1      34.323  21.532  26.307  1.00  0.00     0.119 A 
BRANCH  21  25
ATOM     25  O   UNL A   1      31.225  22.007  24.483  1.00  0.00    -0.507 OA
ATOM     26  H   UNL A   1      31.491  21.665  23.652  1.00  0.00     0.293 HD
ENDBRANCH  21  25
BRANCH  24  27
ATOM     27  O   UNL A   1      35.536  20.966  26.047  1.00  0.00    -0.508 OA
ATOM     28  H   UNL A   1      35.598  20.046  25.883  1.00  0.00     0.293 HD
ENDBRANCH  24  27
ENDBRANCH  16  19
ENDBRANCH  14  15
ENDBRANCH   9  14
ENDBRANCH   7   9
ENDBRANCH   6   7
ENDBRANCH   5   6
ENDBRANCH   4   5
ENDBRANCH   3   4
ENDBRANCH   2   3
ENDBRANCH   1   2
BRANCH   1  29
ATOM     29  O   UNL A   1      36.095  32.231  28.965  1.00  0.00    -0.377 OA
BRANCH  29  30
ATOM     30  C   UNL A   1      35.342  33.321  29.472  1.00  0.00     0.188 C 
BRANCH  30  31
ATOM     31  C   UNL A   1      35.468  34.558  28.576  1.00  0.00     0.188 C 
BRANCH  31  32
ATOM     32  O   UNL A   1      34.288  35.200  28.132  1.00  0.00    -0.376 OA
BRANCH  32  33
ATOM     33  C   UNL A   1      33.119  35.317  28.925  1.00  0.00     0.202 C 
BRANCH  33  34
ATOM     34  C   UNL A   1      32.849  36.345  30.049  1.00  0.00     0.261 C 
BRANCH  34  35
ATOM     35  O   UNL A   1      33.580  36.272  31.272  1.00  0.00    -0.460 OA
BRANCH  35  36
ATOM     36  C   UNL A   1      33.133  35.415  32.207  1.00  0.00     0.338 C 
ATOM     37  O   UNL A   1      31.977  35.116  32.449  1.00  0.00    -0.246 OA
BRANCH  36  38
ATOM     38  C   UNL A   1      34.323  34.753  32.783  1.00  0.00     0.060 A 
ATOM     39  C   UNL A   1      35.582  35.338  32.596  1.00  0.00     0.016 A 
ATOM     40  C   UNL A   1      34.189  33.576  33.524  1.00  0.00     0.016 A 
ATOM     41  C   UNL A   1      36.721  34.728  33.116  1.00  0.00     0.010 A 
ATOM     42  C   UNL A   1      35.334  32.944  34.012  1.00  0.00     0.010 A 
ATOM     43  C   UNL A   1      36.605  33.497  33.770  1.00  0.00    -0.014 A 
BRANCH  43  44
ATOM     44  C   UNL A   1      37.807  32.652  33.940  1.00  0.00     0.031 A 
ATOM     45  C   UNL A   1      38.626  32.860  35.184  1.00  0.00     0.074 A 
ATOM     46  C   UNL A   1      38.164  31.726  33.035  1.00  0.00     0.049 A 
ATOM     47  N   UNL A   1      39.766  32.320  35.531  1.00  0.00    -0.248 NA
ATOM     48  C   UNL A   1      38.085  33.814  36.168  1.00  0.00     0.031 C 
ATOM     49  C   UNL A   1      37.418  31.387  31.826  1.00  0.00     0.029 A 
ATOM     50  N   UNL A   1      39.266  30.909  32.997  1.00  0.00    -0.354 N 
ATOM     51  C   UNL A   1      40.084  32.883  36.759  1.00  0.00     0.074 A 
ATOM     52  C   UNL A   1      39.035  33.822  37.087  1.00  0.00     0.031 C 
ATOM     53  C   UNL A   1      38.096  30.439  31.152  1.00  0.00     0.029 A 
ATOM     54  C   UNL A   1      39.338  30.140  31.862  1.00  0.00     0.049 A 
ATOM     55  H   UNL A   1      39.939  30.879  33.714  1.00  0.00     0.167 HD
ATOM     56  C   UNL A   1      41.156  32.642  37.549  1.00  0.00     0.031 A 
ATOM     57  C   UNL A   1      40.314  29.315  31.438  1.00  0.00     0.031 A 
ATOM     58  C   UNL A   1      42.210  31.726  37.209  1.00  0.00     0.049 A 
ATOM     59  C   UNL A   1      41.547  29.131  32.286  1.00  0.00     0.074 A 
ATOM     60  C   UNL A   1      43.340  31.404  37.937  1.00  0.00     0.029 A 
ATOM     61  N   UNL A   1      42.264  30.993  36.033  1.00  0.00    -0.354 N 
ATOM     62  N   UNL A   1      41.837  29.656  33.452  1.00  0.00    -0.248 NA
ATOM     63  C   UNL A   1      42.585  28.232  31.759  1.00  0.00     0.031 C 
ATOM     64  C   UNL A   1      44.113  30.524  37.172  1.00  0.00     0.029 A 
ATOM     65  C   UNL A   1      43.425  30.242  36.002  1.00  0.00     0.049 A 
ATOM     66  H   UNL A   1      41.580  31.007  35.326  1.00  0.00     0.167 HD
ATOM     67  C   UNL A   1      43.070  29.126  33.815  1.00  0.00     0.074 A 
ATOM     68  C   UNL A   1      43.469  28.231  32.748  1.00  0.00     0.031 C 
ATOM     69  C   UNL A   1      43.803  29.352  34.933  1.00  0.00     0.031 A 
BRANCH  56  70
ATOM     70  C   UNL A   1      41.261  33.429  38.825  1.00  0.00    -0.014 A 
ATOM     71  C   UNL A   1      40.708  32.957  40.027  1.00  0.00     0.009 A 
ATOM     72  C   UNL A   1      41.923  34.666  38.822  1.00  0.00     0.009 A 
ATOM     73  C   UNL A   1      40.781  33.729  41.189  1.00  0.00     0.001 A 
ATOM     74  C   UNL A   1      42.025  35.420  39.992  1.00  0.00     0.001 A 
ATOM     75  C   UNL A   1      41.443  34.957  41.171  1.00  0.00     0.000 A 
ENDBRANCH  56  70
BRANCH  57  76
ATOM     76  C   UNL A   1      40.182  28.616  30.132  1.00  0.00    -0.014 A 
ATOM     77  C   UNL A   1      40.664  29.202  28.952  1.00  0.00     0.009 A 
ATOM     78  C   UNL A   1      39.558  27.359  30.057  1.00  0.00     0.009 A 
ATOM     79  C   UNL A   1      40.503  28.557  27.723  1.00  0.00     0.001 A 
ATOM     80  C   UNL A   1      39.425  26.704  28.832  1.00  0.00     0.001 A 
ATOM     81  C   UNL A   1      39.889  27.306  27.665  1.00  0.00     0.000 A 
ENDBRANCH  57  76
BRANCH  69  82
ATOM     82  C   UNL A   1      45.084  28.579  35.094  1.00  0.00    -0.014 A 
ATOM     83  C   UNL A   1      45.108  27.306  35.682  1.00  0.00     0.009 A 
ATOM     84  C   UNL A   1      46.279  29.115  34.586  1.00  0.00     0.009 A 
ATOM     85  C   UNL A   1      46.309  26.600  35.787  1.00  0.00     0.001 A 
ATOM     86  C   UNL A   1      47.471  28.394  34.661  1.00  0.00     0.001 A 
ATOM     87  C   UNL A   1      47.486  27.141  35.269  1.00  0.00     0.000 A 
ENDBRANCH  69  82
ENDBRANCH  43  44
ENDBRANCH  36  38
ENDBRANCH  35  36
ENDBRANCH  34  35
ENDBRANCH  33  34
ENDBRANCH  32  33
ENDBRANCH  31  32
ENDBRANCH  30  31
ENDBRANCH  29  30
ENDBRANCH   1  29
TORSDOF 27
ENDMDL
