MODEL 1
REMARK VINA RESULT:      -9.1      0.000      0.000
REMARK SMILES COc1ccc(N2C(=O)/C(=C\c3ccc(-c4ccc(Cl)c(C(=O)OCCOCCOCCOCCOC(=O)c5ccc(-c6c7nc(c(-c8ccccc8)c8ccc([nH]8)c(-c8ccccc8)c8nc(c(-c9ccccc9)c9ccc6[nH]9)C=C8)C=C7)cc5)c4)o3)SC2=S)cc1
REMARK SMILES IDX 29 1 28 2 27 3 26 4 25 5 24 6 22 7 23 8 21 9 16 10 17 11
REMARK SMILES IDX 87 12 18 13 19 14 20 15 15 16 12 17 13 18 88 19 14 20 11 21
REMARK SMILES IDX 7 22 8 23 90 24 9 25 10 26 89 27 91 28 6 29 3 30 4 31 93 32
REMARK SMILES IDX 5 33 92 34 2 35 1 36 30 37 31 38 32 39 33 40 34 41 35 42
REMARK SMILES IDX 36 43 37 44 38 45 39 46 40 47 86 48 41 49 85 50 42 51 43 52
REMARK SMILES IDX 44 53 79 54 45 55 84 56 78 57 80 58 46 59 83 60 77 61 76 62
REMARK SMILES IDX 47 64 69 65 54 66 68 67 55 68 58 69 67 70 81 71 56 72 57 73
REMARK SMILES IDX 66 75 82 76 59 77 48 78 49 79 53 80 50 81 52 82 51 83 70 84
REMARK SMILES IDX 71 85 75 86 72 87 74 88 73 89 60 90 61 91 65 92 62 93 64 94
REMARK SMILES IDX 63 95
REMARK H PARENT 80 63 58 74
REMARK Flexibility Score: inf
ROOT
ATOM      1  C   UNL A   1      40.257  21.531  26.295  1.00  0.00     0.188 C 
ENDROOT
BRANCH   1   2
ATOM      2  C   UNL A   1      39.976  22.727  27.221  1.00  0.00     0.188 C 
BRANCH   2   3
ATOM      3  O   UNL A   1      39.748  23.956  26.533  1.00  0.00    -0.376 OA
BRANCH   3   4
ATOM      4  C   UNL A   1      39.197  25.004  27.322  1.00  0.00     0.202 C 
BRANCH   4   5
ATOM      5  C   UNL A   1      40.084  26.248  27.376  1.00  0.00     0.261 C 
BRANCH   5   6
ATOM      6  O   UNL A   1      39.450  27.367  28.011  1.00  0.00    -0.460 OA
BRANCH   6   7
ATOM      7  C   UNL A   1      39.575  28.582  27.427  1.00  0.00     0.339 C 
ATOM      8  O   UNL A   1      40.273  28.860  26.472  1.00  0.00    -0.246 OA
BRANCH   7   9
ATOM      9  C   UNL A   1      38.618  29.477  28.119  1.00  0.00     0.079 A 
ATOM     10  C   UNL A   1      36.365  30.429  28.148  1.00  0.00     0.018 A 
ATOM     11  C   UNL A   1      36.768  31.304  29.159  1.00  0.00     0.013 A 
ATOM     12  C   UNL A   1      37.301  29.523  27.634  1.00  0.00     0.029 A 
ATOM     13  C   UNL A   1      38.075  31.253  29.663  1.00  0.00     0.022 A 
ATOM     14  C   UNL A   1      39.002  30.335  29.152  1.00  0.00     0.055 A 
ATOM     15  Cl  UNL A   1      40.602  30.384  29.794  1.00  0.00    -0.083 Cl
BRANCH  10  16
ATOM     16  C   UNL A   1      35.002  30.394  27.641  1.00  0.00     0.134 A 
ATOM     17  C   UNL A   1      33.459  30.024  26.093  1.00  0.00     0.128 A 
ATOM     18  C   UNL A   1      32.819  30.514  27.224  1.00  0.00     0.051 A 
ATOM     19  O   UNL A   1      34.802  29.922  26.375  1.00  0.00    -0.457 OA
ATOM     20  C   UNL A   1      33.799  30.759  28.201  1.00  0.00     0.051 A 
BRANCH  17  21
ATOM     21  C   UNL A   1      32.864  29.684  24.849  1.00  0.00     0.068 C 
ATOM     22  N   UNL A   1      32.757  26.051  24.680  1.00  0.00    -0.261 N 
ATOM     23  C   UNL A   1      32.715  27.224  25.427  1.00  0.00     0.270 C 
ATOM     24  C   UNL A   1      32.560  26.183  23.315  1.00  0.00     0.152 C 
ATOM     25  O   UNL A   1      32.757  27.317  26.647  1.00  0.00    -0.268 OA
ATOM     26  C   UNL A   1      32.619  28.406  24.523  1.00  0.00     0.084 C 
ATOM     27  S   UNL A   1      32.270  27.885  22.921  1.00  0.00    -0.054 SA
ATOM     28  S   UNL A   1      32.484  25.011  22.125  1.00  0.00    -0.051 S 
BRANCH  22  29
ATOM     29  C   UNL A   1      32.983  24.820  25.363  1.00  0.00     0.051 A 
ATOM     30  C   UNL A   1      33.455  22.290  26.508  1.00  0.00     0.119 A 
ATOM     31  C   UNL A   1      34.519  23.074  26.070  1.00  0.00     0.048 A 
ATOM     32  C   UNL A   1      32.153  22.782  26.403  1.00  0.00     0.048 A 
ATOM     33  C   UNL A   1      34.286  24.317  25.484  1.00  0.00     0.030 A 
ATOM     34  C   UNL A   1      31.918  24.044  25.838  1.00  0.00     0.030 A 
BRANCH  30  35
ATOM     35  O   UNL A   1      33.801  21.085  27.050  1.00  0.00    -0.497 OA
ATOM     36  C   UNL A   1      33.456  19.945  26.270  1.00  0.00     0.278 C 
ENDBRANCH  30  35
ENDBRANCH  22  29
ENDBRANCH  17  21
ENDBRANCH  10  16
ENDBRANCH   7   9
ENDBRANCH   6   7
ENDBRANCH   5   6
ENDBRANCH   4   5
ENDBRANCH   3   4
ENDBRANCH   2   3
ENDBRANCH   1   2
BRANCH   1  37
ATOM     37  O   UNL A   1      41.521  21.484  25.655  1.00  0.00    -0.377 OA
BRANCH  37  38
ATOM     38  C   UNL A   1      42.579  20.743  26.251  1.00  0.00     0.188 C 
BRANCH  38  39
ATOM     39  C   UNL A   1      43.561  19.895  25.414  1.00  0.00     0.188 C 
BRANCH  39  40
ATOM     40  O   UNL A   1      44.306  20.620  24.445  1.00  0.00    -0.376 OA
BRANCH  40  41
ATOM     41  C   UNL A   1      45.005  21.765  24.912  1.00  0.00     0.202 C 
BRANCH  41  42
ATOM     42  C   UNL A   1      44.623  23.049  24.169  1.00  0.00     0.261 C 
BRANCH  42  43
ATOM     43  O   UNL A   1      44.505  24.208  25.009  1.00  0.00    -0.460 OA
BRANCH  43  44
ATOM     44  C   UNL A   1      45.579  25.026  25.074  1.00  0.00     0.338 C 
ATOM     45  O   UNL A   1      46.600  24.972  24.416  1.00  0.00    -0.246 OA
BRANCH  44  46
ATOM     46  C   UNL A   1      45.235  26.131  25.985  1.00  0.00     0.060 A 
ATOM     47  C   UNL A   1      46.257  26.758  26.708  1.00  0.00     0.016 A 
ATOM     48  C   UNL A   1      43.908  26.547  26.113  1.00  0.00     0.016 A 
ATOM     49  C   UNL A   1      45.946  27.791  27.591  1.00  0.00     0.010 A 
ATOM     50  C   UNL A   1      43.596  27.567  27.010  1.00  0.00     0.010 A 
ATOM     51  C   UNL A   1      44.610  28.172  27.774  1.00  0.00    -0.014 A 
BRANCH  51  52
ATOM     52  C   UNL A   1      44.237  29.069  28.889  1.00  0.00     0.031 A 
ATOM     53  C   UNL A   1      43.920  28.453  30.222  1.00  0.00     0.074 A 
ATOM     54  C   UNL A   1      44.156  30.398  28.718  1.00  0.00     0.049 A 
ATOM     55  N   UNL A   1      43.515  29.027  31.325  1.00  0.00    -0.248 NA
ATOM     56  C   UNL A   1      44.071  26.992  30.318  1.00  0.00     0.031 C 
ATOM     57  C   UNL A   1      44.458  31.115  27.482  1.00  0.00     0.029 A 
ATOM     58  N   UNL A   1      43.772  31.381  29.595  1.00  0.00    -0.354 N 
ATOM     59  C   UNL A   1      43.356  27.997  32.244  1.00  0.00     0.074 A 
ATOM     60  C   UNL A   1      43.684  26.763  31.563  1.00  0.00     0.031 C 
ATOM     61  C   UNL A   1      44.230  32.426  27.674  1.00  0.00     0.029 A 
ATOM     62  C   UNL A   1      43.740  32.634  29.037  1.00  0.00     0.049 A 
ATOM     63  H   UNL A   1      43.542  31.204  30.537  1.00  0.00     0.167 HD
ATOM     64  C   UNL A   1      42.973  28.072  33.539  1.00  0.00     0.031 A 
ATOM     65  C   UNL A   1      43.337  33.807  29.560  1.00  0.00     0.031 A 
ATOM     66  C   UNL A   1      42.625  29.293  34.210  1.00  0.00     0.049 A 
ATOM     67  C   UNL A   1      42.849  33.857  30.983  1.00  0.00     0.074 A 
ATOM     68  C   UNL A   1      42.257  29.477  35.530  1.00  0.00     0.029 A 
ATOM     69  N   UNL A   1      42.585  30.540  33.604  1.00  0.00    -0.354 N 
ATOM     70  N   UNL A   1      42.754  32.887  31.860  1.00  0.00    -0.248 NA
ATOM     71  C   UNL A   1      42.416  35.169  31.489  1.00  0.00     0.031 C 
ATOM     72  C   UNL A   1      41.937  30.827  35.709  1.00  0.00     0.029 A 
ATOM     73  C   UNL A   1      42.161  31.492  34.513  1.00  0.00     0.049 A 
ATOM     74  H   UNL A   1      42.822  30.720  32.665  1.00  0.00     0.167 HD
ATOM     75  C   UNL A   1      42.272  33.472  33.024  1.00  0.00     0.074 A 
ATOM     76  C   UNL A   1      42.107  34.884  32.748  1.00  0.00     0.031 C 
ATOM     77  C   UNL A   1      41.992  32.891  34.218  1.00  0.00     0.031 A 
BRANCH  64  78
ATOM     78  C   UNL A   1      42.867  26.779  34.296  1.00  0.00    -0.014 A 
ATOM     79  C   UNL A   1      43.980  25.940  34.467  1.00  0.00     0.009 A 
ATOM     80  C   UNL A   1      41.636  26.401  34.852  1.00  0.00     0.009 A 
ATOM     81  C   UNL A   1      43.851  24.728  35.148  1.00  0.00     0.001 A 
ATOM     82  C   UNL A   1      41.517  25.201  35.555  1.00  0.00     0.001 A 
ATOM     83  C   UNL A   1      42.622  24.362  35.694  1.00  0.00     0.000 A 
ENDBRANCH  64  78
BRANCH  65  84
ATOM     84  C   UNL A   1      43.350  35.034  28.720  1.00  0.00    -0.014 A 
ATOM     85  C   UNL A   1      44.438  35.919  28.762  1.00  0.00     0.009 A 
ATOM     86  C   UNL A   1      42.266  35.327  27.879  1.00  0.00     0.009 A 
ATOM     87  C   UNL A   1      44.431  37.083  27.990  1.00  0.00     0.001 A 
ATOM     88  C   UNL A   1      42.273  36.478  27.088  1.00  0.00     0.001 A 
ATOM     89  C   UNL A   1      43.352  37.359  27.150  1.00  0.00     0.000 A 
ENDBRANCH  65  84
BRANCH  77  90
ATOM     90  C   UNL A   1      41.499  33.785  35.322  1.00  0.00    -0.014 A 
ATOM     91  C   UNL A   1      40.127  33.957  35.558  1.00  0.00     0.009 A 
ATOM     92  C   UNL A   1      42.421  34.415  36.171  1.00  0.00     0.009 A 
ATOM     93  C   UNL A   1      39.688  34.768  36.607  1.00  0.00     0.001 A 
ATOM     94  C   UNL A   1      41.981  35.202  37.236  1.00  0.00     0.001 A 
ATOM     95  C   UNL A   1      40.615  35.384  37.448  1.00  0.00     0.000 A 
ENDBRANCH  77  90
ENDBRANCH  51  52
ENDBRANCH  44  46
ENDBRANCH  43  44
ENDBRANCH  42  43
ENDBRANCH  41  42
ENDBRANCH  40  41
ENDBRANCH  39  40
ENDBRANCH  38  39
ENDBRANCH  37  38
ENDBRANCH   1  37
TORSDOF 24
ENDMDL
MODEL 2
REMARK VINA RESULT:      -8.0      5.368     12.585
REMARK SMILES COc1ccc(N2C(=O)/C(=C\c3ccc(-c4ccc(Cl)c(C(=O)OCCOCCOCCOCCOC(=O)c5ccc(-c6c7nc(c(-c8ccccc8)c8ccc([nH]8)c(-c8ccccc8)c8nc(c(-c9ccccc9)c9ccc6[nH]9)C=C8)C=C7)cc5)c4)o3)SC2=S)cc1
REMARK SMILES IDX 29 1 28 2 27 3 26 4 25 5 24 6 22 7 23 8 21 9 16 10 17 11
REMARK SMILES IDX 87 12 18 13 19 14 20 15 15 16 12 17 13 18 88 19 14 20 11 21
REMARK SMILES IDX 7 22 8 23 90 24 9 25 10 26 89 27 91 28 6 29 3 30 4 31 93 32
REMARK SMILES IDX 5 33 92 34 2 35 1 36 30 37 31 38 32 39 33 40 34 41 35 42
REMARK SMILES IDX 36 43 37 44 38 45 39 46 40 47 86 48 41 49 85 50 42 51 43 52
REMARK SMILES IDX 44 53 79 54 45 55 84 56 78 57 80 58 46 59 83 60 77 61 76 62
REMARK SMILES IDX 47 64 69 65 54 66 68 67 55 68 58 69 67 70 81 71 56 72 57 73
REMARK SMILES IDX 66 75 82 76 59 77 48 78 49 79 53 80 50 81 52 82 51 83 70 84
REMARK SMILES IDX 71 85 75 86 72 87 74 88 73 89 60 90 61 91 65 92 62 93 64 94
REMARK SMILES IDX 63 95
REMARK H PARENT 80 63 58 74
REMARK Flexibility Score: inf
ROOT
ATOM      1  C   UNL A   1      37.414  34.680  32.402  1.00  0.00     0.188 C 
ENDROOT
BRANCH   1   2
ATOM      2  C   UNL A   1      38.192  34.281  33.668  1.00  0.00     0.188 C 
BRANCH   2   3
ATOM      3  O   UNL A   1      39.471  34.902  33.787  1.00  0.00    -0.376 OA
BRANCH   3   4
ATOM      4  C   UNL A   1      40.586  34.058  33.526  1.00  0.00     0.202 C 
BRANCH   4   5
ATOM      5  C   UNL A   1      40.719  32.907  34.524  1.00  0.00     0.261 C 
BRANCH   5   6
ATOM      6  O   UNL A   1      39.505  32.637  35.239  1.00  0.00    -0.460 OA
BRANCH   6   7
ATOM      7  C   UNL A   1      39.406  31.457  35.896  1.00  0.00     0.339 C 
ATOM      8  O   UNL A   1      39.128  31.300  37.069  1.00  0.00    -0.246 OA
BRANCH   7   9
ATOM      9  C   UNL A   1      39.603  30.396  34.881  1.00  0.00     0.079 A 
ATOM     10  C   UNL A   1      41.150  28.787  33.881  1.00  0.00     0.018 A 
ATOM     11  C   UNL A   1      40.217  28.549  32.868  1.00  0.00     0.013 A 
ATOM     12  C   UNL A   1      40.831  29.716  34.879  1.00  0.00     0.029 A 
ATOM     13  C   UNL A   1      38.981  29.208  32.872  1.00  0.00     0.022 A 
ATOM     14  C   UNL A   1      38.665  30.127  33.882  1.00  0.00     0.055 A 
ATOM     15  Cl  UNL A   1      37.143  30.932  33.773  1.00  0.00    -0.083 Cl
BRANCH  10  16
ATOM     16  C   UNL A   1      42.416  28.076  33.960  1.00  0.00     0.134 A 
ATOM     17  C   UNL A   1      44.277  27.426  34.974  1.00  0.00     0.128 A 
ATOM     18  C   UNL A   1      44.288  26.902  33.687  1.00  0.00     0.051 A 
ATOM     19  O   UNL A   1      43.101  28.119  35.142  1.00  0.00    -0.457 OA
ATOM     20  C   UNL A   1      43.113  27.325  33.041  1.00  0.00     0.051 A 
BRANCH  17  21
ATOM     21  C   UNL A   1      45.287  27.292  35.964  1.00  0.00     0.068 C 
ATOM     22  N   UNL A   1      47.224  30.372  35.933  1.00  0.00    -0.261 N 
ATOM     23  C   UNL A   1      46.013  29.708  35.762  1.00  0.00     0.270 C 
ATOM     24  C   UNL A   1      48.210  29.685  36.622  1.00  0.00     0.152 C 
ATOM     25  O   UNL A   1      44.986  30.171  35.281  1.00  0.00    -0.268 OA
ATOM     26  C   UNL A   1      46.124  28.302  36.244  1.00  0.00     0.084 C 
ATOM     27  S   UNL A   1      47.588  28.105  37.126  1.00  0.00    -0.054 SA
ATOM     28  S   UNL A   1      49.746  30.174  37.066  1.00  0.00    -0.051 S 
BRANCH  22  29
ATOM     29  C   UNL A   1      47.354  31.692  35.408  1.00  0.00     0.051 A 
ATOM     30  C   UNL A   1      47.835  34.283  34.415  1.00  0.00     0.119 A 
ATOM     31  C   UNL A   1      48.092  33.167  33.622  1.00  0.00     0.048 A 
ATOM     32  C   UNL A   1      47.308  34.108  35.695  1.00  0.00     0.048 A 
ATOM     33  C   UNL A   1      47.874  31.882  34.121  1.00  0.00     0.030 A 
ATOM     34  C   UNL A   1      47.063  32.818  36.188  1.00  0.00     0.030 A 
BRANCH  30  35
ATOM     35  O   UNL A   1      48.102  35.488  33.830  1.00  0.00    -0.497 OA
ATOM     36  C   UNL A   1      48.618  36.487  34.701  1.00  0.00     0.278 C 
ENDBRANCH  30  35
ENDBRANCH  22  29
ENDBRANCH  17  21
ENDBRANCH  10  16
ENDBRANCH   7   9
ENDBRANCH   6   7
ENDBRANCH   5   6
ENDBRANCH   4   5
ENDBRANCH   3   4
ENDBRANCH   2   3
ENDBRANCH   1   2
BRANCH   1  37
ATOM     37  O   UNL A   1      36.816  33.639  31.649  1.00  0.00    -0.377 OA
BRANCH  37  38
ATOM     38  C   UNL A   1      35.417  33.404  31.768  1.00  0.00     0.188 C 
BRANCH  38  39
ATOM     39  C   UNL A   1      34.582  32.816  30.611  1.00  0.00     0.188 C 
BRANCH  39  40
ATOM     40  O   UNL A   1      33.992  33.778  29.746  1.00  0.00    -0.376 OA
BRANCH  40  41
ATOM     41  C   UNL A   1      34.170  33.569  28.352  1.00  0.00     0.202 C 
BRANCH  41  42
ATOM     42  C   UNL A   1      33.606  32.231  27.866  1.00  0.00     0.261 C 
BRANCH  42  43
ATOM     43  O   UNL A   1      34.579  31.357  27.273  1.00  0.00    -0.460 OA
BRANCH  43  44
ATOM     44  C   UNL A   1      34.628  30.090  27.741  1.00  0.00     0.338 C 
ATOM     45  O   UNL A   1      33.745  29.254  27.725  1.00  0.00    -0.246 OA
BRANCH  44  46
ATOM     46  C   UNL A   1      36.020  29.820  28.137  1.00  0.00     0.060 A 
ATOM     47  C   UNL A   1      37.047  30.072  27.220  1.00  0.00     0.016 A 
ATOM     48  C   UNL A   1      36.304  29.329  29.413  1.00  0.00     0.016 A 
ATOM     49  C   UNL A   1      38.370  29.801  27.570  1.00  0.00     0.010 A 
ATOM     50  C   UNL A   1      37.624  29.042  29.756  1.00  0.00     0.010 A 
ATOM     51  C   UNL A   1      38.657  29.248  28.826  1.00  0.00    -0.014 A 
BRANCH  51  52
ATOM     52  C   UNL A   1      40.005  28.711  29.111  1.00  0.00     0.031 A 
ATOM     53  C   UNL A   1      41.011  29.620  29.759  1.00  0.00     0.074 A 
ATOM     54  C   UNL A   1      40.340  27.454  28.778  1.00  0.00     0.049 A 
ATOM     55  N   UNL A   1      42.265  29.394  30.052  1.00  0.00    -0.248 NA
ATOM     56  C   UNL A   1      40.538  30.967  30.117  1.00  0.00     0.031 C 
ATOM     57  C   UNL A   1      39.450  26.472  28.164  1.00  0.00     0.029 A 
ATOM     58  N   UNL A   1      41.539  26.798  28.898  1.00  0.00    -0.354 N 
ATOM     59  C   UNL A   1      42.733  30.571  30.620  1.00  0.00     0.074 A 
ATOM     60  C   UNL A   1      41.637  31.516  30.609  1.00  0.00     0.031 C 
ATOM     61  C   UNL A   1      40.140  25.339  27.944  1.00  0.00     0.029 A 
ATOM     62  C   UNL A   1      41.525  25.529  28.375  1.00  0.00     0.049 A 
ATOM     63  H   UNL A   1      42.334  27.198  29.319  1.00  0.00     0.167 HD
ATOM     64  C   UNL A   1      43.965  30.843  31.108  1.00  0.00     0.031 A 
ATOM     65  C   UNL A   1      42.522  24.635  28.238  1.00  0.00     0.031 A 
ATOM     66  C   UNL A   1      45.061  29.914  31.100  1.00  0.00     0.049 A 
ATOM     67  C   UNL A   1      43.903  24.983  28.727  1.00  0.00     0.074 A 
ATOM     68  C   UNL A   1      46.338  30.083  31.602  1.00  0.00     0.029 A 
ATOM     69  N   UNL A   1      45.012  28.646  30.542  1.00  0.00    -0.354 N 
ATOM     70  N   UNL A   1      44.322  26.079  29.312  1.00  0.00    -0.248 NA
ATOM     71  C   UNL A   1      44.948  23.965  28.540  1.00  0.00     0.031 C 
ATOM     72  C   UNL A   1      47.081  28.938  31.297  1.00  0.00     0.029 A 
ATOM     73  C   UNL A   1      46.248  28.034  30.654  1.00  0.00     0.049 A 
ATOM     74  H   UNL A   1      44.216  28.241  30.127  1.00  0.00     0.167 HD
ATOM     75  C   UNL A   1      45.670  25.875  29.581  1.00  0.00     0.074 A 
ATOM     76  C   UNL A   1      45.996  24.546  29.108  1.00  0.00     0.031 C 
ATOM     77  C   UNL A   1      46.559  26.715  30.168  1.00  0.00     0.031 A 
BRANCH  64  78
ATOM     78  C   UNL A   1      44.196  32.224  31.651  1.00  0.00    -0.014 A 
ATOM     79  C   UNL A   1      44.593  33.280  30.815  1.00  0.00     0.009 A 
ATOM     80  C   UNL A   1      44.006  32.472  33.019  1.00  0.00     0.009 A 
ATOM     81  C   UNL A   1      44.832  34.548  31.348  1.00  0.00     0.001 A 
ATOM     82  C   UNL A   1      44.220  33.747  33.543  1.00  0.00     0.001 A 
ATOM     83  C   UNL A   1      44.642  34.782  32.709  1.00  0.00     0.000 A 
ENDBRANCH  64  78
BRANCH  65  84
ATOM     84  C   UNL A   1      42.258  23.328  27.581  1.00  0.00    -0.014 A 
ATOM     85  C   UNL A   1      42.450  23.169  26.200  1.00  0.00     0.009 A 
ATOM     86  C   UNL A   1      41.804  22.235  28.335  1.00  0.00     0.009 A 
ATOM     87  C   UNL A   1      42.175  21.945  25.586  1.00  0.00     0.001 A 
ATOM     88  C   UNL A   1      41.555  21.006  27.723  1.00  0.00     0.001 A 
ATOM     89  C   UNL A   1      41.733  20.863  26.348  1.00  0.00     0.000 A 
ENDBRANCH  65  84
BRANCH  77  90
ATOM     90  C   UNL A   1      47.964  26.214  30.353  1.00  0.00    -0.014 A 
ATOM     91  C   UNL A   1      48.393  25.691  31.582  1.00  0.00     0.009 A 
ATOM     92  C   UNL A   1      48.851  26.215  29.265  1.00  0.00     0.009 A 
ATOM     93  C   UNL A   1      49.694  25.203  31.725  1.00  0.00     0.001 A 
ATOM     94  C   UNL A   1      50.142  25.702  29.403  1.00  0.00     0.001 A 
ATOM     95  C   UNL A   1      50.564  25.204  30.635  1.00  0.00     0.000 A 
ENDBRANCH  77  90
ENDBRANCH  51  52
ENDBRANCH  44  46
ENDBRANCH  43  44
ENDBRANCH  42  43
ENDBRANCH  41  42
ENDBRANCH  40  41
ENDBRANCH  39  40
ENDBRANCH  38  39
ENDBRANCH  37  38
ENDBRANCH   1  37
TORSDOF 24
ENDMDL
MODEL 3
REMARK VINA RESULT:      -7.9      4.385      6.245
REMARK SMILES COc1ccc(N2C(=O)/C(=C\c3ccc(-c4ccc(Cl)c(C(=O)OCCOCCOCCOCCOC(=O)c5ccc(-c6c7nc(c(-c8ccccc8)c8ccc([nH]8)c(-c8ccccc8)c8nc(c(-c9ccccc9)c9ccc6[nH]9)C=C8)C=C7)cc5)c4)o3)SC2=S)cc1
REMARK SMILES IDX 29 1 28 2 27 3 26 4 25 5 24 6 22 7 23 8 21 9 16 10 17 11
REMARK SMILES IDX 87 12 18 13 19 14 20 15 15 16 12 17 13 18 88 19 14 20 11 21
REMARK SMILES IDX 7 22 8 23 90 24 9 25 10 26 89 27 91 28 6 29 3 30 4 31 93 32
REMARK SMILES IDX 5 33 92 34 2 35 1 36 30 37 31 38 32 39 33 40 34 41 35 42
REMARK SMILES IDX 36 43 37 44 38 45 39 46 40 47 86 48 41 49 85 50 42 51 43 52
REMARK SMILES IDX 44 53 79 54 45 55 84 56 78 57 80 58 46 59 83 60 77 61 76 62
REMARK SMILES IDX 47 64 69 65 54 66 68 67 55 68 58 69 67 70 81 71 56 72 57 73
REMARK SMILES IDX 66 75 82 76 59 77 48 78 49 79 53 80 50 81 52 82 51 83 70 84
REMARK SMILES IDX 71 85 75 86 72 87 74 88 73 89 60 90 61 91 65 92 62 93 64 94
REMARK SMILES IDX 63 95
REMARK H PARENT 80 63 58 74
REMARK Flexibility Score: inf
ROOT
ATOM      1  C   UNL A   1      40.829  20.902  26.795  1.00  0.00     0.188 C 
ENDROOT
BRANCH   1   2
ATOM      2  C   UNL A   1      40.699  22.303  27.418  1.00  0.00     0.188 C 
BRANCH   2   3
ATOM      3  O   UNL A   1      41.145  23.361  26.572  1.00  0.00    -0.376 OA
BRANCH   3   4
ATOM      4  C   UNL A   1      40.484  24.608  26.754  1.00  0.00     0.202 C 
BRANCH   4   5
ATOM      5  C   UNL A   1      41.364  25.812  26.418  1.00  0.00     0.261 C 
BRANCH   5   6
ATOM      6  O   UNL A   1      41.352  26.823  27.436  1.00  0.00    -0.460 OA
BRANCH   6   7
ATOM      7  C   UNL A   1      41.300  28.118  27.044  1.00  0.00     0.339 C 
ATOM      8  O   UNL A   1      40.776  28.551  26.036  1.00  0.00    -0.246 OA
BRANCH   7   9
ATOM      9  C   UNL A   1      41.916  28.908  28.134  1.00  0.00     0.079 A 
ATOM     10  C   UNL A   1      41.978  29.379  30.534  1.00  0.00     0.018 A 
ATOM     11  C   UNL A   1      42.801  30.478  30.278  1.00  0.00     0.013 A 
ATOM     12  C   UNL A   1      41.540  28.605  29.453  1.00  0.00     0.029 A 
ATOM     13  C   UNL A   1      43.198  30.778  28.968  1.00  0.00     0.022 A 
ATOM     14  C   UNL A   1      42.765  29.990  27.893  1.00  0.00     0.055 A 
ATOM     15  Cl  UNL A   1      43.258  30.470  26.311  1.00  0.00    -0.083 Cl
BRANCH  10  16
ATOM     16  C   UNL A   1      41.597  28.985  31.881  1.00  0.00     0.134 A 
ATOM     17  C   UNL A   1      40.782  29.350  33.910  1.00  0.00     0.128 A 
ATOM     18  C   UNL A   1      41.181  28.020  33.844  1.00  0.00     0.051 A 
ATOM     19  O   UNL A   1      41.011  29.925  32.681  1.00  0.00    -0.457 OA
ATOM     20  C   UNL A   1      41.709  27.793  32.561  1.00  0.00     0.051 A 
BRANCH  17  21
ATOM     21  C   UNL A   1      40.234  30.027  35.032  1.00  0.00     0.068 C 
ATOM     22  N   UNL A   1      37.413  31.980  33.823  1.00  0.00    -0.261 N 
ATOM     23  C   UNL A   1      38.222  30.851  33.738  1.00  0.00     0.270 C 
ATOM     24  C   UNL A   1      37.490  32.705  35.001  1.00  0.00     0.152 C 
ATOM     25  O   UNL A   1      38.227  30.021  32.837  1.00  0.00    -0.268 OA
ATOM     26  C   UNL A   1      39.129  30.777  34.919  1.00  0.00     0.084 C 
ATOM     27  S   UNL A   1      38.629  31.918  36.106  1.00  0.00    -0.054 SA
ATOM     28  S   UNL A   1      36.640  34.061  35.483  1.00  0.00    -0.051 S 
BRANCH  22  29
ATOM     29  C   UNL A   1      36.569  32.295  32.718  1.00  0.00     0.051 A 
ATOM     30  C   UNL A   1      34.978  33.132  30.549  1.00  0.00     0.119 A 
ATOM     31  C   UNL A   1      36.330  32.856  30.364  1.00  0.00     0.048 A 
ATOM     32  C   UNL A   1      34.410  32.961  31.813  1.00  0.00     0.048 A 
ATOM     33  C   UNL A   1      37.124  32.461  31.441  1.00  0.00     0.030 A 
ATOM     34  C   UNL A   1      35.201  32.539  32.891  1.00  0.00     0.030 A 
BRANCH  30  35
ATOM     35  O   UNL A   1      34.304  33.526  29.429  1.00  0.00    -0.497 OA
ATOM     36  C   UNL A   1      35.047  33.462  28.217  1.00  0.00     0.278 C 
ENDBRANCH  30  35
ENDBRANCH  22  29
ENDBRANCH  17  21
ENDBRANCH  10  16
ENDBRANCH   7   9
ENDBRANCH   6   7
ENDBRANCH   5   6
ENDBRANCH   4   5
ENDBRANCH   3   4
ENDBRANCH   2   3
ENDBRANCH   1   2
BRANCH   1  37
ATOM     37  O   UNL A   1      42.107  20.517  26.317  1.00  0.00    -0.377 OA
BRANCH  37  38
ATOM     38  C   UNL A   1      42.374  19.141  26.069  1.00  0.00     0.188 C 
BRANCH  38  39
ATOM     39  C   UNL A   1      43.672  18.668  25.380  1.00  0.00     0.188 C 
BRANCH  39  40
ATOM     40  O   UNL A   1      44.116  19.489  24.307  1.00  0.00    -0.376 OA
BRANCH  40  41
ATOM     41  C   UNL A   1      45.333  20.192  24.510  1.00  0.00     0.202 C 
BRANCH  41  42
ATOM     42  C   UNL A   1      45.127  21.610  25.051  1.00  0.00     0.261 C 
BRANCH  42  43
ATOM     43  O   UNL A   1      46.339  22.291  25.409  1.00  0.00    -0.460 OA
BRANCH  43  44
ATOM     44  C   UNL A   1      46.625  23.425  24.732  1.00  0.00     0.338 C 
ATOM     45  O   UNL A   1      46.781  23.560  23.534  1.00  0.00    -0.246 OA
BRANCH  44  46
ATOM     46  C   UNL A   1      46.551  24.541  25.691  1.00  0.00     0.060 A 
ATOM     47  C   UNL A   1      47.695  24.884  26.422  1.00  0.00     0.016 A 
ATOM     48  C   UNL A   1      45.357  25.246  25.856  1.00  0.00     0.016 A 
ATOM     49  C   UNL A   1      47.637  25.923  27.351  1.00  0.00     0.010 A 
ATOM     50  C   UNL A   1      45.295  26.272  26.797  1.00  0.00     0.010 A 
ATOM     51  C   UNL A   1      46.425  26.594  27.568  1.00  0.00    -0.014 A 
BRANCH  51  52
ATOM     52  C   UNL A   1      46.277  27.505  28.724  1.00  0.00     0.031 A 
ATOM     53  C   UNL A   1      45.899  26.914  30.052  1.00  0.00     0.074 A 
ATOM     54  C   UNL A   1      46.446  28.830  28.593  1.00  0.00     0.049 A 
ATOM     55  N   UNL A   1      45.657  27.514  31.188  1.00  0.00    -0.248 NA
ATOM     56  C   UNL A   1      45.770  25.448  30.101  1.00  0.00     0.031 C 
ATOM     57  C   UNL A   1      46.832  29.520  27.365  1.00  0.00     0.029 A 
ATOM     58  N   UNL A   1      46.294  29.836  29.514  1.00  0.00    -0.354 N 
ATOM     59  C   UNL A   1      45.339  26.502  32.084  1.00  0.00     0.074 A 
ATOM     60  C   UNL A   1      45.395  25.253  31.356  1.00  0.00     0.031 C 
ATOM     61  C   UNL A   1      46.869  30.843  27.604  1.00  0.00     0.029 A 
ATOM     62  C   UNL A   1      46.482  31.091  28.993  1.00  0.00     0.049 A 
ATOM     63  H   UNL A   1      46.071  29.673  30.460  1.00  0.00     0.167 HD
ATOM     64  C   UNL A   1      45.028  26.602  33.397  1.00  0.00     0.031 A 
ATOM     65  C   UNL A   1      46.334  32.301  29.565  1.00  0.00     0.031 A 
ATOM     66  C   UNL A   1      44.949  27.843  34.117  1.00  0.00     0.049 A 
ATOM     67  C   UNL A   1      45.920  32.392  31.011  1.00  0.00     0.074 A 
ATOM     68  C   UNL A   1      44.675  28.046  35.457  1.00  0.00     0.029 A 
ATOM     69  N   UNL A   1      45.126  29.094  33.548  1.00  0.00    -0.354 N 
ATOM     70  N   UNL A   1      45.675  31.427  31.864  1.00  0.00    -0.248 NA
ATOM     71  C   UNL A   1      45.769  33.743  31.572  1.00  0.00     0.031 C 
ATOM     72  C   UNL A   1      44.629  29.425  35.687  1.00  0.00     0.029 A 
ATOM     73  C   UNL A   1      44.930  30.077  34.502  1.00  0.00     0.049 A 
ATOM     74  H   UNL A   1      45.356  29.259  32.605  1.00  0.00     0.167 HD
ATOM     75  C   UNL A   1      45.361  32.051  33.065  1.00  0.00     0.074 A 
ATOM     76  C   UNL A   1      45.461  33.478  32.835  1.00  0.00     0.031 C 
ATOM     77  C   UNL A   1      45.022  31.493  34.253  1.00  0.00     0.031 A 
BRANCH  64  78
ATOM     78  C   UNL A   1      44.705  25.327  34.122  1.00  0.00    -0.014 A 
ATOM     79  C   UNL A   1      43.382  24.871  34.244  1.00  0.00     0.009 A 
ATOM     80  C   UNL A   1      45.742  24.568  34.685  1.00  0.00     0.009 A 
ATOM     81  C   UNL A   1      43.103  23.699  34.950  1.00  0.00     0.001 A 
ATOM     82  C   UNL A   1      45.462  23.384  35.366  1.00  0.00     0.001 A 
ATOM     83  C   UNL A   1      44.142  22.955  35.507  1.00  0.00     0.000 A 
ENDBRANCH  64  78
BRANCH  65  84
ATOM     84  C   UNL A   1      46.550  33.531  28.761  1.00  0.00    -0.014 A 
ATOM     85  C   UNL A   1      47.834  34.077  28.615  1.00  0.00     0.009 A 
ATOM     86  C   UNL A   1      45.465  34.171  28.141  1.00  0.00     0.009 A 
ATOM     87  C   UNL A   1      48.025  35.248  27.879  1.00  0.00     0.001 A 
ATOM     88  C   UNL A   1      45.663  35.327  27.383  1.00  0.00     0.001 A 
ATOM     89  C   UNL A   1      46.941  35.869  27.259  1.00  0.00     0.000 A 
ENDBRANCH  65  84
BRANCH  77  90
ATOM     90  C   UNL A   1      44.754  32.423  35.403  1.00  0.00    -0.014 A 
ATOM     91  C   UNL A   1      45.791  32.862  36.239  1.00  0.00     0.009 A 
ATOM     92  C   UNL A   1      43.455  32.910  35.615  1.00  0.00     0.009 A 
ATOM     93  C   UNL A   1      45.527  33.751  37.284  1.00  0.00     0.001 A 
ATOM     94  C   UNL A   1      43.198  33.819  36.642  1.00  0.00     0.001 A 
ATOM     95  C   UNL A   1      44.233  34.233  37.480  1.00  0.00     0.000 A 
ENDBRANCH  77  90
ENDBRANCH  51  52
ENDBRANCH  44  46
ENDBRANCH  43  44
ENDBRANCH  42  43
ENDBRANCH  41  42
ENDBRANCH  40  41
ENDBRANCH  39  40
ENDBRANCH  38  39
ENDBRANCH  37  38
ENDBRANCH   1  37
TORSDOF 24
ENDMDL
