MODEL 1
REMARK VINA RESULT:      -8.7      0.000      0.000
REMARK SMILES CC[C@@H](C)C[C@@H](C)[NH2+]Cc1ccc(C(=O)OCCOCCOCCOCCOC(=O)c2ccc(-c3c4nc(c(-c5ccccc5)c5ccc([nH]5)c(-c5ccccc5)c5nc(c(-c6ccccc6)c6ccc3[nH]6)C=C5)C=C4)cc2)cn1
REMARK SMILES IDX 20 1 19 2 18 3 17 4 16 5 14 6 15 7 13 8 10 9 11 10 80 11
REMARK SMILES IDX 12 12 79 13 9 14 8 15 6 18 7 19 5 20 3 21 4 22 2 23 1 24
REMARK SMILES IDX 21 25 22 26 23 27 24 28 25 29 26 30 27 31 28 32 29 33 30 34
REMARK SMILES IDX 31 35 32 36 78 37 33 38 77 39 34 40 35 41 36 42 71 43 37 44
REMARK SMILES IDX 76 45 70 46 72 47 38 48 75 49 69 50 68 51 39 53 61 54 46 55
REMARK SMILES IDX 60 56 47 57 50 58 59 59 73 60 48 61 49 62 58 64 74 65 51 66
REMARK SMILES IDX 40 67 41 68 45 69 42 70 44 71 43 72 62 73 63 74 67 75 64 76
REMARK SMILES IDX 66 77 65 78 52 79 53 80 57 81 54 82 56 83 55 84
REMARK H PARENT 8 16 8 17 72 52 50 63
REMARK Flexibility Score: inf
ROOT
ATOM      1  C   UNL A   1      38.932  20.790  25.720  1.00  0.00     0.188 C 
ENDROOT
BRANCH   1   2
ATOM      2  O   UNL A   1      37.809  21.577  25.369  1.00  0.00    -0.376 OA
BRANCH   2   3
ATOM      3  C   UNL A   1      36.658  21.016  24.766  1.00  0.00     0.202 C 
BRANCH   3   4
ATOM      4  C   UNL A   1      35.306  21.741  24.640  1.00  0.00     0.261 C 
BRANCH   4   5
ATOM      5  O   UNL A   1      35.019  22.738  25.614  1.00  0.00    -0.460 OA
BRANCH   5   6
ATOM      6  C   UNL A   1      33.841  22.630  26.257  1.00  0.00     0.339 C 
ATOM      7  O   UNL A   1      33.448  21.685  26.917  1.00  0.00    -0.246 OA
BRANCH   6   8
ATOM      8  C   UNL A   1      33.181  23.944  26.211  1.00  0.00     0.078 A 
ATOM      9  C   UNL A   1      31.713  26.232  25.988  1.00  0.00     0.094 A 
ATOM     10  C   UNL A   1      33.081  26.290  25.704  1.00  0.00     0.031 A 
ATOM     11  N   UNL A   1      31.134  25.157  26.587  1.00  0.00    -0.254 NA
ATOM     12  C   UNL A   1      33.820  25.114  25.790  1.00  0.00     0.019 A 
ATOM     13  C   UNL A   1      31.878  24.031  26.673  1.00  0.00     0.127 A 
BRANCH   9  14
ATOM     14  C   UNL A   1      30.767  27.203  25.299  1.00  0.00     0.318 C 
BRANCH  14  15
ATOM     15  N   UNL A   1      30.784  27.119  23.822  1.00  0.00    -0.339 N 
ATOM     16  H   UNL A   1      31.582  26.541  23.558  1.00  0.00     0.346 HD
ATOM     17  H   UNL A   1      29.871  26.741  23.571  1.00  0.00     0.346 HD
BRANCH  15  18
ATOM     18  C   UNL A   1      30.888  28.391  23.070  1.00  0.00     0.179 C 
ATOM     19  C   UNL A   1      32.288  29.000  22.942  1.00  0.00     0.075 C 
BRANCH  18  20
ATOM     20  C   UNL A   1      29.953  29.408  23.777  1.00  0.00     0.068 C 
BRANCH  20  21
ATOM     21  C   UNL A   1      29.142  30.340  22.842  1.00  0.00    -0.009 C 
ATOM     22  C   UNL A   1      28.960  31.708  23.499  1.00  0.00     0.008 C 
BRANCH  21  23
ATOM     23  C   UNL A   1      27.797  29.711  22.428  1.00  0.00    -0.000 C 
ATOM     24  C   UNL A   1      27.451  28.463  23.227  1.00  0.00     0.004 C 
ENDBRANCH  21  23
ENDBRANCH  20  21
ENDBRANCH  18  20
ENDBRANCH  15  18
ENDBRANCH  14  15
ENDBRANCH   9  14
ENDBRANCH   6   8
ENDBRANCH   5   6
ENDBRANCH   4   5
ENDBRANCH   3   4
ENDBRANCH   2   3
ENDBRANCH   1   2
BRANCH   1  25
ATOM     25  C   UNL A   1      39.960  21.549  26.582  1.00  0.00     0.188 C 
BRANCH  25  26
ATOM     26  O   UNL A   1      40.613  20.771  27.573  1.00  0.00    -0.377 OA
BRANCH  26  27
ATOM     27  C   UNL A   1      41.894  20.219  27.272  1.00  0.00     0.188 C 
BRANCH  27  28
ATOM     28  C   UNL A   1      42.384  19.961  25.821  1.00  0.00     0.188 C 
BRANCH  28  29
ATOM     29  O   UNL A   1      43.751  19.610  25.692  1.00  0.00    -0.376 OA
BRANCH  29  30
ATOM     30  C   UNL A   1      44.651  20.556  25.144  1.00  0.00     0.202 C 
BRANCH  30  31
ATOM     31  C   UNL A   1      44.130  21.984  24.935  1.00  0.00     0.261 C 
BRANCH  31  32
ATOM     32  O   UNL A   1      44.485  22.936  25.948  1.00  0.00    -0.460 OA
BRANCH  32  33
ATOM     33  C   UNL A   1      44.604  24.229  25.563  1.00  0.00     0.338 C 
ATOM     34  O   UNL A   1      45.094  24.652  24.541  1.00  0.00    -0.246 OA
BRANCH  33  35
ATOM     35  C   UNL A   1      43.849  25.047  26.538  1.00  0.00     0.060 A 
ATOM     36  C   UNL A   1      44.144  26.411  26.653  1.00  0.00     0.016 A 
ATOM     37  C   UNL A   1      42.849  24.468  27.322  1.00  0.00     0.016 A 
ATOM     38  C   UNL A   1      43.460  27.196  27.581  1.00  0.00     0.010 A 
ATOM     39  C   UNL A   1      42.181  25.249  28.266  1.00  0.00     0.010 A 
ATOM     40  C   UNL A   1      42.509  26.608  28.424  1.00  0.00    -0.014 A 
BRANCH  40  41
ATOM     41  C   UNL A   1      42.002  27.357  29.598  1.00  0.00     0.031 A 
ATOM     42  C   UNL A   1      40.708  28.112  29.456  1.00  0.00     0.074 A 
ATOM     43  C   UNL A   1      42.659  27.358  30.771  1.00  0.00     0.049 A 
ATOM     44  N   UNL A   1      40.092  28.876  30.320  1.00  0.00    -0.248 NA
ATOM     45  C   UNL A   1      40.018  27.987  28.161  1.00  0.00     0.031 C 
ATOM     46  C   UNL A   1      43.892  26.627  31.053  1.00  0.00     0.029 A 
ATOM     47  N   UNL A   1      42.374  28.009  31.945  1.00  0.00    -0.354 N 
ATOM     48  C   UNL A   1      38.951  29.331  29.670  1.00  0.00     0.074 A 
ATOM     49  C   UNL A   1      38.976  28.785  28.331  1.00  0.00     0.031 C 
ATOM     50  C   UNL A   1      44.264  26.876  32.322  1.00  0.00     0.029 A 
ATOM     51  C   UNL A   1      43.317  27.814  32.924  1.00  0.00     0.049 A 
ATOM     52  H   UNL A   1      41.572  28.563  32.074  1.00  0.00     0.167 HD
ATOM     53  C   UNL A   1      37.968  30.130  30.146  1.00  0.00     0.031 A 
ATOM     54  C   UNL A   1      43.417  28.352  34.155  1.00  0.00     0.031 A 
ATOM     55  C   UNL A   1      37.952  30.690  31.470  1.00  0.00     0.049 A 
ATOM     56  C   UNL A   1      42.358  29.315  34.629  1.00  0.00     0.074 A 
ATOM     57  C   UNL A   1      36.994  31.502  32.051  1.00  0.00     0.029 A 
ATOM     58  N   UNL A   1      38.950  30.507  32.415  1.00  0.00    -0.354 N 
ATOM     59  N   UNL A   1      41.270  29.718  34.017  1.00  0.00    -0.248 NA
ATOM     60  C   UNL A   1      42.541  29.892  35.969  1.00  0.00     0.031 C 
ATOM     61  C   UNL A   1      37.446  31.866  33.324  1.00  0.00     0.029 A 
ATOM     62  C   UNL A   1      38.648  31.218  33.564  1.00  0.00     0.049 A 
ATOM     63  H   UNL A   1      39.753  29.952  32.288  1.00  0.00     0.167 HD
ATOM     64  C   UNL A   1      40.624  30.568  34.908  1.00  0.00     0.074 A 
ATOM     65  C   UNL A   1      41.434  30.608  36.109  1.00  0.00     0.031 C 
ATOM     66  C   UNL A   1      39.463  31.252  34.750  1.00  0.00     0.031 A 
BRANCH  53  67
ATOM     67  C   UNL A   1      36.847  30.481  29.205  1.00  0.00    -0.014 A 
ATOM     68  C   UNL A   1      35.795  29.587  28.950  1.00  0.00     0.009 A 
ATOM     69  C   UNL A   1      36.834  31.739  28.583  1.00  0.00     0.009 A 
ATOM     70  C   UNL A   1      34.774  29.932  28.062  1.00  0.00     0.001 A 
ATOM     71  C   UNL A   1      35.795  32.095  27.722  1.00  0.00     0.001 A 
ATOM     72  C   UNL A   1      34.771  31.187  27.454  1.00  0.00     0.000 A 
ENDBRANCH  53  67
BRANCH  54  73
ATOM     73  C   UNL A   1      44.575  28.018  35.027  1.00  0.00    -0.014 A 
ATOM     74  C   UNL A   1      44.563  26.865  35.828  1.00  0.00     0.009 A 
ATOM     75  C   UNL A   1      45.690  28.871  35.087  1.00  0.00     0.009 A 
ATOM     76  C   UNL A   1      45.629  26.588  36.689  1.00  0.00     0.001 A 
ATOM     77  C   UNL A   1      46.767  28.574  35.924  1.00  0.00     0.001 A 
ATOM     78  C   UNL A   1      46.731  27.440  36.732  1.00  0.00     0.000 A 
ENDBRANCH  54  73
BRANCH  66  79
ATOM     79  C   UNL A   1      38.975  32.070  35.915  1.00  0.00    -0.014 A 
ATOM     80  C   UNL A   1      39.212  33.451  35.994  1.00  0.00     0.009 A 
ATOM     81  C   UNL A   1      38.225  31.452  36.929  1.00  0.00     0.009 A 
ATOM     82  C   UNL A   1      38.739  34.188  37.083  1.00  0.00     0.001 A 
ATOM     83  C   UNL A   1      37.723  32.197  37.998  1.00  0.00     0.001 A 
ATOM     84  C   UNL A   1      37.990  33.562  38.080  1.00  0.00     0.000 A 
ENDBRANCH  66  79
ENDBRANCH  40  41
ENDBRANCH  33  35
ENDBRANCH  32  33
ENDBRANCH  31  32
ENDBRANCH  30  31
ENDBRANCH  29  30
ENDBRANCH  28  29
ENDBRANCH  27  28
ENDBRANCH  26  27
ENDBRANCH  25  26
ENDBRANCH   1  25
TORSDOF 26
ENDMDL
MODEL 2
REMARK VINA RESULT:      -8.6      1.948      2.675
REMARK SMILES CC[C@@H](C)C[C@@H](C)[NH2+]Cc1ccc(C(=O)OCCOCCOCCOCCOC(=O)c2ccc(-c3c4nc(c(-c5ccccc5)c5ccc([nH]5)c(-c5ccccc5)c5nc(c(-c6ccccc6)c6ccc3[nH]6)C=C5)C=C4)cc2)cn1
REMARK SMILES IDX 20 1 19 2 18 3 17 4 16 5 14 6 15 7 13 8 10 9 11 10 80 11
REMARK SMILES IDX 12 12 79 13 9 14 8 15 6 18 7 19 5 20 3 21 4 22 2 23 1 24
REMARK SMILES IDX 21 25 22 26 23 27 24 28 25 29 26 30 27 31 28 32 29 33 30 34
REMARK SMILES IDX 31 35 32 36 78 37 33 38 77 39 34 40 35 41 36 42 71 43 37 44
REMARK SMILES IDX 76 45 70 46 72 47 38 48 75 49 69 50 68 51 39 53 61 54 46 55
REMARK SMILES IDX 60 56 47 57 50 58 59 59 73 60 48 61 49 62 58 64 74 65 51 66
REMARK SMILES IDX 40 67 41 68 45 69 42 70 44 71 43 72 62 73 63 74 67 75 64 76
REMARK SMILES IDX 66 77 65 78 52 79 53 80 57 81 54 82 56 83 55 84
REMARK H PARENT 8 16 8 17 72 52 50 63
REMARK Flexibility Score: inf
ROOT
ATOM      1  C   UNL A   1      39.688  20.008  25.246  1.00  0.00     0.188 C 
ENDROOT
BRANCH   1   2
ATOM      2  O   UNL A   1      38.819  21.035  25.686  1.00  0.00    -0.376 OA
BRANCH   2   3
ATOM      3  C   UNL A   1      37.421  20.979  25.468  1.00  0.00     0.202 C 
BRANCH   3   4
ATOM      4  C   UNL A   1      36.693  21.720  24.332  1.00  0.00     0.261 C 
BRANCH   4   5
ATOM      5  O   UNL A   1      35.700  22.665  24.713  1.00  0.00    -0.460 OA
BRANCH   5   6
ATOM      6  C   UNL A   1      34.441  22.204  24.824  1.00  0.00     0.339 C 
ATOM      7  O   UNL A   1      34.031  21.365  25.607  1.00  0.00    -0.246 OA
BRANCH   6   8
ATOM      8  C   UNL A   1      33.578  23.044  23.978  1.00  0.00     0.078 A 
ATOM      9  C   UNL A   1      32.166  24.843  22.492  1.00  0.00     0.094 A 
ATOM     10  C   UNL A   1      31.457  23.897  23.238  1.00  0.00     0.031 A 
ATOM     11  N   UNL A   1      33.510  24.762  22.293  1.00  0.00    -0.254 NA
ATOM     12  C   UNL A   1      32.181  23.000  24.018  1.00  0.00     0.019 A 
ATOM     13  C   UNL A   1      34.188  23.873  23.051  1.00  0.00     0.127 A 
BRANCH   9  14
ATOM     14  C   UNL A   1      31.527  26.192  22.199  1.00  0.00     0.318 C 
BRANCH  14  15
ATOM     15  N   UNL A   1      32.491  27.248  21.816  1.00  0.00    -0.339 N 
ATOM     16  H   UNL A   1      33.376  26.789  21.600  1.00  0.00     0.346 HD
ATOM     17  H   UNL A   1      32.050  27.732  21.035  1.00  0.00     0.346 HD
BRANCH  15  18
ATOM     18  C   UNL A   1      32.770  28.307  22.813  1.00  0.00     0.179 C 
ATOM     19  C   UNL A   1      34.201  28.854  22.849  1.00  0.00     0.075 C 
BRANCH  18  20
ATOM     20  C   UNL A   1      32.415  27.719  24.204  1.00  0.00     0.068 C 
BRANCH  20  21
ATOM     21  C   UNL A   1      33.578  27.659  25.226  1.00  0.00    -0.009 C 
ATOM     22  C   UNL A   1      33.756  26.227  25.730  1.00  0.00     0.008 C 
BRANCH  21  23
ATOM     23  C   UNL A   1      33.383  28.661  26.381  1.00  0.00    -0.000 C 
ATOM     24  C   UNL A   1      34.684  29.012  27.091  1.00  0.00     0.004 C 
ENDBRANCH  21  23
ENDBRANCH  20  21
ENDBRANCH  18  20
ENDBRANCH  15  18
ENDBRANCH  14  15
ENDBRANCH   9  14
ENDBRANCH   6   8
ENDBRANCH   5   6
ENDBRANCH   4   5
ENDBRANCH   3   4
ENDBRANCH   2   3
ENDBRANCH   1   2
BRANCH   1  25
ATOM     25  C   UNL A   1      40.805  19.684  26.258  1.00  0.00     0.188 C 
BRANCH  25  26
ATOM     26  O   UNL A   1      41.702  18.658  25.864  1.00  0.00    -0.377 OA
BRANCH  26  27
ATOM     27  C   UNL A   1      43.073  18.995  25.652  1.00  0.00     0.188 C 
BRANCH  27  28
ATOM     28  C   UNL A   1      43.618  20.443  25.782  1.00  0.00     0.188 C 
BRANCH  28  29
ATOM     29  O   UNL A   1      43.885  21.108  24.560  1.00  0.00    -0.376 OA
BRANCH  29  30
ATOM     30  C   UNL A   1      44.717  22.254  24.572  1.00  0.00     0.202 C 
BRANCH  30  31
ATOM     31  C   UNL A   1      44.026  23.623  24.617  1.00  0.00     0.261 C 
BRANCH  31  32
ATOM     32  O   UNL A   1      43.597  24.067  25.912  1.00  0.00    -0.460 OA
BRANCH  32  33
ATOM     33  C   UNL A   1      42.281  23.933  26.203  1.00  0.00     0.338 C 
ATOM     34  O   UNL A   1      41.557  23.002  25.935  1.00  0.00    -0.246 OA
BRANCH  33  35
ATOM     35  C   UNL A   1      41.913  25.059  27.090  1.00  0.00     0.060 A 
ATOM     36  C   UNL A   1      42.691  26.223  27.069  1.00  0.00     0.016 A 
ATOM     37  C   UNL A   1      40.798  24.966  27.925  1.00  0.00     0.016 A 
ATOM     38  C   UNL A   1      42.376  27.289  27.912  1.00  0.00     0.010 A 
ATOM     39  C   UNL A   1      40.497  26.022  28.785  1.00  0.00     0.010 A 
ATOM     40  C   UNL A   1      41.305  27.173  28.807  1.00  0.00    -0.014 A 
BRANCH  40  41
ATOM     41  C   UNL A   1      41.149  28.163  29.900  1.00  0.00     0.031 A 
ATOM     42  C   UNL A   1      40.029  29.163  29.799  1.00  0.00     0.074 A 
ATOM     43  C   UNL A   1      41.967  28.170  30.966  1.00  0.00     0.049 A 
ATOM     44  N   UNL A   1      39.722  30.151  30.599  1.00  0.00    -0.248 NA
ATOM     45  C   UNL A   1      39.135  29.027  28.637  1.00  0.00     0.031 C 
ATOM     46  C   UNL A   1      43.055  27.225  31.207  1.00  0.00     0.029 A 
ATOM     47  N   UNL A   1      42.006  29.016  32.047  1.00  0.00    -0.354 N 
ATOM     48  C   UNL A   1      38.610  30.760  30.031  1.00  0.00     0.074 A 
ATOM     49  C   UNL A   1      38.316  30.053  28.805  1.00  0.00     0.031 C 
ATOM     50  C   UNL A   1      43.662  27.549  32.364  1.00  0.00     0.029 A 
ATOM     51  C   UNL A   1      43.031  28.744  32.920  1.00  0.00     0.049 A 
ATOM     52  H   UNL A   1      41.362  29.747  32.183  1.00  0.00     0.167 HD
ATOM     53  C   UNL A   1      37.895  31.814  30.490  1.00  0.00     0.031 A 
ATOM     54  C   UNL A   1      43.427  29.402  34.027  1.00  0.00     0.031 A 
ATOM     55  C   UNL A   1      38.199  32.531  31.699  1.00  0.00     0.049 A 
ATOM     56  C   UNL A   1      42.672  30.630  34.468  1.00  0.00     0.074 A 
ATOM     57  C   UNL A   1      37.527  33.604  32.256  1.00  0.00     0.029 A 
ATOM     58  N   UNL A   1      39.273  32.254  32.530  1.00  0.00    -0.354 N 
ATOM     59  N   UNL A   1      41.606  31.183  33.938  1.00  0.00    -0.248 NA
ATOM     60  C   UNL A   1      43.173  31.321  35.665  1.00  0.00     0.031 C 
ATOM     61  C   UNL A   1      38.236  34.021  33.388  1.00  0.00     0.029 A 
ATOM     62  C   UNL A   1      39.304  33.159  33.578  1.00  0.00     0.049 A 
ATOM     63  H   UNL A   1      39.918  31.522  32.396  1.00  0.00     0.167 HD
ATOM     64  C   UNL A   1      41.293  32.264  34.755  1.00  0.00     0.074 A 
ATOM     65  C   UNL A   1      42.270  32.278  35.823  1.00  0.00     0.031 C 
ATOM     66  C   UNL A   1      40.284  33.163  34.634  1.00  0.00     0.031 A 
BRANCH  53  67
ATOM     67  C   UNL A   1      36.737  32.281  29.651  1.00  0.00    -0.014 A 
ATOM     68  C   UNL A   1      36.906  33.222  28.624  1.00  0.00     0.009 A 
ATOM     69  C   UNL A   1      35.458  31.748  29.878  1.00  0.00     0.009 A 
ATOM     70  C   UNL A   1      35.812  33.649  27.867  1.00  0.00     0.001 A 
ATOM     71  C   UNL A   1      34.373  32.150  29.099  1.00  0.00     0.001 A 
ATOM     72  C   UNL A   1      34.548  33.108  28.101  1.00  0.00     0.000 A 
ENDBRANCH  53  67
BRANCH  54  73
ATOM     73  C   UNL A   1      44.615  28.934  34.791  1.00  0.00    -0.014 A 
ATOM     74  C   UNL A   1      44.474  28.035  35.859  1.00  0.00     0.009 A 
ATOM     75  C   UNL A   1      45.897  29.412  34.475  1.00  0.00     0.009 A 
ATOM     76  C   UNL A   1      45.587  27.646  36.610  1.00  0.00     0.001 A 
ATOM     77  C   UNL A   1      47.011  28.996  35.206  1.00  0.00     0.001 A 
ATOM     78  C   UNL A   1      46.854  28.122  36.280  1.00  0.00     0.000 A 
ENDBRANCH  54  73
BRANCH  66  79
ATOM     79  C   UNL A   1      40.159  34.214  35.703  1.00  0.00    -0.014 A 
ATOM     80  C   UNL A   1      40.758  35.476  35.569  1.00  0.00     0.009 A 
ATOM     81  C   UNL A   1      39.387  33.949  36.846  1.00  0.00     0.009 A 
ATOM     82  C   UNL A   1      40.618  36.437  36.574  1.00  0.00     0.001 A 
ATOM     83  C   UNL A   1      39.219  34.923  37.833  1.00  0.00     0.001 A 
ATOM     84  C   UNL A   1      39.843  36.161  37.701  1.00  0.00     0.000 A 
ENDBRANCH  66  79
ENDBRANCH  40  41
ENDBRANCH  33  35
ENDBRANCH  32  33
ENDBRANCH  31  32
ENDBRANCH  30  31
ENDBRANCH  29  30
ENDBRANCH  28  29
ENDBRANCH  27  28
ENDBRANCH  26  27
ENDBRANCH  25  26
ENDBRANCH   1  25
TORSDOF 26
ENDMDL
MODEL 3
REMARK VINA RESULT:      -8.4      1.691      6.073
REMARK SMILES CC[C@@H](C)C[C@@H](C)[NH2+]Cc1ccc(C(=O)OCCOCCOCCOCCOC(=O)c2ccc(-c3c4nc(c(-c5ccccc5)c5ccc([nH]5)c(-c5ccccc5)c5nc(c(-c6ccccc6)c6ccc3[nH]6)C=C5)C=C4)cc2)cn1
REMARK SMILES IDX 20 1 19 2 18 3 17 4 16 5 14 6 15 7 13 8 10 9 11 10 80 11
REMARK SMILES IDX 12 12 79 13 9 14 8 15 6 18 7 19 5 20 3 21 4 22 2 23 1 24
REMARK SMILES IDX 21 25 22 26 23 27 24 28 25 29 26 30 27 31 28 32 29 33 30 34
REMARK SMILES IDX 31 35 32 36 78 37 33 38 77 39 34 40 35 41 36 42 71 43 37 44
REMARK SMILES IDX 76 45 70 46 72 47 38 48 75 49 69 50 68 51 39 53 61 54 46 55
REMARK SMILES IDX 60 56 47 57 50 58 59 59 73 60 48 61 49 62 58 64 74 65 51 66
REMARK SMILES IDX 40 67 41 68 45 69 42 70 44 71 43 72 62 73 63 74 67 75 64 76
REMARK SMILES IDX 66 77 65 78 52 79 53 80 57 81 54 82 56 83 55 84
REMARK H PARENT 8 16 8 17 72 52 50 63
REMARK Flexibility Score: inf
ROOT
ATOM      1  C   UNL A   1      39.850  19.911  25.189  1.00  0.00     0.188 C 
ENDROOT
BRANCH   1   2
ATOM      2  O   UNL A   1      38.745  20.598  25.746  1.00  0.00    -0.376 OA
BRANCH   2   3
ATOM      3  C   UNL A   1      37.509  20.707  25.067  1.00  0.00     0.202 C 
BRANCH   3   4
ATOM      4  C   UNL A   1      37.006  21.993  24.385  1.00  0.00     0.261 C 
BRANCH   4   5
ATOM      5  O   UNL A   1      35.920  22.668  25.008  1.00  0.00    -0.460 OA
BRANCH   5   6
ATOM      6  C   UNL A   1      34.712  22.084  24.907  1.00  0.00     0.339 C 
ATOM      7  O   UNL A   1      34.288  21.151  25.565  1.00  0.00    -0.246 OA
BRANCH   6   8
ATOM      8  C   UNL A   1      33.888  22.906  24.005  1.00  0.00     0.078 A 
ATOM      9  C   UNL A   1      32.475  24.681  22.492  1.00  0.00     0.094 A 
ATOM     10  C   UNL A   1      31.840  23.506  22.903  1.00  0.00     0.031 A 
ATOM     11  N   UNL A   1      33.817  24.870  22.614  1.00  0.00    -0.254 NA
ATOM     12  C   UNL A   1      32.555  22.617  23.700  1.00  0.00     0.019 A 
ATOM     13  C   UNL A   1      34.492  23.985  23.380  1.00  0.00     0.127 A 
BRANCH   9  14
ATOM     14  C   UNL A   1      31.644  25.932  22.248  1.00  0.00     0.318 C 
BRANCH  14  15
ATOM     15  N   UNL A   1      31.802  26.976  23.284  1.00  0.00    -0.339 N 
ATOM     16  H   UNL A   1      32.572  26.691  23.889  1.00  0.00     0.346 HD
ATOM     17  H   UNL A   1      31.954  27.839  22.764  1.00  0.00     0.346 HD
BRANCH  15  18
ATOM     18  C   UNL A   1      30.635  27.256  24.152  1.00  0.00     0.179 C 
ATOM     19  C   UNL A   1      30.122  26.093  25.007  1.00  0.00     0.075 C 
BRANCH  18  20
ATOM     20  C   UNL A   1      29.492  27.746  23.222  1.00  0.00     0.068 C 
BRANCH  20  21
ATOM     21  C   UNL A   1      29.528  29.250  22.849  1.00  0.00    -0.009 C 
ATOM     22  C   UNL A   1      30.245  30.041  23.944  1.00  0.00     0.008 C 
BRANCH  21  23
ATOM     23  C   UNL A   1      28.120  29.805  22.560  1.00  0.00    -0.000 C 
ATOM     24  C   UNL A   1      27.722  30.938  23.497  1.00  0.00     0.004 C 
ENDBRANCH  21  23
ENDBRANCH  20  21
ENDBRANCH  18  20
ENDBRANCH  15  18
ENDBRANCH  14  15
ENDBRANCH   9  14
ENDBRANCH   6   8
ENDBRANCH   5   6
ENDBRANCH   4   5
ENDBRANCH   3   4
ENDBRANCH   2   3
ENDBRANCH   1   2
BRANCH   1  25
ATOM     25  C   UNL A   1      40.932  19.556  26.229  1.00  0.00     0.188 C 
BRANCH  25  26
ATOM     26  O   UNL A   1      41.953  18.685  25.769  1.00  0.00    -0.377 OA
BRANCH  26  27
ATOM     27  C   UNL A   1      43.294  19.172  25.721  1.00  0.00     0.188 C 
BRANCH  27  28
ATOM     28  C   UNL A   1      43.650  20.680  25.807  1.00  0.00     0.188 C 
BRANCH  28  29
ATOM     29  O   UNL A   1      43.675  21.373  24.571  1.00  0.00    -0.376 OA
BRANCH  29  30
ATOM     30  C   UNL A   1      44.387  22.594  24.486  1.00  0.00     0.202 C 
BRANCH  30  31
ATOM     31  C   UNL A   1      43.587  23.890  24.672  1.00  0.00     0.261 C 
BRANCH  31  32
ATOM     32  O   UNL A   1      43.204  24.202  26.020  1.00  0.00    -0.460 OA
BRANCH  32  33
ATOM     33  C   UNL A   1      41.899  24.038  26.342  1.00  0.00     0.338 C 
ATOM     34  O   UNL A   1      41.206  23.067  26.142  1.00  0.00    -0.246 OA
BRANCH  33  35
ATOM     35  C   UNL A   1      41.502  25.202  27.165  1.00  0.00     0.060 A 
ATOM     36  C   UNL A   1      42.274  26.369  27.109  1.00  0.00     0.016 A 
ATOM     37  C   UNL A   1      40.369  25.139  27.978  1.00  0.00     0.016 A 
ATOM     38  C   UNL A   1      41.932  27.470  27.893  1.00  0.00     0.010 A 
ATOM     39  C   UNL A   1      40.041  26.233  28.780  1.00  0.00     0.010 A 
ATOM     40  C   UNL A   1      40.841  27.389  28.767  1.00  0.00    -0.014 A 
BRANCH  40  41
ATOM     41  C   UNL A   1      40.653  28.428  29.809  1.00  0.00     0.031 A 
ATOM     42  C   UNL A   1      41.561  28.404  31.009  1.00  0.00     0.074 A 
ATOM     43  C   UNL A   1      39.713  29.382  29.691  1.00  0.00     0.049 A 
ATOM     44  N   UNL A   1      41.559  29.171  32.068  1.00  0.00    -0.248 NA
ATOM     45  C   UNL A   1      42.611  27.373  31.012  1.00  0.00     0.031 C 
ATOM     46  C   UNL A   1      38.808  29.545  28.556  1.00  0.00     0.029 A 
ATOM     47  N   UNL A   1      39.366  30.393  30.551  1.00  0.00    -0.354 N 
ATOM     48  C   UNL A   1      42.597  28.708  32.867  1.00  0.00     0.074 A 
ATOM     49  C   UNL A   1      43.186  27.575  32.187  1.00  0.00     0.031 C 
ATOM     50  C   UNL A   1      37.999  30.594  28.794  1.00  0.00     0.029 A 
ATOM     51  C   UNL A   1      38.306  31.147  30.112  1.00  0.00     0.049 A 
ATOM     52  H   UNL A   1      39.831  30.562  31.402  1.00  0.00     0.167 HD
ATOM     53  C   UNL A   1      43.025  29.185  34.059  1.00  0.00     0.031 A 
ATOM     54  C   UNL A   1      37.644  32.153  30.718  1.00  0.00     0.031 A 
ATOM     55  C   UNL A   1      42.427  30.298  34.745  1.00  0.00     0.049 A 
ATOM     56  C   UNL A   1      38.079  32.605  32.089  1.00  0.00     0.074 A 
ATOM     57  C   UNL A   1      42.797  30.865  35.952  1.00  0.00     0.029 A 
ATOM     58  N   UNL A   1      41.326  31.005  34.289  1.00  0.00    -0.354 N 
ATOM     59  N   UNL A   1      39.079  32.178  32.824  1.00  0.00    -0.248 NA
ATOM     60  C   UNL A   1      37.297  33.684  32.709  1.00  0.00     0.031 C 
ATOM     61  C   UNL A   1      41.875  31.872  36.259  1.00  0.00     0.029 A 
ATOM     62  C   UNL A   1      40.979  31.982  35.208  1.00  0.00     0.049 A 
ATOM     63  H   UNL A   1      40.860  30.838  33.438  1.00  0.00     0.167 HD
ATOM     64  C   UNL A   1      39.063  32.956  33.976  1.00  0.00     0.074 A 
ATOM     65  C   UNL A   1      37.966  33.892  33.834  1.00  0.00     0.031 C 
ATOM     66  C   UNL A   1      39.884  32.905  35.055  1.00  0.00     0.031 A 
BRANCH  53  67
ATOM     67  C   UNL A   1      44.173  28.468  34.717  1.00  0.00    -0.014 A 
ATOM     68  C   UNL A   1      43.963  27.369  35.566  1.00  0.00     0.009 A 
ATOM     69  C   UNL A   1      45.488  28.886  34.462  1.00  0.00     0.009 A 
ATOM     70  C   UNL A   1      45.045  26.730  36.175  1.00  0.00     0.001 A 
ATOM     71  C   UNL A   1      46.569  28.224  35.045  1.00  0.00     0.001 A 
ATOM     72  C   UNL A   1      46.346  27.153  35.909  1.00  0.00     0.000 A 
ENDBRANCH  53  67
BRANCH  54  73
ATOM     73  C   UNL A   1      36.478  32.791  30.050  1.00  0.00    -0.014 A 
ATOM     74  C   UNL A   1      35.173  32.335  30.293  1.00  0.00     0.009 A 
ATOM     75  C   UNL A   1      36.667  33.841  29.138  1.00  0.00     0.009 A 
ATOM     76  C   UNL A   1      34.087  32.899  29.617  1.00  0.00     0.001 A 
ATOM     77  C   UNL A   1      35.577  34.425  28.489  1.00  0.00     0.001 A 
ATOM     78  C   UNL A   1      34.289  33.946  28.720  1.00  0.00     0.000 A 
ENDBRANCH  54  73
BRANCH  66  79
ATOM     79  C   UNL A   1      39.657  33.913  36.149  1.00  0.00    -0.014 A 
ATOM     80  C   UNL A   1      38.858  33.620  37.265  1.00  0.00     0.009 A 
ATOM     81  C   UNL A   1      40.295  35.162  36.081  1.00  0.00     0.009 A 
ATOM     82  C   UNL A   1      38.672  34.572  38.271  1.00  0.00     0.001 A 
ATOM     83  C   UNL A   1      40.136  36.098  37.105  1.00  0.00     0.001 A 
ATOM     84  C   UNL A   1      39.316  35.807  38.193  1.00  0.00     0.000 A 
ENDBRANCH  66  79
ENDBRANCH  40  41
ENDBRANCH  33  35
ENDBRANCH  32  33
ENDBRANCH  31  32
ENDBRANCH  30  31
ENDBRANCH  29  30
ENDBRANCH  28  29
ENDBRANCH  27  28
ENDBRANCH  26  27
ENDBRANCH  25  26
ENDBRANCH   1  25
TORSDOF 26
ENDMDL
