MODEL 1
REMARK VINA RESULT:      -8.7      0.000      0.000
REMARK SMILES Cc1nc(CN(CC(=O)OCCOCCOCCOCCOC(=O)c2ccc(-c3c4nc(c(-c5ccccc5)c5ccc([nH]5)c(-c5ccccc5)c5nc(c(-c6ccccc6)c6ccc3[nH]6)C=C5)C=C4)cc2)c2cccc(Cl)c2)sc1C
REMARK SMILES IDX 15 1 14 2 13 3 12 4 11 5 10 6 8 7 9 8 7 9 6 10 5 11 4 12
REMARK SMILES IDX 1 13 2 14 3 15 81 16 80 17 82 18 73 19 74 20 79 21 75 22
REMARK SMILES IDX 77 23 76 24 78 25 16 26 17 27 18 28 19 29 20 30 21 31 22 32
REMARK SMILES IDX 23 33 24 34 25 35 26 36 72 37 27 38 71 39 28 40 29 41 30 42
REMARK SMILES IDX 65 43 31 44 70 45 64 46 66 47 32 48 69 49 63 50 62 51 33 53
REMARK SMILES IDX 55 54 40 55 54 56 41 57 44 58 53 59 67 60 42 61 43 62 52 64
REMARK SMILES IDX 68 65 45 66 34 67 35 68 39 69 36 70 38 71 37 72 56 73 57 74
REMARK SMILES IDX 61 75 58 76 60 77 59 78 46 79 47 80 51 81 48 82 50 83 49 84
REMARK H PARENT 66 52 44 63
REMARK Flexibility Score: inf
ROOT
ATOM      1  C   UNL A   1      46.098  21.618  37.134  1.00  0.00     0.188 C 
ENDROOT
BRANCH   1   2
ATOM      2  C   UNL A   1      45.758  20.494  36.129  1.00  0.00     0.188 C 
BRANCH   2   3
ATOM      3  O   UNL A   1      46.287  19.240  36.516  1.00  0.00    -0.376 OA
BRANCH   3   4
ATOM      4  C   UNL A   1      45.814  18.639  37.706  1.00  0.00     0.202 C 
BRANCH   4   5
ATOM      5  C   UNL A   1      44.764  17.510  37.655  1.00  0.00     0.261 C 
BRANCH   5   6
ATOM      6  O   UNL A   1      43.990  17.255  38.850  1.00  0.00    -0.462 OA
BRANCH   6   7
ATOM      7  C   UNL A   1      44.629  16.831  39.968  1.00  0.00     0.325 C 
ATOM      8  O   UNL A   1      45.675  16.191  39.933  1.00  0.00    -0.250 OA
BRANCH   7   9
ATOM      9  C   UNL A   1      43.906  17.184  41.288  1.00  0.00     0.239 C 
BRANCH   9  10
ATOM     10  N   UNL A   1      43.537  16.060  42.203  1.00  0.00    -0.354 N 
BRANCH  10  11
ATOM     11  C   UNL A   1      43.709  16.358  43.658  1.00  0.00     0.184 C 
BRANCH  11  12
ATOM     12  C   UNL A   1      44.496  15.320  44.447  1.00  0.00     0.112 A 
ATOM     13  C   UNL A   1      44.199  12.380  46.474  1.00  0.00     0.068 C 
ATOM     14  C   UNL A   1      44.738  13.430  45.570  1.00  0.00     0.051 A 
ATOM     15  N   UNL A   1      43.995  14.589  45.423  1.00  0.00    -0.244 NA
ATOM     16  C   UNL A   1      45.871  13.359  44.775  1.00  0.00     0.025 A 
ATOM     17  S   UNL A   1      46.073  14.842  43.934  1.00  0.00    -0.122 S 
ATOM     18  C   UNL A   1      46.813  12.223  44.572  1.00  0.00     0.058 C 
ENDBRANCH  11  12
ENDBRANCH  10  11
BRANCH  10  19
ATOM     19  C   UNL A   1      42.684  15.015  41.807  1.00  0.00     0.039 A 
ATOM     20  C   UNL A   1      42.158  14.915  40.506  1.00  0.00     0.026 A 
ATOM     21  C   UNL A   1      42.377  13.921  42.649  1.00  0.00     0.046 A 
ATOM     22  C   UNL A   1      41.404  13.805  40.077  1.00  0.00     0.004 A 
ATOM     23  C   UNL A   1      41.576  12.844  42.251  1.00  0.00     0.043 A 
ATOM     24  C   UNL A   1      41.101  12.770  40.955  1.00  0.00     0.020 A 
ATOM     25  Cl  UNL A   1      41.206  11.593  43.376  1.00  0.00    -0.084 Cl
ENDBRANCH  10  19
ENDBRANCH   9  10
ENDBRANCH   7   9
ENDBRANCH   6   7
ENDBRANCH   5   6
ENDBRANCH   4   5
ENDBRANCH   3   4
ENDBRANCH   2   3
ENDBRANCH   1   2
BRANCH   1  26
ATOM     26  O   UNL A   1      45.669  21.545  38.483  1.00  0.00    -0.377 OA
BRANCH  26  27
ATOM     27  C   UNL A   1      46.415  22.281  39.414  1.00  0.00     0.188 C 
BRANCH  27  28
ATOM     28  C   UNL A   1      45.589  23.381  40.096  1.00  0.00     0.188 C 
BRANCH  28  29
ATOM     29  O   UNL A   1      45.018  24.441  39.351  1.00  0.00    -0.376 OA
BRANCH  29  30
ATOM     30  C   UNL A   1      45.759  25.500  38.761  1.00  0.00     0.202 C 
BRANCH  30  31
ATOM     31  C   UNL A   1      46.609  25.457  37.479  1.00  0.00     0.261 C 
BRANCH  31  32
ATOM     32  O   UNL A   1      46.961  26.690  36.873  1.00  0.00    -0.460 OA
BRANCH  32  33
ATOM     33  C   UNL A   1      47.085  26.663  35.534  1.00  0.00     0.338 C 
ATOM     34  O   UNL A   1      47.831  25.972  34.860  1.00  0.00    -0.246 OA
BRANCH  33  35
ATOM     35  C   UNL A   1      45.990  27.476  34.991  1.00  0.00     0.060 A 
ATOM     36  C   UNL A   1      44.693  27.212  35.447  1.00  0.00     0.016 A 
ATOM     37  C   UNL A   1      46.244  28.513  34.089  1.00  0.00     0.016 A 
ATOM     38  C   UNL A   1      43.637  27.992  35.008  1.00  0.00     0.010 A 
ATOM     39  C   UNL A   1      45.175  29.261  33.603  1.00  0.00     0.010 A 
ATOM     40  C   UNL A   1      43.872  28.979  34.046  1.00  0.00    -0.014 A 
BRANCH  40  41
ATOM     41  C   UNL A   1      42.710  29.514  33.318  1.00  0.00     0.031 A 
ATOM     42  C   UNL A   1      42.026  30.713  33.903  1.00  0.00     0.074 A 
ATOM     43  C   UNL A   1      42.325  28.988  32.146  1.00  0.00     0.049 A 
ATOM     44  N   UNL A   1      41.010  31.393  33.446  1.00  0.00    -0.248 NA
ATOM     45  C   UNL A   1      42.567  31.211  35.180  1.00  0.00     0.031 C 
ATOM     46  C   UNL A   1      42.966  27.859  31.475  1.00  0.00     0.029 A 
ATOM     47  N   UNL A   1      41.299  29.346  31.316  1.00  0.00    -0.354 N 
ATOM     48  C   UNL A   1      40.790  32.397  34.379  1.00  0.00     0.074 A 
ATOM     49  C   UNL A   1      41.752  32.218  35.442  1.00  0.00     0.031 C 
ATOM     50  C   UNL A   1      42.301  27.605  30.334  1.00  0.00     0.029 A 
ATOM     51  C   UNL A   1      41.180  28.535  30.218  1.00  0.00     0.049 A 
ATOM     52  H   UNL A   1      40.703  30.110  31.491  1.00  0.00     0.167 HD
ATOM     53  C   UNL A   1      39.862  33.380  34.353  1.00  0.00     0.031 A 
ATOM     54  C   UNL A   1      40.249  28.537  29.245  1.00  0.00     0.031 A 
ATOM     55  C   UNL A   1      38.884  33.514  33.309  1.00  0.00     0.049 A 
ATOM     56  C   UNL A   1      39.172  29.586  29.275  1.00  0.00     0.074 A 
ATOM     57  C   UNL A   1      37.894  34.470  33.170  1.00  0.00     0.029 A 
ATOM     58  N   UNL A   1      38.760  32.645  32.233  1.00  0.00    -0.354 N 
ATOM     59  N   UNL A   1      38.984  30.554  30.142  1.00  0.00    -0.248 NA
ATOM     60  C   UNL A   1      38.185  29.550  28.188  1.00  0.00     0.031 C 
ATOM     61  C   UNL A   1      37.127  34.134  32.049  1.00  0.00     0.029 A 
ATOM     62  C   UNL A   1      37.686  33.017  31.446  1.00  0.00     0.049 A 
ATOM     63  H   UNL A   1      39.351  31.877  32.057  1.00  0.00     0.167 HD
ATOM     64  C   UNL A   1      37.872  31.257  29.695  1.00  0.00     0.074 A 
ATOM     65  C   UNL A   1      37.439  30.610  28.472  1.00  0.00     0.031 C 
ATOM     66  C   UNL A   1      37.266  32.342  30.242  1.00  0.00     0.031 A 
BRANCH  53  67
ATOM     67  C   UNL A   1      39.832  34.318  35.527  1.00  0.00    -0.014 A 
ATOM     68  C   UNL A   1      40.617  35.483  35.563  1.00  0.00     0.009 A 
ATOM     69  C   UNL A   1      39.033  34.007  36.638  1.00  0.00     0.009 A 
ATOM     70  C   UNL A   1      40.646  36.282  36.709  1.00  0.00     0.001 A 
ATOM     71  C   UNL A   1      39.036  34.826  37.767  1.00  0.00     0.001 A 
ATOM     72  C   UNL A   1      39.854  35.954  37.808  1.00  0.00     0.000 A 
ENDBRANCH  53  67
BRANCH  54  73
ATOM     73  C   UNL A   1      40.296  27.493  28.189  1.00  0.00    -0.014 A 
ATOM     74  C   UNL A   1      41.039  27.682  27.016  1.00  0.00     0.009 A 
ATOM     75  C   UNL A   1      39.619  26.275  28.374  1.00  0.00     0.009 A 
ATOM     76  C   UNL A   1      41.095  26.677  26.046  1.00  0.00     0.001 A 
ATOM     77  C   UNL A   1      39.700  25.263  27.417  1.00  0.00     0.001 A 
ATOM     78  C   UNL A   1      40.434  25.466  26.250  1.00  0.00     0.000 A 
ENDBRANCH  54  73
BRANCH  66  79
ATOM     79  C   UNL A   1      36.084  32.911  29.507  1.00  0.00    -0.014 A 
ATOM     80  C   UNL A   1      36.246  33.843  28.470  1.00  0.00     0.009 A 
ATOM     81  C   UNL A   1      34.791  32.463  29.824  1.00  0.00     0.009 A 
ATOM     82  C   UNL A   1      35.133  34.339  27.789  1.00  0.00     0.001 A 
ATOM     83  C   UNL A   1      33.684  32.935  29.118  1.00  0.00     0.001 A 
ATOM     84  C   UNL A   1      33.855  33.880  28.109  1.00  0.00     0.000 A 
ENDBRANCH  66  79
ENDBRANCH  40  41
ENDBRANCH  33  35
ENDBRANCH  32  33
ENDBRANCH  31  32
ENDBRANCH  30  31
ENDBRANCH  29  30
ENDBRANCH  28  29
ENDBRANCH  27  28
ENDBRANCH  26  27
ENDBRANCH   1  26
TORSDOF 24
ENDMDL
MODEL 2
REMARK VINA RESULT:      -8.5      8.440     15.228
REMARK SMILES Cc1nc(CN(CC(=O)OCCOCCOCCOCCOC(=O)c2ccc(-c3c4nc(c(-c5ccccc5)c5ccc([nH]5)c(-c5ccccc5)c5nc(c(-c6ccccc6)c6ccc3[nH]6)C=C5)C=C4)cc2)c2cccc(Cl)c2)sc1C
REMARK SMILES IDX 15 1 14 2 13 3 12 4 11 5 10 6 8 7 9 8 7 9 6 10 5 11 4 12
REMARK SMILES IDX 1 13 2 14 3 15 81 16 80 17 82 18 73 19 74 20 79 21 75 22
REMARK SMILES IDX 77 23 76 24 78 25 16 26 17 27 18 28 19 29 20 30 21 31 22 32
REMARK SMILES IDX 23 33 24 34 25 35 26 36 72 37 27 38 71 39 28 40 29 41 30 42
REMARK SMILES IDX 65 43 31 44 70 45 64 46 66 47 32 48 69 49 63 50 62 51 33 53
REMARK SMILES IDX 55 54 40 55 54 56 41 57 44 58 53 59 67 60 42 61 43 62 52 64
REMARK SMILES IDX 68 65 45 66 34 67 35 68 39 69 36 70 38 71 37 72 56 73 57 74
REMARK SMILES IDX 61 75 58 76 60 77 59 78 46 79 47 80 51 81 48 82 50 83 49 84
REMARK H PARENT 66 52 44 63
REMARK Flexibility Score: inf
ROOT
ATOM      1  C   UNL A   1      33.823  29.801  26.627  1.00  0.00     0.188 C 
ENDROOT
BRANCH   1   2
ATOM      2  C   UNL A   1      33.134  28.426  26.473  1.00  0.00     0.188 C 
BRANCH   2   3
ATOM      3  O   UNL A   1      34.044  27.397  26.133  1.00  0.00    -0.376 OA
BRANCH   3   4
ATOM      4  C   UNL A   1      33.575  26.063  26.080  1.00  0.00     0.202 C 
BRANCH   4   5
ATOM      5  C   UNL A   1      34.463  24.938  25.509  1.00  0.00     0.261 C 
BRANCH   5   6
ATOM      6  O   UNL A   1      34.913  23.908  26.419  1.00  0.00    -0.462 OA
BRANCH   6   7
ATOM      7  C   UNL A   1      34.365  22.670  26.332  1.00  0.00     0.325 C 
ATOM      8  O   UNL A   1      33.667  22.190  27.220  1.00  0.00    -0.250 OA
BRANCH   7   9
ATOM      9  C   UNL A   1      34.727  21.902  25.041  1.00  0.00     0.239 C 
BRANCH   9  10
ATOM     10  N   UNL A   1      33.605  21.361  24.214  1.00  0.00    -0.354 N 
BRANCH  10  11
ATOM     11  C   UNL A   1      33.010  22.341  23.254  1.00  0.00     0.184 C 
BRANCH  11  12
ATOM     12  C   UNL A   1      31.809  23.119  23.777  1.00  0.00     0.112 A 
ATOM     13  C   UNL A   1      29.988  24.000  26.734  1.00  0.00     0.068 C 
ATOM     14  C   UNL A   1      30.545  24.014  25.357  1.00  0.00     0.051 A 
ATOM     15  N   UNL A   1      31.206  22.876  24.924  1.00  0.00    -0.244 NA
ATOM     16  C   UNL A   1      30.560  25.073  24.463  1.00  0.00     0.025 A 
ATOM     17  S   UNL A   1      31.301  24.572  22.997  1.00  0.00    -0.122 S 
ATOM     18  C   UNL A   1      30.080  26.470  24.647  1.00  0.00     0.058 C 
ENDBRANCH  11  12
ENDBRANCH  10  11
BRANCH  10  19
ATOM     19  C   UNL A   1      33.421  19.984  23.999  1.00  0.00     0.039 A 
ATOM     20  C   UNL A   1      32.427  19.474  23.145  1.00  0.00     0.026 A 
ATOM     21  C   UNL A   1      34.290  19.006  24.537  1.00  0.00     0.046 A 
ATOM     22  C   UNL A   1      32.323  18.104  22.837  1.00  0.00     0.004 A 
ATOM     23  C   UNL A   1      34.156  17.635  24.286  1.00  0.00     0.043 A 
ATOM     24  C   UNL A   1      33.182  17.178  23.418  1.00  0.00     0.020 A 
ATOM     25  Cl  UNL A   1      35.227  16.519  25.044  1.00  0.00    -0.084 Cl
ENDBRANCH  10  19
ENDBRANCH   9  10
ENDBRANCH   7   9
ENDBRANCH   6   7
ENDBRANCH   5   6
ENDBRANCH   4   5
ENDBRANCH   3   4
ENDBRANCH   2   3
ENDBRANCH   1   2
BRANCH   1  26
ATOM     26  O   UNL A   1      34.977  29.952  27.435  1.00  0.00    -0.377 OA
BRANCH  26  27
ATOM     27  C   UNL A   1      35.271  31.255  27.863  1.00  0.00     0.188 C 
BRANCH  27  28
ATOM     28  C   UNL A   1      34.024  32.018  28.331  1.00  0.00     0.188 C 
BRANCH  28  29
ATOM     29  O   UNL A   1      34.125  33.292  28.939  1.00  0.00    -0.376 OA
BRANCH  29  30
ATOM     30  C   UNL A   1      35.158  33.675  29.837  1.00  0.00     0.202 C 
BRANCH  30  31
ATOM     31  C   UNL A   1      35.301  33.306  31.324  1.00  0.00     0.261 C 
BRANCH  31  32
ATOM     32  O   UNL A   1      36.600  33.334  31.894  1.00  0.00    -0.460 OA
BRANCH  32  33
ATOM     33  C   UNL A   1      36.772  32.561  32.982  1.00  0.00     0.338 C 
ATOM     34  O   UNL A   1      35.999  32.381  33.908  1.00  0.00    -0.246 OA
BRANCH  33  35
ATOM     35  C   UNL A   1      37.997  31.783  32.758  1.00  0.00     0.060 A 
ATOM     36  C   UNL A   1      39.150  32.166  33.453  1.00  0.00     0.016 A 
ATOM     37  C   UNL A   1      37.994  30.666  31.918  1.00  0.00     0.016 A 
ATOM     38  C   UNL A   1      40.312  31.426  33.318  1.00  0.00     0.010 A 
ATOM     39  C   UNL A   1      39.177  29.954  31.738  1.00  0.00     0.010 A 
ATOM     40  C   UNL A   1      40.339  30.355  32.420  1.00  0.00    -0.014 A 
BRANCH  40  41
ATOM     41  C   UNL A   1      41.655  29.844  32.006  1.00  0.00     0.031 A 
ATOM     42  C   UNL A   1      42.371  30.589  30.920  1.00  0.00     0.074 A 
ATOM     43  C   UNL A   1      42.216  28.794  32.625  1.00  0.00     0.049 A 
ATOM     44  N   UNL A   1      43.548  30.369  30.400  1.00  0.00    -0.248 NA
ATOM     45  C   UNL A   1      41.658  31.743  30.346  1.00  0.00     0.031 C 
ATOM     46  C   UNL A   1      41.618  28.044  33.727  1.00  0.00     0.029 A 
ATOM     47  N   UNL A   1      43.421  28.185  32.407  1.00  0.00    -0.354 N 
ATOM     48  C   UNL A   1      43.714  31.355  29.437  1.00  0.00     0.074 A 
ATOM     49  C   UNL A   1      42.508  32.151  29.420  1.00  0.00     0.031 C 
ATOM     50  C   UNL A   1      42.460  27.057  34.081  1.00  0.00     0.029 A 
ATOM     51  C   UNL A   1      43.633  27.096  33.211  1.00  0.00     0.049 A 
ATOM     52  H   UNL A   1      44.072  28.498  31.737  1.00  0.00     0.167 HD
ATOM     53  C   UNL A   1      44.780  31.573  28.634  1.00  0.00     0.031 A 
ATOM     54  C   UNL A   1      44.655  26.219  33.219  1.00  0.00     0.031 A 
ATOM     55  C   UNL A   1      45.952  30.742  28.633  1.00  0.00     0.049 A 
ATOM     56  C   UNL A   1      45.795  26.427  32.259  1.00  0.00     0.074 A 
ATOM     57  C   UNL A   1      47.096  30.863  27.868  1.00  0.00     0.029 A 
ATOM     58  N   UNL A   1      46.114  29.615  29.429  1.00  0.00    -0.354 N 
ATOM     59  N   UNL A   1      45.965  27.378  31.370  1.00  0.00    -0.248 NA
ATOM     60  C   UNL A   1      46.888  25.448  32.311  1.00  0.00     0.031 C 
ATOM     61  C   UNL A   1      47.920  29.767  28.149  1.00  0.00     0.029 A 
ATOM     62  C   UNL A   1      47.324  29.007  29.145  1.00  0.00     0.049 A 
ATOM     63  H   UNL A   1      45.464  29.297  30.096  1.00  0.00     0.167 HD
ATOM     64  C   UNL A   1      47.193  27.127  30.771  1.00  0.00     0.074 A 
ATOM     65  C   UNL A   1      47.729  25.941  31.411  1.00  0.00     0.031 C 
ATOM     66  C   UNL A   1      47.824  27.815  29.786  1.00  0.00     0.031 A 
BRANCH  53  67
ATOM     67  C   UNL A   1      44.669  32.705  27.650  1.00  0.00    -0.014 A 
ATOM     68  C   UNL A   1      44.208  32.502  26.338  1.00  0.00     0.009 A 
ATOM     69  C   UNL A   1      45.076  33.992  28.033  1.00  0.00     0.009 A 
ATOM     70  C   UNL A   1      44.213  33.553  25.417  1.00  0.00     0.001 A 
ATOM     71  C   UNL A   1      45.045  35.047  27.121  1.00  0.00     0.001 A 
ATOM     72  C   UNL A   1      44.628  34.824  25.810  1.00  0.00     0.000 A 
ENDBRANCH  53  67
BRANCH  54  73
ATOM     73  C   UNL A   1      44.617  25.062  34.149  1.00  0.00    -0.014 A 
ATOM     74  C   UNL A   1      44.098  23.825  33.745  1.00  0.00     0.009 A 
ATOM     75  C   UNL A   1      45.142  25.187  35.447  1.00  0.00     0.009 A 
ATOM     76  C   UNL A   1      44.097  22.738  34.624  1.00  0.00     0.001 A 
ATOM     77  C   UNL A   1      45.166  24.092  36.313  1.00  0.00     0.001 A 
ATOM     78  C   UNL A   1      44.639  22.869  35.903  1.00  0.00     0.000 A 
ENDBRANCH  54  73
BRANCH  66  79
ATOM     79  C   UNL A   1      49.176  27.316  29.357  1.00  0.00    -0.014 A 
ATOM     80  C   UNL A   1      49.368  26.702  28.110  1.00  0.00     0.009 A 
ATOM     81  C   UNL A   1      50.285  27.515  30.196  1.00  0.00     0.009 A 
ATOM     82  C   UNL A   1      50.638  26.267  27.727  1.00  0.00     0.001 A 
ATOM     83  C   UNL A   1      51.558  27.111  29.795  1.00  0.00     0.001 A 
ATOM     84  C   UNL A   1      51.732  26.478  28.566  1.00  0.00     0.000 A 
ENDBRANCH  66  79
ENDBRANCH  40  41
ENDBRANCH  33  35
ENDBRANCH  32  33
ENDBRANCH  31  32
ENDBRANCH  30  31
ENDBRANCH  29  30
ENDBRANCH  28  29
ENDBRANCH  27  28
ENDBRANCH  26  27
ENDBRANCH   1  26
TORSDOF 24
ENDMDL
MODEL 3
REMARK VINA RESULT:      -8.4     10.235     16.133
REMARK SMILES Cc1nc(CN(CC(=O)OCCOCCOCCOCCOC(=O)c2ccc(-c3c4nc(c(-c5ccccc5)c5ccc([nH]5)c(-c5ccccc5)c5nc(c(-c6ccccc6)c6ccc3[nH]6)C=C5)C=C4)cc2)c2cccc(Cl)c2)sc1C
REMARK SMILES IDX 15 1 14 2 13 3 12 4 11 5 10 6 8 7 9 8 7 9 6 10 5 11 4 12
REMARK SMILES IDX 1 13 2 14 3 15 81 16 80 17 82 18 73 19 74 20 79 21 75 22
REMARK SMILES IDX 77 23 76 24 78 25 16 26 17 27 18 28 19 29 20 30 21 31 22 32
REMARK SMILES IDX 23 33 24 34 25 35 26 36 72 37 27 38 71 39 28 40 29 41 30 42
REMARK SMILES IDX 65 43 31 44 70 45 64 46 66 47 32 48 69 49 63 50 62 51 33 53
REMARK SMILES IDX 55 54 40 55 54 56 41 57 44 58 53 59 67 60 42 61 43 62 52 64
REMARK SMILES IDX 68 65 45 66 34 67 35 68 39 69 36 70 38 71 37 72 56 73 57 74
REMARK SMILES IDX 61 75 58 76 60 77 59 78 46 79 47 80 51 81 48 82 50 83 49 84
REMARK H PARENT 66 52 44 63
REMARK Flexibility Score: inf
ROOT
ATOM      1  C   UNL A   1      33.431  30.283  26.448  1.00  0.00     0.188 C 
ENDROOT
BRANCH   1   2
ATOM      2  C   UNL A   1      32.093  30.070  25.704  1.00  0.00     0.188 C 
BRANCH   2   3
ATOM      3  O   UNL A   1      32.128  28.957  24.830  1.00  0.00    -0.376 OA
BRANCH   3   4
ATOM      4  C   UNL A   1      33.286  28.746  24.044  1.00  0.00     0.202 C 
BRANCH   4   5
ATOM      5  C   UNL A   1      34.143  27.477  24.232  1.00  0.00     0.261 C 
BRANCH   5   6
ATOM      6  O   UNL A   1      33.522  26.198  23.966  1.00  0.00    -0.462 OA
BRANCH   6   7
ATOM      7  C   UNL A   1      33.783  25.574  22.790  1.00  0.00     0.325 C 
ATOM      8  O   UNL A   1      33.938  26.182  21.736  1.00  0.00    -0.250 OA
BRANCH   7   9
ATOM      9  C   UNL A   1      33.825  24.032  22.883  1.00  0.00     0.239 C 
BRANCH   9  10
ATOM     10  N   UNL A   1      34.054  23.422  24.229  1.00  0.00    -0.354 N 
BRANCH  10  11
ATOM     11  C   UNL A   1      32.835  22.827  24.859  1.00  0.00     0.184 C 
BRANCH  11  12
ATOM     12  C   UNL A   1      31.715  23.812  25.168  1.00  0.00     0.112 A 
ATOM     13  C   UNL A   1      30.908  26.830  26.923  1.00  0.00     0.068 C 
ATOM     14  C   UNL A   1      30.883  25.707  25.950  1.00  0.00     0.051 A 
ATOM     15  N   UNL A   1      31.697  24.618  26.211  1.00  0.00    -0.244 NA
ATOM     16  C   UNL A   1      30.197  25.646  24.747  1.00  0.00     0.025 A 
ATOM     17  S   UNL A   1      30.480  24.125  24.004  1.00  0.00    -0.122 S 
ATOM     18  C   UNL A   1      29.356  26.683  24.088  1.00  0.00     0.058 C 
ENDBRANCH  11  12
ENDBRANCH  10  11
BRANCH  10  19
ATOM     19  C   UNL A   1      35.327  23.015  24.666  1.00  0.00     0.039 A 
ATOM     20  C   UNL A   1      35.897  21.781  24.304  1.00  0.00     0.026 A 
ATOM     21  C   UNL A   1      36.182  23.859  25.413  1.00  0.00     0.046 A 
ATOM     22  C   UNL A   1      37.218  21.428  24.642  1.00  0.00     0.004 A 
ATOM     23  C   UNL A   1      37.474  23.491  25.806  1.00  0.00     0.043 A 
ATOM     24  C   UNL A   1      38.007  22.280  25.406  1.00  0.00     0.020 A 
ATOM     25  Cl  UNL A   1      38.412  24.567  26.772  1.00  0.00    -0.084 Cl
ENDBRANCH  10  19
ENDBRANCH   9  10
ENDBRANCH   7   9
ENDBRANCH   6   7
ENDBRANCH   5   6
ENDBRANCH   4   5
ENDBRANCH   3   4
ENDBRANCH   2   3
ENDBRANCH   1   2
BRANCH   1  26
ATOM     26  O   UNL A   1      33.488  31.036  27.647  1.00  0.00    -0.377 OA
BRANCH  26  27
ATOM     27  C   UNL A   1      34.732  31.087  28.291  1.00  0.00     0.188 C 
BRANCH  27  28
ATOM     28  C   UNL A   1      35.449  32.428  28.086  1.00  0.00     0.188 C 
BRANCH  28  29
ATOM     29  O   UNL A   1      34.936  33.629  28.631  1.00  0.00    -0.376 OA
BRANCH  29  30
ATOM     30  C   UNL A   1      34.310  33.731  29.903  1.00  0.00     0.202 C 
BRANCH  30  31
ATOM     31  C   UNL A   1      34.781  33.130  31.238  1.00  0.00     0.261 C 
BRANCH  31  32
ATOM     32  O   UNL A   1      36.079  32.561  31.290  1.00  0.00    -0.460 OA
BRANCH  32  33
ATOM     33  C   UNL A   1      37.083  33.427  31.517  1.00  0.00     0.338 C 
ATOM     34  O   UNL A   1      37.439  34.366  30.825  1.00  0.00    -0.246 OA
BRANCH  33  35
ATOM     35  C   UNL A   1      37.558  33.174  32.884  1.00  0.00     0.060 A 
ATOM     36  C   UNL A   1      38.095  34.252  33.597  1.00  0.00     0.016 A 
ATOM     37  C   UNL A   1      37.429  31.910  33.466  1.00  0.00     0.016 A 
ATOM     38  C   UNL A   1      38.501  34.074  34.909  1.00  0.00     0.010 A 
ATOM     39  C   UNL A   1      37.890  31.717  34.766  1.00  0.00     0.010 A 
ATOM     40  C   UNL A   1      38.449  32.796  35.473  1.00  0.00    -0.014 A 
BRANCH  40  41
ATOM     41  C   UNL A   1      39.232  32.555  36.695  1.00  0.00     0.031 A 
ATOM     42  C   UNL A   1      38.484  32.506  37.992  1.00  0.00     0.074 A 
ATOM     43  C   UNL A   1      40.552  32.323  36.636  1.00  0.00     0.049 A 
ATOM     44  N   UNL A   1      38.928  32.276  39.198  1.00  0.00    -0.248 NA
ATOM     45  C   UNL A   1      37.032  32.746  37.914  1.00  0.00     0.031 C 
ATOM     46  C   UNL A   1      41.352  32.296  35.414  1.00  0.00     0.029 A 
ATOM     47  N   UNL A   1      41.445  32.064  37.639  1.00  0.00    -0.354 N 
ATOM     48  C   UNL A   1      37.812  32.348  40.021  1.00  0.00     0.074 A 
ATOM     49  C   UNL A   1      36.679  32.674  39.185  1.00  0.00     0.031 C 
ATOM     50  C   UNL A   1      42.632  32.048  35.744  1.00  0.00     0.029 A 
ATOM     51  C   UNL A   1      42.735  31.929  37.197  1.00  0.00     0.049 A 
ATOM     52  H   UNL A   1      41.186  31.983  38.586  1.00  0.00     0.167 HD
ATOM     53  C   UNL A   1      37.741  32.161  41.358  1.00  0.00     0.031 A 
ATOM     54  C   UNL A   1      43.870  31.754  37.899  1.00  0.00     0.031 A 
ATOM     55  C   UNL A   1      38.886  31.883  42.178  1.00  0.00     0.049 A 
ATOM     56  C   UNL A   1      43.784  31.633  39.396  1.00  0.00     0.074 A 
ATOM     57  C   UNL A   1      38.941  31.671  43.543  1.00  0.00     0.029 A 
ATOM     58  N   UNL A   1      40.189  31.800  41.704  1.00  0.00    -0.354 N 
ATOM     59  N   UNL A   1      42.724  31.669  40.170  1.00  0.00    -0.248 NA
ATOM     60  C   UNL A   1      45.049  31.436  40.116  1.00  0.00     0.031 C 
ATOM     61  C   UNL A   1      40.287  31.535  43.904  1.00  0.00     0.029 A 
ATOM     62  C   UNL A   1      41.062  31.581  42.754  1.00  0.00     0.049 A 
ATOM     63  H   UNL A   1      40.452  31.885  40.759  1.00  0.00     0.167 HD
ATOM     64  C   UNL A   1      43.189  31.478  41.465  1.00  0.00     0.074 A 
ATOM     65  C   UNL A   1      44.626  31.312  41.368  1.00  0.00     0.031 C 
ATOM     66  C   UNL A   1      42.492  31.438  42.629  1.00  0.00     0.031 A 
BRANCH  53  67
ATOM     67  C   UNL A   1      36.391  32.335  41.998  1.00  0.00    -0.014 A 
ATOM     68  C   UNL A   1      35.765  33.591  42.073  1.00  0.00     0.009 A 
ATOM     69  C   UNL A   1      35.754  31.227  42.575  1.00  0.00     0.009 A 
ATOM     70  C   UNL A   1      34.560  33.741  42.763  1.00  0.00     0.001 A 
ATOM     71  C   UNL A   1      34.532  31.372  43.232  1.00  0.00     0.001 A 
ATOM     72  C   UNL A   1      33.943  32.631  43.339  1.00  0.00     0.000 A 
ENDBRANCH  53  67
BRANCH  54  73
ATOM     73  C   UNL A   1      45.172  31.712  37.184  1.00  0.00    -0.014 A 
ATOM     74  C   UNL A   1      45.915  32.880  36.965  1.00  0.00     0.009 A 
ATOM     75  C   UNL A   1      45.696  30.483  36.750  1.00  0.00     0.009 A 
ATOM     76  C   UNL A   1      47.152  32.818  36.316  1.00  0.00     0.001 A 
ATOM     77  C   UNL A   1      46.944  30.421  36.128  1.00  0.00     0.001 A 
ATOM     78  C   UNL A   1      47.669  31.590  35.907  1.00  0.00     0.000 A 
ENDBRANCH  54  73
BRANCH  66  79
ATOM     79  C   UNL A   1      43.273  31.181  43.888  1.00  0.00    -0.014 A 
ATOM     80  C   UNL A   1      43.512  29.877  44.349  1.00  0.00     0.009 A 
ATOM     81  C   UNL A   1      43.825  32.263  44.593  1.00  0.00     0.009 A 
ATOM     82  C   UNL A   1      44.259  29.665  45.509  1.00  0.00     0.001 A 
ATOM     83  C   UNL A   1      44.601  32.046  45.732  1.00  0.00     0.001 A 
ATOM     84  C   UNL A   1      44.808  30.748  46.195  1.00  0.00     0.000 A 
ENDBRANCH  66  79
ENDBRANCH  40  41
ENDBRANCH  33  35
ENDBRANCH  32  33
ENDBRANCH  31  32
ENDBRANCH  30  31
ENDBRANCH  29  30
ENDBRANCH  28  29
ENDBRANCH  27  28
ENDBRANCH  26  27
ENDBRANCH   1  26
TORSDOF 24
ENDMDL
