MODEL 1
REMARK VINA RESULT:      -9.3      0.000      0.000
REMARK SMILES Cc1cc(/C=C2\C(=O)N(Cc3ccco3)C(=O)N=C2OCCOCCOCCOCCOC(=O)c2ccc(-c3c4nc(c(-c5ccccc5)c5ccc([nH]5)c(-c5ccccc5)c5nc(c(-c6ccccc6)c6ccc3[nH]6)C=C5)C=C4)cc2)c(C)n1-c1ccc(Cl)c(C(=O)[O-])c1
REMARK SMILES IDX 26 1 25 2 24 3 23 4 22 5 21 6 20 7 19 8 5 9 6 10 7 11 8 12
REMARK SMILES IDX 9 13 18 14 16 15 17 16 4 17 1 18 2 19 3 20 85 21 83 22 84 23
REMARK SMILES IDX 86 24 87 25 95 26 88 27 91 28 89 29 90 30 92 31 93 32 94 33
REMARK SMILES IDX 10 34 11 35 12 36 15 37 13 38 14 39 27 40 28 41 29 42 30 43
REMARK SMILES IDX 31 44 32 45 33 46 34 47 35 48 36 49 82 50 37 51 81 52 38 53
REMARK SMILES IDX 39 54 40 55 75 56 41 57 80 58 74 59 76 60 42 61 79 62 73 63
REMARK SMILES IDX 72 64 43 66 65 67 50 68 64 69 51 70 54 71 63 72 77 73 52 74
REMARK SMILES IDX 53 75 62 77 78 78 55 79 44 80 45 81 49 82 46 83 48 84 47 85
REMARK SMILES IDX 66 86 67 87 71 88 68 89 70 90 69 91 56 92 57 93 61 94 58 95
REMARK SMILES IDX 60 96 59 97
REMARK H PARENT 76 65 54 76
REMARK Flexibility Score: inf
ROOT
ATOM      1  O   UNL A   1      31.154  24.724  25.299  1.00  0.00    -0.377 OA
ENDROOT
BRANCH   1   2
ATOM      2  C   UNL A   1      32.336  24.196  24.698  1.00  0.00     0.188 C 
BRANCH   2   3
ATOM      3  C   UNL A   1      33.730  24.778  24.995  1.00  0.00     0.188 C 
BRANCH   3   4
ATOM      4  O   UNL A   1      34.615  23.843  25.590  1.00  0.00    -0.376 OA
BRANCH   4   5
ATOM      5  C   UNL A   1      36.005  24.131  25.629  1.00  0.00     0.201 C 
BRANCH   5   6
ATOM      6  C   UNL A   1      36.968  22.921  25.545  1.00  0.00     0.260 C 
BRANCH   6   7
ATOM      7  O   UNL A   1      38.402  23.156  25.618  1.00  0.00    -0.475 OA
BRANCH   7   8
ATOM      8  C   UNL A   1      39.173  22.209  26.186  1.00  0.00     0.231 C 
ATOM      9  C   UNL A   1      40.885  23.943  26.735  1.00  0.00     0.029 C 
ATOM     10  C   UNL A   1      40.391  22.693  26.865  1.00  0.00     0.103 C 
ATOM     11  C   UNL A   1      41.066  21.594  27.595  1.00  0.00     0.267 C 
ATOM     12  O   UNL A   1      41.597  21.745  28.686  1.00  0.00    -0.268 OA
ATOM     13  N   UNL A   1      41.013  20.415  26.888  1.00  0.00    -0.250 N 
ATOM     14  N   UNL A   1      38.888  20.970  26.030  1.00  0.00    -0.156 NA
ATOM     15  C   UNL A   1      39.911  20.070  26.129  1.00  0.00     0.354 C 
ATOM     16  O   UNL A   1      39.875  19.047  25.461  1.00  0.00    -0.245 OA
BRANCH   9  17
ATOM     17  C   UNL A   1      42.141  24.511  27.163  1.00  0.00    -0.003 A 
ATOM     18  C   UNL A   1      44.457  25.849  29.766  1.00  0.00     0.065 C 
ATOM     19  C   UNL A   1      43.729  25.333  28.572  1.00  0.00     0.020 A 
ATOM     20  C   UNL A   1      42.423  24.879  28.504  1.00  0.00     0.031 A 
ATOM     21  N   UNL A   1      44.253  25.291  27.293  1.00  0.00    -0.318 N 
ATOM     22  C   UNL A   1      43.241  24.904  26.408  1.00  0.00     0.027 A 
ATOM     23  C   UNL A   1      43.483  24.835  24.941  1.00  0.00     0.065 C 
BRANCH  21  24
ATOM     24  C   UNL A   1      45.616  25.474  26.927  1.00  0.00     0.046 A 
ATOM     25  C   UNL A   1      46.538  24.447  27.125  1.00  0.00     0.028 A 
ATOM     26  C   UNL A   1      46.051  26.747  26.534  1.00  0.00     0.038 A 
ATOM     27  C   UNL A   1      47.902  24.716  27.024  1.00  0.00     0.023 A 
ATOM     28  C   UNL A   1      47.430  27.022  26.412  1.00  0.00     0.018 A 
ATOM     29  C   UNL A   1      48.354  26.000  26.691  1.00  0.00     0.050 A 
ATOM     30  Cl  UNL A   1      50.071  26.209  26.682  1.00  0.00    -0.084 Cl
BRANCH  28  31
ATOM     31  C   UNL A   1      47.877  28.397  26.033  1.00  0.00     0.073 C 
ATOM     32  O   UNL A   1      48.910  28.954  26.312  1.00  0.00    -0.545 OA
ATOM     33  O   UNL A   1      46.963  29.031  25.269  1.00  0.00    -0.545 OA
ENDBRANCH  28  31
ENDBRANCH  21  24
ENDBRANCH   9  17
BRANCH  13  34
ATOM     34  C   UNL A   1      42.139  19.504  26.909  1.00  0.00     0.206 C 
BRANCH  34  35
ATOM     35  C   UNL A   1      43.147  19.907  25.914  1.00  0.00     0.123 A 
ATOM     36  C   UNL A   1      43.953  19.200  25.049  1.00  0.00     0.047 A 
ATOM     37  O   UNL A   1      43.383  21.240  25.802  1.00  0.00    -0.467 OA
ATOM     38  C   UNL A   1      44.768  20.157  24.407  1.00  0.00     0.042 A 
ATOM     39  C   UNL A   1      44.375  21.383  24.890  1.00  0.00     0.195 A 
ENDBRANCH  34  35
ENDBRANCH  13  34
ENDBRANCH   7   8
ENDBRANCH   6   7
ENDBRANCH   5   6
ENDBRANCH   4   5
ENDBRANCH   3   4
ENDBRANCH   2   3
ENDBRANCH   1   2
BRANCH   1  40
ATOM     40  C   UNL A   1      31.290  25.530  26.456  1.00  0.00     0.188 C 
BRANCH  40  41
ATOM     41  C   UNL A   1      31.318  27.036  26.166  1.00  0.00     0.188 C 
BRANCH  41  42
ATOM     42  O   UNL A   1      31.558  27.915  27.252  1.00  0.00    -0.376 OA
BRANCH  42  43
ATOM     43  C   UNL A   1      32.805  28.607  27.325  1.00  0.00     0.202 C 
BRANCH  43  44
ATOM     44  C   UNL A   1      33.045  29.958  26.588  1.00  0.00     0.261 C 
BRANCH  44  45
ATOM     45  O   UNL A   1      33.864  31.046  27.156  1.00  0.00    -0.460 OA
BRANCH  45  46
ATOM     46  C   UNL A   1      35.086  30.665  27.674  1.00  0.00     0.338 C 
ATOM     47  O   UNL A   1      35.902  30.019  27.025  1.00  0.00    -0.246 OA
BRANCH  46  48
ATOM     48  C   UNL A   1      35.415  31.049  29.130  1.00  0.00     0.060 A 
ATOM     49  C   UNL A   1      35.354  32.381  29.522  1.00  0.00     0.016 A 
ATOM     50  C   UNL A   1      36.122  30.218  30.031  1.00  0.00     0.016 A 
ATOM     51  C   UNL A   1      35.931  32.835  30.770  1.00  0.00     0.010 A 
ATOM     52  C   UNL A   1      36.766  30.701  31.277  1.00  0.00     0.010 A 
ATOM     53  C   UNL A   1      36.708  32.043  31.702  1.00  0.00    -0.014 A 
BRANCH  53  54
ATOM     54  C   UNL A   1      37.720  32.855  32.729  1.00  0.00     0.031 A 
ATOM     55  C   UNL A   1      38.839  33.235  31.824  1.00  0.00     0.074 A 
ATOM     56  C   UNL A   1      38.000  33.196  34.067  1.00  0.00     0.049 A 
ATOM     57  N   UNL A   1      39.479  32.302  31.182  1.00  0.00    -0.248 NA
ATOM     58  C   UNL A   1      39.043  34.590  31.312  1.00  0.00     0.031 C 
ATOM     59  C   UNL A   1      37.257  32.819  35.283  1.00  0.00     0.029 A 
ATOM     60  N   UNL A   1      39.048  33.987  34.684  1.00  0.00    -0.354 N 
ATOM     61  C   UNL A   1      40.385  32.944  30.380  1.00  0.00     0.074 A 
ATOM     62  C   UNL A   1      39.916  34.323  30.333  1.00  0.00     0.031 C 
ATOM     63  C   UNL A   1      37.746  33.437  36.404  1.00  0.00     0.029 A 
ATOM     64  C   UNL A   1      38.915  34.265  36.102  1.00  0.00     0.049 A 
ATOM     65  H   UNL A   1      39.815  34.320  34.165  1.00  0.00     0.167 HD
ATOM     66  C   UNL A   1      41.667  32.482  30.441  1.00  0.00     0.031 A 
ATOM     67  C   UNL A   1      39.690  35.016  36.995  1.00  0.00     0.031 A 
ATOM     68  C   UNL A   1      42.510  33.349  31.216  1.00  0.00     0.049 A 
ATOM     69  C   UNL A   1      41.044  35.124  36.436  1.00  0.00     0.074 A 
ATOM     70  C   UNL A   1      42.660  34.721  31.278  1.00  0.00     0.029 A 
ATOM     71  N   UNL A   1      43.001  32.841  32.400  1.00  0.00    -0.354 N 
ATOM     72  N   UNL A   1      41.898  34.159  36.593  1.00  0.00    -0.248 NA
ATOM     73  C   UNL A   1      41.591  36.347  35.859  1.00  0.00     0.031 C 
ATOM     74  C   UNL A   1      42.750  35.012  32.656  1.00  0.00     0.029 A 
ATOM     75  C   UNL A   1      43.008  33.838  33.351  1.00  0.00     0.049 A 
ATOM     76  H   UNL A   1      43.298  31.914  32.543  1.00  0.00     0.167 HD
ATOM     77  C   UNL A   1      42.838  34.435  35.654  1.00  0.00     0.074 A 
ATOM     78  C   UNL A   1      42.779  35.874  35.473  1.00  0.00     0.031 C 
ATOM     79  C   UNL A   1      43.051  33.456  34.741  1.00  0.00     0.031 A 
BRANCH  66  80
ATOM     80  C   UNL A   1      41.797  30.979  30.447  1.00  0.00    -0.014 A 
ATOM     81  C   UNL A   1      42.502  30.349  29.419  1.00  0.00     0.009 A 
ATOM     82  C   UNL A   1      41.135  30.169  31.395  1.00  0.00     0.009 A 
ATOM     83  C   UNL A   1      42.475  28.954  29.299  1.00  0.00     0.001 A 
ATOM     84  C   UNL A   1      41.070  28.785  31.249  1.00  0.00     0.001 A 
ATOM     85  C   UNL A   1      41.734  28.178  30.192  1.00  0.00     0.000 A 
ENDBRANCH  66  80
BRANCH  67  86
ATOM     86  C   UNL A   1      39.780  35.597  38.447  1.00  0.00    -0.014 A 
ATOM     87  C   UNL A   1      39.288  36.925  38.712  1.00  0.00     0.009 A 
ATOM     88  C   UNL A   1      39.866  34.788  39.588  1.00  0.00     0.009 A 
ATOM     89  C   UNL A   1      38.807  37.364  39.965  1.00  0.00     0.001 A 
ATOM     90  C   UNL A   1      39.421  35.245  40.866  1.00  0.00     0.001 A 
ATOM     91  C   UNL A   1      38.859  36.510  41.049  1.00  0.00     0.000 A 
ENDBRANCH  67  86
BRANCH  79  92
ATOM     92  C   UNL A   1      43.006  32.019  35.245  1.00  0.00    -0.014 A 
ATOM     93  C   UNL A   1      41.851  31.204  35.274  1.00  0.00     0.009 A 
ATOM     94  C   UNL A   1      44.182  31.470  35.768  1.00  0.00     0.009 A 
ATOM     95  C   UNL A   1      41.852  29.936  35.865  1.00  0.00     0.001 A 
ATOM     96  C   UNL A   1      44.200  30.180  36.312  1.00  0.00     0.001 A 
ATOM     97  C   UNL A   1      43.033  29.421  36.379  1.00  0.00     0.000 A 
ENDBRANCH  79  92
ENDBRANCH  53  54
ENDBRANCH  46  48
ENDBRANCH  45  46
ENDBRANCH  44  45
ENDBRANCH  43  44
ENDBRANCH  42  43
ENDBRANCH  41  42
ENDBRANCH  40  41
ENDBRANCH   1  40
TORSDOF 24
ENDMDL
MODEL 2
REMARK VINA RESULT:      -9.2      1.624      2.293
REMARK SMILES Cc1cc(/C=C2\C(=O)N(Cc3ccco3)C(=O)N=C2OCCOCCOCCOCCOC(=O)c2ccc(-c3c4nc(c(-c5ccccc5)c5ccc([nH]5)c(-c5ccccc5)c5nc(c(-c6ccccc6)c6ccc3[nH]6)C=C5)C=C4)cc2)c(C)n1-c1ccc(Cl)c(C(=O)[O-])c1
REMARK SMILES IDX 26 1 25 2 24 3 23 4 22 5 21 6 20 7 19 8 5 9 6 10 7 11 8 12
REMARK SMILES IDX 9 13 18 14 16 15 17 16 4 17 1 18 2 19 3 20 85 21 83 22 84 23
REMARK SMILES IDX 86 24 87 25 95 26 88 27 91 28 89 29 90 30 92 31 93 32 94 33
REMARK SMILES IDX 10 34 11 35 12 36 15 37 13 38 14 39 27 40 28 41 29 42 30 43
REMARK SMILES IDX 31 44 32 45 33 46 34 47 35 48 36 49 82 50 37 51 81 52 38 53
REMARK SMILES IDX 39 54 40 55 75 56 41 57 80 58 74 59 76 60 42 61 79 62 73 63
REMARK SMILES IDX 72 64 43 66 65 67 50 68 64 69 51 70 54 71 63 72 77 73 52 74
REMARK SMILES IDX 53 75 62 77 78 78 55 79 44 80 45 81 49 82 46 83 48 84 47 85
REMARK SMILES IDX 66 86 67 87 71 88 68 89 70 90 69 91 56 92 57 93 61 94 58 95
REMARK SMILES IDX 60 96 59 97
REMARK H PARENT 76 65 54 76
REMARK Flexibility Score: inf
ROOT
ATOM      1  O   UNL A   1      31.052  24.670  25.953  1.00  0.00    -0.377 OA
ENDROOT
BRANCH   1   2
ATOM      2  C   UNL A   1      31.934  23.752  25.307  1.00  0.00     0.188 C 
BRANCH   2   3
ATOM      3  C   UNL A   1      33.411  24.092  25.042  1.00  0.00     0.188 C 
BRANCH   3   4
ATOM      4  O   UNL A   1      34.308  23.418  25.910  1.00  0.00    -0.376 OA
BRANCH   4   5
ATOM      5  C   UNL A   1      35.704  23.502  25.666  1.00  0.00     0.201 C 
BRANCH   5   6
ATOM      6  C   UNL A   1      36.528  22.209  25.889  1.00  0.00     0.260 C 
BRANCH   6   7
ATOM      7  O   UNL A   1      37.771  22.031  25.156  1.00  0.00    -0.475 OA
BRANCH   7   8
ATOM      8  C   UNL A   1      38.876  21.692  25.850  1.00  0.00     0.231 C 
ATOM      9  C   UNL A   1      39.152  24.071  26.557  1.00  0.00     0.029 C 
ATOM     10  C   UNL A   1      39.479  22.766  26.663  1.00  0.00     0.103 C 
ATOM     11  C   UNL A   1      40.576  22.239  27.509  1.00  0.00     0.267 C 
ATOM     12  O   UNL A   1      40.777  22.620  28.655  1.00  0.00    -0.268 OA
ATOM     13  N   UNL A   1      41.316  21.292  26.840  1.00  0.00    -0.250 N 
ATOM     14  N   UNL A   1      39.398  20.532  25.699  1.00  0.00    -0.156 NA
ATOM     15  C   UNL A   1      40.733  20.403  25.957  1.00  0.00     0.354 C 
ATOM     16  O   UNL A   1      41.390  19.590  25.325  1.00  0.00    -0.245 OA
BRANCH   9  17
ATOM     17  C   UNL A   1      39.766  25.247  27.125  1.00  0.00    -0.003 A 
ATOM     18  C   UNL A   1      40.140  27.833  29.790  1.00  0.00     0.065 C 
ATOM     19  C   UNL A   1      40.196  26.904  28.625  1.00  0.00     0.020 A 
ATOM     20  C   UNL A   1      39.364  25.833  28.352  1.00  0.00     0.031 A 
ATOM     21  N   UNL A   1      41.086  27.022  27.572  1.00  0.00    -0.318 N 
ATOM     22  C   UNL A   1      40.743  26.083  26.593  1.00  0.00     0.027 A 
ATOM     23  C   UNL A   1      41.479  26.013  25.301  1.00  0.00     0.065 C 
BRANCH  21  24
ATOM     24  C   UNL A   1      42.239  27.853  27.523  1.00  0.00     0.046 A 
ATOM     25  C   UNL A   1      42.122  29.192  27.150  1.00  0.00     0.028 A 
ATOM     26  C   UNL A   1      43.505  27.273  27.681  1.00  0.00     0.038 A 
ATOM     27  C   UNL A   1      43.266  29.924  26.840  1.00  0.00     0.023 A 
ATOM     28  C   UNL A   1      44.670  28.014  27.387  1.00  0.00     0.018 A 
ATOM     29  C   UNL A   1      44.536  29.338  26.936  1.00  0.00     0.050 A 
ATOM     30  Cl  UNL A   1      45.859  30.337  26.443  1.00  0.00    -0.084 Cl
BRANCH  28  31
ATOM     31  C   UNL A   1      46.009  27.365  27.520  1.00  0.00     0.073 C 
ATOM     32  O   UNL A   1      46.950  27.716  28.189  1.00  0.00    -0.545 OA
ATOM     33  O   UNL A   1      46.102  26.241  26.779  1.00  0.00    -0.545 OA
ENDBRANCH  28  31
ENDBRANCH  21  24
ENDBRANCH   9  17
BRANCH  13  34
ATOM     34  C   UNL A   1      42.749  21.219  27.036  1.00  0.00     0.206 C 
BRANCH  34  35
ATOM     35  C   UNL A   1      43.443  22.137  26.116  1.00  0.00     0.123 A 
ATOM     36  C   UNL A   1      43.731  23.483  26.168  1.00  0.00     0.047 A 
ATOM     37  O   UNL A   1      43.893  21.598  24.954  1.00  0.00    -0.467 OA
ATOM     38  C   UNL A   1      44.349  23.795  24.938  1.00  0.00     0.042 A 
ATOM     39  C   UNL A   1      44.436  22.614  24.240  1.00  0.00     0.195 A 
ENDBRANCH  34  35
ENDBRANCH  13  34
ENDBRANCH   7   8
ENDBRANCH   6   7
ENDBRANCH   5   6
ENDBRANCH   4   5
ENDBRANCH   3   4
ENDBRANCH   2   3
ENDBRANCH   1   2
BRANCH   1  40
ATOM     40  C   UNL A   1      31.598  25.862  26.491  1.00  0.00     0.188 C 
BRANCH  40  41
ATOM     41  C   UNL A   1      31.611  27.039  25.507  1.00  0.00     0.188 C 
BRANCH  41  42
ATOM     42  O   UNL A   1      32.411  28.163  25.832  1.00  0.00    -0.376 OA
BRANCH  42  43
ATOM     43  C   UNL A   1      33.790  27.970  26.147  1.00  0.00     0.202 C 
BRANCH  43  44
ATOM     44  C   UNL A   1      34.714  29.149  26.574  1.00  0.00     0.261 C 
BRANCH  44  45
ATOM     45  O   UNL A   1      35.178  29.343  27.961  1.00  0.00    -0.460 OA
BRANCH  45  46
ATOM     46  C   UNL A   1      35.400  30.652  28.337  1.00  0.00     0.338 C 
ATOM     47  O   UNL A   1      35.222  31.595  27.574  1.00  0.00    -0.246 OA
BRANCH  46  48
ATOM     48  C   UNL A   1      35.915  30.925  29.765  1.00  0.00     0.060 A 
ATOM     49  C   UNL A   1      35.563  32.104  30.410  1.00  0.00     0.016 A 
ATOM     50  C   UNL A   1      37.009  30.252  30.357  1.00  0.00     0.016 A 
ATOM     51  C   UNL A   1      36.243  32.549  31.609  1.00  0.00     0.010 A 
ATOM     52  C   UNL A   1      37.744  30.746  31.547  1.00  0.00     0.010 A 
ATOM     53  C   UNL A   1      37.399  31.931  32.226  1.00  0.00    -0.014 A 
BRANCH  53  54
ATOM     54  C   UNL A   1      38.335  32.880  33.207  1.00  0.00     0.031 A 
ATOM     55  C   UNL A   1      39.480  33.209  32.316  1.00  0.00     0.074 A 
ATOM     56  C   UNL A   1      38.541  33.365  34.514  1.00  0.00     0.049 A 
ATOM     57  N   UNL A   1      40.180  32.241  31.801  1.00  0.00    -0.248 NA
ATOM     58  C   UNL A   1      39.663  34.512  31.678  1.00  0.00     0.031 C 
ATOM     59  C   UNL A   1      37.756  33.085  35.730  1.00  0.00     0.029 A 
ATOM     60  N   UNL A   1      39.533  34.253  35.091  1.00  0.00    -0.354 N 
ATOM     61  C   UNL A   1      41.100  32.832  30.977  1.00  0.00     0.074 A 
ATOM     62  C   UNL A   1      40.588  34.181  30.769  1.00  0.00     0.031 C 
ATOM     63  C   UNL A   1      38.172  33.831  36.801  1.00  0.00     0.029 A 
ATOM     64  C   UNL A   1      39.325  34.668  36.465  1.00  0.00     0.049 A 
ATOM     65  H   UNL A   1      40.311  34.561  34.572  1.00  0.00     0.167 HD
ATOM     66  C   UNL A   1      42.392  32.428  31.139  1.00  0.00     0.031 A 
ATOM     67  C   UNL A   1      40.033  35.534  37.308  1.00  0.00     0.031 A 
ATOM     68  C   UNL A   1      43.170  33.401  31.855  1.00  0.00     0.049 A 
ATOM     69  C   UNL A   1      41.407  35.637  36.800  1.00  0.00     0.074 A 
ATOM     70  C   UNL A   1      43.271  34.776  31.783  1.00  0.00     0.029 A 
ATOM     71  N   UNL A   1      43.622  33.034  33.105  1.00  0.00    -0.354 N 
ATOM     72  N   UNL A   1      42.285  34.725  37.091  1.00  0.00    -0.248 NA
ATOM     73  C   UNL A   1      41.939  36.815  36.123  1.00  0.00     0.031 C 
ATOM     74  C   UNL A   1      43.288  35.209  33.127  1.00  0.00     0.029 A 
ATOM     75  C   UNL A   1      43.552  34.121  33.949  1.00  0.00     0.049 A 
ATOM     76  H   UNL A   1      43.943  32.137  33.355  1.00  0.00     0.167 HD
ATOM     77  C   UNL A   1      43.257  34.940  36.169  1.00  0.00     0.074 A 
ATOM     78  C   UNL A   1      43.158  36.350  35.839  1.00  0.00     0.031 C 
ATOM     79  C   UNL A   1      43.544  33.883  35.371  1.00  0.00     0.031 A 
BRANCH  66  80
ATOM     80  C   UNL A   1      42.572  30.939  31.304  1.00  0.00    -0.014 A 
ATOM     81  C   UNL A   1      41.932  30.286  32.361  1.00  0.00     0.009 A 
ATOM     82  C   UNL A   1      43.456  30.193  30.496  1.00  0.00     0.009 A 
ATOM     83  C   UNL A   1      42.233  28.949  32.647  1.00  0.00     0.001 A 
ATOM     84  C   UNL A   1      43.790  28.877  30.809  1.00  0.00     0.001 A 
ATOM     85  C   UNL A   1      43.183  28.257  31.894  1.00  0.00     0.000 A 
ENDBRANCH  66  80
BRANCH  67  86
ATOM     86  C   UNL A   1      40.036  36.262  38.696  1.00  0.00    -0.014 A 
ATOM     87  C   UNL A   1      41.251  36.311  39.468  1.00  0.00     0.009 A 
ATOM     88  C   UNL A   1      39.107  37.253  39.040  1.00  0.00     0.009 A 
ATOM     89  C   UNL A   1      41.564  37.325  40.401  1.00  0.00     0.001 A 
ATOM     90  C   UNL A   1      39.404  38.254  40.015  1.00  0.00     0.001 A 
ATOM     91  C   UNL A   1      40.638  38.315  40.665  1.00  0.00     0.000 A 
ENDBRANCH  67  86
BRANCH  79  92
ATOM     92  C   UNL A   1      43.524  32.503  36.017  1.00  0.00    -0.014 A 
ATOM     93  C   UNL A   1      44.586  31.939  36.763  1.00  0.00     0.009 A 
ATOM     94  C   UNL A   1      42.393  31.703  35.821  1.00  0.00     0.009 A 
ATOM     95  C   UNL A   1      44.549  30.619  37.223  1.00  0.00     0.001 A 
ATOM     96  C   UNL A   1      42.332  30.399  36.326  1.00  0.00     0.001 A 
ATOM     97  C   UNL A   1      43.415  29.850  37.008  1.00  0.00     0.000 A 
ENDBRANCH  79  92
ENDBRANCH  53  54
ENDBRANCH  46  48
ENDBRANCH  45  46
ENDBRANCH  44  45
ENDBRANCH  43  44
ENDBRANCH  42  43
ENDBRANCH  41  42
ENDBRANCH  40  41
ENDBRANCH   1  40
TORSDOF 24
ENDMDL
MODEL 3
REMARK VINA RESULT:      -8.4      7.379     13.470
REMARK SMILES Cc1cc(/C=C2\C(=O)N(Cc3ccco3)C(=O)N=C2OCCOCCOCCOCCOC(=O)c2ccc(-c3c4nc(c(-c5ccccc5)c5ccc([nH]5)c(-c5ccccc5)c5nc(c(-c6ccccc6)c6ccc3[nH]6)C=C5)C=C4)cc2)c(C)n1-c1ccc(Cl)c(C(=O)[O-])c1
REMARK SMILES IDX 26 1 25 2 24 3 23 4 22 5 21 6 20 7 19 8 5 9 6 10 7 11 8 12
REMARK SMILES IDX 9 13 18 14 16 15 17 16 4 17 1 18 2 19 3 20 85 21 83 22 84 23
REMARK SMILES IDX 86 24 87 25 95 26 88 27 91 28 89 29 90 30 92 31 93 32 94 33
REMARK SMILES IDX 10 34 11 35 12 36 15 37 13 38 14 39 27 40 28 41 29 42 30 43
REMARK SMILES IDX 31 44 32 45 33 46 34 47 35 48 36 49 82 50 37 51 81 52 38 53
REMARK SMILES IDX 39 54 40 55 75 56 41 57 80 58 74 59 76 60 42 61 79 62 73 63
REMARK SMILES IDX 72 64 43 66 65 67 50 68 64 69 51 70 54 71 63 72 77 73 52 74
REMARK SMILES IDX 53 75 62 77 78 78 55 79 44 80 45 81 49 82 46 83 48 84 47 85
REMARK SMILES IDX 66 86 67 87 71 88 68 89 70 90 69 91 56 92 57 93 61 94 58 95
REMARK SMILES IDX 60 96 59 97
REMARK H PARENT 76 65 54 76
REMARK Flexibility Score: inf
ROOT
ATOM      1  O   UNL A   1      45.181  35.597  36.680  1.00  0.00    -0.377 OA
ENDROOT
BRANCH   1   2
ATOM      2  C   UNL A   1      44.032  35.763  35.850  1.00  0.00     0.188 C 
BRANCH   2   3
ATOM      3  C   UNL A   1      43.321  34.565  35.196  1.00  0.00     0.188 C 
BRANCH   3   4
ATOM      4  O   UNL A   1      42.494  34.929  34.103  1.00  0.00    -0.376 OA
BRANCH   4   5
ATOM      5  C   UNL A   1      41.196  35.444  34.356  1.00  0.00     0.201 C 
BRANCH   5   6
ATOM      6  C   UNL A   1      40.060  34.956  33.422  1.00  0.00     0.260 C 
BRANCH   6   7
ATOM      7  O   UNL A   1      39.433  33.671  33.687  1.00  0.00    -0.475 OA
BRANCH   7   8
ATOM      8  C   UNL A   1      38.117  33.540  33.428  1.00  0.00     0.231 C 
ATOM      9  C   UNL A   1      38.640  31.858  31.658  1.00  0.00     0.029 C 
ATOM     10  C   UNL A   1      37.754  32.491  32.456  1.00  0.00     0.103 C 
ATOM     11  C   UNL A   1      36.283  32.323  32.379  1.00  0.00     0.267 C 
ATOM     12  O   UNL A   1      35.742  31.233  32.255  1.00  0.00    -0.268 OA
ATOM     13  N   UNL A   1      35.635  33.534  32.463  1.00  0.00    -0.250 N 
ATOM     14  N   UNL A   1      37.278  34.367  33.933  1.00  0.00    -0.156 NA
ATOM     15  C   UNL A   1      36.101  34.555  33.267  1.00  0.00     0.354 C 
ATOM     16  O   UNL A   1      35.556  35.649  33.311  1.00  0.00    -0.245 OA
BRANCH   9  17
ATOM     17  C   UNL A   1      38.436  30.967  30.542  1.00  0.00    -0.003 A 
ATOM     18  C   UNL A   1      36.546  29.782  27.549  1.00  0.00     0.065 C 
ATOM     19  C   UNL A   1      37.474  30.087  28.675  1.00  0.00     0.020 A 
ATOM     20  C   UNL A   1      37.328  31.049  29.660  1.00  0.00     0.031 A 
ATOM     21  N   UNL A   1      38.632  29.382  28.949  1.00  0.00    -0.318 N 
ATOM     22  C   UNL A   1      39.157  29.839  30.162  1.00  0.00     0.027 A 
ATOM     23  C   UNL A   1      40.371  29.220  30.760  1.00  0.00     0.065 C 
BRANCH  21  24
ATOM     24  C   UNL A   1      39.275  28.441  28.096  1.00  0.00     0.046 A 
ATOM     25  C   UNL A   1      39.092  27.073  28.300  1.00  0.00     0.028 A 
ATOM     26  C   UNL A   1      40.224  28.896  27.171  1.00  0.00     0.038 A 
ATOM     27  C   UNL A   1      39.923  26.163  27.651  1.00  0.00     0.023 A 
ATOM     28  C   UNL A   1      41.057  27.978  26.496  1.00  0.00     0.018 A 
ATOM     29  C   UNL A   1      40.917  26.607  26.768  1.00  0.00     0.050 A 
ATOM     30  Cl  UNL A   1      41.927  25.373  26.098  1.00  0.00    -0.084 Cl
BRANCH  28  31
ATOM     31  C   UNL A   1      42.092  28.485  25.544  1.00  0.00     0.073 C 
ATOM     32  O   UNL A   1      42.548  27.938  24.570  1.00  0.00    -0.545 OA
ATOM     33  O   UNL A   1      42.514  29.725  25.871  1.00  0.00    -0.545 OA
ENDBRANCH  28  31
ENDBRANCH  21  24
ENDBRANCH   9  17
BRANCH  13  34
ATOM     34  C   UNL A   1      34.440  33.773  31.679  1.00  0.00     0.206 C 
BRANCH  34  35
ATOM     35  C   UNL A   1      34.741  33.684  30.239  1.00  0.00     0.123 A 
ATOM     36  C   UNL A   1      35.753  34.191  29.455  1.00  0.00     0.047 A 
ATOM     37  O   UNL A   1      33.856  32.984  29.483  1.00  0.00    -0.467 OA
ATOM     38  C   UNL A   1      35.438  33.823  28.129  1.00  0.00     0.042 A 
ATOM     39  C   UNL A   1      34.283  33.080  28.200  1.00  0.00     0.195 A 
ENDBRANCH  34  35
ENDBRANCH  13  34
ENDBRANCH   7   8
ENDBRANCH   6   7
ENDBRANCH   5   6
ENDBRANCH   4   5
ENDBRANCH   3   4
ENDBRANCH   2   3
ENDBRANCH   1   2
BRANCH   1  40
ATOM     40  C   UNL A   1      46.462  35.736  36.091  1.00  0.00     0.188 C 
BRANCH  40  41
ATOM     41  C   UNL A   1      47.590  35.971  37.104  1.00  0.00     0.188 C 
BRANCH  41  42
ATOM     42  O   UNL A   1      47.227  36.261  38.443  1.00  0.00    -0.376 OA
BRANCH  42  43
ATOM     43  C   UNL A   1      46.979  37.615  38.820  1.00  0.00     0.202 C 
BRANCH  43  44
ATOM     44  C   UNL A   1      47.259  38.806  37.858  1.00  0.00     0.261 C 
BRANCH  44  45
ATOM     45  O   UNL A   1      46.250  39.834  37.539  1.00  0.00    -0.460 OA
BRANCH  45  46
ATOM     46  C   UNL A   1      45.049  39.359  37.052  1.00  0.00     0.338 C 
ATOM     47  O   UNL A   1      44.216  38.817  37.772  1.00  0.00    -0.246 OA
BRANCH  46  48
ATOM     48  C   UNL A   1      44.765  39.498  35.543  1.00  0.00     0.060 A 
ATOM     49  C   UNL A   1      45.748  39.156  34.623  1.00  0.00     0.016 A 
ATOM     50  C   UNL A   1      43.718  40.279  35.000  1.00  0.00     0.016 A 
ATOM     51  C   UNL A   1      45.653  39.539  33.230  1.00  0.00     0.010 A 
ATOM     52  C   UNL A   1      43.659  40.723  33.586  1.00  0.00     0.010 A 
ATOM     53  C   UNL A   1      44.636  40.380  32.631  1.00  0.00    -0.014 A 
BRANCH  53  54
ATOM     54  C   UNL A   1      45.016  41.138  31.210  1.00  0.00     0.031 A 
ATOM     55  C   UNL A   1      43.867  40.761  30.342  1.00  0.00     0.074 A 
ATOM     56  C   UNL A   1      45.998  41.845  30.489  1.00  0.00     0.049 A 
ATOM     57  N   UNL A   1      43.612  39.501  30.143  1.00  0.00    -0.248 NA
ATOM     58  C   UNL A   1      42.782  41.675  29.991  1.00  0.00     0.031 C 
ATOM     59  C   UNL A   1      47.358  42.220  30.917  1.00  0.00     0.029 A 
ATOM     60  N   UNL A   1      46.020  42.419  29.156  1.00  0.00    -0.354 N 
ATOM     61  C   UNL A   1      42.473  39.458  29.384  1.00  0.00     0.074 A 
ATOM     62  C   UNL A   1      41.895  40.790  29.521  1.00  0.00     0.031 C 
ATOM     63  C   UNL A   1      47.991  43.016  30.000  1.00  0.00     0.029 A 
ATOM     64  C   UNL A   1      47.167  43.237  28.810  1.00  0.00     0.049 A 
ATOM     65  H   UNL A   1      45.289  42.261  28.516  1.00  0.00     0.167 HD
ATOM     66  C   UNL A   1      42.522  38.661  28.279  1.00  0.00     0.031 A 
ATOM     67  C   UNL A   1      47.493  43.970  27.662  1.00  0.00     0.031 A 
ATOM     68  C   UNL A   1      42.682  39.428  27.075  1.00  0.00     0.049 A 
ATOM     69  C   UNL A   1      46.733  43.410  26.537  1.00  0.00     0.074 A 
ATOM     70  C   UNL A   1      42.103  40.591  26.606  1.00  0.00     0.029 A 
ATOM     71  N   UNL A   1      43.871  39.272  26.394  1.00  0.00    -0.354 N 
ATOM     72  N   UNL A   1      47.160  42.352  25.917  1.00  0.00    -0.248 NA
ATOM     73  C   UNL A   1      45.591  44.073  25.916  1.00  0.00     0.031 C 
ATOM     74  C   UNL A   1      43.173  41.332  26.060  1.00  0.00     0.029 A 
ATOM     75  C   UNL A   1      44.265  40.492  25.888  1.00  0.00     0.049 A 
ATOM     76  H   UNL A   1      44.360  38.425  26.287  1.00  0.00     0.167 HD
ATOM     77  C   UNL A   1      46.057  41.931  25.249  1.00  0.00     0.074 A 
ATOM     78  C   UNL A   1      45.268  43.129  25.029  1.00  0.00     0.031 C 
ATOM     79  C   UNL A   1      45.652  40.669  25.535  1.00  0.00     0.031 A 
BRANCH  66  80
ATOM     80  C   UNL A   1      43.173  37.318  28.498  1.00  0.00    -0.014 A 
ATOM     81  C   UNL A   1      42.372  36.180  28.615  1.00  0.00     0.009 A 
ATOM     82  C   UNL A   1      44.563  37.179  28.703  1.00  0.00     0.009 A 
ATOM     83  C   UNL A   1      42.936  34.959  29.006  1.00  0.00     0.001 A 
ATOM     84  C   UNL A   1      45.116  35.977  29.136  1.00  0.00     0.001 A 
ATOM     85  C   UNL A   1      44.298  34.866  29.297  1.00  0.00     0.000 A 
ENDBRANCH  66  80
BRANCH  67  86
ATOM     86  C   UNL A   1      48.500  44.991  27.030  1.00  0.00    -0.014 A 
ATOM     87  C   UNL A   1      49.885  44.958  27.425  1.00  0.00     0.009 A 
ATOM     88  C   UNL A   1      48.279  45.615  25.795  1.00  0.00     0.009 A 
ATOM     89  C   UNL A   1      50.958  45.388  26.613  1.00  0.00     0.001 A 
ATOM     90  C   UNL A   1      49.360  46.091  24.991  1.00  0.00     0.001 A 
ATOM     91  C   UNL A   1      50.694  45.945  25.378  1.00  0.00     0.000 A 
ENDBRANCH  67  86
BRANCH  79  92
ATOM     92  C   UNL A   1      46.741  39.627  25.760  1.00  0.00    -0.014 A 
ATOM     93  C   UNL A   1      47.379  38.885  24.738  1.00  0.00     0.009 A 
ATOM     94  C   UNL A   1      47.111  39.338  27.078  1.00  0.00     0.009 A 
ATOM     95  C   UNL A   1      48.283  37.856  25.023  1.00  0.00     0.001 A 
ATOM     96  C   UNL A   1      48.055  38.344  27.364  1.00  0.00     0.001 A 
ATOM     97  C   UNL A   1      48.625  37.590  26.340  1.00  0.00     0.000 A 
ENDBRANCH  79  92
ENDBRANCH  53  54
ENDBRANCH  46  48
ENDBRANCH  45  46
ENDBRANCH  44  45
ENDBRANCH  43  44
ENDBRANCH  42  43
ENDBRANCH  41  42
ENDBRANCH  40  41
ENDBRANCH   1  40
TORSDOF 24
ENDMDL
