MODEL 1
REMARK VINA RESULT:      -8.1      0.000      0.000
REMARK SMILES CC(C)[C@H](NC(=O)[C@H](C)NC(=O)C[NH3+])C(=O)OCCOCCOCCOCCOC(=O)c1ccc(-c2c3nc(c(-c4ccccc4)c4ccc([nH]4)c(-c4ccccc4)c4nc(c(-c5ccccc5)c5ccc2[nH]5)C=C4)C=C3)cc1
REMARK SMILES IDX 21 1 20 2 19 3 18 4 17 5 15 6 16 7 4 8 2 9 1 10 3 11 5 12
REMARK SMILES IDX 6 13 7 15 8 16 9 17 10 18 11 19 12 21 13 22 14 23 22 27
REMARK SMILES IDX 23 28 24 29 25 30 26 31 27 32 28 33 29 34 30 35 31 36 32 37
REMARK SMILES IDX 33 38 79 39 34 40 78 41 35 42 36 43 37 44 72 45 38 46 77 47
REMARK SMILES IDX 71 48 73 49 39 50 76 51 70 52 69 53 40 55 62 56 47 57 61 58
REMARK SMILES IDX 48 59 51 60 60 61 74 62 49 63 50 64 59 66 75 67 52 68 41 69
REMARK SMILES IDX 42 70 46 71 43 72 45 73 44 74 63 75 64 76 68 77 65 78 67 79
REMARK SMILES IDX 66 80 53 81 54 82 58 83 55 84 57 85 56 86
REMARK H PARENT 5 14 10 20 14 24 14 25 14 26 73 54 51 65
REMARK Flexibility Score: inf
ROOT
ATOM      1  C   UNL A   1      35.991  31.255  28.429  1.00  0.00     0.188 C 
ENDROOT
BRANCH   1   2
ATOM      2  O   UNL A   1      35.926  30.180  27.496  1.00  0.00    -0.376 OA
BRANCH   2   3
ATOM      3  C   UNL A   1      34.774  29.338  27.594  1.00  0.00     0.202 C 
BRANCH   3   4
ATOM      4  C   UNL A   1      34.247  28.774  26.266  1.00  0.00     0.261 C 
BRANCH   4   5
ATOM      5  O   UNL A   1      34.281  27.326  26.107  1.00  0.00    -0.462 OA
BRANCH   5   6
ATOM      6  C   UNL A   1      33.067  26.717  26.109  1.00  0.00     0.328 C 
ATOM      7  O   UNL A   1      32.080  27.180  26.677  1.00  0.00    -0.250 OA
BRANCH   6   8
ATOM      8  C   UNL A   1      32.994  25.300  25.457  1.00  0.00     0.194 C 
BRANCH   8   9
ATOM      9  C   UNL A   1      34.431  24.644  25.343  1.00  0.00     0.017 C 
ATOM     10  C   UNL A   1      34.739  23.599  26.433  1.00  0.00     0.010 C 
ATOM     11  C   UNL A   1      34.775  24.013  23.989  1.00  0.00     0.010 C 
ENDBRANCH   8   9
BRANCH   8  12
ATOM     12  N   UNL A   1      32.195  24.906  24.266  1.00  0.00    -0.341 N 
ATOM     13  C   UNL A   1      30.971  25.189  23.753  1.00  0.00     0.243 C 
ATOM     14  H   UNL A   1      32.685  24.267  23.698  1.00  0.00     0.164 HD
ATOM     15  O   UNL A   1      30.466  24.354  22.998  1.00  0.00    -0.273 OA
BRANCH  13  16
ATOM     16  C   UNL A   1      30.329  26.553  23.930  1.00  0.00     0.168 C 
ATOM     17  C   UNL A   1      28.820  26.333  23.974  1.00  0.00     0.041 C 
BRANCH  16  18
ATOM     18  N   UNL A   1      30.816  27.426  22.870  1.00  0.00    -0.340 N 
ATOM     19  C   UNL A   1      30.995  28.771  22.846  1.00  0.00     0.275 C 
ATOM     20  H   UNL A   1      31.056  26.963  22.034  1.00  0.00     0.164 HD
ATOM     21  O   UNL A   1      31.670  29.238  21.925  1.00  0.00    -0.268 OA
BRANCH  19  22
ATOM     22  C   UNL A   1      30.320  29.688  23.864  1.00  0.00     0.360 C 
BRANCH  22  23
ATOM     23  N   UNL A   1      31.089  29.678  25.121  1.00  0.00    -0.350 N 
ATOM     24  H   UNL A   1      32.085  29.628  24.909  1.00  0.00     0.344 HD
ATOM     25  H   UNL A   1      30.817  28.869  25.678  1.00  0.00     0.344 HD
ATOM     26  H   UNL A   1      30.894  30.532  25.644  1.00  0.00     0.344 HD
ENDBRANCH  22  23
ENDBRANCH  19  22
ENDBRANCH  16  18
ENDBRANCH  13  16
ENDBRANCH   8  12
ENDBRANCH   6   8
ENDBRANCH   5   6
ENDBRANCH   4   5
ENDBRANCH   3   4
ENDBRANCH   2   3
ENDBRANCH   1   2
BRANCH   1  27
ATOM     27  C   UNL A   1      35.453  32.580  27.877  1.00  0.00     0.188 C 
BRANCH  27  28
ATOM     28  O   UNL A   1      34.278  32.965  28.571  1.00  0.00    -0.377 OA
BRANCH  28  29
ATOM     29  C   UNL A   1      34.285  34.155  29.341  1.00  0.00     0.188 C 
BRANCH  29  30
ATOM     30  C   UNL A   1      34.536  34.060  30.848  1.00  0.00     0.188 C 
BRANCH  30  31
ATOM     31  O   UNL A   1      35.871  33.835  31.289  1.00  0.00    -0.376 OA
BRANCH  31  32
ATOM     32  C   UNL A   1      36.291  34.353  32.547  1.00  0.00     0.202 C 
BRANCH  32  33
ATOM     33  C   UNL A   1      35.854  33.589  33.796  1.00  0.00     0.261 C 
BRANCH  33  34
ATOM     34  O   UNL A   1      36.114  32.186  33.652  1.00  0.00    -0.460 OA
BRANCH  34  35
ATOM     35  C   UNL A   1      37.275  31.760  34.197  1.00  0.00     0.338 C 
ATOM     36  O   UNL A   1      37.627  31.824  35.359  1.00  0.00    -0.246 OA
BRANCH  35  37
ATOM     37  C   UNL A   1      38.012  31.010  33.172  1.00  0.00     0.060 A 
ATOM     38  C   UNL A   1      39.111  30.245  33.583  1.00  0.00     0.016 A 
ATOM     39  C   UNL A   1      37.673  31.126  31.823  1.00  0.00     0.016 A 
ATOM     40  C   UNL A   1      39.918  29.635  32.634  1.00  0.00     0.010 A 
ATOM     41  C   UNL A   1      38.498  30.537  30.869  1.00  0.00     0.010 A 
ATOM     42  C   UNL A   1      39.647  29.839  31.276  1.00  0.00    -0.014 A 
BRANCH  42  43
ATOM     43  C   UNL A   1      40.716  29.566  30.299  1.00  0.00     0.031 A 
ATOM     44  C   UNL A   1      40.626  28.288  29.512  1.00  0.00     0.074 A 
ATOM     45  C   UNL A   1      41.705  30.450  30.096  1.00  0.00     0.049 A 
ATOM     46  N   UNL A   1      41.455  27.798  28.630  1.00  0.00    -0.248 NA
ATOM     47  C   UNL A   1      39.436  27.452  29.751  1.00  0.00     0.031 C 
ATOM     48  C   UNL A   1      41.832  31.747  30.758  1.00  0.00     0.029 A 
ATOM     49  N   UNL A   1      42.793  30.380  29.268  1.00  0.00    -0.354 N 
ATOM     50  C   UNL A   1      40.888  26.598  28.215  1.00  0.00     0.074 A 
ATOM     51  C   UNL A   1      39.661  26.420  28.956  1.00  0.00     0.031 C 
ATOM     52  C   UNL A   1      42.950  32.349  30.318  1.00  0.00     0.029 A 
ATOM     53  C   UNL A   1      43.629  31.462  29.376  1.00  0.00     0.049 A 
ATOM     54  H   UNL A   1      42.959  29.628  28.657  1.00  0.00     0.167 HD
ATOM     55  C   UNL A   1      41.355  25.723  27.295  1.00  0.00     0.031 A 
ATOM     56  C   UNL A   1      44.822  31.687  28.795  1.00  0.00     0.031 A 
ATOM     57  C   UNL A   1      42.593  25.901  26.591  1.00  0.00     0.049 A 
ATOM     58  C   UNL A   1      45.369  30.647  27.852  1.00  0.00     0.074 A 
ATOM     59  C   UNL A   1      43.181  25.077  25.651  1.00  0.00     0.029 A 
ATOM     60  N   UNL A   1      43.440  26.988  26.763  1.00  0.00    -0.354 N 
ATOM     61  N   UNL A   1      44.829  29.516  27.463  1.00  0.00    -0.248 NA
ATOM     62  C   UNL A   1      46.688  30.917  27.266  1.00  0.00     0.031 C 
ATOM     63  C   UNL A   1      44.412  25.636  25.295  1.00  0.00     0.029 A 
ATOM     64  C   UNL A   1      44.559  26.842  25.965  1.00  0.00     0.049 A 
ATOM     65  H   UNL A   1      43.270  27.748  27.365  1.00  0.00     0.167 HD
ATOM     66  C   UNL A   1      45.726  28.956  26.562  1.00  0.00     0.074 A 
ATOM     67  C   UNL A   1      46.837  29.881  26.453  1.00  0.00     0.031 C 
ATOM     68  C   UNL A   1      45.643  27.786  25.880  1.00  0.00     0.031 A 
BRANCH  55  69
ATOM     69  C   UNL A   1      40.543  24.483  27.045  1.00  0.00    -0.014 A 
ATOM     70  C   UNL A   1      40.941  23.234  27.548  1.00  0.00     0.009 A 
ATOM     71  C   UNL A   1      39.355  24.569  26.302  1.00  0.00     0.009 A 
ATOM     72  C   UNL A   1      40.181  22.092  27.286  1.00  0.00     0.001 A 
ATOM     73  C   UNL A   1      38.584  23.430  26.065  1.00  0.00     0.001 A 
ATOM     74  C   UNL A   1      39.001  22.191  26.550  1.00  0.00     0.000 A 
ENDBRANCH  55  69
BRANCH  56  75
ATOM     75  C   UNL A   1      45.591  32.920  29.107  1.00  0.00    -0.014 A 
ATOM     76  C   UNL A   1      46.092  33.146  30.398  1.00  0.00     0.009 A 
ATOM     77  C   UNL A   1      45.811  33.891  28.117  1.00  0.00     0.009 A 
ATOM     78  C   UNL A   1      46.770  34.331  30.698  1.00  0.00     0.001 A 
ATOM     79  C   UNL A   1      46.514  35.061  28.411  1.00  0.00     0.001 A 
ATOM     80  C   UNL A   1      46.984  35.285  29.703  1.00  0.00     0.000 A 
ENDBRANCH  56  75
BRANCH  68  81
ATOM     81  C   UNL A   1      46.762  27.469  24.928  1.00  0.00    -0.014 A 
ATOM     82  C   UNL A   1      47.787  26.579  25.275  1.00  0.00     0.009 A 
ATOM     83  C   UNL A   1      46.755  28.038  23.645  1.00  0.00     0.009 A 
ATOM     84  C   UNL A   1      48.807  26.291  24.365  1.00  0.00     0.001 A 
ATOM     85  C   UNL A   1      47.756  27.724  22.726  1.00  0.00     0.001 A 
ATOM     86  C   UNL A   1      48.786  26.859  23.091  1.00  0.00     0.000 A 
ENDBRANCH  68  81
ENDBRANCH  42  43
ENDBRANCH  35  37
ENDBRANCH  34  35
ENDBRANCH  33  34
ENDBRANCH  32  33
ENDBRANCH  31  32
ENDBRANCH  30  31
ENDBRANCH  29  30
ENDBRANCH  28  29
ENDBRANCH  27  28
ENDBRANCH   1  27
TORSDOF 26
ENDMDL
MODEL 2
REMARK VINA RESULT:      -8.1      1.708      6.599
REMARK SMILES CC(C)[C@H](NC(=O)[C@H](C)NC(=O)C[NH3+])C(=O)OCCOCCOCCOCCOC(=O)c1ccc(-c2c3nc(c(-c4ccccc4)c4ccc([nH]4)c(-c4ccccc4)c4nc(c(-c5ccccc5)c5ccc2[nH]5)C=C4)C=C3)cc1
REMARK SMILES IDX 21 1 20 2 19 3 18 4 17 5 15 6 16 7 4 8 2 9 1 10 3 11 5 12
REMARK SMILES IDX 6 13 7 15 8 16 9 17 10 18 11 19 12 21 13 22 14 23 22 27
REMARK SMILES IDX 23 28 24 29 25 30 26 31 27 32 28 33 29 34 30 35 31 36 32 37
REMARK SMILES IDX 33 38 79 39 34 40 78 41 35 42 36 43 37 44 72 45 38 46 77 47
REMARK SMILES IDX 71 48 73 49 39 50 76 51 70 52 69 53 40 55 62 56 47 57 61 58
REMARK SMILES IDX 48 59 51 60 60 61 74 62 49 63 50 64 59 66 75 67 52 68 41 69
REMARK SMILES IDX 42 70 46 71 43 72 45 73 44 74 63 75 64 76 68 77 65 78 67 79
REMARK SMILES IDX 66 80 53 81 54 82 58 83 55 84 57 85 56 86
REMARK H PARENT 5 14 10 20 14 24 14 25 14 26 73 54 51 65
REMARK Flexibility Score: inf
ROOT
ATOM      1  C   UNL A   1      35.307  31.784  28.055  1.00  0.00     0.188 C 
ENDROOT
BRANCH   1   2
ATOM      2  O   UNL A   1      34.978  30.412  27.856  1.00  0.00    -0.376 OA
BRANCH   2   3
ATOM      3  C   UNL A   1      33.913  30.152  26.938  1.00  0.00     0.202 C 
BRANCH   3   4
ATOM      4  C   UNL A   1      33.578  28.671  26.708  1.00  0.00     0.261 C 
BRANCH   4   5
ATOM      5  O   UNL A   1      33.681  28.177  25.340  1.00  0.00    -0.462 OA
BRANCH   5   6
ATOM      6  C   UNL A   1      33.484  26.841  25.194  1.00  0.00     0.328 C 
ATOM      7  O   UNL A   1      33.613  26.034  26.113  1.00  0.00    -0.250 OA
BRANCH   6   8
ATOM      8  C   UNL A   1      33.209  26.330  23.744  1.00  0.00     0.194 C 
BRANCH   8   9
ATOM      9  C   UNL A   1      31.801  26.826  23.217  1.00  0.00     0.017 C 
ATOM     10  C   UNL A   1      31.444  26.334  21.800  1.00  0.00     0.010 C 
ATOM     11  C   UNL A   1      30.602  26.525  24.124  1.00  0.00     0.010 C 
ENDBRANCH   8   9
BRANCH   8  12
ATOM     12  N   UNL A   1      33.461  24.962  23.218  1.00  0.00    -0.341 N 
ATOM     13  C   UNL A   1      34.452  24.038  23.286  1.00  0.00     0.243 C 
ATOM     14  H   UNL A   1      32.705  24.641  22.673  1.00  0.00     0.164 HD
ATOM     15  O   UNL A   1      34.516  23.207  22.376  1.00  0.00    -0.273 OA
BRANCH  13  16
ATOM     16  C   UNL A   1      35.326  23.896  24.519  1.00  0.00     0.168 C 
ATOM     17  C   UNL A   1      36.604  23.189  24.081  1.00  0.00     0.041 C 
BRANCH  16  18
ATOM     18  N   UNL A   1      34.548  23.225  25.553  1.00  0.00    -0.340 N 
ATOM     19  C   UNL A   1      34.419  21.906  25.844  1.00  0.00     0.275 C 
ATOM     20  H   UNL A   1      34.030  23.828  26.135  1.00  0.00     0.164 HD
ATOM     21  O   UNL A   1      33.914  21.610  26.930  1.00  0.00    -0.268 OA
BRANCH  19  22
ATOM     22  C   UNL A   1      34.801  20.822  24.839  1.00  0.00     0.360 C 
BRANCH  22  23
ATOM     23  N   UNL A   1      34.051  19.589  25.136  1.00  0.00    -0.350 N 
ATOM     24  H   UNL A   1      33.063  19.735  24.932  1.00  0.00     0.344 HD
ATOM     25  H   UNL A   1      34.165  19.352  26.121  1.00  0.00     0.344 HD
ATOM     26  H   UNL A   1      34.409  18.827  24.559  1.00  0.00     0.344 HD
ENDBRANCH  22  23
ENDBRANCH  19  22
ENDBRANCH  16  18
ENDBRANCH  13  16
ENDBRANCH   8  12
ENDBRANCH   6   8
ENDBRANCH   5   6
ENDBRANCH   4   5
ENDBRANCH   3   4
ENDBRANCH   2   3
ENDBRANCH   1   2
BRANCH   1  27
ATOM     27  C   UNL A   1      34.084  32.684  28.263  1.00  0.00     0.188 C 
BRANCH  27  28
ATOM     28  O   UNL A   1      34.489  33.989  28.645  1.00  0.00    -0.377 OA
BRANCH  28  29
ATOM     29  C   UNL A   1      33.535  35.038  28.645  1.00  0.00     0.188 C 
BRANCH  29  30
ATOM     30  C   UNL A   1      33.172  35.707  29.973  1.00  0.00     0.188 C 
BRANCH  30  31
ATOM     31  O   UNL A   1      33.205  34.909  31.153  1.00  0.00    -0.376 OA
BRANCH  31  32
ATOM     32  C   UNL A   1      33.825  35.421  32.328  1.00  0.00     0.202 C 
BRANCH  32  33
ATOM     33  C   UNL A   1      35.251  34.957  32.621  1.00  0.00     0.261 C 
BRANCH  33  34
ATOM     34  O   UNL A   1      35.621  33.871  31.760  1.00  0.00    -0.460 OA
BRANCH  34  35
ATOM     35  C   UNL A   1      36.169  32.806  32.386  1.00  0.00     0.338 C 
ATOM     36  O   UNL A   1      35.638  32.034  33.160  1.00  0.00    -0.246 OA
BRANCH  35  37
ATOM     37  C   UNL A   1      37.514  32.594  31.833  1.00  0.00     0.060 A 
ATOM     38  C   UNL A   1      37.734  32.942  30.494  1.00  0.00     0.016 A 
ATOM     39  C   UNL A   1      38.512  31.989  32.599  1.00  0.00     0.016 A 
ATOM     40  C   UNL A   1      38.944  32.631  29.893  1.00  0.00     0.010 A 
ATOM     41  C   UNL A   1      39.716  31.651  31.988  1.00  0.00     0.010 A 
ATOM     42  C   UNL A   1      39.907  31.925  30.624  1.00  0.00    -0.014 A 
BRANCH  42  43
ATOM     43  C   UNL A   1      40.979  31.233  29.886  1.00  0.00     0.031 A 
ATOM     44  C   UNL A   1      42.246  31.998  29.624  1.00  0.00     0.074 A 
ATOM     45  C   UNL A   1      40.836  29.954  29.504  1.00  0.00     0.049 A 
ATOM     46  N   UNL A   1      43.313  31.633  28.965  1.00  0.00    -0.248 NA
ATOM     47  C   UNL A   1      42.321  33.358  30.187  1.00  0.00     0.031 C 
ATOM     48  C   UNL A   1      39.674  29.112  29.780  1.00  0.00     0.029 A 
ATOM     49  N   UNL A   1      41.685  29.146  28.798  1.00  0.00    -0.354 N 
ATOM     50  C   UNL A   1      44.179  32.719  29.031  1.00  0.00     0.074 A 
ATOM     51  C   UNL A   1      43.509  33.763  29.770  1.00  0.00     0.031 C 
ATOM     52  C   UNL A   1      39.878  27.901  29.233  1.00  0.00     0.029 A 
ATOM     53  C   UNL A   1      41.165  27.902  28.541  1.00  0.00     0.049 A 
ATOM     54  H   UNL A   1      42.580  29.429  28.502  1.00  0.00     0.167 HD
ATOM     55  C   UNL A   1      45.426  32.831  28.518  1.00  0.00     0.031 A 
ATOM     56  C   UNL A   1      41.670  26.896  27.804  1.00  0.00     0.031 A 
ATOM     57  C   UNL A   1      46.064  31.794  27.758  1.00  0.00     0.049 A 
ATOM     58  C   UNL A   1      43.017  27.085  27.156  1.00  0.00     0.074 A 
ATOM     59  C   UNL A   1      47.315  31.796  27.171  1.00  0.00     0.029 A 
ATOM     60  N   UNL A   1      45.486  30.564  27.476  1.00  0.00    -0.354 N 
ATOM     61  N   UNL A   1      43.831  28.112  27.223  1.00  0.00    -0.248 NA
ATOM     62  C   UNL A   1      43.515  25.975  26.334  1.00  0.00     0.031 C 
ATOM     63  C   UNL A   1      47.472  30.588  26.484  1.00  0.00     0.029 A 
ATOM     64  C   UNL A   1      46.345  29.808  26.701  1.00  0.00     0.049 A 
ATOM     65  H   UNL A   1      44.596  30.274  27.781  1.00  0.00     0.167 HD
ATOM     66  C   UNL A   1      44.951  27.759  26.480  1.00  0.00     0.074 A 
ATOM     67  C   UNL A   1      44.715  26.417  25.986  1.00  0.00     0.031 C 
ATOM     68  C   UNL A   1      46.077  28.474  26.229  1.00  0.00     0.031 A 
BRANCH  55  69
ATOM     69  C   UNL A   1      46.145  34.135  28.725  1.00  0.00    -0.014 A 
ATOM     70  C   UNL A   1      45.963  35.218  27.850  1.00  0.00     0.009 A 
ATOM     71  C   UNL A   1      47.011  34.284  29.819  1.00  0.00     0.009 A 
ATOM     72  C   UNL A   1      46.657  36.413  28.051  1.00  0.00     0.001 A 
ATOM     73  C   UNL A   1      47.682  35.489  30.033  1.00  0.00     0.001 A 
ATOM     74  C   UNL A   1      47.512  36.550  29.145  1.00  0.00     0.000 A 
ENDBRANCH  55  69
BRANCH  56  75
ATOM     75  C   UNL A   1      40.896  25.642  27.612  1.00  0.00    -0.014 A 
ATOM     76  C   UNL A   1      41.297  24.448  28.227  1.00  0.00     0.009 A 
ATOM     77  C   UNL A   1      39.757  25.629  26.790  1.00  0.00     0.009 A 
ATOM     78  C   UNL A   1      40.595  23.261  28.000  1.00  0.00     0.001 A 
ATOM     79  C   UNL A   1      39.038  24.449  26.588  1.00  0.00     0.001 A 
ATOM     80  C   UNL A   1      39.463  23.264  27.185  1.00  0.00     0.000 A 
ENDBRANCH  56  75
BRANCH  68  81
ATOM     81  C   UNL A   1      47.150  27.797  25.424  1.00  0.00    -0.014 A 
ATOM     82  C   UNL A   1      48.138  27.014  26.035  1.00  0.00     0.009 A 
ATOM     83  C   UNL A   1      47.135  27.911  24.024  1.00  0.00     0.009 A 
ATOM     84  C   UNL A   1      49.115  26.384  25.260  1.00  0.00     0.001 A 
ATOM     85  C   UNL A   1      48.091  27.255  23.251  1.00  0.00     0.001 A 
ATOM     86  C   UNL A   1      49.086  26.501  23.871  1.00  0.00     0.000 A 
ENDBRANCH  68  81
ENDBRANCH  42  43
ENDBRANCH  35  37
ENDBRANCH  34  35
ENDBRANCH  33  34
ENDBRANCH  32  33
ENDBRANCH  31  32
ENDBRANCH  30  31
ENDBRANCH  29  30
ENDBRANCH  28  29
ENDBRANCH  27  28
ENDBRANCH   1  27
TORSDOF 26
ENDMDL
MODEL 3
REMARK VINA RESULT:      -8.1      1.894      6.361
REMARK SMILES CC(C)[C@H](NC(=O)[C@H](C)NC(=O)C[NH3+])C(=O)OCCOCCOCCOCCOC(=O)c1ccc(-c2c3nc(c(-c4ccccc4)c4ccc([nH]4)c(-c4ccccc4)c4nc(c(-c5ccccc5)c5ccc2[nH]5)C=C4)C=C3)cc1
REMARK SMILES IDX 21 1 20 2 19 3 18 4 17 5 15 6 16 7 4 8 2 9 1 10 3 11 5 12
REMARK SMILES IDX 6 13 7 15 8 16 9 17 10 18 11 19 12 21 13 22 14 23 22 27
REMARK SMILES IDX 23 28 24 29 25 30 26 31 27 32 28 33 29 34 30 35 31 36 32 37
REMARK SMILES IDX 33 38 79 39 34 40 78 41 35 42 36 43 37 44 72 45 38 46 77 47
REMARK SMILES IDX 71 48 73 49 39 50 76 51 70 52 69 53 40 55 62 56 47 57 61 58
REMARK SMILES IDX 48 59 51 60 60 61 74 62 49 63 50 64 59 66 75 67 52 68 41 69
REMARK SMILES IDX 42 70 46 71 43 72 45 73 44 74 63 75 64 76 68 77 65 78 67 79
REMARK SMILES IDX 66 80 53 81 54 82 58 83 55 84 57 85 56 86
REMARK H PARENT 5 14 10 20 14 24 14 25 14 26 73 54 51 65
REMARK Flexibility Score: inf
ROOT
ATOM      1  C   UNL A   1      34.303  31.151  27.956  1.00  0.00     0.188 C 
ENDROOT
BRANCH   1   2
ATOM      2  O   UNL A   1      33.861  30.281  26.918  1.00  0.00    -0.376 OA
BRANCH   2   3
ATOM      3  C   UNL A   1      33.724  28.903  27.274  1.00  0.00     0.202 C 
BRANCH   3   4
ATOM      4  C   UNL A   1      32.384  28.249  26.905  1.00  0.00     0.261 C 
BRANCH   4   5
ATOM      5  O   UNL A   1      32.193  27.882  25.508  1.00  0.00    -0.462 OA
BRANCH   5   6
ATOM      6  C   UNL A   1      31.795  28.894  24.695  1.00  0.00     0.328 C 
ATOM      7  O   UNL A   1      31.418  29.988  25.112  1.00  0.00    -0.250 OA
BRANCH   6   8
ATOM      8  C   UNL A   1      31.702  28.570  23.170  1.00  0.00     0.194 C 
BRANCH   8   9
ATOM      9  C   UNL A   1      33.116  28.175  22.579  1.00  0.00     0.017 C 
ATOM     10  C   UNL A   1      34.314  28.775  23.343  1.00  0.00     0.010 C 
ATOM     11  C   UNL A   1      33.379  26.673  22.417  1.00  0.00     0.010 C 
ENDBRANCH   8   9
BRANCH   8  12
ATOM     12  N   UNL A   1      30.951  29.336  22.140  1.00  0.00    -0.341 N 
ATOM     13  C   UNL A   1      29.721  29.897  22.019  1.00  0.00     0.243 C 
ATOM     14  H   UNL A   1      31.491  29.472  21.327  1.00  0.00     0.164 HD
ATOM     15  O   UNL A   1      29.284  30.064  20.877  1.00  0.00    -0.273 OA
BRANCH  13  16
ATOM     16  C   UNL A   1      28.991  30.482  23.214  1.00  0.00     0.168 C 
ATOM     17  C   UNL A   1      27.521  30.104  23.066  1.00  0.00     0.041 C 
BRANCH  16  18
ATOM     18  N   UNL A   1      29.281  31.909  23.269  1.00  0.00    -0.340 N 
ATOM     19  C   UNL A   1      28.638  32.963  22.706  1.00  0.00     0.275 C 
ATOM     20  H   UNL A   1      30.074  32.148  23.803  1.00  0.00     0.164 HD
ATOM     21  O   UNL A   1      28.923  34.090  23.120  1.00  0.00    -0.268 OA
BRANCH  19  22
ATOM     22  C   UNL A   1      27.662  32.780  21.546  1.00  0.00     0.360 C 
BRANCH  22  23
ATOM     23  N   UNL A   1      28.414  32.632  20.288  1.00  0.00    -0.350 N 
ATOM     24  H   UNL A   1      29.405  32.799  20.463  1.00  0.00     0.344 HD
ATOM     25  H   UNL A   1      28.070  33.306  19.606  1.00  0.00     0.344 HD
ATOM     26  H   UNL A   1      28.287  31.687  19.926  1.00  0.00     0.344 HD
ENDBRANCH  22  23
ENDBRANCH  19  22
ENDBRANCH  16  18
ENDBRANCH  13  16
ENDBRANCH   8  12
ENDBRANCH   6   8
ENDBRANCH   5   6
ENDBRANCH   4   5
ENDBRANCH   3   4
ENDBRANCH   2   3
ENDBRANCH   1   2
BRANCH   1  27
ATOM     27  C   UNL A   1      35.755  31.614  27.794  1.00  0.00     0.188 C 
BRANCH  27  28
ATOM     28  O   UNL A   1      35.909  32.938  28.278  1.00  0.00    -0.377 OA
BRANCH  28  29
ATOM     29  C   UNL A   1      34.833  33.852  28.153  1.00  0.00     0.188 C 
BRANCH  29  30
ATOM     30  C   UNL A   1      34.333  34.582  29.402  1.00  0.00     0.188 C 
BRANCH  30  31
ATOM     31  O   UNL A   1      33.836  33.795  30.480  1.00  0.00    -0.376 OA
BRANCH  31  32
ATOM     32  C   UNL A   1      33.823  34.338  31.797  1.00  0.00     0.202 C 
BRANCH  32  33
ATOM     33  C   UNL A   1      34.734  33.678  32.831  1.00  0.00     0.261 C 
BRANCH  33  34
ATOM     34  O   UNL A   1      36.020  33.388  32.266  1.00  0.00    -0.460 OA
BRANCH  34  35
ATOM     35  C   UNL A   1      36.804  32.579  33.012  1.00  0.00     0.338 C 
ATOM     36  O   UNL A   1      36.501  31.948  34.005  1.00  0.00    -0.246 OA
BRANCH  35  37
ATOM     37  C   UNL A   1      38.087  32.419  32.316  1.00  0.00     0.060 A 
ATOM     38  C   UNL A   1      38.113  32.629  30.932  1.00  0.00     0.016 A 
ATOM     39  C   UNL A   1      39.222  31.989  33.006  1.00  0.00     0.016 A 
ATOM     40  C   UNL A   1      39.268  32.353  30.216  1.00  0.00     0.010 A 
ATOM     41  C   UNL A   1      40.374  31.686  32.285  1.00  0.00     0.010 A 
ATOM     42  C   UNL A   1      40.375  31.818  30.886  1.00  0.00    -0.014 A 
BRANCH  42  43
ATOM     43  C   UNL A   1      41.414  31.138  30.092  1.00  0.00     0.031 A 
ATOM     44  C   UNL A   1      42.689  31.889  29.832  1.00  0.00     0.074 A 
ATOM     45  C   UNL A   1      41.236  29.881  29.659  1.00  0.00     0.049 A 
ATOM     46  N   UNL A   1      43.732  31.534  29.130  1.00  0.00    -0.248 NA
ATOM     47  C   UNL A   1      42.805  33.222  30.451  1.00  0.00     0.031 C 
ATOM     48  C   UNL A   1      40.064  29.049  29.928  1.00  0.00     0.029 A 
ATOM     49  N   UNL A   1      42.050  29.088  28.898  1.00  0.00    -0.354 N 
ATOM     50  C   UNL A   1      44.621  32.599  29.221  1.00  0.00     0.074 A 
ATOM     51  C   UNL A   1      43.991  33.622  30.021  1.00  0.00     0.031 C 
ATOM     52  C   UNL A   1      40.230  27.860  29.324  1.00  0.00     0.029 A 
ATOM     53  C   UNL A   1      41.499  27.867  28.601  1.00  0.00     0.049 A 
ATOM     54  H   UNL A   1      42.943  29.366  28.591  1.00  0.00     0.167 HD
ATOM     55  C   UNL A   1      45.857  32.709  28.682  1.00  0.00     0.031 A 
ATOM     56  C   UNL A   1      41.966  26.884  27.809  1.00  0.00     0.031 A 
ATOM     57  C   UNL A   1      46.456  31.694  27.862  1.00  0.00     0.049 A 
ATOM     58  C   UNL A   1      43.300  27.075  27.135  1.00  0.00     0.074 A 
ATOM     59  C   UNL A   1      47.691  31.698  27.244  1.00  0.00     0.029 A 
ATOM     60  N   UNL A   1      45.846  30.489  27.542  1.00  0.00    -0.354 N 
ATOM     61  N   UNL A   1      44.136  28.083  27.226  1.00  0.00    -0.248 NA
ATOM     62  C   UNL A   1      43.755  25.992  26.254  1.00  0.00     0.031 C 
ATOM     63  C   UNL A   1      47.807  30.518  26.502  1.00  0.00     0.029 A 
ATOM     64  C   UNL A   1      46.670  29.751  26.713  1.00  0.00     0.049 A 
ATOM     65  H   UNL A   1      44.958  30.203  27.857  1.00  0.00     0.167 HD
ATOM     66  C   UNL A   1      45.230  27.741  26.440  1.00  0.00     0.074 A 
ATOM     67  C   UNL A   1      44.955  26.426  25.895  1.00  0.00     0.031 C 
ATOM     68  C   UNL A   1      46.364  28.444  26.192  1.00  0.00     0.031 A 
BRANCH  55  69
ATOM     69  C   UNL A   1      46.607  33.989  28.926  1.00  0.00    -0.014 A 
ATOM     70  C   UNL A   1      46.432  35.109  28.098  1.00  0.00     0.009 A 
ATOM     71  C   UNL A   1      47.496  34.077  30.009  1.00  0.00     0.009 A 
ATOM     72  C   UNL A   1      47.155  36.281  28.333  1.00  0.00     0.001 A 
ATOM     73  C   UNL A   1      48.196  35.258  30.257  1.00  0.00     0.001 A 
ATOM     74  C   UNL A   1      48.032  36.357  29.415  1.00  0.00     0.000 A 
ENDBRANCH  55  69
BRANCH  56  75
ATOM     75  C   UNL A   1      41.162  25.655  27.582  1.00  0.00    -0.014 A 
ATOM     76  C   UNL A   1      40.010  25.687  26.782  1.00  0.00     0.009 A 
ATOM     77  C   UNL A   1      41.532  24.442  28.185  1.00  0.00     0.009 A 
ATOM     78  C   UNL A   1      39.229  24.540  26.616  1.00  0.00     0.001 A 
ATOM     79  C   UNL A   1      40.768  23.289  27.993  1.00  0.00     0.001 A 
ATOM     80  C   UNL A   1      39.612  23.341  27.218  1.00  0.00     0.000 A 
ENDBRANCH  56  75
BRANCH  68  81
ATOM     81  C   UNL A   1      47.402  27.783  25.331  1.00  0.00    -0.014 A 
ATOM     82  C   UNL A   1      48.479  27.083  25.892  1.00  0.00     0.009 A 
ATOM     83  C   UNL A   1      47.267  27.825  23.934  1.00  0.00     0.009 A 
ATOM     84  C   UNL A   1      49.422  26.465  25.068  1.00  0.00     0.001 A 
ATOM     85  C   UNL A   1      48.191  27.180  23.114  1.00  0.00     0.001 A 
ATOM     86  C   UNL A   1      49.274  26.510  23.682  1.00  0.00     0.000 A 
ENDBRANCH  68  81
ENDBRANCH  42  43
ENDBRANCH  35  37
ENDBRANCH  34  35
ENDBRANCH  33  34
ENDBRANCH  32  33
ENDBRANCH  31  32
ENDBRANCH  30  31
ENDBRANCH  29  30
ENDBRANCH  28  29
ENDBRANCH  27  28
ENDBRANCH   1  27
TORSDOF 26
ENDMDL
