MODEL 1
REMARK VINA RESULT:      -9.9      0.000      0.000
REMARK SMILES O=C(OCCOCCOCCOCCOC(=O)c1ccc2c(=O)n(Cc3cccnc3)c(=O)[nH]c2c1)c1ccc(-c2c3nc(c(-c4ccccc4)c4ccc([nH]4)c(-c4ccccc4)c4nc(c(-c5ccccc5)c5ccc2[nH]5)C=C4)C=C3)cc1
REMARK SMILES IDX 9 1 8 2 7 3 6 4 5 5 4 6 3 7 2 8 1 9 37 10 38 11 84 12 39 13
REMARK SMILES IDX 83 14 40 15 41 16 42 17 77 18 43 19 82 20 76 21 78 22 44 23
REMARK SMILES IDX 81 24 75 25 74 26 45 28 67 29 52 30 66 31 53 32 56 33 65 34
REMARK SMILES IDX 79 35 54 36 55 37 64 39 80 40 57 41 46 42 47 43 51 44 48 45
REMARK SMILES IDX 50 46 49 47 68 48 69 49 73 50 70 51 72 52 71 53 58 54 59 55
REMARK SMILES IDX 63 56 60 57 62 58 61 59 10 60 11 61 12 62 13 63 14 64 15 65
REMARK SMILES IDX 16 66 17 67 18 68 19 69 36 70 20 71 35 72 21 73 34 74 22 75
REMARK SMILES IDX 32 76 23 78 24 79 33 80 25 81 26 82 27 83 31 84 28 85 30 86
REMARK SMILES IDX 29 87
REMARK H PARENT 78 27 56 38 34 77
REMARK Flexibility Score: inf
ROOT
ATOM      1  O   UNL A   1      33.970  25.140  24.529  1.00  0.00    -0.377 OA
ENDROOT
BRANCH   1   2
ATOM      2  C   UNL A   1      33.601  26.302  23.792  1.00  0.00     0.188 C 
BRANCH   2   3
ATOM      3  C   UNL A   1      32.509  26.122  22.734  1.00  0.00     0.188 C 
BRANCH   3   4
ATOM      4  O   UNL A   1      32.005  27.370  22.258  1.00  0.00    -0.376 OA
BRANCH   4   5
ATOM      5  C   UNL A   1      30.616  27.607  22.443  1.00  0.00     0.202 C 
BRANCH   5   6
ATOM      6  C   UNL A   1      30.248  28.821  23.282  1.00  0.00     0.261 C 
BRANCH   6   7
ATOM      7  O   UNL A   1      31.184  29.203  24.300  1.00  0.00    -0.460 OA
BRANCH   7   8
ATOM      8  C   UNL A   1      31.608  28.622  25.441  1.00  0.00     0.338 C 
ATOM      9  O   UNL A   1      30.953  27.659  25.847  1.00  0.00    -0.246 OA
BRANCH   8  10
ATOM     10  C   UNL A   1      32.762  29.060  26.292  1.00  0.00     0.060 A 
ATOM     11  C   UNL A   1      33.012  30.448  26.325  1.00  0.00     0.016 A 
ATOM     12  C   UNL A   1      33.634  28.234  27.000  1.00  0.00     0.016 A 
ATOM     13  C   UNL A   1      34.098  30.984  27.022  1.00  0.00     0.010 A 
ATOM     14  C   UNL A   1      34.759  28.748  27.642  1.00  0.00     0.010 A 
ATOM     15  C   UNL A   1      34.976  30.126  27.686  1.00  0.00    -0.014 A 
BRANCH  15  16
ATOM     16  C   UNL A   1      35.941  30.621  28.681  1.00  0.00     0.031 A 
ATOM     17  C   UNL A   1      35.623  31.757  29.594  1.00  0.00     0.074 A 
ATOM     18  C   UNL A   1      37.190  30.134  28.562  1.00  0.00     0.049 A 
ATOM     19  N   UNL A   1      36.393  32.320  30.486  1.00  0.00    -0.248 NA
ATOM     20  C   UNL A   1      34.289  32.364  29.474  1.00  0.00     0.031 C 
ATOM     21  C   UNL A   1      37.586  29.107  27.592  1.00  0.00     0.029 A 
ATOM     22  N   UNL A   1      38.354  30.458  29.200  1.00  0.00    -0.354 N 
ATOM     23  C   UNL A   1      35.640  33.343  31.044  1.00  0.00     0.074 A 
ATOM     24  C   UNL A   1      34.365  33.352  30.359  1.00  0.00     0.031 C 
ATOM     25  C   UNL A   1      38.904  28.900  27.686  1.00  0.00     0.029 A 
ATOM     26  C   UNL A   1      39.443  29.776  28.717  1.00  0.00     0.049 A 
ATOM     27  H   UNL A   1      38.406  31.115  29.931  1.00  0.00     0.167 HD
ATOM     28  C   UNL A   1      36.002  34.182  32.043  1.00  0.00     0.031 A 
ATOM     29  C   UNL A   1      40.738  29.839  29.071  1.00  0.00     0.031 A 
ATOM     30  C   UNL A   1      37.307  34.147  32.659  1.00  0.00     0.049 A 
ATOM     31  C   UNL A   1      41.109  30.742  30.204  1.00  0.00     0.074 A 
ATOM     32  C   UNL A   1      37.752  34.845  33.766  1.00  0.00     0.029 A 
ATOM     33  N   UNL A   1      38.380  33.397  32.197  1.00  0.00    -0.354 N 
ATOM     34  N   UNL A   1      40.337  31.571  30.866  1.00  0.00    -0.248 NA
ATOM     35  C   UNL A   1      42.499  30.705  30.666  1.00  0.00     0.031 C 
ATOM     36  C   UNL A   1      39.117  34.590  33.914  1.00  0.00     0.029 A 
ATOM     37  C   UNL A   1      39.505  33.662  32.957  1.00  0.00     0.049 A 
ATOM     38  H   UNL A   1      38.346  32.769  31.439  1.00  0.00     0.167 HD
ATOM     39  C   UNL A   1      41.140  32.149  31.834  1.00  0.00     0.074 A 
ATOM     40  C   UNL A   1      42.458  31.559  31.682  1.00  0.00     0.031 C 
ATOM     41  C   UNL A   1      40.814  33.080  32.764  1.00  0.00     0.031 A 
BRANCH  28  42
ATOM     42  C   UNL A   1      35.003  35.192  32.548  1.00  0.00    -0.014 A 
ATOM     43  C   UNL A   1      34.467  36.150  31.670  1.00  0.00     0.009 A 
ATOM     44  C   UNL A   1      34.686  35.287  33.913  1.00  0.00     0.009 A 
ATOM     45  C   UNL A   1      33.657  37.185  32.146  1.00  0.00     0.001 A 
ATOM     46  C   UNL A   1      33.849  36.303  34.383  1.00  0.00     0.001 A 
ATOM     47  C   UNL A   1      33.346  37.259  33.501  1.00  0.00     0.000 A 
ENDBRANCH  28  42
BRANCH  29  48
ATOM     48  C   UNL A   1      41.688  28.919  28.396  1.00  0.00    -0.014 A 
ATOM     49  C   UNL A   1      42.045  29.117  27.050  1.00  0.00     0.009 A 
ATOM     50  C   UNL A   1      42.059  27.722  29.026  1.00  0.00     0.009 A 
ATOM     51  C   UNL A   1      42.702  28.112  26.335  1.00  0.00     0.001 A 
ATOM     52  C   UNL A   1      42.740  26.730  28.315  1.00  0.00     0.001 A 
ATOM     53  C   UNL A   1      43.044  26.918  26.967  1.00  0.00     0.000 A 
ENDBRANCH  29  48
BRANCH  41  54
ATOM     54  C   UNL A   1      41.905  33.563  33.677  1.00  0.00    -0.014 A 
ATOM     55  C   UNL A   1      42.563  34.772  33.401  1.00  0.00     0.009 A 
ATOM     56  C   UNL A   1      42.380  32.747  34.713  1.00  0.00     0.009 A 
ATOM     57  C   UNL A   1      43.703  35.135  34.119  1.00  0.00     0.001 A 
ATOM     58  C   UNL A   1      43.499  33.129  35.453  1.00  0.00     0.001 A 
ATOM     59  C   UNL A   1      44.168  34.313  35.144  1.00  0.00     0.000 A 
ENDBRANCH  41  54
ENDBRANCH  15  16
ENDBRANCH   8  10
ENDBRANCH   7   8
ENDBRANCH   6   7
ENDBRANCH   5   6
ENDBRANCH   4   5
ENDBRANCH   3   4
ENDBRANCH   2   3
ENDBRANCH   1   2
BRANCH   1  60
ATOM     60  C   UNL A   1      33.660  25.128  25.915  1.00  0.00     0.188 C 
BRANCH  60  61
ATOM     61  C   UNL A   1      32.660  24.076  26.451  1.00  0.00     0.188 C 
BRANCH  61  62
ATOM     62  O   UNL A   1      31.886  23.454  25.444  1.00  0.00    -0.376 OA
BRANCH  62  63
ATOM     63  C   UNL A   1      31.618  22.068  25.602  1.00  0.00     0.202 C 
BRANCH  63  64
ATOM     64  C   UNL A   1      32.521  21.026  24.910  1.00  0.00     0.261 C 
BRANCH  64  65
ATOM     65  O   UNL A   1      33.941  21.131  25.113  1.00  0.00    -0.460 OA
BRANCH  65  66
ATOM     66  C   UNL A   1      34.669  21.816  24.211  1.00  0.00     0.338 C 
ATOM     67  O   UNL A   1      34.256  22.398  23.216  1.00  0.00    -0.246 OA
BRANCH  66  68
ATOM     68  C   UNL A   1      36.054  21.925  24.717  1.00  0.00     0.062 A 
ATOM     69  C   UNL A   1      36.599  23.190  24.963  1.00  0.00     0.016 A 
ATOM     70  C   UNL A   1      36.823  20.757  24.917  1.00  0.00     0.042 A 
ATOM     71  C   UNL A   1      37.852  23.277  25.564  1.00  0.00     0.017 A 
ATOM     72  C   UNL A   1      38.122  20.869  25.398  1.00  0.00     0.056 A 
ATOM     73  C   UNL A   1      38.569  22.106  25.824  1.00  0.00     0.064 A 
ATOM     74  N   UNL A   1      39.004  19.786  25.442  1.00  0.00    -0.307 N 
ATOM     75  C   UNL A   1      39.751  22.112  26.682  1.00  0.00     0.264 A 
ATOM     76  C   UNL A   1      40.300  19.880  25.902  1.00  0.00     0.329 A 
ATOM     77  H   UNL A   1      38.683  18.911  25.127  1.00  0.00     0.171 HD
ATOM     78  O   UNL A   1      39.811  22.974  27.554  1.00  0.00    -0.268 OA
ATOM     79  N   UNL A   1      40.655  21.076  26.510  1.00  0.00    -0.255 N 
ATOM     80  O   UNL A   1      41.043  18.906  25.799  1.00  0.00    -0.248 OA
BRANCH  79  81
ATOM     81  C   UNL A   1      41.933  21.171  27.215  1.00  0.00     0.168 C 
BRANCH  81  82
ATOM     82  C   UNL A   1      42.991  21.938  26.452  1.00  0.00    -0.010 A 
ATOM     83  C   UNL A   1      43.705  23.003  27.018  1.00  0.00     0.009 A 
ATOM     84  C   UNL A   1      43.327  21.595  25.148  1.00  0.00     0.116 A 
ATOM     85  C   UNL A   1      44.650  23.700  26.277  1.00  0.00     0.020 A 
ATOM     86  N   UNL A   1      44.262  22.238  24.406  1.00  0.00    -0.264 NA
ATOM     87  C   UNL A   1      44.893  23.283  24.985  1.00  0.00     0.111 A 
ENDBRANCH  81  82
ENDBRANCH  79  81
ENDBRANCH  66  68
ENDBRANCH  65  66
ENDBRANCH  64  65
ENDBRANCH  63  64
ENDBRANCH  62  63
ENDBRANCH  61  62
ENDBRANCH  60  61
ENDBRANCH   1  60
TORSDOF 22
ENDMDL
MODEL 2
REMARK VINA RESULT:      -9.8      3.509      9.791
REMARK SMILES O=C(OCCOCCOCCOCCOC(=O)c1ccc2c(=O)n(Cc3cccnc3)c(=O)[nH]c2c1)c1ccc(-c2c3nc(c(-c4ccccc4)c4ccc([nH]4)c(-c4ccccc4)c4nc(c(-c5ccccc5)c5ccc2[nH]5)C=C4)C=C3)cc1
REMARK SMILES IDX 9 1 8 2 7 3 6 4 5 5 4 6 3 7 2 8 1 9 37 10 38 11 84 12 39 13
REMARK SMILES IDX 83 14 40 15 41 16 42 17 77 18 43 19 82 20 76 21 78 22 44 23
REMARK SMILES IDX 81 24 75 25 74 26 45 28 67 29 52 30 66 31 53 32 56 33 65 34
REMARK SMILES IDX 79 35 54 36 55 37 64 39 80 40 57 41 46 42 47 43 51 44 48 45
REMARK SMILES IDX 50 46 49 47 68 48 69 49 73 50 70 51 72 52 71 53 58 54 59 55
REMARK SMILES IDX 63 56 60 57 62 58 61 59 10 60 11 61 12 62 13 63 14 64 15 65
REMARK SMILES IDX 16 66 17 67 18 68 19 69 36 70 20 71 35 72 21 73 34 74 22 75
REMARK SMILES IDX 32 76 23 78 24 79 33 80 25 81 26 82 27 83 31 84 28 85 30 86
REMARK SMILES IDX 29 87
REMARK H PARENT 78 27 56 38 34 77
REMARK Flexibility Score: inf
ROOT
ATOM      1  O   UNL A   1      39.781  22.532  26.244  1.00  0.00    -0.377 OA
ENDROOT
BRANCH   1   2
ATOM      2  C   UNL A   1      40.580  21.421  25.848  1.00  0.00     0.188 C 
BRANCH   2   3
ATOM      3  C   UNL A   1      41.167  20.566  26.974  1.00  0.00     0.188 C 
BRANCH   3   4
ATOM      4  O   UNL A   1      41.574  21.352  28.095  1.00  0.00    -0.376 OA
BRANCH   4   5
ATOM      5  C   UNL A   1      42.888  21.890  28.050  1.00  0.00     0.202 C 
BRANCH   5   6
ATOM      6  C   UNL A   1      43.399  22.300  26.677  1.00  0.00     0.261 C 
BRANCH   6   7
ATOM      7  O   UNL A   1      43.759  23.680  26.514  1.00  0.00    -0.460 OA
BRANCH   7   8
ATOM      8  C   UNL A   1      43.051  24.809  26.309  1.00  0.00     0.338 C 
ATOM      9  O   UNL A   1      42.643  25.006  25.162  1.00  0.00    -0.246 OA
BRANCH   8  10
ATOM     10  C   UNL A   1      42.757  25.876  27.322  1.00  0.00     0.060 A 
ATOM     11  C   UNL A   1      41.673  25.621  28.188  1.00  0.00     0.016 A 
ATOM     12  C   UNL A   1      43.407  27.101  27.452  1.00  0.00     0.016 A 
ATOM     13  C   UNL A   1      41.248  26.560  29.132  1.00  0.00     0.010 A 
ATOM     14  C   UNL A   1      42.952  28.074  28.339  1.00  0.00     0.010 A 
ATOM     15  C   UNL A   1      41.894  27.795  29.206  1.00  0.00    -0.014 A 
BRANCH  15  16
ATOM     16  C   UNL A   1      41.715  28.696  30.357  1.00  0.00     0.031 A 
ATOM     17  C   UNL A   1      42.496  28.533  31.617  1.00  0.00     0.074 A 
ATOM     18  C   UNL A   1      40.659  29.526  30.278  1.00  0.00     0.049 A 
ATOM     19  N   UNL A   1      42.409  29.228  32.719  1.00  0.00    -0.248 NA
ATOM     20  C   UNL A   1      43.474  27.436  31.667  1.00  0.00     0.031 C 
ATOM     21  C   UNL A   1      39.778  29.632  29.109  1.00  0.00     0.029 A 
ATOM     22  N   UNL A   1      40.109  30.382  31.189  1.00  0.00    -0.354 N 
ATOM     23  C   UNL A   1      43.324  28.663  33.596  1.00  0.00     0.074 A 
ATOM     24  C   UNL A   1      43.927  27.538  32.912  1.00  0.00     0.031 C 
ATOM     25  C   UNL A   1      38.789  30.489  29.381  1.00  0.00     0.029 A 
ATOM     26  C   UNL A   1      38.964  30.990  30.738  1.00  0.00     0.049 A 
ATOM     27  H   UNL A   1      40.495  30.546  32.080  1.00  0.00     0.167 HD
ATOM     28  C   UNL A   1      43.622  29.070  34.853  1.00  0.00     0.031 A 
ATOM     29  C   UNL A   1      38.144  31.866  31.345  1.00  0.00     0.031 A 
ATOM     30  C   UNL A   1      42.955  30.177  35.494  1.00  0.00     0.049 A 
ATOM     31  C   UNL A   1      38.514  32.332  32.717  1.00  0.00     0.074 A 
ATOM     32  C   UNL A   1      43.253  30.775  36.704  1.00  0.00     0.029 A 
ATOM     33  N   UNL A   1      41.836  30.827  34.989  1.00  0.00    -0.354 N 
ATOM     34  N   UNL A   1      39.512  31.930  33.469  1.00  0.00    -0.248 NA
ATOM     35  C   UNL A   1      37.686  33.382  33.315  1.00  0.00     0.031 C 
ATOM     36  C   UNL A   1      42.260  31.719  36.974  1.00  0.00     0.029 A 
ATOM     37  C   UNL A   1      41.393  31.777  35.892  1.00  0.00     0.049 A 
ATOM     38  H   UNL A   1      41.419  30.639  34.117  1.00  0.00     0.167 HD
ATOM     39  C   UNL A   1      39.444  32.685  34.627  1.00  0.00     0.074 A 
ATOM     40  C   UNL A   1      38.314  33.583  34.468  1.00  0.00     0.031 C 
ATOM     41  C   UNL A   1      40.245  32.639  35.719  1.00  0.00     0.031 A 
BRANCH  28  42
ATOM     42  C   UNL A   1      44.701  28.348  35.619  1.00  0.00    -0.014 A 
ATOM     43  C   UNL A   1      46.051  28.683  35.416  1.00  0.00     0.009 A 
ATOM     44  C   UNL A   1      44.402  27.252  36.445  1.00  0.00     0.009 A 
ATOM     45  C   UNL A   1      47.072  27.929  36.002  1.00  0.00     0.001 A 
ATOM     46  C   UNL A   1      45.423  26.519  37.057  1.00  0.00     0.001 A 
ATOM     47  C   UNL A   1      46.758  26.850  36.824  1.00  0.00     0.000 A 
ENDBRANCH  28  42
BRANCH  29  48
ATOM     48  C   UNL A   1      36.999  32.400  30.565  1.00  0.00    -0.014 A 
ATOM     49  C   UNL A   1      37.172  33.484  29.687  1.00  0.00     0.009 A 
ATOM     50  C   UNL A   1      35.697  31.974  30.867  1.00  0.00     0.009 A 
ATOM     51  C   UNL A   1      36.065  34.165  29.172  1.00  0.00     0.001 A 
ATOM     52  C   UNL A   1      34.593  32.641  30.331  1.00  0.00     0.001 A 
ATOM     53  C   UNL A   1      34.777  33.746  29.500  1.00  0.00     0.000 A 
ENDBRANCH  29  48
BRANCH  41  54
ATOM     54  C   UNL A   1      39.917  33.557  36.862  1.00  0.00    -0.014 A 
ATOM     55  C   UNL A   1      39.008  33.146  37.850  1.00  0.00     0.009 A 
ATOM     56  C   UNL A   1      40.388  34.878  36.872  1.00  0.00     0.009 A 
ATOM     57  C   UNL A   1      38.543  34.053  38.802  1.00  0.00     0.001 A 
ATOM     58  C   UNL A   1      39.948  35.773  37.848  1.00  0.00     0.001 A 
ATOM     59  C   UNL A   1      39.014  35.364  38.800  1.00  0.00     0.000 A 
ENDBRANCH  41  54
ENDBRANCH  15  16
ENDBRANCH   8  10
ENDBRANCH   7   8
ENDBRANCH   6   7
ENDBRANCH   5   6
ENDBRANCH   4   5
ENDBRANCH   3   4
ENDBRANCH   2   3
ENDBRANCH   1   2
BRANCH   1  60
ATOM     60  C   UNL A   1      38.371  22.364  26.194  1.00  0.00     0.188 C 
BRANCH  60  61
ATOM     61  C   UNL A   1      37.739  21.690  24.952  1.00  0.00     0.188 C 
BRANCH  61  62
ATOM     62  O   UNL A   1      36.385  22.036  24.739  1.00  0.00    -0.376 OA
BRANCH  62  63
ATOM     63  C   UNL A   1      35.421  21.012  24.935  1.00  0.00     0.202 C 
BRANCH  63  64
ATOM     64  C   UNL A   1      34.300  21.201  25.978  1.00  0.00     0.261 C 
BRANCH  64  65
ATOM     65  O   UNL A   1      34.309  22.409  26.758  1.00  0.00    -0.460 OA
BRANCH  65  66
ATOM     66  C   UNL A   1      33.133  22.894  27.200  1.00  0.00     0.338 C 
ATOM     67  O   UNL A   1      32.554  22.599  28.237  1.00  0.00    -0.246 OA
BRANCH  66  68
ATOM     68  C   UNL A   1      32.728  24.008  26.315  1.00  0.00     0.062 A 
ATOM     69  C   UNL A   1      33.676  24.964  25.934  1.00  0.00     0.016 A 
ATOM     70  C   UNL A   1      31.385  24.116  25.891  1.00  0.00     0.042 A 
ATOM     71  C   UNL A   1      33.319  25.930  24.998  1.00  0.00     0.017 A 
ATOM     72  C   UNL A   1      31.015  25.163  25.056  1.00  0.00     0.056 A 
ATOM     73  C   UNL A   1      32.002  25.975  24.530  1.00  0.00     0.064 A 
ATOM     74  N   UNL A   1      29.681  25.445  24.749  1.00  0.00    -0.307 N 
ATOM     75  C   UNL A   1      31.635  26.778  23.367  1.00  0.00     0.264 A 
ATOM     76  C   UNL A   1      29.293  26.487  23.934  1.00  0.00     0.329 A 
ATOM     77  H   UNL A   1      28.982  24.869  25.134  1.00  0.00     0.171 HD
ATOM     78  O   UNL A   1      32.504  26.979  22.523  1.00  0.00    -0.268 OA
ATOM     79  N   UNL A   1      30.306  27.155  23.261  1.00  0.00    -0.255 N 
ATOM     80  O   UNL A   1      28.096  26.733  23.809  1.00  0.00    -0.248 OA
BRANCH  79  81
ATOM     81  C   UNL A   1      29.959  28.120  22.217  1.00  0.00     0.168 C 
BRANCH  81  82
ATOM     82  C   UNL A   1      29.284  29.367  22.744  1.00  0.00    -0.010 A 
ATOM     83  C   UNL A   1      29.877  30.195  23.707  1.00  0.00     0.009 A 
ATOM     84  C   UNL A   1      28.043  29.769  22.266  1.00  0.00     0.116 A 
ATOM     85  C   UNL A   1      29.215  31.317  24.187  1.00  0.00     0.020 A 
ATOM     86  N   UNL A   1      27.381  30.872  22.694  1.00  0.00    -0.264 NA
ATOM     87  C   UNL A   1      27.979  31.614  23.652  1.00  0.00     0.111 A 
ENDBRANCH  81  82
ENDBRANCH  79  81
ENDBRANCH  66  68
ENDBRANCH  65  66
ENDBRANCH  64  65
ENDBRANCH  63  64
ENDBRANCH  62  63
ENDBRANCH  61  62
ENDBRANCH  60  61
ENDBRANCH   1  60
TORSDOF 22
ENDMDL
MODEL 3
REMARK VINA RESULT:      -9.7      3.047      8.830
REMARK SMILES O=C(OCCOCCOCCOCCOC(=O)c1ccc2c(=O)n(Cc3cccnc3)c(=O)[nH]c2c1)c1ccc(-c2c3nc(c(-c4ccccc4)c4ccc([nH]4)c(-c4ccccc4)c4nc(c(-c5ccccc5)c5ccc2[nH]5)C=C4)C=C3)cc1
REMARK SMILES IDX 9 1 8 2 7 3 6 4 5 5 4 6 3 7 2 8 1 9 37 10 38 11 84 12 39 13
REMARK SMILES IDX 83 14 40 15 41 16 42 17 77 18 43 19 82 20 76 21 78 22 44 23
REMARK SMILES IDX 81 24 75 25 74 26 45 28 67 29 52 30 66 31 53 32 56 33 65 34
REMARK SMILES IDX 79 35 54 36 55 37 64 39 80 40 57 41 46 42 47 43 51 44 48 45
REMARK SMILES IDX 50 46 49 47 68 48 69 49 73 50 70 51 72 52 71 53 58 54 59 55
REMARK SMILES IDX 63 56 60 57 62 58 61 59 10 60 11 61 12 62 13 63 14 64 15 65
REMARK SMILES IDX 16 66 17 67 18 68 19 69 36 70 20 71 35 72 21 73 34 74 22 75
REMARK SMILES IDX 32 76 23 78 24 79 33 80 25 81 26 82 27 83 31 84 28 85 30 86
REMARK SMILES IDX 29 87
REMARK H PARENT 78 27 56 38 34 77
REMARK Flexibility Score: inf
ROOT
ATOM      1  O   UNL A   1      44.426  23.634  29.073  1.00  0.00    -0.377 OA
ENDROOT
BRANCH   1   2
ATOM      2  C   UNL A   1      45.108  24.855  28.802  1.00  0.00     0.188 C 
BRANCH   2   3
ATOM      3  C   UNL A   1      44.446  25.797  27.792  1.00  0.00     0.188 C 
BRANCH   3   4
ATOM      4  O   UNL A   1      45.170  25.868  26.563  1.00  0.00    -0.376 OA
BRANCH   4   5
ATOM      5  C   UNL A   1      44.411  26.132  25.392  1.00  0.00     0.202 C 
BRANCH   5   6
ATOM      6  C   UNL A   1      43.313  25.130  25.065  1.00  0.00     0.261 C 
BRANCH   6   7
ATOM      7  O   UNL A   1      41.975  25.646  25.000  1.00  0.00    -0.460 OA
BRANCH   7   8
ATOM      8  C   UNL A   1      40.976  25.759  25.898  1.00  0.00     0.338 C 
ATOM      9  O   UNL A   1      40.062  24.935  25.815  1.00  0.00    -0.246 OA
BRANCH   8  10
ATOM     10  C   UNL A   1      40.836  26.817  26.951  1.00  0.00     0.060 A 
ATOM     11  C   UNL A   1      39.879  26.564  27.957  1.00  0.00     0.016 A 
ATOM     12  C   UNL A   1      41.512  28.035  27.002  1.00  0.00     0.016 A 
ATOM     13  C   UNL A   1      39.599  27.497  28.959  1.00  0.00     0.010 A 
ATOM     14  C   UNL A   1      41.194  29.002  27.953  1.00  0.00     0.010 A 
ATOM     15  C   UNL A   1      40.263  28.724  28.955  1.00  0.00    -0.014 A 
BRANCH  15  16
ATOM     16  C   UNL A   1      40.255  29.615  30.127  1.00  0.00     0.031 A 
ATOM     17  C   UNL A   1      41.076  29.332  31.340  1.00  0.00     0.074 A 
ATOM     18  C   UNL A   1      39.304  30.566  30.120  1.00  0.00     0.049 A 
ATOM     19  N   UNL A   1      41.131  30.007  32.457  1.00  0.00    -0.248 NA
ATOM     20  C   UNL A   1      41.916  28.125  31.319  1.00  0.00     0.031 C 
ATOM     21  C   UNL A   1      38.382  30.803  29.003  1.00  0.00     0.029 A 
ATOM     22  N   UNL A   1      38.910  31.461  31.074  1.00  0.00    -0.354 N 
ATOM     23  C   UNL A   1      42.017  29.318  33.272  1.00  0.00     0.074 A 
ATOM     24  C   UNL A   1      42.443  28.145  32.538  1.00  0.00     0.031 C 
ATOM     25  C   UNL A   1      37.519  31.766  29.343  1.00  0.00     0.029 A 
ATOM     26  C   UNL A   1      37.824  32.212  30.695  1.00  0.00     0.049 A 
ATOM     27  H   UNL A   1      39.359  31.558  31.944  1.00  0.00     0.167 HD
ATOM     28  C   UNL A   1      42.427  29.658  34.517  1.00  0.00     0.031 A 
ATOM     29  C   UNL A   1      37.149  33.165  31.360  1.00  0.00     0.031 A 
ATOM     30  C   UNL A   1      41.933  30.823  35.211  1.00  0.00     0.049 A 
ATOM     31  C   UNL A   1      37.644  33.553  32.717  1.00  0.00     0.074 A 
ATOM     32  C   UNL A   1      42.365  31.353  36.413  1.00  0.00     0.029 A 
ATOM     33  N   UNL A   1      40.875  31.612  34.779  1.00  0.00    -0.354 N 
ATOM     34  N   UNL A   1      38.624  33.019  33.406  1.00  0.00    -0.248 NA
ATOM     35  C   UNL A   1      36.981  34.681  33.376  1.00  0.00     0.031 C 
ATOM     36  C   UNL A   1      41.508  32.403  36.751  1.00  0.00     0.029 A 
ATOM     37  C   UNL A   1      40.599  32.588  35.720  1.00  0.00     0.049 A 
ATOM     38  H   UNL A   1      40.393  31.495  33.929  1.00  0.00     0.167 HD
ATOM     39  C   UNL A   1      38.709  33.751  34.579  1.00  0.00     0.074 A 
ATOM     40  C   UNL A   1      37.688  34.780  34.496  1.00  0.00     0.031 C 
ATOM     41  C   UNL A   1      39.555  33.584  35.624  1.00  0.00     0.031 A 
BRANCH  28  42
ATOM     42  C   UNL A   1      43.451  28.796  35.212  1.00  0.00    -0.014 A 
ATOM     43  C   UNL A   1      43.037  27.809  36.123  1.00  0.00     0.009 A 
ATOM     44  C   UNL A   1      44.827  29.038  35.070  1.00  0.00     0.009 A 
ATOM     45  C   UNL A   1      43.970  27.102  36.887  1.00  0.00     0.001 A 
ATOM     46  C   UNL A   1      45.761  28.307  35.810  1.00  0.00     0.001 A 
ATOM     47  C   UNL A   1      45.331  27.349  36.727  1.00  0.00     0.000 A 
ENDBRANCH  28  42
BRANCH  29  48
ATOM     48  C   UNL A   1      36.037  33.849  30.653  1.00  0.00    -0.014 A 
ATOM     49  C   UNL A   1      34.820  34.107  31.309  1.00  0.00     0.009 A 
ATOM     50  C   UNL A   1      36.112  34.040  29.266  1.00  0.00     0.009 A 
ATOM     51  C   UNL A   1      33.688  34.486  30.582  1.00  0.00     0.001 A 
ATOM     52  C   UNL A   1      34.985  34.444  28.546  1.00  0.00     0.001 A 
ATOM     53  C   UNL A   1      33.770  34.648  29.201  1.00  0.00     0.000 A 
ENDBRANCH  29  48
BRANCH  41  54
ATOM     54  C   UNL A   1      39.401  34.510  36.798  1.00  0.00    -0.014 A 
ATOM     55  C   UNL A   1      40.115  35.718  36.833  1.00  0.00     0.009 A 
ATOM     56  C   UNL A   1      38.672  34.112  37.927  1.00  0.00     0.009 A 
ATOM     57  C   UNL A   1      40.137  36.490  37.995  1.00  0.00     0.001 A 
ATOM     58  C   UNL A   1      38.667  34.904  39.075  1.00  0.00     0.001 A 
ATOM     59  C   UNL A   1      39.412  36.083  39.113  1.00  0.00     0.000 A 
ENDBRANCH  41  54
ENDBRANCH  15  16
ENDBRANCH   8  10
ENDBRANCH   7   8
ENDBRANCH   6   7
ENDBRANCH   5   6
ENDBRANCH   4   5
ENDBRANCH   3   4
ENDBRANCH   2   3
ENDBRANCH   1   2
BRANCH   1  60
ATOM     60  C   UNL A   1      44.030  22.853  27.955  1.00  0.00     0.188 C 
BRANCH  60  61
ATOM     61  C   UNL A   1      42.652  22.150  27.981  1.00  0.00     0.188 C 
BRANCH  61  62
ATOM     62  O   UNL A   1      42.389  21.359  26.839  1.00  0.00    -0.376 OA
BRANCH  62  63
ATOM     63  C   UNL A   1      41.261  21.718  26.053  1.00  0.00     0.202 C 
BRANCH  63  64
ATOM     64  C   UNL A   1      39.957  20.901  26.162  1.00  0.00     0.261 C 
BRANCH  64  65
ATOM     65  O   UNL A   1      38.729  21.547  25.783  1.00  0.00    -0.460 OA
BRANCH  65  66
ATOM     66  C   UNL A   1      37.835  20.848  25.058  1.00  0.00     0.338 C 
ATOM     67  O   UNL A   1      37.961  19.710  24.626  1.00  0.00    -0.246 OA
BRANCH  66  68
ATOM     68  C   UNL A   1      36.569  21.611  25.023  1.00  0.00     0.062 A 
ATOM     69  C   UNL A   1      35.568  21.326  25.958  1.00  0.00     0.016 A 
ATOM     70  C   UNL A   1      36.368  22.594  24.029  1.00  0.00     0.042 A 
ATOM     71  C   UNL A   1      34.437  22.136  26.001  1.00  0.00     0.017 A 
ATOM     72  C   UNL A   1      35.176  23.309  24.007  1.00  0.00     0.056 A 
ATOM     73  C   UNL A   1      34.289  23.155  25.056  1.00  0.00     0.064 A 
ATOM     74  N   UNL A   1      34.827  24.156  22.952  1.00  0.00    -0.307 N 
ATOM     75  C   UNL A   1      33.274  24.194  25.209  1.00  0.00     0.264 A 
ATOM     76  C   UNL A   1      33.644  24.863  22.905  1.00  0.00     0.329 A 
ATOM     77  H   UNL A   1      35.458  24.254  22.204  1.00  0.00     0.171 HD
ATOM     78  O   UNL A   1      32.925  24.478  26.351  1.00  0.00    -0.268 OA
ATOM     79  N   UNL A   1      32.870  24.849  24.057  1.00  0.00    -0.255 N 
ATOM     80  O   UNL A   1      33.366  25.495  21.889  1.00  0.00    -0.248 OA
BRANCH  79  81
ATOM     81  C   UNL A   1      31.720  25.748  24.159  1.00  0.00     0.168 C 
BRANCH  81  82
ATOM     82  C   UNL A   1      32.086  27.154  24.585  1.00  0.00    -0.010 A 
ATOM     83  C   UNL A   1      33.387  27.513  24.961  1.00  0.00     0.009 A 
ATOM     84  C   UNL A   1      31.140  28.171  24.591  1.00  0.00     0.116 A 
ATOM     85  C   UNL A   1      33.678  28.806  25.371  1.00  0.00     0.020 A 
ATOM     86  N   UNL A   1      31.397  29.450  24.960  1.00  0.00    -0.264 NA
ATOM     87  C   UNL A   1      32.658  29.734  25.353  1.00  0.00     0.111 A 
ENDBRANCH  81  82
ENDBRANCH  79  81
ENDBRANCH  66  68
ENDBRANCH  65  66
ENDBRANCH  64  65
ENDBRANCH  63  64
ENDBRANCH  62  63
ENDBRANCH  61  62
ENDBRANCH  60  61
ENDBRANCH   1  60
TORSDOF 22
ENDMDL
