MODEL 1
REMARK VINA RESULT:      -8.3      0.000      0.000
REMARK SMILES Cc1cc(C)n(C)c(=O)c1C(=O)[NH+]1CCC2(CC1)C[NH2+][C@@H](C(=O)OCCOCCOCCOCCOC(=O)c1ccc(-c3c4nc(c(-c5ccccc5)c5ccc([nH]5)c(-c5ccccc5)c5nc(c(-c6ccccc6)c6ccc3[nH]6)C=C5)C=C4)cc1)C2
REMARK SMILES IDX 30 1 29 2 28 3 27 4 26 5 25 6 24 7 22 8 23 9 21 10 13 11
REMARK SMILES IDX 14 12 18 13 15 15 17 16 16 17 19 18 87 19 20 20 11 23 12 24
REMARK SMILES IDX 10 25 1 26 2 27 3 28 4 29 8 30 5 31 6 32 9 33 7 34 31 35
REMARK SMILES IDX 32 36 33 37 34 38 35 39 36 40 37 41 38 42 39 43 40 44 86 45
REMARK SMILES IDX 41 46 85 47 42 48 43 49 44 50 79 51 45 52 84 53 78 54 80 55
REMARK SMILES IDX 46 56 83 57 77 58 76 59 47 61 69 62 54 63 68 64 55 65 58 66
REMARK SMILES IDX 67 67 81 68 56 69 57 70 66 72 82 73 59 74 48 75 49 76 53 77
REMARK SMILES IDX 50 78 52 79 51 80 70 81 71 82 75 83 72 84 74 85 73 86 60 87
REMARK SMILES IDX 61 88 65 89 62 90 64 91 63 92
REMARK H PARENT 13 14 20 21 20 22 80 60 58 71
REMARK Flexibility Score: inf
ROOT
ATOM      1  O   UNL A   1      32.958  37.320  31.085  1.00  0.00    -0.377 OA
ENDROOT
BRANCH   1   2
ATOM      2  C   UNL A   1      32.517  36.124  30.480  1.00  0.00     0.188 C 
BRANCH   2   3
ATOM      3  C   UNL A   1      32.927  35.967  29.008  1.00  0.00     0.188 C 
BRANCH   3   4
ATOM      4  O   UNL A   1      34.226  35.500  28.657  1.00  0.00    -0.376 OA
BRANCH   4   5
ATOM      5  C   UNL A   1      34.473  34.114  28.457  1.00  0.00     0.202 C 
BRANCH   5   6
ATOM      6  C   UNL A   1      34.811  33.186  29.635  1.00  0.00     0.261 C 
BRANCH   6   7
ATOM      7  O   UNL A   1      35.559  32.012  29.294  1.00  0.00    -0.459 OA
BRANCH   7   8
ATOM      8  C   UNL A   1      36.905  32.091  29.444  1.00  0.00     0.364 C 
ATOM      9  O   UNL A   1      37.484  32.935  30.121  1.00  0.00    -0.245 OA
BRANCH   8  10
ATOM     10  C   UNL A   1      37.664  30.999  28.681  1.00  0.00     0.294 C 
ATOM     11  N   UNL A   1      41.913  27.897  28.801  1.00  0.00    -0.267 N 
ATOM     12  C   UNL A   1      41.718  29.092  27.994  1.00  0.00     0.271 C 
ATOM     13  C   UNL A   1      41.161  27.907  30.051  1.00  0.00     0.271 C 
ATOM     14  H   UNL A   1      41.350  27.161  29.132  1.00  0.00     0.357 HD
ATOM     15  C   UNL A   1      40.272  29.106  27.511  1.00  0.00     0.075 C 
ATOM     16  C   UNL A   1      39.654  28.190  29.857  1.00  0.00     0.075 C 
ATOM     17  C   UNL A   1      39.247  29.121  28.670  1.00  0.00     0.036 C 
ATOM     18  C   UNL A   1      37.845  28.764  28.114  1.00  0.00     0.268 C 
ATOM     19  C   UNL A   1      39.037  30.565  29.170  1.00  0.00     0.090 C 
ATOM     20  N   UNL A   1      36.923  29.728  28.709  1.00  0.00    -0.334 N 
ATOM     21  H   UNL A   1      36.693  29.465  29.667  1.00  0.00     0.347 HD
ATOM     22  H   UNL A   1      36.036  29.781  28.208  1.00  0.00     0.347 HD
BRANCH  11  23
ATOM     23  C   UNL A   1      42.887  26.993  28.382  1.00  0.00     0.350 C 
ATOM     24  O   UNL A   1      44.012  27.409  28.090  1.00  0.00    -0.225 OA
BRANCH  23  25
ATOM     25  C   UNL A   1      42.578  25.536  28.122  1.00  0.00     0.147 A 
ATOM     26  C   UNL A   1      43.972  24.560  30.040  1.00  0.00     0.045 C 
ATOM     27  C   UNL A   1      43.045  24.509  28.869  1.00  0.00    -0.027 A 
ATOM     28  C   UNL A   1      42.557  23.160  28.675  1.00  0.00     0.026 A 
ATOM     29  C   UNL A   1      41.441  22.905  27.983  1.00  0.00     0.018 A 
ATOM     30  C   UNL A   1      41.417  25.217  27.183  1.00  0.00     0.267 A 
ATOM     31  C   UNL A   1      40.908  21.498  27.980  1.00  0.00     0.064 C 
ATOM     32  N   UNL A   1      40.827  23.939  27.292  1.00  0.00    -0.315 N 
ATOM     33  O   UNL A   1      41.009  26.052  26.376  1.00  0.00    -0.268 OA
ATOM     34  C   UNL A   1      39.559  23.713  26.608  1.00  0.00     0.153 C 
ENDBRANCH  23  25
ENDBRANCH  11  23
ENDBRANCH   8  10
ENDBRANCH   7   8
ENDBRANCH   6   7
ENDBRANCH   5   6
ENDBRANCH   4   5
ENDBRANCH   3   4
ENDBRANCH   2   3
ENDBRANCH   1   2
BRANCH   1  35
ATOM     35  C   UNL A   1      33.632  37.150  32.323  1.00  0.00     0.188 C 
BRANCH  35  36
ATOM     36  C   UNL A   1      34.588  35.941  32.450  1.00  0.00     0.188 C 
BRANCH  36  37
ATOM     37  O   UNL A   1      34.350  35.101  33.573  1.00  0.00    -0.376 OA
BRANCH  37  38
ATOM     38  C   UNL A   1      34.090  33.718  33.366  1.00  0.00     0.202 C 
BRANCH  38  39
ATOM     39  C   UNL A   1      35.279  32.764  33.136  1.00  0.00     0.261 C 
BRANCH  39  40
ATOM     40  O   UNL A   1      36.298  32.752  34.146  1.00  0.00    -0.460 OA
BRANCH  40  41
ATOM     41  C   UNL A   1      37.401  33.498  33.939  1.00  0.00     0.338 C 
ATOM     42  O   UNL A   1      37.511  34.704  34.085  1.00  0.00    -0.246 OA
BRANCH  41  43
ATOM     43  C   UNL A   1      38.535  32.575  33.721  1.00  0.00     0.060 A 
ATOM     44  C   UNL A   1      39.779  32.893  34.285  1.00  0.00     0.016 A 
ATOM     45  C   UNL A   1      38.374  31.401  32.983  1.00  0.00     0.016 A 
ATOM     46  C   UNL A   1      40.876  32.059  34.081  1.00  0.00     0.010 A 
ATOM     47  C   UNL A   1      39.484  30.585  32.743  1.00  0.00     0.010 A 
ATOM     48  C   UNL A   1      40.745  30.935  33.259  1.00  0.00    -0.014 A 
BRANCH  48  49
ATOM     49  C   UNL A   1      41.965  30.299  32.710  1.00  0.00     0.031 A 
ATOM     50  C   UNL A   1      42.568  30.903  31.472  1.00  0.00     0.074 A 
ATOM     51  C   UNL A   1      42.555  29.252  33.309  1.00  0.00     0.049 A 
ATOM     52  N   UNL A   1      43.594  30.505  30.765  1.00  0.00    -0.248 NA
ATOM     53  C   UNL A   1      41.929  32.132  30.968  1.00  0.00     0.031 C 
ATOM     54  C   UNL A   1      42.129  28.639  34.565  1.00  0.00     0.029 A 
ATOM     55  N   UNL A   1      43.655  28.524  32.931  1.00  0.00    -0.354 N 
ATOM     56  C   UNL A   1      43.719  31.432  29.737  1.00  0.00     0.074 A 
ATOM     57  C   UNL A   1      42.648  32.389  29.889  1.00  0.00     0.031 C 
ATOM     58  C   UNL A   1      42.964  27.625  34.856  1.00  0.00     0.029 A 
ATOM     59  C   UNL A   1      43.952  27.493  33.785  1.00  0.00     0.049 A 
ATOM     60  H   UNL A   1      44.181  28.724  32.122  1.00  0.00     0.167 HD
ATOM     61  C   UNL A   1      44.651  31.489  28.758  1.00  0.00     0.031 A 
ATOM     62  C   UNL A   1      44.903  26.541  33.699  1.00  0.00     0.031 A 
ATOM     63  C   UNL A   1      45.697  30.517  28.586  1.00  0.00     0.049 A 
ATOM     64  C   UNL A   1      45.838  26.535  32.518  1.00  0.00     0.074 A 
ATOM     65  C   UNL A   1      46.668  30.460  27.604  1.00  0.00     0.029 A 
ATOM     66  N   UNL A   1      45.902  29.428  29.419  1.00  0.00    -0.354 N 
ATOM     67  N   UNL A   1      45.933  27.395  31.532  1.00  0.00    -0.248 NA
ATOM     68  C   UNL A   1      46.798  25.424  32.441  1.00  0.00     0.031 C 
ATOM     69  C   UNL A   1      47.425  29.303  27.808  1.00  0.00     0.029 A 
ATOM     70  C   UNL A   1      46.970  28.678  28.958  1.00  0.00     0.049 A 
ATOM     71  H   UNL A   1      45.367  29.219  30.219  1.00  0.00     0.167 HD
ATOM     72  C   UNL A   1      46.978  26.945  30.733  1.00  0.00     0.074 A 
ATOM     73  C   UNL A   1      47.495  25.746  31.359  1.00  0.00     0.031 C 
ATOM     74  C   UNL A   1      47.467  27.479  29.586  1.00  0.00     0.031 A 
BRANCH  61  75
ATOM     75  C   UNL A   1      44.550  32.625  27.780  1.00  0.00    -0.014 A 
ATOM     76  C   UNL A   1      44.053  32.427  26.482  1.00  0.00     0.009 A 
ATOM     77  C   UNL A   1      44.944  33.916  28.165  1.00  0.00     0.009 A 
ATOM     78  C   UNL A   1      43.984  33.489  25.579  1.00  0.00     0.001 A 
ATOM     79  C   UNL A   1      44.844  34.984  27.270  1.00  0.00     0.001 A 
ATOM     80  C   UNL A   1      44.372  34.767  25.977  1.00  0.00     0.000 A 
ENDBRANCH  61  75
BRANCH  62  81
ATOM     81  C   UNL A   1      45.019  25.512  34.766  1.00  0.00    -0.014 A 
ATOM     82  C   UNL A   1      44.273  24.325  34.689  1.00  0.00     0.009 A 
ATOM     83  C   UNL A   1      45.879  25.701  35.859  1.00  0.00     0.009 A 
ATOM     84  C   UNL A   1      44.381  23.354  35.688  1.00  0.00     0.001 A 
ATOM     85  C   UNL A   1      46.007  24.716  36.842  1.00  0.00     0.001 A 
ATOM     86  C   UNL A   1      45.254  23.546  36.757  1.00  0.00     0.000 A 
ENDBRANCH  62  81
BRANCH  74  87
ATOM     87  C   UNL A   1      48.636  26.787  28.938  1.00  0.00    -0.014 A 
ATOM     88  C   UNL A   1      49.958  27.115  29.277  1.00  0.00     0.009 A 
ATOM     89  C   UNL A   1      48.409  25.745  28.024  1.00  0.00     0.009 A 
ATOM     90  C   UNL A   1      51.027  26.435  28.690  1.00  0.00     0.001 A 
ATOM     91  C   UNL A   1      49.479  25.044  27.464  1.00  0.00     0.001 A 
ATOM     92  C   UNL A   1      50.787  25.396  27.791  1.00  0.00     0.000 A 
ENDBRANCH  74  87
ENDBRANCH  48  49
ENDBRANCH  41  43
ENDBRANCH  40  41
ENDBRANCH  39  40
ENDBRANCH  38  39
ENDBRANCH  37  38
ENDBRANCH  36  37
ENDBRANCH  35  36
ENDBRANCH   1  35
TORSDOF 22
ENDMDL
MODEL 2
REMARK VINA RESULT:      -7.5      1.085      5.627
REMARK SMILES Cc1cc(C)n(C)c(=O)c1C(=O)[NH+]1CCC2(CC1)C[NH2+][C@@H](C(=O)OCCOCCOCCOCCOC(=O)c1ccc(-c3c4nc(c(-c5ccccc5)c5ccc([nH]5)c(-c5ccccc5)c5nc(c(-c6ccccc6)c6ccc3[nH]6)C=C5)C=C4)cc1)C2
REMARK SMILES IDX 30 1 29 2 28 3 27 4 26 5 25 6 24 7 22 8 23 9 21 10 13 11
REMARK SMILES IDX 14 12 18 13 15 15 17 16 16 17 19 18 87 19 20 20 11 23 12 24
REMARK SMILES IDX 10 25 1 26 2 27 3 28 4 29 8 30 5 31 6 32 9 33 7 34 31 35
REMARK SMILES IDX 32 36 33 37 34 38 35 39 36 40 37 41 38 42 39 43 40 44 86 45
REMARK SMILES IDX 41 46 85 47 42 48 43 49 44 50 79 51 45 52 84 53 78 54 80 55
REMARK SMILES IDX 46 56 83 57 77 58 76 59 47 61 69 62 54 63 68 64 55 65 58 66
REMARK SMILES IDX 67 67 81 68 56 69 57 70 66 72 82 73 59 74 48 75 49 76 53 77
REMARK SMILES IDX 50 78 52 79 51 80 70 81 71 82 75 83 72 84 74 85 73 86 60 87
REMARK SMILES IDX 61 88 65 89 62 90 64 91 63 92
REMARK H PARENT 13 14 20 21 20 22 80 60 58 71
REMARK Flexibility Score: inf
ROOT
ATOM      1  O   UNL A   1      33.172  36.996  31.711  1.00  0.00    -0.377 OA
ENDROOT
BRANCH   1   2
ATOM      2  C   UNL A   1      32.456  35.928  31.130  1.00  0.00     0.188 C 
BRANCH   2   3
ATOM      3  C   UNL A   1      33.164  35.257  29.944  1.00  0.00     0.188 C 
BRANCH   3   4
ATOM      4  O   UNL A   1      34.427  34.621  30.112  1.00  0.00    -0.376 OA
BRANCH   4   5
ATOM      5  C   UNL A   1      34.761  33.455  29.369  1.00  0.00     0.202 C 
BRANCH   5   6
ATOM      6  C   UNL A   1      36.095  32.724  29.589  1.00  0.00     0.261 C 
BRANCH   6   7
ATOM      7  O   UNL A   1      36.003  31.297  29.682  1.00  0.00    -0.459 OA
BRANCH   7   8
ATOM      8  C   UNL A   1      36.080  30.611  28.515  1.00  0.00     0.364 C 
ATOM      9  O   UNL A   1      35.403  30.847  27.519  1.00  0.00    -0.245 OA
BRANCH   8  10
ATOM     10  C   UNL A   1      37.122  29.486  28.542  1.00  0.00     0.294 C 
ATOM     11  N   UNL A   1      42.022  28.193  27.125  1.00  0.00    -0.267 N 
ATOM     12  C   UNL A   1      40.783  27.774  26.490  1.00  0.00     0.271 C 
ATOM     13  C   UNL A   1      41.929  29.488  27.791  1.00  0.00     0.271 C 
ATOM     14  H   UNL A   1      42.323  28.385  28.043  1.00  0.00     0.357 HD
ATOM     15  C   UNL A   1      39.755  27.510  27.584  1.00  0.00     0.075 C 
ATOM     16  C   UNL A   1      40.750  29.581  28.788  1.00  0.00     0.075 C 
ATOM     17  C   UNL A   1      39.465  28.756  28.456  1.00  0.00     0.036 C 
ATOM     18  C   UNL A   1      38.717  28.316  29.740  1.00  0.00     0.268 C 
ATOM     19  C   UNL A   1      38.418  29.652  27.763  1.00  0.00     0.090 C 
ATOM     20  N   UNL A   1      37.622  29.267  29.908  1.00  0.00    -0.334 N 
ATOM     21  H   UNL A   1      37.960  30.139  30.313  1.00  0.00     0.347 HD
ATOM     22  H   UNL A   1      36.898  28.922  30.538  1.00  0.00     0.347 HD
BRANCH  11  23
ATOM     23  C   UNL A   1      43.156  27.420  26.891  1.00  0.00     0.350 C 
ATOM     24  O   UNL A   1      44.083  27.892  26.225  1.00  0.00    -0.225 OA
BRANCH  23  25
ATOM     25  C   UNL A   1      43.237  25.963  27.289  1.00  0.00     0.147 A 
ATOM     26  C   UNL A   1      42.887  26.295  29.808  1.00  0.00     0.045 C 
ATOM     27  C   UNL A   1      43.096  25.507  28.555  1.00  0.00    -0.027 A 
ATOM     28  C   UNL A   1      42.997  24.089  28.833  1.00  0.00     0.026 A 
ATOM     29  C   UNL A   1      42.746  23.197  27.870  1.00  0.00     0.018 A 
ATOM     30  C   UNL A   1      43.138  24.921  26.179  1.00  0.00     0.267 A 
ATOM     31  C   UNL A   1      42.483  21.770  28.269  1.00  0.00     0.064 C 
ATOM     32  N   UNL A   1      42.745  23.615  26.548  1.00  0.00    -0.315 N 
ATOM     33  O   UNL A   1      43.377  25.218  25.009  1.00  0.00    -0.268 OA
ATOM     34  C   UNL A   1      42.381  22.687  25.484  1.00  0.00     0.153 C 
ENDBRANCH  23  25
ENDBRANCH  11  23
ENDBRANCH   8  10
ENDBRANCH   7   8
ENDBRANCH   6   7
ENDBRANCH   5   6
ENDBRANCH   4   5
ENDBRANCH   3   4
ENDBRANCH   2   3
ENDBRANCH   1   2
BRANCH   1  35
ATOM     35  C   UNL A   1      33.596  36.775  33.048  1.00  0.00     0.188 C 
BRANCH  35  36
ATOM     36  C   UNL A   1      34.789  35.813  33.263  1.00  0.00     0.188 C 
BRANCH  36  37
ATOM     37  O   UNL A   1      34.488  34.641  34.011  1.00  0.00    -0.376 OA
BRANCH  37  38
ATOM     38  C   UNL A   1      34.414  33.388  33.343  1.00  0.00     0.202 C 
BRANCH  38  39
ATOM     39  C   UNL A   1      35.683  32.519  33.248  1.00  0.00     0.261 C 
BRANCH  39  40
ATOM     40  O   UNL A   1      36.555  32.527  34.388  1.00  0.00    -0.460 OA
BRANCH  40  41
ATOM     41  C   UNL A   1      37.643  33.320  34.346  1.00  0.00     0.338 C 
ATOM     42  O   UNL A   1      37.737  34.464  34.760  1.00  0.00    -0.246 OA
BRANCH  41  43
ATOM     43  C   UNL A   1      38.788  32.491  33.915  1.00  0.00     0.060 A 
ATOM     44  C   UNL A   1      40.065  32.799  34.408  1.00  0.00     0.016 A 
ATOM     45  C   UNL A   1      38.608  31.412  33.047  1.00  0.00     0.016 A 
ATOM     46  C   UNL A   1      41.171  32.054  34.006  1.00  0.00     0.010 A 
ATOM     47  C   UNL A   1      39.723  30.691  32.610  1.00  0.00     0.010 A 
ATOM     48  C   UNL A   1      41.011  31.037  33.058  1.00  0.00    -0.014 A 
BRANCH  48  49
ATOM     49  C   UNL A   1      42.200  30.539  32.330  1.00  0.00     0.031 A 
ATOM     50  C   UNL A   1      42.799  29.236  32.783  1.00  0.00     0.074 A 
ATOM     51  C   UNL A   1      42.710  31.186  31.269  1.00  0.00     0.049 A 
ATOM     52  N   UNL A   1      43.868  28.616  32.354  1.00  0.00    -0.248 NA
ATOM     53  C   UNL A   1      42.087  28.533  33.865  1.00  0.00     0.031 C 
ATOM     54  C   UNL A   1      42.164  32.401  30.669  1.00  0.00     0.029 A 
ATOM     55  N   UNL A   1      43.811  30.894  30.504  1.00  0.00    -0.354 N 
ATOM     56  C   UNL A   1      43.953  27.455  33.113  1.00  0.00     0.074 A 
ATOM     57  C   UNL A   1      42.855  27.473  34.051  1.00  0.00     0.031 C 
ATOM     58  C   UNL A   1      42.933  32.751  29.623  1.00  0.00     0.029 A 
ATOM     59  C   UNL A   1      44.048  31.809  29.509  1.00  0.00     0.049 A 
ATOM     60  H   UNL A   1      44.378  30.103  30.654  1.00  0.00     0.167 HD
ATOM     61  C   UNL A   1      44.861  26.455  33.030  1.00  0.00     0.031 A 
ATOM     62  C   UNL A   1      45.060  31.885  28.623  1.00  0.00     0.031 A 
ATOM     63  C   UNL A   1      45.974  26.453  32.121  1.00  0.00     0.049 A 
ATOM     64  C   UNL A   1      46.144  30.839  28.647  1.00  0.00     0.074 A 
ATOM     65  C   UNL A   1      46.974  25.508  31.984  1.00  0.00     0.029 A 
ATOM     66  N   UNL A   1      46.235  27.452  31.195  1.00  0.00    -0.354 N 
ATOM     67  N   UNL A   1      46.238  29.761  29.388  1.00  0.00    -0.248 NA
ATOM     68  C   UNL A   1      47.262  31.025  27.710  1.00  0.00     0.031 C 
ATOM     69  C   UNL A   1      47.873  25.964  31.015  1.00  0.00     0.029 A 
ATOM     70  C   UNL A   1      47.395  27.158  30.500  1.00  0.00     0.049 A 
ATOM     71  H   UNL A   1      45.677  28.251  31.054  1.00  0.00     0.167 HD
ATOM     72  C   UNL A   1      47.409  29.125  28.988  1.00  0.00     0.074 A 
ATOM     73  C   UNL A   1      47.981  29.932  27.930  1.00  0.00     0.031 C 
ATOM     74  C   UNL A   1      47.958  27.976  29.455  1.00  0.00     0.031 A 
BRANCH  61  75
ATOM     75  C   UNL A   1      44.698  25.300  33.978  1.00  0.00    -0.014 A 
ATOM     76  C   UNL A   1      45.301  25.309  35.247  1.00  0.00     0.009 A 
ATOM     77  C   UNL A   1      43.920  24.194  33.605  1.00  0.00     0.009 A 
ATOM     78  C   UNL A   1      45.156  24.221  36.108  1.00  0.00     0.001 A 
ATOM     79  C   UNL A   1      43.750  23.120  34.481  1.00  0.00     0.001 A 
ATOM     80  C   UNL A   1      44.374  23.131  35.727  1.00  0.00     0.000 A 
ENDBRANCH  61  75
BRANCH  62  81
ATOM     81  C   UNL A   1      45.097  32.995  27.634  1.00  0.00    -0.014 A 
ATOM     82  C   UNL A   1      45.742  34.202  27.947  1.00  0.00     0.009 A 
ATOM     83  C   UNL A   1      44.499  32.856  26.372  1.00  0.00     0.009 A 
ATOM     84  C   UNL A   1      45.782  35.246  27.020  1.00  0.00     0.001 A 
ATOM     85  C   UNL A   1      44.564  33.891  25.435  1.00  0.00     0.001 A 
ATOM     86  C   UNL A   1      45.201  35.087  25.763  1.00  0.00     0.000 A 
ENDBRANCH  62  81
BRANCH  74  87
ATOM     87  C   UNL A   1      49.234  27.503  28.812  1.00  0.00    -0.014 A 
ATOM     88  C   UNL A   1      50.470  28.094  29.118  1.00  0.00     0.009 A 
ATOM     89  C   UNL A   1      49.207  26.404  27.937  1.00  0.00     0.009 A 
ATOM     90  C   UNL A   1      51.646  27.615  28.537  1.00  0.00     0.001 A 
ATOM     91  C   UNL A   1      50.388  25.906  27.384  1.00  0.00     0.001 A 
ATOM     92  C   UNL A   1      51.604  26.517  27.678  1.00  0.00     0.000 A 
ENDBRANCH  74  87
ENDBRANCH  48  49
ENDBRANCH  41  43
ENDBRANCH  40  41
ENDBRANCH  39  40
ENDBRANCH  38  39
ENDBRANCH  37  38
ENDBRANCH  36  37
ENDBRANCH  35  36
ENDBRANCH   1  35
TORSDOF 22
ENDMDL
MODEL 3
REMARK VINA RESULT:      -7.4      4.481     10.829
REMARK SMILES Cc1cc(C)n(C)c(=O)c1C(=O)[NH+]1CCC2(CC1)C[NH2+][C@@H](C(=O)OCCOCCOCCOCCOC(=O)c1ccc(-c3c4nc(c(-c5ccccc5)c5ccc([nH]5)c(-c5ccccc5)c5nc(c(-c6ccccc6)c6ccc3[nH]6)C=C5)C=C4)cc1)C2
REMARK SMILES IDX 30 1 29 2 28 3 27 4 26 5 25 6 24 7 22 8 23 9 21 10 13 11
REMARK SMILES IDX 14 12 18 13 15 15 17 16 16 17 19 18 87 19 20 20 11 23 12 24
REMARK SMILES IDX 10 25 1 26 2 27 3 28 4 29 8 30 5 31 6 32 9 33 7 34 31 35
REMARK SMILES IDX 32 36 33 37 34 38 35 39 36 40 37 41 38 42 39 43 40 44 86 45
REMARK SMILES IDX 41 46 85 47 42 48 43 49 44 50 79 51 45 52 84 53 78 54 80 55
REMARK SMILES IDX 46 56 83 57 77 58 76 59 47 61 69 62 54 63 68 64 55 65 58 66
REMARK SMILES IDX 67 67 81 68 56 69 57 70 66 72 82 73 59 74 48 75 49 76 53 77
REMARK SMILES IDX 50 78 52 79 51 80 70 81 71 82 75 83 72 84 74 85 73 86 60 87
REMARK SMILES IDX 61 88 65 89 62 90 64 91 63 92
REMARK H PARENT 13 14 20 21 20 22 80 60 58 71
REMARK Flexibility Score: inf
ROOT
ATOM      1  O   UNL A   1      35.899  20.892  24.974  1.00  0.00    -0.377 OA
ENDROOT
BRANCH   1   2
ATOM      2  C   UNL A   1      35.193  21.850  24.217  1.00  0.00     0.188 C 
BRANCH   2   3
ATOM      3  C   UNL A   1      33.693  21.932  24.534  1.00  0.00     0.188 C 
BRANCH   3   4
ATOM      4  O   UNL A   1      32.789  22.559  23.630  1.00  0.00    -0.376 OA
BRANCH   4   5
ATOM      5  C   UNL A   1      32.856  23.958  23.384  1.00  0.00     0.202 C 
BRANCH   5   6
ATOM      6  C   UNL A   1      31.594  24.771  23.050  1.00  0.00     0.261 C 
BRANCH   6   7
ATOM      7  O   UNL A   1      31.651  26.160  23.398  1.00  0.00    -0.459 OA
BRANCH   7   8
ATOM      8  C   UNL A   1      30.909  26.543  24.467  1.00  0.00     0.364 C 
ATOM      9  O   UNL A   1      29.685  26.489  24.525  1.00  0.00    -0.245 OA
BRANCH   8  10
ATOM     10  C   UNL A   1      31.756  27.058  25.638  1.00  0.00     0.294 C 
ATOM     11  N   UNL A   1      34.381  31.233  27.474  1.00  0.00    -0.267 N 
ATOM     12  C   UNL A   1      34.944  30.030  26.880  1.00  0.00     0.271 C 
ATOM     13  C   UNL A   1      33.041  31.551  26.991  1.00  0.00     0.271 C 
ATOM     14  H   UNL A   1      33.608  31.452  28.042  1.00  0.00     0.357 HD
ATOM     15  C   UNL A   1      34.127  28.837  27.361  1.00  0.00     0.075 C 
ATOM     16  C   UNL A   1      32.050  30.370  27.112  1.00  0.00     0.075 C 
ATOM     17  C   UNL A   1      32.633  28.928  26.966  1.00  0.00     0.036 C 
ATOM     18  C   UNL A   1      31.825  27.895  27.792  1.00  0.00     0.268 C 
ATOM     19  C   UNL A   1      32.436  28.414  25.526  1.00  0.00     0.090 C 
ATOM     20  N   UNL A   1      30.931  27.238  26.843  1.00  0.00    -0.334 N 
ATOM     21  H   UNL A   1      30.122  27.824  26.642  1.00  0.00     0.347 HD
ATOM     22  H   UNL A   1      30.563  26.356  27.199  1.00  0.00     0.347 HD
BRANCH  11  23
ATOM     23  C   UNL A   1      35.218  32.003  28.277  1.00  0.00     0.350 C 
ATOM     24  O   UNL A   1      36.326  32.340  27.848  1.00  0.00    -0.225 OA
BRANCH  23  25
ATOM     25  C   UNL A   1      34.889  32.319  29.719  1.00  0.00     0.147 A 
ATOM     26  C   UNL A   1      36.394  30.541  30.791  1.00  0.00     0.045 C 
ATOM     27  C   UNL A   1      35.429  31.683  30.784  1.00  0.00    -0.027 A 
ATOM     28  C   UNL A   1      35.211  32.163  32.132  1.00  0.00     0.026 A 
ATOM     29  C   UNL A   1      34.734  33.387  32.377  1.00  0.00     0.018 A 
ATOM     30  C   UNL A   1      34.173  33.635  30.009  1.00  0.00     0.267 A 
ATOM     31  C   UNL A   1      34.704  33.871  33.801  1.00  0.00     0.064 C 
ATOM     32  N   UNL A   1      34.276  34.156  31.317  1.00  0.00    -0.315 N 
ATOM     33  O   UNL A   1      33.544  34.219  29.127  1.00  0.00    -0.268 OA
ATOM     34  C   UNL A   1      33.839  35.528  31.541  1.00  0.00     0.153 C 
ENDBRANCH  23  25
ENDBRANCH  11  23
ENDBRANCH   8  10
ENDBRANCH   7   8
ENDBRANCH   6   7
ENDBRANCH   5   6
ENDBRANCH   4   5
ENDBRANCH   3   4
ENDBRANCH   2   3
ENDBRANCH   1   2
BRANCH   1  35
ATOM     35  C   UNL A   1      37.312  21.017  24.930  1.00  0.00     0.188 C 
BRANCH  35  36
ATOM     36  C   UNL A   1      37.935  22.260  25.609  1.00  0.00     0.188 C 
BRANCH  36  37
ATOM     37  O   UNL A   1      38.971  21.978  26.543  1.00  0.00    -0.376 OA
BRANCH  37  38
ATOM     38  C   UNL A   1      40.093  21.209  26.126  1.00  0.00     0.202 C 
BRANCH  38  39
ATOM     39  C   UNL A   1      41.505  21.673  26.533  1.00  0.00     0.261 C 
BRANCH  39  40
ATOM     40  O   UNL A   1      41.844  23.036  26.240  1.00  0.00    -0.460 OA
BRANCH  40  41
ATOM     41  C   UNL A   1      41.885  23.911  27.265  1.00  0.00     0.338 C 
ATOM     42  O   UNL A   1      41.201  23.894  28.275  1.00  0.00    -0.246 OA
BRANCH  41  43
ATOM     43  C   UNL A   1      43.068  24.776  27.071  1.00  0.00     0.060 A 
ATOM     44  C   UNL A   1      43.761  25.231  28.202  1.00  0.00     0.016 A 
ATOM     45  C   UNL A   1      43.502  25.124  25.790  1.00  0.00     0.016 A 
ATOM     46  C   UNL A   1      44.866  26.067  28.059  1.00  0.00     0.010 A 
ATOM     47  C   UNL A   1      44.584  25.996  25.647  1.00  0.00     0.010 A 
ATOM     48  C   UNL A   1      45.243  26.501  26.783  1.00  0.00    -0.014 A 
BRANCH  48  49
ATOM     49  C   UNL A   1      46.121  27.686  26.656  1.00  0.00     0.031 A 
ATOM     50  C   UNL A   1      47.587  27.445  26.421  1.00  0.00     0.074 A 
ATOM     51  C   UNL A   1      45.639  28.939  26.696  1.00  0.00     0.049 A 
ATOM     52  N   UNL A   1      48.569  28.304  26.333  1.00  0.00    -0.248 NA
ATOM     53  C   UNL A   1      47.997  26.040  26.255  1.00  0.00     0.031 C 
ATOM     54  C   UNL A   1      44.230  29.306  26.818  1.00  0.00     0.029 A 
ATOM     55  N   UNL A   1      46.299  30.141  26.631  1.00  0.00    -0.354 N 
ATOM     56  C   UNL A   1      49.708  27.543  26.102  1.00  0.00     0.074 A 
ATOM     57  C   UNL A   1      49.305  26.156  26.100  1.00  0.00     0.031 C 
ATOM     58  C   UNL A   1      44.130  30.648  26.815  1.00  0.00     0.029 A 
ATOM     59  C   UNL A   1      45.470  31.230  26.736  1.00  0.00     0.049 A 
ATOM     60  H   UNL A   1      47.274  30.215  26.519  1.00  0.00     0.167 HD
ATOM     61  C   UNL A   1      50.979  27.962  25.898  1.00  0.00     0.031 A 
ATOM     62  C   UNL A   1      45.765  32.544  26.783  1.00  0.00     0.031 A 
ATOM     63  C   UNL A   1      51.387  29.340  25.935  1.00  0.00     0.049 A 
ATOM     64  C   UNL A   1      47.205  32.981  26.705  1.00  0.00     0.074 A 
ATOM     65  C   UNL A   1      52.655  29.868  25.781  1.00  0.00     0.029 A 
ATOM     66  N   UNL A   1      50.528  30.408  26.145  1.00  0.00    -0.354 N 
ATOM     67  N   UNL A   1      48.282  32.255  26.518  1.00  0.00    -0.248 NA
ATOM     68  C   UNL A   1      47.467  34.421  26.844  1.00  0.00     0.031 C 
ATOM     69  C   UNL A   1      52.574  31.252  25.957  1.00  0.00     0.029 A 
ATOM     70  C   UNL A   1      51.244  31.593  26.150  1.00  0.00     0.049 A 
ATOM     71  H   UNL A   1      49.554  30.334  26.272  1.00  0.00     0.167 HD
ATOM     72  C   UNL A   1      49.345  33.152  26.491  1.00  0.00     0.074 A 
ATOM     73  C   UNL A   1      48.780  34.474  26.664  1.00  0.00     0.031 C 
ATOM     74  C   UNL A   1      50.669  32.902  26.334  1.00  0.00     0.031 A 
BRANCH  61  75
ATOM     75  C   UNL A   1      52.019  26.905  25.655  1.00  0.00    -0.014 A 
ATOM     76  C   UNL A   1      52.669  26.263  26.721  1.00  0.00     0.009 A 
ATOM     77  C   UNL A   1      52.344  26.534  24.341  1.00  0.00     0.009 A 
ATOM     78  C   UNL A   1      53.646  25.297  26.478  1.00  0.00     0.001 A 
ATOM     79  C   UNL A   1      53.300  25.544  24.100  1.00  0.00     0.001 A 
ATOM     80  C   UNL A   1      53.955  24.934  25.168  1.00  0.00     0.000 A 
ENDBRANCH  61  75
BRANCH  62  81
ATOM     81  C   UNL A   1      44.673  33.544  26.910  1.00  0.00    -0.014 A 
ATOM     82  C   UNL A   1      44.132  34.152  25.765  1.00  0.00     0.009 A 
ATOM     83  C   UNL A   1      44.157  33.892  28.168  1.00  0.00     0.009 A 
ATOM     84  C   UNL A   1      43.105  35.091  25.879  1.00  0.00     0.001 A 
ATOM     85  C   UNL A   1      43.109  34.809  28.278  1.00  0.00     0.001 A 
ATOM     86  C   UNL A   1      42.588  35.412  27.134  1.00  0.00     0.000 A 
ENDBRANCH  62  81
BRANCH  74  87
ATOM     87  C   UNL A   1      51.604  34.081  26.318  1.00  0.00    -0.014 A 
ATOM     88  C   UNL A   1      52.229  34.534  27.489  1.00  0.00     0.009 A 
ATOM     89  C   UNL A   1      51.915  34.706  25.098  1.00  0.00     0.009 A 
ATOM     90  C   UNL A   1      53.120  35.608  27.445  1.00  0.00     0.001 A 
ATOM     91  C   UNL A   1      52.832  35.758  25.052  1.00  0.00     0.001 A 
ATOM     92  C   UNL A   1      53.427  36.213  26.226  1.00  0.00     0.000 A 
ENDBRANCH  74  87
ENDBRANCH  48  49
ENDBRANCH  41  43
ENDBRANCH  40  41
ENDBRANCH  39  40
ENDBRANCH  38  39
ENDBRANCH  37  38
ENDBRANCH  36  37
ENDBRANCH  35  36
ENDBRANCH   1  35
TORSDOF 22
ENDMDL
