MODEL 1
REMARK VINA RESULT:      -9.9      0.000      0.000
REMARK SMILES CC1(C)S[C@H]2[C@H](NC(=O)[C@H](NN3CCNC3=O)c3ccccc3)C(=O)N2[C@H]1C(=O)OCCOCCOCCOCCOC(=O)c1ccc(-c2c3nc(c(-c4ccccc4)c4ccc([nH]4)c(-c4ccccc4)c4nc(c(-c5ccccc5)c5ccc2[nH]5)C=C4)C=C3)cc1
REMARK SMILES IDX 35 1 34 2 33 3 32 4 31 5 30 6 28 7 29 8 27 9 1 10 2 11 3 12
REMARK SMILES IDX 4 13 5 14 26 15 6 16 24 17 25 18 7 19 8 20 9 22 10 23 18 24
REMARK SMILES IDX 19 25 23 26 20 27 22 28 21 29 11 30 12 32 13 33 16 34 14 35
REMARK SMILES IDX 15 36 17 37 36 39 37 40 38 41 39 42 40 43 41 44 42 45 43 46
REMARK SMILES IDX 44 47 45 48 46 49 92 50 47 51 91 52 48 53 49 54 50 55 85 56
REMARK SMILES IDX 51 57 90 58 84 59 86 60 52 61 89 62 83 63 82 64 53 66 75 67
REMARK SMILES IDX 60 68 74 69 61 70 64 71 73 72 87 73 62 74 63 75 72 77 88 78
REMARK SMILES IDX 65 79 54 80 55 81 59 82 56 83 58 84 57 85 76 86 77 87 81 88
REMARK SMILES IDX 78 89 80 90 79 91 66 92 67 93 71 94 68 95 70 96 69 97
REMARK H PARENT 7 21 11 31 15 38 86 65 64 76
REMARK Flexibility Score: inf
ROOT
ATOM      1  C   UNL A   1      41.618  18.926  26.140  1.00  0.00     0.188 C 
ENDROOT
BRANCH   1   2
ATOM      2  C   UNL A   1      41.358  20.416  26.376  1.00  0.00     0.188 C 
BRANCH   2   3
ATOM      3  O   UNL A   1      40.049  20.795  26.809  1.00  0.00    -0.376 OA
BRANCH   3   4
ATOM      4  C   UNL A   1      39.242  21.546  25.907  1.00  0.00     0.202 C 
BRANCH   4   5
ATOM      5  C   UNL A   1      37.822  20.970  25.794  1.00  0.00     0.261 C 
BRANCH   5   6
ATOM      6  O   UNL A   1      36.935  21.740  24.963  1.00  0.00    -0.462 OA
BRANCH   6   7
ATOM      7  C   UNL A   1      36.050  22.536  25.616  1.00  0.00     0.330 C 
ATOM      8  O   UNL A   1      36.333  23.305  26.530  1.00  0.00    -0.250 OA
BRANCH   7   9
ATOM      9  C   UNL A   1      34.599  22.231  25.242  1.00  0.00     0.212 C 
ATOM     10  C   UNL A   1      32.814  22.202  27.208  1.00  0.00     0.026 C 
ATOM     11  C   UNL A   1      33.323  22.848  25.899  1.00  0.00     0.044 C 
ATOM     12  C   UNL A   1      33.224  24.378  26.037  1.00  0.00     0.026 C 
ATOM     13  S   UNL A   1      32.054  22.252  24.681  1.00  0.00    -0.125 SA
ATOM     14  C   UNL A   1      33.136  22.397  23.234  1.00  0.00     0.176 C 
ATOM     15  N   UNL A   1      34.493  22.332  23.772  1.00  0.00    -0.311 N 
ATOM     16  C   UNL A   1      33.474  23.841  22.748  1.00  0.00     0.205 C 
ATOM     17  C   UNL A   1      34.925  23.405  23.029  1.00  0.00     0.250 C 
ATOM     18  O   UNL A   1      36.009  23.888  22.879  1.00  0.00    -0.272 OA
BRANCH  16  19
ATOM     19  N   UNL A   1      33.059  24.193  21.366  1.00  0.00    -0.340 N 
ATOM     20  C   UNL A   1      32.277  25.280  20.987  1.00  0.00     0.244 C 
ATOM     21  H   UNL A   1      33.368  23.596  20.645  1.00  0.00     0.164 HD
ATOM     22  O   UNL A   1      32.030  25.401  19.787  1.00  0.00    -0.273 OA
BRANCH  20  23
ATOM     23  C   UNL A   1      31.835  26.307  22.074  1.00  0.00     0.194 C 
BRANCH  23  24
ATOM     24  C   UNL A   1      32.861  27.083  22.889  1.00  0.00    -0.020 A 
ATOM     25  C   UNL A   1      32.651  27.148  24.285  1.00  0.00     0.006 A 
ATOM     26  C   UNL A   1      33.775  27.970  22.310  1.00  0.00     0.006 A 
ATOM     27  C   UNL A   1      33.232  28.156  25.049  1.00  0.00     0.000 A 
ATOM     28  C   UNL A   1      34.359  28.977  23.080  1.00  0.00     0.000 A 
ATOM     29  C   UNL A   1      34.062  29.090  24.438  1.00  0.00     0.000 A 
ENDBRANCH  23  24
BRANCH  23  30
ATOM     30  N   UNL A   1      30.880  27.281  21.502  1.00  0.00    -0.213 NA
ATOM     31  H   UNL A   1      30.092  26.751  21.127  1.00  0.00     0.149 HD
BRANCH  30  32
ATOM     32  N   UNL A   1      30.351  28.267  22.364  1.00  0.00    -0.257 N 
ATOM     33  C   UNL A   1      30.359  29.687  22.102  1.00  0.00     0.163 C 
ATOM     34  C   UNL A   1      29.279  27.912  23.210  1.00  0.00     0.331 C 
ATOM     35  C   UNL A   1      29.145  30.216  22.857  1.00  0.00     0.141 C 
ATOM     36  N   UNL A   1      28.589  29.071  23.520  1.00  0.00    -0.335 N 
ATOM     37  O   UNL A   1      28.945  26.781  23.532  1.00  0.00    -0.247 OA
ATOM     38  H   UNL A   1      27.811  29.105  24.122  1.00  0.00     0.165 HD
ENDBRANCH  30  32
ENDBRANCH  23  30
ENDBRANCH  20  23
ENDBRANCH  16  19
ENDBRANCH   7   9
ENDBRANCH   6   7
ENDBRANCH   5   6
ENDBRANCH   4   5
ENDBRANCH   3   4
ENDBRANCH   2   3
ENDBRANCH   1   2
BRANCH   1  39
ATOM     39  O   UNL A   1      42.809  18.622  25.433  1.00  0.00    -0.377 OA
BRANCH  39  40
ATOM     40  C   UNL A   1      43.833  19.602  25.357  1.00  0.00     0.188 C 
BRANCH  40  41
ATOM     41  C   UNL A   1      44.766  19.555  24.144  1.00  0.00     0.188 C 
BRANCH  41  42
ATOM     42  O   UNL A   1      44.561  20.673  23.286  1.00  0.00    -0.376 OA
BRANCH  42  43
ATOM     43  C   UNL A   1      45.069  21.928  23.730  1.00  0.00     0.202 C 
BRANCH  43  44
ATOM     44  C   UNL A   1      44.034  22.996  24.120  1.00  0.00     0.261 C 
BRANCH  44  45
ATOM     45  O   UNL A   1      44.452  24.016  25.048  1.00  0.00    -0.460 OA
BRANCH  45  46
ATOM     46  C   UNL A   1      44.669  23.697  26.340  1.00  0.00     0.338 C 
ATOM     47  O   UNL A   1      45.389  22.823  26.782  1.00  0.00    -0.246 OA
BRANCH  46  48
ATOM     48  C   UNL A   1      44.013  24.740  27.157  1.00  0.00     0.060 A 
ATOM     49  C   UNL A   1      44.445  26.069  27.056  1.00  0.00     0.016 A 
ATOM     50  C   UNL A   1      42.965  24.399  28.013  1.00  0.00     0.016 A 
ATOM     51  C   UNL A   1      43.834  27.063  27.826  1.00  0.00     0.010 A 
ATOM     52  C   UNL A   1      42.375  25.388  28.801  1.00  0.00     0.010 A 
ATOM     53  C   UNL A   1      42.821  26.719  28.728  1.00  0.00    -0.014 A 
BRANCH  53  54
ATOM     54  C   UNL A   1      42.335  27.697  29.731  1.00  0.00     0.031 A 
ATOM     55  C   UNL A   1      43.006  27.729  31.076  1.00  0.00     0.074 A 
ATOM     56  C   UNL A   1      41.290  28.504  29.475  1.00  0.00     0.049 A 
ATOM     57  N   UNL A   1      42.680  28.397  32.151  1.00  0.00    -0.248 NA
ATOM     58  C   UNL A   1      44.202  26.884  31.229  1.00  0.00     0.031 C 
ATOM     59  C   UNL A   1      40.580  28.597  28.201  1.00  0.00     0.029 A 
ATOM     60  N   UNL A   1      40.630  29.385  30.296  1.00  0.00    -0.354 N 
ATOM     61  C   UNL A   1      43.618  28.042  33.112  1.00  0.00     0.074 A 
ATOM     62  C   UNL A   1      44.517  27.090  32.499  1.00  0.00     0.031 C 
ATOM     63  C   UNL A   1      39.562  29.466  28.333  1.00  0.00     0.029 A 
ATOM     64  C   UNL A   1      39.527  29.958  29.710  1.00  0.00     0.049 A 
ATOM     65  H   UNL A   1      40.919  29.586  31.215  1.00  0.00     0.167 HD
ATOM     66  C   UNL A   1      43.717  28.466  34.393  1.00  0.00     0.031 A 
ATOM     67  C   UNL A   1      38.577  30.756  30.238  1.00  0.00     0.031 A 
ATOM     68  C   UNL A   1      42.812  29.397  35.009  1.00  0.00     0.049 A 
ATOM     69  C   UNL A   1      38.665  31.150  31.691  1.00  0.00     0.074 A 
ATOM     70  C   UNL A   1      42.845  29.910  36.293  1.00  0.00     0.029 A 
ATOM     71  N   UNL A   1      41.699  29.941  34.387  1.00  0.00    -0.354 N 
ATOM     72  N   UNL A   1      39.580  30.843  32.578  1.00  0.00    -0.248 NA
ATOM     73  C   UNL A   1      37.587  32.003  32.213  1.00  0.00     0.031 C 
ATOM     74  C   UNL A   1      41.717  30.715  36.470  1.00  0.00     0.029 A 
ATOM     75  C   UNL A   1      41.016  30.754  35.274  1.00  0.00     0.049 A 
ATOM     76  H   UNL A   1      41.435  29.774  33.454  1.00  0.00     0.167 HD
ATOM     77  C   UNL A   1      39.201  31.483  33.753  1.00  0.00     0.074 A 
ATOM     78  C   UNL A   1      37.984  32.210  33.461  1.00  0.00     0.031 C 
ATOM     79  C   UNL A   1      39.805  31.470  34.967  1.00  0.00     0.031 A 
BRANCH  66  80
ATOM     80  C   UNL A   1      44.820  27.885  35.232  1.00  0.00    -0.014 A 
ATOM     81  C   UNL A   1      44.632  26.713  35.979  1.00  0.00     0.009 A 
ATOM     82  C   UNL A   1      46.081  28.504  35.240  1.00  0.00     0.009 A 
ATOM     83  C   UNL A   1      45.679  26.187  36.741  1.00  0.00     0.001 A 
ATOM     84  C   UNL A   1      47.131  27.961  35.981  1.00  0.00     0.001 A 
ATOM     85  C   UNL A   1      46.927  26.808  36.736  1.00  0.00     0.000 A 
ENDBRANCH  66  80
BRANCH  67  86
ATOM     86  C   UNL A   1      37.425  31.199  29.409  1.00  0.00    -0.014 A 
ATOM     87  C   UNL A   1      37.391  32.488  28.853  1.00  0.00     0.009 A 
ATOM     88  C   UNL A   1      36.328  30.346  29.203  1.00  0.00     0.009 A 
ATOM     89  C   UNL A   1      36.274  32.922  28.135  1.00  0.00     0.001 A 
ATOM     90  C   UNL A   1      35.226  30.772  28.458  1.00  0.00     0.001 A 
ATOM     91  C   UNL A   1      35.195  32.062  27.934  1.00  0.00     0.000 A 
ENDBRANCH  67  86
BRANCH  79  92
ATOM     92  C   UNL A   1      39.180  32.288  36.061  1.00  0.00    -0.014 A 
ATOM     93  C   UNL A   1      39.548  33.626  36.275  1.00  0.00     0.009 A 
ATOM     94  C   UNL A   1      38.166  31.727  36.855  1.00  0.00     0.009 A 
ATOM     95  C   UNL A   1      38.934  34.375  37.281  1.00  0.00     0.001 A 
ATOM     96  C   UNL A   1      37.533  32.488  37.839  1.00  0.00     0.001 A 
ATOM     97  C   UNL A   1      37.923  33.808  38.056  1.00  0.00     0.000 A 
ENDBRANCH  79  92
ENDBRANCH  53  54
ENDBRANCH  46  48
ENDBRANCH  45  46
ENDBRANCH  44  45
ENDBRANCH  43  44
ENDBRANCH  42  43
ENDBRANCH  41  42
ENDBRANCH  40  41
ENDBRANCH  39  40
ENDBRANCH   1  39
TORSDOF 25
ENDMDL
MODEL 2
REMARK VINA RESULT:      -9.7      1.818      5.825
REMARK SMILES CC1(C)S[C@H]2[C@H](NC(=O)[C@H](NN3CCNC3=O)c3ccccc3)C(=O)N2[C@H]1C(=O)OCCOCCOCCOCCOC(=O)c1ccc(-c2c3nc(c(-c4ccccc4)c4ccc([nH]4)c(-c4ccccc4)c4nc(c(-c5ccccc5)c5ccc2[nH]5)C=C4)C=C3)cc1
REMARK SMILES IDX 35 1 34 2 33 3 32 4 31 5 30 6 28 7 29 8 27 9 1 10 2 11 3 12
REMARK SMILES IDX 4 13 5 14 26 15 6 16 24 17 25 18 7 19 8 20 9 22 10 23 18 24
REMARK SMILES IDX 19 25 23 26 20 27 22 28 21 29 11 30 12 32 13 33 16 34 14 35
REMARK SMILES IDX 15 36 17 37 36 39 37 40 38 41 39 42 40 43 41 44 42 45 43 46
REMARK SMILES IDX 44 47 45 48 46 49 92 50 47 51 91 52 48 53 49 54 50 55 85 56
REMARK SMILES IDX 51 57 90 58 84 59 86 60 52 61 89 62 83 63 82 64 53 66 75 67
REMARK SMILES IDX 60 68 74 69 61 70 64 71 73 72 87 73 62 74 63 75 72 77 88 78
REMARK SMILES IDX 65 79 54 80 55 81 59 82 56 83 58 84 57 85 76 86 77 87 81 88
REMARK SMILES IDX 78 89 80 90 79 91 66 92 67 93 71 94 68 95 70 96 69 97
REMARK H PARENT 7 21 11 31 15 38 86 65 64 76
REMARK Flexibility Score: inf
ROOT
ATOM      1  C   UNL A   1      42.470  19.595  26.544  1.00  0.00     0.188 C 
ENDROOT
BRANCH   1   2
ATOM      2  C   UNL A   1      41.124  20.180  26.979  1.00  0.00     0.188 C 
BRANCH   2   3
ATOM      3  O   UNL A   1      40.311  20.783  25.969  1.00  0.00    -0.376 OA
BRANCH   3   4
ATOM      4  C   UNL A   1      39.012  20.244  25.752  1.00  0.00     0.202 C 
BRANCH   4   5
ATOM      5  C   UNL A   1      37.933  21.337  25.737  1.00  0.00     0.261 C 
BRANCH   5   6
ATOM      6  O   UNL A   1      36.789  21.030  24.921  1.00  0.00    -0.462 OA
BRANCH   6   7
ATOM      7  C   UNL A   1      35.581  21.380  25.434  1.00  0.00     0.330 C 
ATOM      8  O   UNL A   1      35.317  21.453  26.630  1.00  0.00    -0.250 OA
BRANCH   7   9
ATOM      9  C   UNL A   1      34.494  21.479  24.363  1.00  0.00     0.212 C 
ATOM     10  C   UNL A   1      32.200  20.229  24.838  1.00  0.00     0.026 C 
ATOM     11  C   UNL A   1      32.954  21.559  24.610  1.00  0.00     0.044 C 
ATOM     12  C   UNL A   1      32.414  22.604  25.603  1.00  0.00     0.026 C 
ATOM     13  S   UNL A   1      32.408  21.999  22.891  1.00  0.00    -0.125 SA
ATOM     14  C   UNL A   1      33.856  23.022  22.515  1.00  0.00     0.176 C 
ATOM     15  N   UNL A   1      34.898  22.544  23.423  1.00  0.00    -0.311 N 
ATOM     16  C   UNL A   1      33.954  24.400  23.242  1.00  0.00     0.205 C 
ATOM     17  C   UNL A   1      35.269  23.815  23.794  1.00  0.00     0.250 C 
ATOM     18  O   UNL A   1      36.168  24.218  24.473  1.00  0.00    -0.272 OA
BRANCH  16  19
ATOM     19  N   UNL A   1      33.984  25.608  22.379  1.00  0.00    -0.340 N 
ATOM     20  C   UNL A   1      33.425  26.848  22.671  1.00  0.00     0.244 C 
ATOM     21  H   UNL A   1      34.445  25.522  21.512  1.00  0.00     0.164 HD
ATOM     22  O   UNL A   1      33.546  27.731  21.821  1.00  0.00    -0.273 OA
BRANCH  20  23
ATOM     23  C   UNL A   1      32.763  27.069  24.065  1.00  0.00     0.194 C 
BRANCH  23  24
ATOM     24  C   UNL A   1      33.231  28.182  24.993  1.00  0.00    -0.020 A 
ATOM     25  C   UNL A   1      33.947  27.794  26.148  1.00  0.00     0.006 A 
ATOM     26  C   UNL A   1      32.721  29.484  24.931  1.00  0.00     0.006 A 
ATOM     27  C   UNL A   1      34.029  28.634  27.254  1.00  0.00     0.000 A 
ATOM     28  C   UNL A   1      32.809  30.326  26.041  1.00  0.00     0.000 A 
ATOM     29  C   UNL A   1      33.432  29.890  27.210  1.00  0.00     0.000 A 
ENDBRANCH  23  24
BRANCH  23  30
ATOM     30  N   UNL A   1      31.295  27.181  23.925  1.00  0.00    -0.213 NA
ATOM     31  H   UNL A   1      31.081  27.162  22.928  1.00  0.00     0.149 HD
BRANCH  30  32
ATOM     32  N   UNL A   1      30.498  26.193  24.544  1.00  0.00    -0.257 N 
ATOM     33  C   UNL A   1      30.842  25.491  25.759  1.00  0.00     0.163 C 
ATOM     34  C   UNL A   1      29.099  26.256  24.373  1.00  0.00     0.331 C 
ATOM     35  C   UNL A   1      29.497  25.128  26.377  1.00  0.00     0.141 C 
ATOM     36  N   UNL A   1      28.515  25.601  25.443  1.00  0.00    -0.335 N 
ATOM     37  O   UNL A   1      28.496  26.865  23.501  1.00  0.00    -0.247 OA
ATOM     38  H   UNL A   1      27.545  25.475  25.550  1.00  0.00     0.165 HD
ENDBRANCH  30  32
ENDBRANCH  23  30
ENDBRANCH  20  23
ENDBRANCH  16  19
ENDBRANCH   7   9
ENDBRANCH   6   7
ENDBRANCH   5   6
ENDBRANCH   4   5
ENDBRANCH   3   4
ENDBRANCH   2   3
ENDBRANCH   1   2
BRANCH   1  39
ATOM     39  O   UNL A   1      42.603  19.348  25.154  1.00  0.00    -0.377 OA
BRANCH  39  40
ATOM     40  C   UNL A   1      43.834  18.841  24.660  1.00  0.00     0.188 C 
BRANCH  40  41
ATOM     41  C   UNL A   1      44.934  18.544  25.683  1.00  0.00     0.188 C 
BRANCH  41  42
ATOM     42  O   UNL A   1      46.110  19.303  25.417  1.00  0.00    -0.376 OA
BRANCH  42  43
ATOM     43  C   UNL A   1      45.937  20.542  24.736  1.00  0.00     0.202 C 
BRANCH  43  44
ATOM     44  C   UNL A   1      45.761  21.795  25.610  1.00  0.00     0.261 C 
BRANCH  44  45
ATOM     45  O   UNL A   1      45.188  22.962  24.988  1.00  0.00    -0.460 OA
BRANCH  45  46
ATOM     46  C   UNL A   1      43.851  23.134  24.991  1.00  0.00     0.338 C 
ATOM     47  O   UNL A   1      43.024  22.561  24.308  1.00  0.00    -0.246 OA
BRANCH  46  48
ATOM     48  C   UNL A   1      43.533  24.022  26.128  1.00  0.00     0.060 A 
ATOM     49  C   UNL A   1      44.040  25.329  26.146  1.00  0.00     0.016 A 
ATOM     50  C   UNL A   1      42.726  23.562  27.169  1.00  0.00     0.016 A 
ATOM     51  C   UNL A   1      43.749  26.177  27.219  1.00  0.00     0.010 A 
ATOM     52  C   UNL A   1      42.458  24.401  28.252  1.00  0.00     0.010 A 
ATOM     53  C   UNL A   1      42.987  25.703  28.293  1.00  0.00    -0.014 A 
BRANCH  53  54
ATOM     54  C   UNL A   1      42.876  26.485  29.548  1.00  0.00     0.031 A 
ATOM     55  C   UNL A   1      41.738  27.458  29.681  1.00  0.00     0.074 A 
ATOM     56  C   UNL A   1      43.792  26.374  30.526  1.00  0.00     0.049 A 
ATOM     57  N   UNL A   1      41.505  28.340  30.617  1.00  0.00    -0.248 NA
ATOM     58  C   UNL A   1      40.732  27.437  28.606  1.00  0.00     0.031 C 
ATOM     59  C   UNL A   1      44.918  25.442  30.535  1.00  0.00     0.029 A 
ATOM     60  N   UNL A   1      43.926  27.079  31.697  1.00  0.00    -0.354 N 
ATOM     61  C   UNL A   1      40.337  28.990  30.238  1.00  0.00     0.074 A 
ATOM     62  C   UNL A   1      39.917  28.411  28.981  1.00  0.00     0.031 C 
ATOM     63  C   UNL A   1      45.647  25.653  31.645  1.00  0.00     0.029 A 
ATOM     64  C   UNL A   1      45.062  26.759  32.402  1.00  0.00     0.049 A 
ATOM     65  H   UNL A   1      43.273  27.749  32.001  1.00  0.00     0.167 HD
ATOM     66  C   UNL A   1      39.678  29.984  30.876  1.00  0.00     0.031 A 
ATOM     67  C   UNL A   1      45.587  27.322  33.508  1.00  0.00     0.031 A 
ATOM     68  C   UNL A   1      40.107  30.573  32.115  1.00  0.00     0.049 A 
ATOM     69  C   UNL A   1      44.876  28.483  34.157  1.00  0.00     0.074 A 
ATOM     70  C   UNL A   1      39.492  31.567  32.855  1.00  0.00     0.029 A 
ATOM     71  N   UNL A   1      41.270  30.232  32.787  1.00  0.00    -0.354 N 
ATOM     72  N   UNL A   1      43.749  29.061  33.813  1.00  0.00    -0.248 NA
ATOM     73  C   UNL A   1      45.510  29.068  35.347  1.00  0.00     0.031 C 
ATOM     74  C   UNL A   1      40.315  31.873  33.942  1.00  0.00     0.029 A 
ATOM     75  C   UNL A   1      41.410  31.024  33.914  1.00  0.00     0.049 A 
ATOM     76  H   UNL A   1      41.901  29.532  32.506  1.00  0.00     0.167 HD
ATOM     77  C   UNL A   1      43.530  30.059  34.757  1.00  0.00     0.074 A 
ATOM     78  C   UNL A   1      44.629  29.996  35.697  1.00  0.00     0.031 C 
ATOM     79  C   UNL A   1      42.511  30.948  34.838  1.00  0.00     0.031 A 
BRANCH  66  80
ATOM     80  C   UNL A   1      38.445  30.534  30.216  1.00  0.00    -0.014 A 
ATOM     81  C   UNL A   1      38.506  31.643  29.359  1.00  0.00     0.009 A 
ATOM     82  C   UNL A   1      37.209  29.902  30.427  1.00  0.00     0.009 A 
ATOM     83  C   UNL A   1      37.346  32.127  28.748  1.00  0.00     0.001 A 
ATOM     84  C   UNL A   1      36.057  30.371  29.794  1.00  0.00     0.001 A 
ATOM     85  C   UNL A   1      36.125  31.487  28.962  1.00  0.00     0.000 A 
ENDBRANCH  66  80
BRANCH  67  86
ATOM     86  C   UNL A   1      46.883  26.838  34.054  1.00  0.00    -0.014 A 
ATOM     87  C   UNL A   1      46.921  25.832  35.032  1.00  0.00     0.009 A 
ATOM     88  C   UNL A   1      48.092  27.410  33.626  1.00  0.00     0.009 A 
ATOM     89  C   UNL A   1      48.138  25.432  35.591  1.00  0.00     0.001 A 
ATOM     90  C   UNL A   1      49.309  26.986  34.163  1.00  0.00     0.001 A 
ATOM     91  C   UNL A   1      49.331  26.005  35.152  1.00  0.00     0.000 A 
ENDBRANCH  67  86
BRANCH  79  92
ATOM     92  C   UNL A   1      42.517  31.906  35.997  1.00  0.00    -0.014 A 
ATOM     93  C   UNL A   1      41.989  31.544  37.246  1.00  0.00     0.009 A 
ATOM     94  C   UNL A   1      43.114  33.169  35.851  1.00  0.00     0.009 A 
ATOM     95  C   UNL A   1      42.030  32.440  38.316  1.00  0.00     0.001 A 
ATOM     96  C   UNL A   1      43.180  34.051  36.932  1.00  0.00     0.001 A 
ATOM     97  C   UNL A   1      42.631  33.689  38.160  1.00  0.00     0.000 A 
ENDBRANCH  79  92
ENDBRANCH  53  54
ENDBRANCH  46  48
ENDBRANCH  45  46
ENDBRANCH  44  45
ENDBRANCH  43  44
ENDBRANCH  42  43
ENDBRANCH  41  42
ENDBRANCH  40  41
ENDBRANCH  39  40
ENDBRANCH   1  39
TORSDOF 25
ENDMDL
MODEL 3
REMARK VINA RESULT:      -8.1      2.732      6.651
REMARK SMILES CC1(C)S[C@H]2[C@H](NC(=O)[C@H](NN3CCNC3=O)c3ccccc3)C(=O)N2[C@H]1C(=O)OCCOCCOCCOCCOC(=O)c1ccc(-c2c3nc(c(-c4ccccc4)c4ccc([nH]4)c(-c4ccccc4)c4nc(c(-c5ccccc5)c5ccc2[nH]5)C=C4)C=C3)cc1
REMARK SMILES IDX 35 1 34 2 33 3 32 4 31 5 30 6 28 7 29 8 27 9 1 10 2 11 3 12
REMARK SMILES IDX 4 13 5 14 26 15 6 16 24 17 25 18 7 19 8 20 9 22 10 23 18 24
REMARK SMILES IDX 19 25 23 26 20 27 22 28 21 29 11 30 12 32 13 33 16 34 14 35
REMARK SMILES IDX 15 36 17 37 36 39 37 40 38 41 39 42 40 43 41 44 42 45 43 46
REMARK SMILES IDX 44 47 45 48 46 49 92 50 47 51 91 52 48 53 49 54 50 55 85 56
REMARK SMILES IDX 51 57 90 58 84 59 86 60 52 61 89 62 83 63 82 64 53 66 75 67
REMARK SMILES IDX 60 68 74 69 61 70 64 71 73 72 87 73 62 74 63 75 72 77 88 78
REMARK SMILES IDX 65 79 54 80 55 81 59 82 56 83 58 84 57 85 76 86 77 87 81 88
REMARK SMILES IDX 78 89 80 90 79 91 66 92 67 93 71 94 68 95 70 96 69 97
REMARK H PARENT 7 21 11 31 15 38 86 65 64 76
REMARK Flexibility Score: inf
ROOT
ATOM      1  C   UNL A   1      41.588  20.664  26.171  1.00  0.00     0.188 C 
ENDROOT
BRANCH   1   2
ATOM      2  C   UNL A   1      40.932  21.951  26.677  1.00  0.00     0.188 C 
BRANCH   2   3
ATOM      3  O   UNL A   1      39.525  21.917  26.931  1.00  0.00    -0.376 OA
BRANCH   3   4
ATOM      4  C   UNL A   1      38.722  22.946  26.363  1.00  0.00     0.202 C 
BRANCH   4   5
ATOM      5  C   UNL A   1      37.467  22.381  25.679  1.00  0.00     0.261 C 
BRANCH   5   6
ATOM      6  O   UNL A   1      36.434  23.354  25.440  1.00  0.00    -0.462 OA
BRANCH   6   7
ATOM      7  C   UNL A   1      35.217  23.071  25.971  1.00  0.00     0.330 C 
ATOM      8  O   UNL A   1      34.881  23.301  27.129  1.00  0.00    -0.250 OA
BRANCH   7   9
ATOM      9  C   UNL A   1      34.347  22.233  25.033  1.00  0.00     0.212 C 
ATOM     10  C   UNL A   1      32.569  20.606  26.149  1.00  0.00     0.026 C 
ATOM     11  C   UNL A   1      32.853  21.838  25.259  1.00  0.00     0.044 C 
ATOM     12  C   UNL A   1      31.838  22.941  25.612  1.00  0.00     0.026 C 
ATOM     13  S   UNL A   1      32.473  21.165  23.571  1.00  0.00    -0.125 SA
ATOM     14  C   UNL A   1      33.527  22.342  22.683  1.00  0.00     0.176 C 
ATOM     15  N   UNL A   1      34.510  22.784  23.672  1.00  0.00    -0.311 N 
ATOM     16  C   UNL A   1      33.033  23.821  22.618  1.00  0.00     0.205 C 
ATOM     17  C   UNL A   1      34.362  24.111  23.343  1.00  0.00     0.250 C 
ATOM     18  O   UNL A   1      34.950  25.091  23.697  1.00  0.00    -0.272 OA
BRANCH  16  19
ATOM     19  N   UNL A   1      32.789  24.382  21.265  1.00  0.00    -0.340 N 
ATOM     20  C   UNL A   1      32.095  25.551  20.966  1.00  0.00     0.244 C 
ATOM     21  H   UNL A   1      33.153  23.875  20.502  1.00  0.00     0.164 HD
ATOM     22  O   UNL A   1      31.988  25.850  19.776  1.00  0.00    -0.273 OA
BRANCH  20  23
ATOM     23  C   UNL A   1      31.575  26.441  22.136  1.00  0.00     0.194 C 
BRANCH  23  24
ATOM     24  C   UNL A   1      32.539  27.096  23.117  1.00  0.00    -0.020 A 
ATOM     25  C   UNL A   1      32.239  26.965  24.492  1.00  0.00     0.006 A 
ATOM     26  C   UNL A   1      33.478  28.058  22.728  1.00  0.00     0.006 A 
ATOM     27  C   UNL A   1      32.759  27.856  25.425  1.00  0.00     0.000 A 
ATOM     28  C   UNL A   1      34.001  28.947  23.668  1.00  0.00     0.000 A 
ATOM     29  C   UNL A   1      33.616  28.868  25.006  1.00  0.00     0.000 A 
ENDBRANCH  23  24
BRANCH  23  30
ATOM     30  N   UNL A   1      30.669  27.490  21.621  1.00  0.00    -0.213 NA
ATOM     31  H   UNL A   1      29.901  27.020  21.141  1.00  0.00     0.149 HD
BRANCH  30  32
ATOM     32  N   UNL A   1      30.099  28.383  22.554  1.00  0.00    -0.257 N 
ATOM     33  C   UNL A   1      30.186  29.823  22.485  1.00  0.00     0.163 C 
ATOM     34  C   UNL A   1      28.938  27.977  23.246  1.00  0.00     0.331 C 
ATOM     35  C   UNL A   1      28.927  30.311  23.191  1.00  0.00     0.141 C 
ATOM     36  N   UNL A   1      28.266  29.120  23.644  1.00  0.00    -0.335 N 
ATOM     37  O   UNL A   1      28.531  26.833  23.384  1.00  0.00    -0.247 OA
ATOM     38  H   UNL A   1      27.436  29.117  24.173  1.00  0.00     0.165 HD
ENDBRANCH  30  32
ENDBRANCH  23  30
ENDBRANCH  20  23
ENDBRANCH  16  19
ENDBRANCH   7   9
ENDBRANCH   6   7
ENDBRANCH   5   6
ENDBRANCH   4   5
ENDBRANCH   3   4
ENDBRANCH   2   3
ENDBRANCH   1   2
BRANCH   1  39
ATOM     39  O   UNL A   1      42.898  20.815  25.649  1.00  0.00    -0.377 OA
BRANCH  39  40
ATOM     40  C   UNL A   1      43.609  22.014  25.914  1.00  0.00     0.188 C 
BRANCH  40  41
ATOM     41  C   UNL A   1      44.989  22.173  25.269  1.00  0.00     0.188 C 
BRANCH  41  42
ATOM     42  O   UNL A   1      45.138  23.455  24.667  1.00  0.00    -0.376 OA
BRANCH  42  43
ATOM     43  C   UNL A   1      44.885  24.588  25.493  1.00  0.00     0.202 C 
BRANCH  43  44
ATOM     44  C   UNL A   1      43.784  25.554  25.027  1.00  0.00     0.261 C 
BRANCH  44  45
ATOM     45  O   UNL A   1      43.123  26.343  26.037  1.00  0.00    -0.460 OA
BRANCH  45  46
ATOM     46  C   UNL A   1      43.720  27.453  26.517  1.00  0.00     0.338 C 
ATOM     47  O   UNL A   1      43.948  28.491  25.926  1.00  0.00    -0.246 OA
BRANCH  46  48
ATOM     48  C   UNL A   1      43.883  27.259  27.972  1.00  0.00     0.060 A 
ATOM     49  C   UNL A   1      42.760  26.982  28.763  1.00  0.00     0.016 A 
ATOM     50  C   UNL A   1      45.151  27.342  28.548  1.00  0.00     0.016 A 
ATOM     51  C   UNL A   1      42.903  26.800  30.141  1.00  0.00     0.010 A 
ATOM     52  C   UNL A   1      45.289  27.186  29.929  1.00  0.00     0.010 A 
ATOM     53  C   UNL A   1      44.164  26.937  30.734  1.00  0.00    -0.014 A 
BRANCH  53  54
ATOM     54  C   UNL A   1      44.305  27.002  32.208  1.00  0.00     0.031 A 
ATOM     55  C   UNL A   1      44.095  28.328  32.885  1.00  0.00     0.074 A 
ATOM     56  C   UNL A   1      44.662  25.922  32.927  1.00  0.00     0.049 A 
ATOM     57  N   UNL A   1      44.288  28.663  34.134  1.00  0.00    -0.248 NA
ATOM     58  C   UNL A   1      43.608  29.426  32.033  1.00  0.00     0.031 C 
ATOM     59  C   UNL A   1      44.857  24.575  32.396  1.00  0.00     0.029 A 
ATOM     60  N   UNL A   1      44.948  25.805  34.265  1.00  0.00    -0.354 N 
ATOM     61  C   UNL A   1      43.964  30.011  34.214  1.00  0.00     0.074 A 
ATOM     62  C   UNL A   1      43.575  30.437  32.888  1.00  0.00     0.031 C 
ATOM     63  C   UNL A   1      45.260  23.770  33.395  1.00  0.00     0.029 A 
ATOM     64  C   UNL A   1      45.389  24.554  34.622  1.00  0.00     0.049 A 
ATOM     65  H   UNL A   1      44.847  26.546  34.905  1.00  0.00     0.167 HD
ATOM     66  C   UNL A   1      43.994  30.824  35.295  1.00  0.00     0.031 A 
ATOM     67  C   UNL A   1      45.877  24.106  35.796  1.00  0.00     0.031 A 
ATOM     68  C   UNL A   1      44.400  30.407  36.610  1.00  0.00     0.049 A 
ATOM     69  C   UNL A   1      45.977  25.052  36.966  1.00  0.00     0.074 A 
ATOM     70  C   UNL A   1      44.437  31.149  37.777  1.00  0.00     0.029 A 
ATOM     71  N   UNL A   1      44.854  29.136  36.926  1.00  0.00    -0.354 N 
ATOM     72  N   UNL A   1      45.627  26.314  37.043  1.00  0.00    -0.248 NA
ATOM     73  C   UNL A   1      46.539  24.510  38.212  1.00  0.00     0.031 C 
ATOM     74  C   UNL A   1      44.975  30.346  38.786  1.00  0.00     0.029 A 
ATOM     75  C   UNL A   1      45.212  29.085  38.262  1.00  0.00     0.049 A 
ATOM     76  H   UNL A   1      44.914  28.383  36.295  1.00  0.00     0.167 HD
ATOM     77  C   UNL A   1      45.904  26.708  38.347  1.00  0.00     0.074 A 
ATOM     78  C   UNL A   1      46.433  25.547  39.032  1.00  0.00     0.031 C 
ATOM     79  C   UNL A   1      45.737  27.921  38.927  1.00  0.00     0.031 A 
BRANCH  66  80
ATOM     80  C   UNL A   1      43.623  32.265  35.090  1.00  0.00    -0.014 A 
ATOM     81  C   UNL A   1      44.582  33.224  34.730  1.00  0.00     0.009 A 
ATOM     82  C   UNL A   1      42.282  32.659  35.221  1.00  0.00     0.009 A 
ATOM     83  C   UNL A   1      44.208  34.556  34.532  1.00  0.00     0.001 A 
ATOM     84  C   UNL A   1      41.907  33.985  34.997  1.00  0.00     0.001 A 
ATOM     85  C   UNL A   1      42.871  34.933  34.660  1.00  0.00     0.000 A 
ENDBRANCH  66  80
BRANCH  67  86
ATOM     86  C   UNL A   1      46.363  22.706  35.922  1.00  0.00    -0.014 A 
ATOM     87  C   UNL A   1      47.691  22.374  35.608  1.00  0.00     0.009 A 
ATOM     88  C   UNL A   1      45.486  21.683  36.318  1.00  0.00     0.009 A 
ATOM     89  C   UNL A   1      48.120  21.045  35.661  1.00  0.00     0.001 A 
ATOM     90  C   UNL A   1      45.927  20.360  36.400  1.00  0.00     0.001 A 
ATOM     91  C   UNL A   1      47.240  20.041  36.060  1.00  0.00     0.000 A 
ENDBRANCH  67  86
BRANCH  79  92
ATOM     92  C   UNL A   1      46.099  28.051  40.380  1.00  0.00    -0.014 A 
ATOM     93  C   UNL A   1      45.171  27.766  41.393  1.00  0.00     0.009 A 
ATOM     94  C   UNL A   1      47.409  28.409  40.740  1.00  0.00     0.009 A 
ATOM     95  C   UNL A   1      45.537  27.867  42.737  1.00  0.00     0.001 A 
ATOM     96  C   UNL A   1      47.781  28.480  42.084  1.00  0.00     0.001 A 
ATOM     97  C   UNL A   1      46.843  28.217  43.080  1.00  0.00     0.000 A 
ENDBRANCH  79  92
ENDBRANCH  53  54
ENDBRANCH  46  48
ENDBRANCH  45  46
ENDBRANCH  44  45
ENDBRANCH  43  44
ENDBRANCH  42  43
ENDBRANCH  41  42
ENDBRANCH  40  41
ENDBRANCH  39  40
ENDBRANCH   1  39
TORSDOF 25
ENDMDL
