MODEL 1
REMARK VINA RESULT:      -9.1      0.000      0.000
REMARK SMILES Cc1nc(C[NH2+][C@@H](C(=O)OCCOCCOCCOCCOC(=O)c2ccc(-c3c4nc(c(-c5ccccc5)c5ccc([nH]5)c(-c5ccccc5)c5nc(c(-c6ccccc6)c6ccc3[nH]6)C=C5)C=C4)cc2)c2ccccc2)sc1C
REMARK SMILES IDX 15 1 14 2 13 3 12 4 11 5 10 6 8 7 9 8 7 9 6 10 5 13 4 14
REMARK SMILES IDX 1 15 2 16 3 17 80 18 79 19 81 20 73 21 74 22 78 23 75 24
REMARK SMILES IDX 77 25 76 26 16 27 17 28 18 29 19 30 20 31 21 32 22 33 23 34
REMARK SMILES IDX 24 35 25 36 26 37 72 38 27 39 71 40 28 41 29 42 30 43 65 44
REMARK SMILES IDX 31 45 70 46 64 47 66 48 32 49 69 50 63 51 62 52 33 54 55 55
REMARK SMILES IDX 40 56 54 57 41 58 44 59 53 60 67 61 42 62 43 63 52 65 68 66
REMARK SMILES IDX 45 67 34 68 35 69 39 70 36 71 38 72 37 73 56 74 57 75 61 76
REMARK SMILES IDX 58 77 60 78 59 79 46 80 47 81 51 82 48 83 50 84 49 85
REMARK H PARENT 6 11 6 12 66 53 44 64
REMARK Flexibility Score: inf
ROOT
ATOM      1  C   UNL A   1      34.470  24.844  25.427  1.00  0.00     0.188 C 
ENDROOT
BRANCH   1   2
ATOM      2  C   UNL A   1      34.191  26.158  24.685  1.00  0.00     0.188 C 
BRANCH   2   3
ATOM      3  O   UNL A   1      33.417  26.030  23.511  1.00  0.00    -0.376 OA
BRANCH   3   4
ATOM      4  C   UNL A   1      33.858  25.197  22.449  1.00  0.00     0.202 C 
BRANCH   4   5
ATOM      5  C   UNL A   1      33.249  23.833  22.040  1.00  0.00     0.261 C 
BRANCH   5   6
ATOM      6  O   UNL A   1      33.384  22.727  22.945  1.00  0.00    -0.459 OA
BRANCH   6   7
ATOM      7  C   UNL A   1      32.437  21.761  22.926  1.00  0.00     0.369 C 
ATOM      8  O   UNL A   1      31.875  21.405  21.891  1.00  0.00    -0.245 OA
BRANCH   7   9
ATOM      9  C   UNL A   1      32.151  21.083  24.305  1.00  0.00     0.325 C 
BRANCH   9  10
ATOM     10  N   UNL A   1      32.233  21.864  25.560  1.00  0.00    -0.325 N 
ATOM     11  H   UNL A   1      32.660  21.254  26.258  1.00  0.00     0.347 HD
ATOM     12  H   UNL A   1      32.751  22.696  25.284  1.00  0.00     0.347 HD
BRANCH  10  13
ATOM     13  C   UNL A   1      31.018  22.409  26.162  1.00  0.00     0.330 C 
BRANCH  13  14
ATOM     14  C   UNL A   1      30.883  23.901  25.865  1.00  0.00     0.148 A 
ATOM     15  C   UNL A   1      31.242  27.321  26.950  1.00  0.00     0.068 C 
ATOM     16  C   UNL A   1      30.961  26.112  26.132  1.00  0.00     0.052 A 
ATOM     17  N   UNL A   1      31.192  24.871  26.706  1.00  0.00    -0.240 NA
ATOM     18  C   UNL A   1      30.477  26.074  24.835  1.00  0.00     0.025 A 
ATOM     19  S   UNL A   1      30.306  24.444  24.331  1.00  0.00    -0.118 S 
ATOM     20  C   UNL A   1      30.121  27.208  23.936  1.00  0.00     0.058 C 
ENDBRANCH  13  14
ENDBRANCH  10  13
ENDBRANCH   9  10
BRANCH   9  21
ATOM     21  C   UNL A   1      32.984  19.786  24.383  1.00  0.00     0.021 A 
ATOM     22  C   UNL A   1      34.327  19.745  24.805  1.00  0.00     0.010 A 
ATOM     23  C   UNL A   1      32.429  18.597  23.882  1.00  0.00     0.010 A 
ATOM     24  C   UNL A   1      35.099  18.586  24.674  1.00  0.00     0.001 A 
ATOM     25  C   UNL A   1      33.193  17.432  23.772  1.00  0.00     0.001 A 
ATOM     26  C   UNL A   1      34.532  17.430  24.151  1.00  0.00     0.000 A 
ENDBRANCH   9  21
ENDBRANCH   7   9
ENDBRANCH   6   7
ENDBRANCH   5   6
ENDBRANCH   4   5
ENDBRANCH   3   4
ENDBRANCH   2   3
ENDBRANCH   1   2
BRANCH   1  27
ATOM     27  O   UNL A   1      35.833  24.482  25.501  1.00  0.00    -0.377 OA
BRANCH  27  28
ATOM     28  C   UNL A   1      36.169  23.115  25.341  1.00  0.00     0.188 C 
BRANCH  28  29
ATOM     29  C   UNL A   1      36.925  22.614  24.094  1.00  0.00     0.188 C 
BRANCH  29  30
ATOM     30  O   UNL A   1      37.430  21.288  24.182  1.00  0.00    -0.376 OA
BRANCH  30  31
ATOM     31  C   UNL A   1      38.236  20.942  25.297  1.00  0.00     0.202 C 
BRANCH  31  32
ATOM     32  C   UNL A   1      39.100  19.680  25.158  1.00  0.00     0.261 C 
BRANCH  32  33
ATOM     33  O   UNL A   1      39.994  19.405  26.244  1.00  0.00    -0.460 OA
BRANCH  33  34
ATOM     34  C   UNL A   1      41.307  19.661  26.062  1.00  0.00     0.338 C 
ATOM     35  O   UNL A   1      42.120  18.985  25.460  1.00  0.00    -0.246 OA
BRANCH  34  36
ATOM     36  C   UNL A   1      41.563  21.013  26.593  1.00  0.00     0.060 A 
ATOM     37  C   UNL A   1      42.012  22.021  25.729  1.00  0.00     0.016 A 
ATOM     38  C   UNL A   1      41.314  21.288  27.938  1.00  0.00     0.016 A 
ATOM     39  C   UNL A   1      42.231  23.311  26.218  1.00  0.00     0.010 A 
ATOM     40  C   UNL A   1      41.553  22.570  28.430  1.00  0.00     0.010 A 
ATOM     41  C   UNL A   1      42.038  23.579  27.579  1.00  0.00    -0.014 A 
BRANCH  41  42
ATOM     42  C   UNL A   1      42.538  24.840  28.176  1.00  0.00     0.031 A 
ATOM     43  C   UNL A   1      41.542  25.936  28.437  1.00  0.00     0.074 A 
ATOM     44  C   UNL A   1      43.839  25.026  28.454  1.00  0.00     0.049 A 
ATOM     45  N   UNL A   1      41.742  27.165  28.834  1.00  0.00    -0.248 NA
ATOM     46  C   UNL A   1      40.126  25.597  28.208  1.00  0.00     0.031 C 
ATOM     47  C   UNL A   1      44.894  24.027  28.296  1.00  0.00     0.029 A 
ATOM     48  N   UNL A   1      44.494  26.141  28.917  1.00  0.00    -0.354 N 
ATOM     49  C   UNL A   1      40.484  27.750  28.886  1.00  0.00     0.074 A 
ATOM     50  C   UNL A   1      39.529  26.753  28.455  1.00  0.00     0.031 C 
ATOM     51  C   UNL A   1      46.070  24.582  28.642  1.00  0.00     0.029 A 
ATOM     52  C   UNL A   1      45.855  25.982  29.002  1.00  0.00     0.049 A 
ATOM     53  H   UNL A   1      44.031  26.973  29.163  1.00  0.00     0.167 HD
ATOM     54  C   UNL A   1      40.150  29.008  29.258  1.00  0.00     0.031 A 
ATOM     55  C   UNL A   1      46.816  26.876  29.304  1.00  0.00     0.031 A 
ATOM     56  C   UNL A   1      41.101  30.007  29.664  1.00  0.00     0.049 A 
ATOM     57  C   UNL A   1      46.430  28.298  29.625  1.00  0.00     0.074 A 
ATOM     58  C   UNL A   1      40.864  31.308  30.068  1.00  0.00     0.029 A 
ATOM     59  N   UNL A   1      42.473  29.815  29.708  1.00  0.00    -0.354 N 
ATOM     60  N   UNL A   1      45.236  28.839  29.689  1.00  0.00    -0.248 NA
ATOM     61  C   UNL A   1      47.526  29.233  29.920  1.00  0.00     0.031 C 
ATOM     62  C   UNL A   1      42.098  31.924  30.295  1.00  0.00     0.029 A 
ATOM     63  C   UNL A   1      43.099  30.984  30.105  1.00  0.00     0.049 A 
ATOM     64  H   UNL A   1      42.934  28.973  29.490  1.00  0.00     0.167 HD
ATOM     65  C   UNL A   1      45.437  30.163  30.067  1.00  0.00     0.074 A 
ATOM     66  C   UNL A   1      46.865  30.340  30.227  1.00  0.00     0.031 C 
ATOM     67  C   UNL A   1      44.521  31.142  30.268  1.00  0.00     0.031 A 
BRANCH  54  68
ATOM     68  C   UNL A   1      38.696  29.383  29.195  1.00  0.00    -0.014 A 
ATOM     69  C   UNL A   1      37.855  29.248  30.311  1.00  0.00     0.009 A 
ATOM     70  C   UNL A   1      38.164  29.901  28.004  1.00  0.00     0.009 A 
ATOM     71  C   UNL A   1      36.503  29.589  30.223  1.00  0.00     0.001 A 
ATOM     72  C   UNL A   1      36.821  30.271  27.928  1.00  0.00     0.001 A 
ATOM     73  C   UNL A   1      35.989  30.105  29.035  1.00  0.00     0.000 A 
ENDBRANCH  54  68
BRANCH  55  74
ATOM     74  C   UNL A   1      48.249  26.472  29.295  1.00  0.00    -0.014 A 
ATOM     75  C   UNL A   1      49.014  26.574  28.123  1.00  0.00     0.009 A 
ATOM     76  C   UNL A   1      48.851  25.951  30.452  1.00  0.00     0.009 A 
ATOM     77  C   UNL A   1      50.340  26.135  28.101  1.00  0.00     0.001 A 
ATOM     78  C   UNL A   1      50.186  25.543  30.436  1.00  0.00     0.001 A 
ATOM     79  C   UNL A   1      50.927  25.626  29.259  1.00  0.00     0.000 A 
ENDBRANCH  55  74
BRANCH  67  80
ATOM     80  C   UNL A   1      45.024  32.480  30.740  1.00  0.00    -0.014 A 
ATOM     81  C   UNL A   1      45.344  33.507  29.841  1.00  0.00     0.009 A 
ATOM     82  C   UNL A   1      45.126  32.729  32.119  1.00  0.00     0.009 A 
ATOM     83  C   UNL A   1      45.788  34.745  30.312  1.00  0.00     0.001 A 
ATOM     84  C   UNL A   1      45.536  33.978  32.587  1.00  0.00     0.001 A 
ATOM     85  C   UNL A   1      45.878  34.981  31.684  1.00  0.00     0.000 A 
ENDBRANCH  67  80
ENDBRANCH  41  42
ENDBRANCH  34  36
ENDBRANCH  33  34
ENDBRANCH  32  33
ENDBRANCH  31  32
ENDBRANCH  30  31
ENDBRANCH  29  30
ENDBRANCH  28  29
ENDBRANCH  27  28
ENDBRANCH   1  27
TORSDOF 24
ENDMDL
MODEL 2
REMARK VINA RESULT:      -8.9      1.265      5.973
REMARK SMILES Cc1nc(C[NH2+][C@@H](C(=O)OCCOCCOCCOCCOC(=O)c2ccc(-c3c4nc(c(-c5ccccc5)c5ccc([nH]5)c(-c5ccccc5)c5nc(c(-c6ccccc6)c6ccc3[nH]6)C=C5)C=C4)cc2)c2ccccc2)sc1C
REMARK SMILES IDX 15 1 14 2 13 3 12 4 11 5 10 6 8 7 9 8 7 9 6 10 5 13 4 14
REMARK SMILES IDX 1 15 2 16 3 17 80 18 79 19 81 20 73 21 74 22 78 23 75 24
REMARK SMILES IDX 77 25 76 26 16 27 17 28 18 29 19 30 20 31 21 32 22 33 23 34
REMARK SMILES IDX 24 35 25 36 26 37 72 38 27 39 71 40 28 41 29 42 30 43 65 44
REMARK SMILES IDX 31 45 70 46 64 47 66 48 32 49 69 50 63 51 62 52 33 54 55 55
REMARK SMILES IDX 40 56 54 57 41 58 44 59 53 60 67 61 42 62 43 63 52 65 68 66
REMARK SMILES IDX 45 67 34 68 35 69 39 70 36 71 38 72 37 73 56 74 57 75 61 76
REMARK SMILES IDX 58 77 60 78 59 79 46 80 47 81 51 82 48 83 50 84 49 85
REMARK H PARENT 6 11 6 12 66 53 44 64
REMARK Flexibility Score: inf
ROOT
ATOM      1  C   UNL A   1      34.605  24.416  25.942  1.00  0.00     0.188 C 
ENDROOT
BRANCH   1   2
ATOM      2  C   UNL A   1      33.656  25.604  25.733  1.00  0.00     0.188 C 
BRANCH   2   3
ATOM      3  O   UNL A   1      32.482  25.578  26.516  1.00  0.00    -0.376 OA
BRANCH   3   4
ATOM      4  C   UNL A   1      31.426  24.685  26.194  1.00  0.00     0.202 C 
BRANCH   4   5
ATOM      5  C   UNL A   1      31.243  23.246  26.738  1.00  0.00     0.261 C 
BRANCH   5   6
ATOM      6  O   UNL A   1      31.413  22.148  25.831  1.00  0.00    -0.459 OA
BRANCH   6   7
ATOM      7  C   UNL A   1      32.645  21.603  25.705  1.00  0.00     0.369 C 
ATOM      8  O   UNL A   1      33.273  21.157  26.663  1.00  0.00    -0.245 OA
BRANCH   7   9
ATOM      9  C   UNL A   1      33.189  21.523  24.241  1.00  0.00     0.325 C 
BRANCH   9  10
ATOM     10  N   UNL A   1      32.595  22.351  23.169  1.00  0.00    -0.325 N 
ATOM     11  H   UNL A   1      32.076  21.716  22.561  1.00  0.00     0.347 HD
ATOM     12  H   UNL A   1      32.060  23.050  23.683  1.00  0.00     0.347 HD
BRANCH  10  13
ATOM     13  C   UNL A   1      33.455  23.155  22.304  1.00  0.00     0.330 C 
BRANCH  13  14
ATOM     14  C   UNL A   1      33.042  24.625  22.338  1.00  0.00     0.148 A 
ATOM     15  C   UNL A   1      33.933  28.103  21.990  1.00  0.00     0.068 C 
ATOM     16  C   UNL A   1      33.167  26.847  22.207  1.00  0.00     0.052 A 
ATOM     17  N   UNL A   1      33.849  25.643  22.105  1.00  0.00    -0.240 NA
ATOM     18  C   UNL A   1      31.823  26.730  22.516  1.00  0.00     0.025 A 
ATOM     19  S   UNL A   1      31.412  25.073  22.685  1.00  0.00    -0.118 S 
ATOM     20  C   UNL A   1      30.810  27.806  22.705  1.00  0.00     0.058 C 
ENDBRANCH  13  14
ENDBRANCH  10  13
ENDBRANCH   9  10
BRANCH   9  21
ATOM     21  C   UNL A   1      33.265  20.034  23.840  1.00  0.00     0.021 A 
ATOM     22  C   UNL A   1      32.389  19.429  22.918  1.00  0.00     0.010 A 
ATOM     23  C   UNL A   1      34.163  19.196  24.521  1.00  0.00     0.010 A 
ATOM     24  C   UNL A   1      32.367  18.043  22.732  1.00  0.00     0.001 A 
ATOM     25  C   UNL A   1      34.158  17.813  24.318  1.00  0.00     0.001 A 
ATOM     26  C   UNL A   1      33.249  17.234  23.438  1.00  0.00     0.000 A 
ENDBRANCH   9  21
ENDBRANCH   7   9
ENDBRANCH   6   7
ENDBRANCH   5   6
ENDBRANCH   4   5
ENDBRANCH   3   4
ENDBRANCH   2   3
ENDBRANCH   1   2
BRANCH   1  27
ATOM     27  O   UNL A   1      35.618  24.287  24.968  1.00  0.00    -0.377 OA
BRANCH  27  28
ATOM     28  C   UNL A   1      36.645  23.338  25.196  1.00  0.00     0.188 C 
BRANCH  28  29
ATOM     29  C   UNL A   1      36.895  22.174  24.216  1.00  0.00     0.188 C 
BRANCH  29  30
ATOM     30  O   UNL A   1      37.258  20.939  24.821  1.00  0.00    -0.376 OA
BRANCH  30  31
ATOM     31  C   UNL A   1      38.484  20.868  25.533  1.00  0.00     0.202 C 
BRANCH  31  32
ATOM     32  C   UNL A   1      39.297  19.574  25.376  1.00  0.00     0.261 C 
BRANCH  32  33
ATOM     33  O   UNL A   1      40.283  19.325  26.386  1.00  0.00    -0.460 OA
BRANCH  33  34
ATOM     34  C   UNL A   1      41.559  19.681  26.125  1.00  0.00     0.338 C 
ATOM     35  O   UNL A   1      42.417  19.022  25.567  1.00  0.00    -0.246 OA
BRANCH  34  36
ATOM     36  C   UNL A   1      41.697  21.102  26.498  1.00  0.00     0.060 A 
ATOM     37  C   UNL A   1      42.117  22.031  25.537  1.00  0.00     0.016 A 
ATOM     38  C   UNL A   1      41.367  21.514  27.789  1.00  0.00     0.016 A 
ATOM     39  C   UNL A   1      42.225  23.382  25.874  1.00  0.00     0.010 A 
ATOM     40  C   UNL A   1      41.495  22.860  28.131  1.00  0.00     0.010 A 
ATOM     41  C   UNL A   1      41.950  23.794  27.184  1.00  0.00    -0.014 A 
BRANCH  41  42
ATOM     42  C   UNL A   1      42.334  25.150  27.643  1.00  0.00     0.031 A 
ATOM     43  C   UNL A   1      43.798  25.444  27.815  1.00  0.00     0.074 A 
ATOM     44  C   UNL A   1      41.415  26.087  27.929  1.00  0.00     0.049 A 
ATOM     45  N   UNL A   1      44.381  26.502  28.316  1.00  0.00    -0.248 NA
ATOM     46  C   UNL A   1      44.730  24.395  27.367  1.00  0.00     0.031 C 
ATOM     47  C   UNL A   1      39.971  25.944  27.757  1.00  0.00     0.029 A 
ATOM     48  N   UNL A   1      41.571  27.350  28.446  1.00  0.00    -0.354 N 
ATOM     49  C   UNL A   1      45.743  26.238  28.259  1.00  0.00     0.074 A 
ATOM     50  C   UNL A   1      45.901  24.914  27.701  1.00  0.00     0.031 C 
ATOM     51  C   UNL A   1      39.371  27.073  28.177  1.00  0.00     0.029 A 
ATOM     52  C   UNL A   1      40.384  27.996  28.687  1.00  0.00     0.049 A 
ATOM     53  H   UNL A   1      42.451  27.752  28.627  1.00  0.00     0.167 HD
ATOM     54  C   UNL A   1      46.774  27.028  28.640  1.00  0.00     0.031 A 
ATOM     55  C   UNL A   1      40.146  29.181  29.281  1.00  0.00     0.031 A 
ATOM     56  C   UNL A   1      46.617  28.336  29.215  1.00  0.00     0.049 A 
ATOM     57  C   UNL A   1      41.305  30.005  29.782  1.00  0.00     0.074 A 
ATOM     58  C   UNL A   1      47.598  29.220  29.627  1.00  0.00     0.029 A 
ATOM     59  N   UNL A   1      45.396  28.942  29.470  1.00  0.00    -0.354 N 
ATOM     60  N   UNL A   1      42.591  29.757  29.709  1.00  0.00    -0.248 NA
ATOM     61  C   UNL A   1      40.978  31.276  30.445  1.00  0.00     0.031 C 
ATOM     62  C   UNL A   1      46.969  30.336  30.189  1.00  0.00     0.029 A 
ATOM     63  C   UNL A   1      45.599  30.178  30.060  1.00  0.00     0.049 A 
ATOM     64  H   UNL A   1      44.517  28.552  29.263  1.00  0.00     0.167 HD
ATOM     65  C   UNL A   1      43.225  30.856  30.281  1.00  0.00     0.074 A 
ATOM     66  C   UNL A   1      42.182  31.775  30.687  1.00  0.00     0.031 C 
ATOM     67  C   UNL A   1      44.550  31.084  30.451  1.00  0.00     0.031 A 
BRANCH  54  68
ATOM     68  C   UNL A   1      48.163  26.473  28.485  1.00  0.00    -0.014 A 
ATOM     69  C   UNL A   1      48.778  25.741  29.513  1.00  0.00     0.009 A 
ATOM     70  C   UNL A   1      48.859  26.670  27.283  1.00  0.00     0.009 A 
ATOM     71  C   UNL A   1      50.076  25.249  29.351  1.00  0.00     0.001 A 
ATOM     72  C   UNL A   1      50.142  26.151  27.112  1.00  0.00     0.001 A 
ATOM     73  C   UNL A   1      50.754  25.449  28.150  1.00  0.00     0.000 A 
ENDBRANCH  54  68
BRANCH  55  74
ATOM     74  C   UNL A   1      38.749  29.662  29.465  1.00  0.00    -0.014 A 
ATOM     75  C   UNL A   1      38.018  29.314  30.611  1.00  0.00     0.009 A 
ATOM     76  C   UNL A   1      38.128  30.446  28.479  1.00  0.00     0.009 A 
ATOM     77  C   UNL A   1      36.686  29.715  30.752  1.00  0.00     0.001 A 
ATOM     78  C   UNL A   1      36.808  30.871  28.637  1.00  0.00     0.001 A 
ATOM     79  C   UNL A   1      36.084  30.498  29.767  1.00  0.00     0.000 A 
ENDBRANCH  55  74
BRANCH  67  80
ATOM     80  C   UNL A   1      44.957  32.404  31.050  1.00  0.00    -0.014 A 
ATOM     81  C   UNL A   1      45.165  33.542  30.257  1.00  0.00     0.009 A 
ATOM     82  C   UNL A   1      45.080  32.518  32.445  1.00  0.00     0.009 A 
ATOM     83  C   UNL A   1      45.520  34.758  30.845  1.00  0.00     0.001 A 
ATOM     84  C   UNL A   1      45.401  33.742  33.033  1.00  0.00     0.001 A 
ATOM     85  C   UNL A   1      45.632  34.859  32.232  1.00  0.00     0.000 A 
ENDBRANCH  67  80
ENDBRANCH  41  42
ENDBRANCH  34  36
ENDBRANCH  33  34
ENDBRANCH  32  33
ENDBRANCH  31  32
ENDBRANCH  30  31
ENDBRANCH  29  30
ENDBRANCH  28  29
ENDBRANCH  27  28
ENDBRANCH   1  27
TORSDOF 24
ENDMDL
MODEL 3
REMARK VINA RESULT:      -8.8      1.216      3.385
REMARK SMILES Cc1nc(C[NH2+][C@@H](C(=O)OCCOCCOCCOCCOC(=O)c2ccc(-c3c4nc(c(-c5ccccc5)c5ccc([nH]5)c(-c5ccccc5)c5nc(c(-c6ccccc6)c6ccc3[nH]6)C=C5)C=C4)cc2)c2ccccc2)sc1C
REMARK SMILES IDX 15 1 14 2 13 3 12 4 11 5 10 6 8 7 9 8 7 9 6 10 5 13 4 14
REMARK SMILES IDX 1 15 2 16 3 17 80 18 79 19 81 20 73 21 74 22 78 23 75 24
REMARK SMILES IDX 77 25 76 26 16 27 17 28 18 29 19 30 20 31 21 32 22 33 23 34
REMARK SMILES IDX 24 35 25 36 26 37 72 38 27 39 71 40 28 41 29 42 30 43 65 44
REMARK SMILES IDX 31 45 70 46 64 47 66 48 32 49 69 50 63 51 62 52 33 54 55 55
REMARK SMILES IDX 40 56 54 57 41 58 44 59 53 60 67 61 42 62 43 63 52 65 68 66
REMARK SMILES IDX 45 67 34 68 35 69 39 70 36 71 38 72 37 73 56 74 57 75 61 76
REMARK SMILES IDX 58 77 60 78 59 79 46 80 47 81 51 82 48 83 50 84 49 85
REMARK H PARENT 6 11 6 12 66 53 44 64
REMARK Flexibility Score: inf
ROOT
ATOM      1  C   UNL A   1      35.822  24.071  23.723  1.00  0.00     0.188 C 
ENDROOT
BRANCH   1   2
ATOM      2  C   UNL A   1      34.741  23.151  23.140  1.00  0.00     0.188 C 
BRANCH   2   3
ATOM      3  O   UNL A   1      34.008  23.695  22.063  1.00  0.00    -0.376 OA
BRANCH   3   4
ATOM      4  C   UNL A   1      32.722  24.253  22.281  1.00  0.00     0.202 C 
BRANCH   4   5
ATOM      5  C   UNL A   1      31.519  23.551  22.959  1.00  0.00     0.261 C 
BRANCH   5   6
ATOM      6  O   UNL A   1      30.304  24.294  23.131  1.00  0.00    -0.459 OA
BRANCH   6   7
ATOM      7  C   UNL A   1      30.322  25.377  23.943  1.00  0.00     0.369 C 
ATOM      8  O   UNL A   1      29.946  26.488  23.574  1.00  0.00    -0.245 OA
BRANCH   7   9
ATOM      9  C   UNL A   1      30.796  25.101  25.407  1.00  0.00     0.325 C 
BRANCH   9  10
ATOM     10  N   UNL A   1      29.823  24.730  26.458  1.00  0.00    -0.325 N 
ATOM     11  H   UNL A   1      30.005  25.341  27.256  1.00  0.00     0.347 HD
ATOM     12  H   UNL A   1      28.923  24.828  25.988  1.00  0.00     0.347 HD
BRANCH  10  13
ATOM     13  C   UNL A   1      29.786  23.363  26.973  1.00  0.00     0.330 C 
BRANCH  13  14
ATOM     14  C   UNL A   1      31.022  22.580  26.533  1.00  0.00     0.148 A 
ATOM     15  C   UNL A   1      32.534  20.162  24.326  1.00  0.00     0.068 C 
ATOM     16  C   UNL A   1      32.324  21.177  25.392  1.00  0.00     0.052 A 
ATOM     17  N   UNL A   1      31.052  21.710  25.541  1.00  0.00    -0.240 NA
ATOM     18  C   UNL A   1      33.267  21.661  26.283  1.00  0.00     0.025 A 
ATOM     19  S   UNL A   1      32.536  22.806  27.330  1.00  0.00    -0.118 S 
ATOM     20  C   UNL A   1      34.708  21.304  26.405  1.00  0.00     0.058 C 
ENDBRANCH  13  14
ENDBRANCH  10  13
ENDBRANCH   9  10
BRANCH   9  21
ATOM     21  C   UNL A   1      31.696  26.275  25.848  1.00  0.00     0.021 A 
ATOM     22  C   UNL A   1      33.059  26.382  25.511  1.00  0.00     0.010 A 
ATOM     23  C   UNL A   1      31.176  27.223  26.744  1.00  0.00     0.010 A 
ATOM     24  C   UNL A   1      33.881  27.354  26.092  1.00  0.00     0.001 A 
ATOM     25  C   UNL A   1      31.992  28.210  27.307  1.00  0.00     0.001 A 
ATOM     26  C   UNL A   1      33.347  28.265  26.995  1.00  0.00     0.000 A 
ENDBRANCH   9  21
ENDBRANCH   7   9
ENDBRANCH   6   7
ENDBRANCH   5   6
ENDBRANCH   4   5
ENDBRANCH   3   4
ENDBRANCH   2   3
ENDBRANCH   1   2
BRANCH   1  27
ATOM     27  O   UNL A   1      36.388  23.627  24.938  1.00  0.00    -0.377 OA
BRANCH  27  28
ATOM     28  C   UNL A   1      37.603  22.900  24.881  1.00  0.00     0.188 C 
BRANCH  28  29
ATOM     29  C   UNL A   1      38.494  22.727  26.127  1.00  0.00     0.188 C 
BRANCH  29  30
ATOM     30  O   UNL A   1      38.940  21.400  26.375  1.00  0.00    -0.376 OA
BRANCH  30  31
ATOM     31  C   UNL A   1      38.703  20.410  25.387  1.00  0.00     0.202 C 
BRANCH  31  32
ATOM     32  C   UNL A   1      39.649  19.199  25.383  1.00  0.00     0.261 C 
BRANCH  32  33
ATOM     33  O   UNL A   1      40.752  19.260  26.296  1.00  0.00    -0.460 OA
BRANCH  33  34
ATOM     34  C   UNL A   1      41.930  19.728  25.832  1.00  0.00     0.338 C 
ATOM     35  O   UNL A   1      42.662  19.215  25.007  1.00  0.00    -0.246 OA
BRANCH  34  36
ATOM     36  C   UNL A   1      42.109  21.082  26.390  1.00  0.00     0.060 A 
ATOM     37  C   UNL A   1      42.322  22.165  25.526  1.00  0.00     0.016 A 
ATOM     38  C   UNL A   1      42.020  21.280  27.769  1.00  0.00     0.016 A 
ATOM     39  C   UNL A   1      42.465  23.453  26.045  1.00  0.00     0.010 A 
ATOM     40  C   UNL A   1      42.184  22.563  28.288  1.00  0.00     0.010 A 
ATOM     41  C   UNL A   1      42.434  23.650  27.432  1.00  0.00    -0.014 A 
BRANCH  41  42
ATOM     42  C   UNL A   1      42.872  24.938  28.019  1.00  0.00     0.031 A 
ATOM     43  C   UNL A   1      41.819  25.976  28.297  1.00  0.00     0.074 A 
ATOM     44  C   UNL A   1      44.164  25.199  28.272  1.00  0.00     0.049 A 
ATOM     45  N   UNL A   1      41.956  27.215  28.689  1.00  0.00    -0.248 NA
ATOM     46  C   UNL A   1      40.422  25.556  28.094  1.00  0.00     0.031 C 
ATOM     47  C   UNL A   1      45.272  24.262  28.095  1.00  0.00     0.029 A 
ATOM     48  N   UNL A   1      44.763  26.350  28.722  1.00  0.00    -0.354 N 
ATOM     49  C   UNL A   1      40.667  27.727  28.764  1.00  0.00     0.074 A 
ATOM     50  C   UNL A   1      39.764  26.676  28.351  1.00  0.00     0.031 C 
ATOM     51  C   UNL A   1      46.421  24.884  28.419  1.00  0.00     0.029 A 
ATOM     52  C   UNL A   1      46.133  26.270  28.782  1.00  0.00     0.049 A 
ATOM     53  H   UNL A   1      44.258  27.156  28.976  1.00  0.00     0.167 HD
ATOM     54  C   UNL A   1      40.269  28.965  29.140  1.00  0.00     0.031 A 
ATOM     55  C   UNL A   1      47.046  27.219  29.067  1.00  0.00     0.031 A 
ATOM     56  C   UNL A   1      41.168  30.017  29.529  1.00  0.00     0.049 A 
ATOM     57  C   UNL A   1      46.585  28.617  29.394  1.00  0.00     0.074 A 
ATOM     58  C   UNL A   1      40.864  31.303  29.936  1.00  0.00     0.029 A 
ATOM     59  N   UNL A   1      42.550  29.904  29.548  1.00  0.00    -0.354 N 
ATOM     60  N   UNL A   1      45.363  29.088  29.478  1.00  0.00    -0.248 NA
ATOM     61  C   UNL A   1      47.631  29.613  29.668  1.00  0.00     0.031 C 
ATOM     62  C   UNL A   1      42.065  31.989  30.141  1.00  0.00     0.029 A 
ATOM     63  C   UNL A   1      43.114  31.108  29.933  1.00  0.00     0.049 A 
ATOM     64  H   UNL A   1      43.054  29.090  29.322  1.00  0.00     0.167 HD
ATOM     65  C   UNL A   1      45.494  30.422  29.852  1.00  0.00     0.074 A 
ATOM     66  C   UNL A   1      46.913  30.681  29.987  1.00  0.00     0.031 C 
ATOM     67  C   UNL A   1      44.528  31.347  30.069  1.00  0.00     0.031 A 
BRANCH  54  68
ATOM     68  C   UNL A   1      38.794  29.256  29.104  1.00  0.00    -0.014 A 
ATOM     69  C   UNL A   1      38.160  29.677  27.925  1.00  0.00     0.009 A 
ATOM     70  C   UNL A   1      38.025  29.086  30.265  1.00  0.00     0.009 A 
ATOM     71  C   UNL A   1      36.791  29.958  27.920  1.00  0.00     0.001 A 
ATOM     72  C   UNL A   1      36.653  29.336  30.250  1.00  0.00     0.001 A 
ATOM     73  C   UNL A   1      36.038  29.781  29.080  1.00  0.00     0.000 A 
ENDBRANCH  54  68
BRANCH  55  74
ATOM     74  C   UNL A   1      48.499  26.897  29.032  1.00  0.00    -0.014 A 
ATOM     75  C   UNL A   1      49.238  27.053  27.849  1.00  0.00     0.009 A 
ATOM     76  C   UNL A   1      49.148  26.401  30.174  1.00  0.00     0.009 A 
ATOM     77  C   UNL A   1      50.587  26.691  27.803  1.00  0.00     0.001 A 
ATOM     78  C   UNL A   1      50.504  26.071  30.134  1.00  0.00     0.001 A 
ATOM     79  C   UNL A   1      51.220  26.206  28.946  1.00  0.00     0.000 A 
ENDBRANCH  55  74
BRANCH  67  80
ATOM     80  C   UNL A   1      44.962  32.713  30.531  1.00  0.00    -0.014 A 
ATOM     81  C   UNL A   1      45.171  33.001  31.888  1.00  0.00     0.009 A 
ATOM     82  C   UNL A   1      45.221  33.712  29.578  1.00  0.00     0.009 A 
ATOM     83  C   UNL A   1      45.596  34.271  32.283  1.00  0.00     0.001 A 
ATOM     84  C   UNL A   1      45.679  34.969  29.973  1.00  0.00     0.001 A 
ATOM     85  C   UNL A   1      45.855  35.252  31.326  1.00  0.00     0.000 A 
ENDBRANCH  67  80
ENDBRANCH  41  42
ENDBRANCH  34  36
ENDBRANCH  33  34
ENDBRANCH  32  33
ENDBRANCH  31  32
ENDBRANCH  30  31
ENDBRANCH  29  30
ENDBRANCH  28  29
ENDBRANCH  27  28
ENDBRANCH   1  27
TORSDOF 24
ENDMDL
