MODEL 1
REMARK VINA RESULT:     -10.0      0.000      0.000
REMARK SMILES O=C(OCCOCCOCCOCCOC(=O)[C@@H]1CN(c2ncccn2)CCN1C(=O)C1CCOCC1)c1ccc(-c2c3nc(c(-c4ccccc4)c4ccc([nH]4)c(-c4ccccc4)c4nc(c(-c5ccccc5)c5ccc2[nH]5)C=C4)C=C3)cc1
REMARK SMILES IDX 9 1 8 2 7 3 6 4 5 5 4 6 3 7 2 8 1 9 38 10 39 11 85 12 40 13
REMARK SMILES IDX 84 14 41 15 42 16 43 17 78 18 44 19 83 20 77 21 79 22 45 23
REMARK SMILES IDX 82 24 76 25 75 26 46 28 68 29 53 30 67 31 54 32 57 33 66 34
REMARK SMILES IDX 80 35 55 36 56 37 65 39 81 40 58 41 47 42 48 43 52 44 49 45
REMARK SMILES IDX 51 46 50 47 69 48 70 49 74 50 71 51 73 52 72 53 59 54 60 55
REMARK SMILES IDX 64 56 61 57 63 58 62 59 10 60 11 61 12 62 13 63 14 64 15 65
REMARK SMILES IDX 16 66 17 67 18 68 19 69 29 70 20 71 28 72 27 73 30 74 31 75
REMARK SMILES IDX 32 76 33 77 37 78 34 79 36 80 35 81 21 82 22 83 26 84 23 85
REMARK SMILES IDX 25 86 24 87
REMARK H PARENT 79 27 57 38
REMARK Flexibility Score: inf
ROOT
ATOM      1  O   UNL A   1      39.847  21.862  27.087  1.00  0.00    -0.377 OA
ENDROOT
BRANCH   1   2
ATOM      2  C   UNL A   1      40.761  21.407  26.090  1.00  0.00     0.188 C 
BRANCH   2   3
ATOM      3  C   UNL A   1      42.221  21.375  26.523  1.00  0.00     0.188 C 
BRANCH   3   4
ATOM      4  O   UNL A   1      43.055  21.095  25.414  1.00  0.00    -0.376 OA
BRANCH   4   5
ATOM      5  C   UNL A   1      44.349  21.680  25.440  1.00  0.00     0.202 C 
BRANCH   5   6
ATOM      6  C   UNL A   1      44.559  22.675  24.292  1.00  0.00     0.261 C 
BRANCH   6   7
ATOM      7  O   UNL A   1      43.782  23.859  24.556  1.00  0.00    -0.460 OA
BRANCH   7   8
ATOM      8  C   UNL A   1      44.472  24.948  24.981  1.00  0.00     0.338 C 
ATOM      9  O   UNL A   1      45.650  25.200  24.746  1.00  0.00    -0.246 OA
BRANCH   8  10
ATOM     10  C   UNL A   1      43.600  25.750  25.872  1.00  0.00     0.060 A 
ATOM     11  C   UNL A   1      43.944  27.089  26.092  1.00  0.00     0.016 A 
ATOM     12  C   UNL A   1      42.440  25.230  26.458  1.00  0.00     0.016 A 
ATOM     13  C   UNL A   1      43.172  27.912  26.869  1.00  0.00     0.010 A 
ATOM     14  C   UNL A   1      41.715  26.027  27.357  1.00  0.00     0.010 A 
ATOM     15  C   UNL A   1      42.124  27.352  27.589  1.00  0.00    -0.014 A 
BRANCH  15  16
ATOM     16  C   UNL A   1      41.839  28.100  28.826  1.00  0.00     0.031 A 
ATOM     17  C   UNL A   1      40.565  28.907  28.827  1.00  0.00     0.074 A 
ATOM     18  C   UNL A   1      42.461  27.754  29.965  1.00  0.00     0.049 A 
ATOM     19  N   UNL A   1      39.958  29.504  29.817  1.00  0.00    -0.248 NA
ATOM     20  C   UNL A   1      39.836  28.990  27.545  1.00  0.00     0.031 C 
ATOM     21  C   UNL A   1      43.539  26.768  30.075  1.00  0.00     0.029 A 
ATOM     22  N   UNL A   1      42.226  28.144  31.253  1.00  0.00    -0.354 N 
ATOM     23  C   UNL A   1      38.781  30.013  29.278  1.00  0.00     0.074 A 
ATOM     24  C   UNL A   1      38.749  29.661  27.881  1.00  0.00     0.031 C 
ATOM     25  C   UNL A   1      43.879  26.639  31.369  1.00  0.00     0.029 A 
ATOM     26  C   UNL A   1      43.078  27.566  32.161  1.00  0.00     0.049 A 
ATOM     27  H   UNL A   1      41.515  28.776  31.505  1.00  0.00     0.167 HD
ATOM     28  C   UNL A   1      37.817  30.730  29.897  1.00  0.00     0.031 A 
ATOM     29  C   UNL A   1      43.209  27.809  33.478  1.00  0.00     0.031 A 
ATOM     30  C   UNL A   1      37.917  31.127  31.271  1.00  0.00     0.049 A 
ATOM     31  C   UNL A   1      42.262  28.806  34.096  1.00  0.00     0.074 A 
ATOM     32  C   UNL A   1      37.116  31.992  31.987  1.00  0.00     0.029 A 
ATOM     33  N   UNL A   1      38.909  30.678  32.131  1.00  0.00    -0.354 N 
ATOM     34  N   UNL A   1      41.217  29.396  33.559  1.00  0.00    -0.248 NA
ATOM     35  C   UNL A   1      42.512  29.178  35.492  1.00  0.00     0.031 C 
ATOM     36  C   UNL A   1      37.666  32.116  33.268  1.00  0.00     0.029 A 
ATOM     37  C   UNL A   1      38.761  31.269  33.369  1.00  0.00     0.049 A 
ATOM     38  H   UNL A   1      39.615  30.034  31.893  1.00  0.00     0.167 HD
ATOM     39  C   UNL A   1      40.674  30.193  34.557  1.00  0.00     0.074 A 
ATOM     40  C   UNL A   1      41.491  29.986  35.738  1.00  0.00     0.031 C 
ATOM     41  C   UNL A   1      39.603  31.024  34.512  1.00  0.00     0.031 A 
BRANCH  28  42
ATOM     42  C   UNL A   1      36.678  31.218  29.047  1.00  0.00    -0.014 A 
ATOM     43  C   UNL A   1      36.577  32.560  28.647  1.00  0.00     0.009 A 
ATOM     44  C   UNL A   1      35.654  30.327  28.695  1.00  0.00     0.009 A 
ATOM     45  C   UNL A   1      35.454  33.005  27.942  1.00  0.00     0.001 A 
ATOM     46  C   UNL A   1      34.545  30.768  27.969  1.00  0.00     0.001 A 
ATOM     47  C   UNL A   1      34.441  32.108  27.603  1.00  0.00     0.000 A 
ENDBRANCH  28  42
BRANCH  29  48
ATOM     48  C   UNL A   1      44.328  27.211  34.257  1.00  0.00    -0.014 A 
ATOM     49  C   UNL A   1      44.147  26.076  35.060  1.00  0.00     0.009 A 
ATOM     50  C   UNL A   1      45.592  27.831  34.250  1.00  0.00     0.009 A 
ATOM     51  C   UNL A   1      45.190  25.602  35.865  1.00  0.00     0.001 A 
ATOM     52  C   UNL A   1      46.641  27.335  35.025  1.00  0.00     0.001 A 
ATOM     53  C   UNL A   1      46.434  26.230  35.846  1.00  0.00     0.000 A 
ENDBRANCH  29  48
BRANCH  41  54
ATOM     54  C   UNL A   1      39.241  31.729  35.787  1.00  0.00    -0.014 A 
ATOM     55  C   UNL A   1      39.933  32.872  36.213  1.00  0.00     0.009 A 
ATOM     56  C   UNL A   1      38.153  31.264  36.541  1.00  0.00     0.009 A 
ATOM     57  C   UNL A   1      39.565  33.513  37.395  1.00  0.00     0.001 A 
ATOM     58  C   UNL A   1      37.764  31.929  37.701  1.00  0.00     0.001 A 
ATOM     59  C   UNL A   1      38.478  33.045  38.133  1.00  0.00     0.000 A 
ENDBRANCH  41  54
ENDBRANCH  15  16
ENDBRANCH   8  10
ENDBRANCH   7   8
ENDBRANCH   6   7
ENDBRANCH   5   6
ENDBRANCH   4   5
ENDBRANCH   3   4
ENDBRANCH   2   3
ENDBRANCH   1   2
BRANCH   1  60
ATOM     60  C   UNL A   1      39.520  23.249  27.199  1.00  0.00     0.188 C 
BRANCH  60  61
ATOM     61  C   UNL A   1      38.407  23.604  26.174  1.00  0.00     0.188 C 
BRANCH  61  62
ATOM     62  O   UNL A   1      37.458  22.534  25.984  1.00  0.00    -0.376 OA
BRANCH  62  63
ATOM     63  C   UNL A   1      37.338  22.034  24.636  1.00  0.00     0.202 C 
BRANCH  63  64
ATOM     64  C   UNL A   1      36.022  22.337  23.875  1.00  0.00     0.261 C 
BRANCH  64  65
ATOM     65  O   UNL A   1      35.837  23.728  23.624  1.00  0.00    -0.462 OA
BRANCH  65  66
ATOM     66  C   UNL A   1      34.571  24.140  23.451  1.00  0.00     0.330 C 
ATOM     67  O   UNL A   1      34.183  24.822  22.512  1.00  0.00    -0.250 OA
BRANCH  66  68
ATOM     68  C   UNL A   1      33.667  23.546  24.514  1.00  0.00     0.214 C 
ATOM     69  C   UNL A   1      32.549  22.717  23.874  1.00  0.00     0.157 C 
ATOM     70  N   UNL A   1      33.153  24.265  25.729  1.00  0.00    -0.325 N 
ATOM     71  N   UNL A   1      32.031  21.743  24.842  1.00  0.00    -0.336 N 
ATOM     72  C   UNL A   1      32.765  23.228  26.733  1.00  0.00     0.142 C 
ATOM     73  C   UNL A   1      31.709  22.210  26.192  1.00  0.00     0.141 C 
BRANCH  70  74
ATOM     74  C   UNL A   1      32.406  25.444  25.791  1.00  0.00     0.226 C 
ATOM     75  O   UNL A   1      32.551  26.150  26.808  1.00  0.00    -0.275 OA
BRANCH  74  76
ATOM     76  C   UNL A   1      31.467  26.087  24.676  1.00  0.00     0.083 C 
ATOM     77  C   UNL A   1      31.596  27.600  24.560  1.00  0.00     0.042 C 
ATOM     78  C   UNL A   1      30.056  25.610  24.323  1.00  0.00     0.042 C 
ATOM     79  C   UNL A   1      30.787  28.093  23.363  1.00  0.00     0.161 C 
ATOM     80  C   UNL A   1      29.089  26.501  23.542  1.00  0.00     0.161 C 
ATOM     81  O   UNL A   1      29.404  27.880  23.627  1.00  0.00    -0.381 OA
ENDBRANCH  74  76
ENDBRANCH  70  74
BRANCH  71  82
ATOM     82  C   UNL A   1      32.372  20.430  24.624  1.00  0.00     0.225 A 
ATOM     83  N   UNL A   1      32.477  19.635  25.700  1.00  0.00    -0.221 NA
ATOM     84  N   UNL A   1      32.377  19.964  23.363  1.00  0.00    -0.221 NA
ATOM     85  C   UNL A   1      32.507  18.304  25.487  1.00  0.00     0.117 A 
ATOM     86  C   UNL A   1      32.445  18.626  23.200  1.00  0.00     0.117 A 
ATOM     87  C   UNL A   1      32.483  17.733  24.240  1.00  0.00     0.040 A 
ENDBRANCH  71  82
ENDBRANCH  66  68
ENDBRANCH  65  66
ENDBRANCH  64  65
ENDBRANCH  63  64
ENDBRANCH  62  63
ENDBRANCH  61  62
ENDBRANCH  60  61
ENDBRANCH   1  60
TORSDOF 23
ENDMDL
MODEL 2
REMARK VINA RESULT:      -9.7      1.244      3.556
REMARK SMILES O=C(OCCOCCOCCOCCOC(=O)[C@@H]1CN(c2ncccn2)CCN1C(=O)C1CCOCC1)c1ccc(-c2c3nc(c(-c4ccccc4)c4ccc([nH]4)c(-c4ccccc4)c4nc(c(-c5ccccc5)c5ccc2[nH]5)C=C4)C=C3)cc1
REMARK SMILES IDX 9 1 8 2 7 3 6 4 5 5 4 6 3 7 2 8 1 9 38 10 39 11 85 12 40 13
REMARK SMILES IDX 84 14 41 15 42 16 43 17 78 18 44 19 83 20 77 21 79 22 45 23
REMARK SMILES IDX 82 24 76 25 75 26 46 28 68 29 53 30 67 31 54 32 57 33 66 34
REMARK SMILES IDX 80 35 55 36 56 37 65 39 81 40 58 41 47 42 48 43 52 44 49 45
REMARK SMILES IDX 51 46 50 47 69 48 70 49 74 50 71 51 73 52 72 53 59 54 60 55
REMARK SMILES IDX 64 56 61 57 63 58 62 59 10 60 11 61 12 62 13 63 14 64 15 65
REMARK SMILES IDX 16 66 17 67 18 68 19 69 29 70 20 71 28 72 27 73 30 74 31 75
REMARK SMILES IDX 32 76 33 77 37 78 34 79 36 80 35 81 21 82 22 83 26 84 23 85
REMARK SMILES IDX 25 86 24 87
REMARK H PARENT 79 27 57 38
REMARK Flexibility Score: inf
ROOT
ATOM      1  O   UNL A   1      39.759  21.653  26.768  1.00  0.00    -0.377 OA
ENDROOT
BRANCH   1   2
ATOM      2  C   UNL A   1      40.781  21.162  25.904  1.00  0.00     0.188 C 
BRANCH   2   3
ATOM      3  C   UNL A   1      42.186  21.185  26.493  1.00  0.00     0.188 C 
BRANCH   3   4
ATOM      4  O   UNL A   1      43.149  20.995  25.472  1.00  0.00    -0.376 OA
BRANCH   4   5
ATOM      5  C   UNL A   1      44.339  21.762  25.583  1.00  0.00     0.202 C 
BRANCH   5   6
ATOM      6  C   UNL A   1      44.596  22.619  24.338  1.00  0.00     0.261 C 
BRANCH   6   7
ATOM      7  O   UNL A   1      43.871  23.857  24.470  1.00  0.00    -0.460 OA
BRANCH   7   8
ATOM      8  C   UNL A   1      44.568  24.912  24.966  1.00  0.00     0.338 C 
ATOM      9  O   UNL A   1      45.758  25.146  24.784  1.00  0.00    -0.246 OA
BRANCH   8  10
ATOM     10  C   UNL A   1      43.681  25.695  25.859  1.00  0.00     0.060 A 
ATOM     11  C   UNL A   1      43.967  27.053  26.038  1.00  0.00     0.016 A 
ATOM     12  C   UNL A   1      42.562  25.136  26.488  1.00  0.00     0.016 A 
ATOM     13  C   UNL A   1      43.176  27.858  26.815  1.00  0.00     0.010 A 
ATOM     14  C   UNL A   1      41.822  25.921  27.386  1.00  0.00     0.010 A 
ATOM     15  C   UNL A   1      42.174  27.270  27.575  1.00  0.00    -0.014 A 
BRANCH  15  16
ATOM     16  C   UNL A   1      41.885  28.034  28.800  1.00  0.00     0.031 A 
ATOM     17  C   UNL A   1      40.597  28.819  28.797  1.00  0.00     0.074 A 
ATOM     18  C   UNL A   1      42.521  27.721  29.941  1.00  0.00     0.049 A 
ATOM     19  N   UNL A   1      39.986  29.422  29.781  1.00  0.00    -0.248 NA
ATOM     20  C   UNL A   1      39.857  28.865  27.519  1.00  0.00     0.031 C 
ATOM     21  C   UNL A   1      43.618  26.756  30.060  1.00  0.00     0.029 A 
ATOM     22  N   UNL A   1      42.290  28.129  31.223  1.00  0.00    -0.354 N 
ATOM     23  C   UNL A   1      38.797  29.900  29.242  1.00  0.00     0.074 A 
ATOM     24  C   UNL A   1      38.760  29.522  27.851  1.00  0.00     0.031 C 
ATOM     25  C   UNL A   1      43.970  26.657  31.354  1.00  0.00     0.029 A 
ATOM     26  C   UNL A   1      43.159  27.583  32.135  1.00  0.00     0.049 A 
ATOM     27  H   UNL A   1      41.569  28.753  31.469  1.00  0.00     0.167 HD
ATOM     28  C   UNL A   1      37.824  30.611  29.855  1.00  0.00     0.031 A 
ATOM     29  C   UNL A   1      43.295  27.853  33.446  1.00  0.00     0.031 A 
ATOM     30  C   UNL A   1      37.927  31.034  31.221  1.00  0.00     0.049 A 
ATOM     31  C   UNL A   1      42.334  28.843  34.053  1.00  0.00     0.074 A 
ATOM     32  C   UNL A   1      37.116  31.898  31.928  1.00  0.00     0.029 A 
ATOM     33  N   UNL A   1      38.934  30.619  32.081  1.00  0.00    -0.354 N 
ATOM     34  N   UNL A   1      41.275  29.404  33.514  1.00  0.00    -0.248 NA
ATOM     35  C   UNL A   1      42.589  29.245  35.440  1.00  0.00     0.031 C 
ATOM     36  C   UNL A   1      37.673  32.055  33.202  1.00  0.00     0.029 A 
ATOM     37  C   UNL A   1      38.784  31.229  33.309  1.00  0.00     0.049 A 
ATOM     38  H   UNL A   1      39.649  29.984  31.850  1.00  0.00     0.167 HD
ATOM     39  C   UNL A   1      40.725  30.210  34.502  1.00  0.00     0.074 A 
ATOM     40  C   UNL A   1      41.554  30.039  35.680  1.00  0.00     0.031 C 
ATOM     41  C   UNL A   1      39.640  31.021  34.450  1.00  0.00     0.031 A 
BRANCH  28  42
ATOM     42  C   UNL A   1      36.671  31.062  29.006  1.00  0.00    -0.014 A 
ATOM     43  C   UNL A   1      36.533  32.399  28.596  1.00  0.00     0.009 A 
ATOM     44  C   UNL A   1      35.669  30.142  28.662  1.00  0.00     0.009 A 
ATOM     45  C   UNL A   1      35.396  32.809  27.893  1.00  0.00     0.001 A 
ATOM     46  C   UNL A   1      34.547  30.549  27.937  1.00  0.00     0.001 A 
ATOM     47  C   UNL A   1      34.406  31.884  27.562  1.00  0.00     0.000 A 
ENDBRANCH  28  42
BRANCH  29  48
ATOM     48  C   UNL A   1      44.431  27.289  34.227  1.00  0.00    -0.014 A 
ATOM     49  C   UNL A   1      45.537  28.069  34.592  1.00  0.00     0.009 A 
ATOM     50  C   UNL A   1      44.438  25.920  34.557  1.00  0.00     0.009 A 
ATOM     51  C   UNL A   1      46.637  27.485  35.231  1.00  0.00     0.001 A 
ATOM     52  C   UNL A   1      45.520  25.348  35.227  1.00  0.00     0.001 A 
ATOM     53  C   UNL A   1      46.627  26.128  35.548  1.00  0.00     0.000 A 
ENDBRANCH  29  48
BRANCH  41  54
ATOM     54  C   UNL A   1      39.274  31.742  35.715  1.00  0.00    -0.014 A 
ATOM     55  C   UNL A   1      39.987  32.871  36.145  1.00  0.00     0.009 A 
ATOM     56  C   UNL A   1      38.163  31.308  36.454  1.00  0.00     0.009 A 
ATOM     57  C   UNL A   1      39.615  33.528  37.317  1.00  0.00     0.001 A 
ATOM     58  C   UNL A   1      37.772  31.989  37.604  1.00  0.00     0.001 A 
ATOM     59  C   UNL A   1      38.506  33.091  38.041  1.00  0.00     0.000 A 
ENDBRANCH  41  54
ENDBRANCH  15  16
ENDBRANCH   8  10
ENDBRANCH   7   8
ENDBRANCH   6   7
ENDBRANCH   5   6
ENDBRANCH   4   5
ENDBRANCH   3   4
ENDBRANCH   2   3
ENDBRANCH   1   2
BRANCH   1  60
ATOM     60  C   UNL A   1      39.636  23.053  27.033  1.00  0.00     0.188 C 
BRANCH  60  61
ATOM     61  C   UNL A   1      38.460  23.637  26.201  1.00  0.00     0.188 C 
BRANCH  61  62
ATOM     62  O   UNL A   1      37.223  22.920  26.401  1.00  0.00    -0.376 OA
BRANCH  62  63
ATOM     63  C   UNL A   1      36.865  21.986  25.360  1.00  0.00     0.202 C 
BRANCH  63  64
ATOM     64  C   UNL A   1      36.556  22.563  23.955  1.00  0.00     0.261 C 
BRANCH  64  65
ATOM     65  O   UNL A   1      35.604  23.623  23.991  1.00  0.00    -0.462 OA
BRANCH  65  66
ATOM     66  C   UNL A   1      34.384  23.348  23.505  1.00  0.00     0.330 C 
ATOM     67  O   UNL A   1      34.154  23.006  22.353  1.00  0.00    -0.250 OA
BRANCH  66  68
ATOM     68  C   UNL A   1      33.346  23.401  24.610  1.00  0.00     0.214 C 
ATOM     69  C   UNL A   1      33.695  24.488  25.632  1.00  0.00     0.157 C 
ATOM     70  N   UNL A   1      32.739  22.212  25.299  1.00  0.00    -0.325 N 
ATOM     71  N   UNL A   1      32.488  24.901  26.356  1.00  0.00    -0.336 N 
ATOM     72  C   UNL A   1      31.447  22.657  25.905  1.00  0.00     0.142 C 
ATOM     73  C   UNL A   1      31.609  23.859  26.892  1.00  0.00     0.141 C 
BRANCH  70  74
ATOM     74  C   UNL A   1      33.384  21.186  25.993  1.00  0.00     0.226 C 
ATOM     75  O   UNL A   1      33.833  21.465  27.122  1.00  0.00    -0.275 OA
BRANCH  74  76
ATOM     76  C   UNL A   1      33.529  19.652  25.593  1.00  0.00     0.083 C 
ATOM     77  C   UNL A   1      34.407  19.412  24.373  1.00  0.00     0.042 C 
ATOM     78  C   UNL A   1      32.424  18.597  25.711  1.00  0.00     0.042 C 
ATOM     79  C   UNL A   1      34.613  17.912  24.175  1.00  0.00     0.161 C 
ATOM     80  C   UNL A   1      32.509  17.270  24.955  1.00  0.00     0.161 C 
ATOM     81  O   UNL A   1      33.365  17.322  23.827  1.00  0.00    -0.381 OA
ENDBRANCH  74  76
ENDBRANCH  70  74
BRANCH  71  82
ATOM     82  C   UNL A   1      31.984  26.139  26.040  1.00  0.00     0.225 A 
ATOM     83  N   UNL A   1      31.778  26.997  27.051  1.00  0.00    -0.221 NA
ATOM     84  N   UNL A   1      31.921  26.500  24.746  1.00  0.00    -0.221 NA
ATOM     85  C   UNL A   1      31.581  28.293  26.735  1.00  0.00     0.117 A 
ATOM     86  C   UNL A   1      31.684  27.802  24.480  1.00  0.00     0.117 A 
ATOM     87  C   UNL A   1      31.532  28.762  25.448  1.00  0.00     0.040 A 
ENDBRANCH  71  82
ENDBRANCH  66  68
ENDBRANCH  65  66
ENDBRANCH  64  65
ENDBRANCH  63  64
ENDBRANCH  62  63
ENDBRANCH  61  62
ENDBRANCH  60  61
ENDBRANCH   1  60
TORSDOF 23
ENDMDL
MODEL 3
REMARK VINA RESULT:      -9.7      1.899      4.158
REMARK SMILES O=C(OCCOCCOCCOCCOC(=O)[C@@H]1CN(c2ncccn2)CCN1C(=O)C1CCOCC1)c1ccc(-c2c3nc(c(-c4ccccc4)c4ccc([nH]4)c(-c4ccccc4)c4nc(c(-c5ccccc5)c5ccc2[nH]5)C=C4)C=C3)cc1
REMARK SMILES IDX 9 1 8 2 7 3 6 4 5 5 4 6 3 7 2 8 1 9 38 10 39 11 85 12 40 13
REMARK SMILES IDX 84 14 41 15 42 16 43 17 78 18 44 19 83 20 77 21 79 22 45 23
REMARK SMILES IDX 82 24 76 25 75 26 46 28 68 29 53 30 67 31 54 32 57 33 66 34
REMARK SMILES IDX 80 35 55 36 56 37 65 39 81 40 58 41 47 42 48 43 52 44 49 45
REMARK SMILES IDX 51 46 50 47 69 48 70 49 74 50 71 51 73 52 72 53 59 54 60 55
REMARK SMILES IDX 64 56 61 57 63 58 62 59 10 60 11 61 12 62 13 63 14 64 15 65
REMARK SMILES IDX 16 66 17 67 18 68 19 69 29 70 20 71 28 72 27 73 30 74 31 75
REMARK SMILES IDX 32 76 33 77 37 78 34 79 36 80 35 81 21 82 22 83 26 84 23 85
REMARK SMILES IDX 25 86 24 87
REMARK H PARENT 79 27 57 38
REMARK Flexibility Score: inf
ROOT
ATOM      1  O   UNL A   1      38.809  21.709  26.321  1.00  0.00    -0.377 OA
ENDROOT
BRANCH   1   2
ATOM      2  C   UNL A   1      40.121  22.186  26.615  1.00  0.00     0.188 C 
BRANCH   2   3
ATOM      3  C   UNL A   1      41.213  21.125  26.578  1.00  0.00     0.188 C 
BRANCH   3   4
ATOM      4  O   UNL A   1      42.095  21.366  25.497  1.00  0.00    -0.376 OA
BRANCH   4   5
ATOM      5  C   UNL A   1      43.439  21.671  25.841  1.00  0.00     0.202 C 
BRANCH   5   6
ATOM      6  C   UNL A   1      44.120  22.558  24.792  1.00  0.00     0.261 C 
BRANCH   6   7
ATOM      7  O   UNL A   1      43.406  23.806  24.707  1.00  0.00    -0.460 OA
BRANCH   7   8
ATOM      8  C   UNL A   1      44.098  24.920  25.062  1.00  0.00     0.338 C 
ATOM      9  O   UNL A   1      45.276  25.154  24.811  1.00  0.00    -0.246 OA
BRANCH   8  10
ATOM     10  C   UNL A   1      43.227  25.778  25.899  1.00  0.00     0.060 A 
ATOM     11  C   UNL A   1      43.619  27.106  26.103  1.00  0.00     0.016 A 
ATOM     12  C   UNL A   1      42.025  25.321  26.451  1.00  0.00     0.016 A 
ATOM     13  C   UNL A   1      42.853  27.979  26.831  1.00  0.00     0.010 A 
ATOM     14  C   UNL A   1      41.300  26.168  27.302  1.00  0.00     0.010 A 
ATOM     15  C   UNL A   1      41.756  27.481  27.521  1.00  0.00    -0.014 A 
BRANCH  15  16
ATOM     16  C   UNL A   1      41.455  28.269  28.728  1.00  0.00     0.031 A 
ATOM     17  C   UNL A   1      40.143  29.012  28.719  1.00  0.00     0.074 A 
ATOM     18  C   UNL A   1      42.113  28.006  29.870  1.00  0.00     0.049 A 
ATOM     19  N   UNL A   1      39.524  29.623  29.693  1.00  0.00    -0.248 NA
ATOM     20  C   UNL A   1      39.389  29.001  27.449  1.00  0.00     0.031 C 
ATOM     21  C   UNL A   1      43.240  27.080  30.002  1.00  0.00     0.029 A 
ATOM     22  N   UNL A   1      41.882  28.441  31.143  1.00  0.00    -0.354 N 
ATOM     23  C   UNL A   1      38.315  30.049  29.155  1.00  0.00     0.074 A 
ATOM     24  C   UNL A   1      38.275  29.633  27.776  1.00  0.00     0.031 C 
ATOM     25  C   UNL A   1      43.609  27.026  31.294  1.00  0.00     0.029 A 
ATOM     26  C   UNL A   1      42.777  27.948  32.060  1.00  0.00     0.049 A 
ATOM     27  H   UNL A   1      41.144  29.049  31.381  1.00  0.00     0.167 HD
ATOM     28  C   UNL A   1      37.327  30.746  29.760  1.00  0.00     0.031 A 
ATOM     29  C   UNL A   1      42.918  28.257  33.361  1.00  0.00     0.031 A 
ATOM     30  C   UNL A   1      37.431  31.209  31.113  1.00  0.00     0.049 A 
ATOM     31  C   UNL A   1      41.934  29.233  33.953  1.00  0.00     0.074 A 
ATOM     32  C   UNL A   1      36.601  32.065  31.805  1.00  0.00     0.029 A 
ATOM     33  N   UNL A   1      38.459  30.848  31.973  1.00  0.00    -0.354 N 
ATOM     34  N   UNL A   1      40.852  29.746  33.411  1.00  0.00    -0.248 NA
ATOM     35  C   UNL A   1      42.190  29.680  35.325  1.00  0.00     0.031 C 
ATOM     36  C   UNL A   1      37.166  32.274  33.069  1.00  0.00     0.029 A 
ATOM     37  C   UNL A   1      38.303  31.487  33.185  1.00  0.00     0.049 A 
ATOM     38  H   UNL A   1      39.191  30.229  31.750  1.00  0.00     0.167 HD
ATOM     39  C   UNL A   1      40.287  30.560  34.383  1.00  0.00     0.074 A 
ATOM     40  C   UNL A   1      41.134  30.447  35.555  1.00  0.00     0.031 C 
ATOM     41  C   UNL A   1      39.176  31.336  34.322  1.00  0.00     0.031 A 
BRANCH  28  42
ATOM     42  C   UNL A   1      36.151  31.138  28.912  1.00  0.00    -0.014 A 
ATOM     43  C   UNL A   1      35.757  32.479  28.769  1.00  0.00     0.009 A 
ATOM     44  C   UNL A   1      35.384  30.138  28.295  1.00  0.00     0.009 A 
ATOM     45  C   UNL A   1      34.599  32.804  28.056  1.00  0.00     0.001 A 
ATOM     46  C   UNL A   1      34.242  30.467  27.563  1.00  0.00     0.001 A 
ATOM     47  C   UNL A   1      33.844  31.797  27.452  1.00  0.00     0.000 A 
ENDBRANCH  28  42
BRANCH  29  48
ATOM     48  C   UNL A   1      44.079  27.750  34.145  1.00  0.00    -0.014 A 
ATOM     49  C   UNL A   1      45.270  28.481  34.260  1.00  0.00     0.009 A 
ATOM     50  C   UNL A   1      44.018  26.473  34.734  1.00  0.00     0.009 A 
ATOM     51  C   UNL A   1      46.380  27.931  34.911  1.00  0.00     0.001 A 
ATOM     52  C   UNL A   1      45.115  25.941  35.414  1.00  0.00     0.001 A 
ATOM     53  C   UNL A   1      46.302  26.664  35.487  1.00  0.00     0.000 A 
ENDBRANCH  29  48
BRANCH  41  54
ATOM     54  C   UNL A   1      38.801  32.079  35.571  1.00  0.00    -0.014 A 
ATOM     55  C   UNL A   1      38.090  31.455  36.606  1.00  0.00     0.009 A 
ATOM     56  C   UNL A   1      39.216  33.410  35.727  1.00  0.00     0.009 A 
ATOM     57  C   UNL A   1      37.767  32.167  37.761  1.00  0.00     0.001 A 
ATOM     58  C   UNL A   1      38.925  34.106  36.897  1.00  0.00     0.001 A 
ATOM     59  C   UNL A   1      38.189  33.488  37.907  1.00  0.00     0.000 A 
ENDBRANCH  41  54
ENDBRANCH  15  16
ENDBRANCH   8  10
ENDBRANCH   7   8
ENDBRANCH   6   7
ENDBRANCH   5   6
ENDBRANCH   4   5
ENDBRANCH   3   4
ENDBRANCH   2   3
ENDBRANCH   1   2
BRANCH   1  60
ATOM     60  C   UNL A   1      38.026  22.315  25.290  1.00  0.00     0.188 C 
BRANCH  60  61
ATOM     61  C   UNL A   1      36.625  22.687  25.854  1.00  0.00     0.188 C 
BRANCH  61  62
ATOM     62  O   UNL A   1      36.326  24.093  25.724  1.00  0.00    -0.376 OA
BRANCH  62  63
ATOM     63  C   UNL A   1      35.160  24.415  24.937  1.00  0.00     0.202 C 
BRANCH  63  64
ATOM     64  C   UNL A   1      34.479  25.784  25.192  1.00  0.00     0.261 C 
BRANCH  64  65
ATOM     65  O   UNL A   1      34.088  26.439  23.989  1.00  0.00    -0.462 OA
BRANCH  65  66
ATOM     66  C   UNL A   1      33.373  27.566  24.127  1.00  0.00     0.330 C 
ATOM     67  O   UNL A   1      33.849  28.669  24.365  1.00  0.00    -0.250 OA
BRANCH  66  68
ATOM     68  C   UNL A   1      31.909  27.308  23.830  1.00  0.00     0.214 C 
ATOM     69  C   UNL A   1      31.018  28.312  24.569  1.00  0.00     0.157 C 
ATOM     70  N   UNL A   1      31.248  25.959  23.788  1.00  0.00    -0.325 N 
ATOM     71  N   UNL A   1      29.719  28.420  23.896  1.00  0.00    -0.336 N 
ATOM     72  C   UNL A   1      29.999  26.096  22.977  1.00  0.00     0.142 C 
ATOM     73  C   UNL A   1      29.022  27.185  23.530  1.00  0.00     0.141 C 
BRANCH  70  74
ATOM     74  C   UNL A   1      31.188  24.988  24.790  1.00  0.00     0.226 C 
ATOM     75  O   UNL A   1      30.735  25.347  25.895  1.00  0.00    -0.275 OA
BRANCH  74  76
ATOM     76  C   UNL A   1      31.509  23.432  24.690  1.00  0.00     0.083 C 
ATOM     77  C   UNL A   1      32.010  22.820  25.991  1.00  0.00     0.042 C 
ATOM     78  C   UNL A   1      32.103  22.727  23.467  1.00  0.00     0.042 C 
ATOM     79  C   UNL A   1      32.128  21.305  25.834  1.00  0.00     0.161 C 
ATOM     80  C   UNL A   1      32.739  21.340  23.581  1.00  0.00     0.161 C 
ATOM     81  O   UNL A   1      33.162  21.024  24.895  1.00  0.00    -0.381 OA
ENDBRANCH  74  76
ENDBRANCH  70  74
BRANCH  71  82
ATOM     82  C   UNL A   1      29.493  29.578  23.193  1.00  0.00     0.225 A 
ATOM     83  N   UNL A   1      29.137  29.458  21.905  1.00  0.00    -0.221 NA
ATOM     84  N   UNL A   1      29.432  30.741  23.866  1.00  0.00    -0.221 NA
ATOM     85  C   UNL A   1      28.622  30.547  21.299  1.00  0.00     0.117 A 
ATOM     86  C   UNL A   1      28.944  31.812  23.205  1.00  0.00     0.117 A 
ATOM     87  C   UNL A   1      28.491  31.766  21.912  1.00  0.00     0.040 A 
ENDBRANCH  71  82
ENDBRANCH  66  68
ENDBRANCH  65  66
ENDBRANCH  64  65
ENDBRANCH  63  64
ENDBRANCH  62  63
ENDBRANCH  61  62
ENDBRANCH  60  61
ENDBRANCH   1  60
TORSDOF 23
ENDMDL
