MODEL 1
REMARK VINA RESULT:      -9.8      0.000      0.000
REMARK SMILES O=C(OCCOCCOCCOCCOC(=O)c1c[nH]c(=O)c(-c2cccc([N+](=O)[O-])c2)c1)c1ccc(-c2c3nc(c(-c4ccccc4)c4ccc([nH]4)c(-c4ccccc4)c4nc(c(-c5ccccc5)c5ccc2[nH]5)C=C4)C=C3)cc1
REMARK SMILES IDX 9 1 8 2 7 3 6 4 5 5 4 6 3 7 2 8 1 9 34 10 35 11 81 12 36 13
REMARK SMILES IDX 80 14 37 15 38 16 39 17 74 18 40 19 79 20 73 21 75 22 41 23
REMARK SMILES IDX 78 24 72 25 71 26 42 28 64 29 49 30 63 31 50 32 53 33 62 34
REMARK SMILES IDX 76 35 51 36 52 37 61 39 77 40 54 41 43 42 44 43 48 44 45 45
REMARK SMILES IDX 47 46 46 47 65 48 66 49 70 50 67 51 69 52 68 53 55 54 56 55
REMARK SMILES IDX 60 56 57 57 59 58 58 59 10 60 11 61 12 62 13 63 14 64 15 65
REMARK SMILES IDX 16 66 17 67 18 68 19 69 33 70 20 71 23 72 21 73 22 75 24 76
REMARK SMILES IDX 25 77 32 78 26 79 28 80 27 81 29 82 30 83 31 84
REMARK H PARENT 75 27 53 38 20 74
REMARK Flexibility Score: inf
ROOT
ATOM      1  O   UNL A   1      31.503  28.291  22.678  1.00  0.00    -0.377 OA
ENDROOT
BRANCH   1   2
ATOM      2  C   UNL A   1      30.571  28.665  23.692  1.00  0.00     0.188 C 
BRANCH   2   3
ATOM      3  C   UNL A   1      31.070  29.723  24.674  1.00  0.00     0.188 C 
BRANCH   3   4
ATOM      4  O   UNL A   1      31.465  29.130  25.917  1.00  0.00    -0.376 OA
BRANCH   4   5
ATOM      5  C   UNL A   1      31.913  30.053  26.912  1.00  0.00     0.202 C 
BRANCH   5   6
ATOM      6  C   UNL A   1      32.048  31.493  26.414  1.00  0.00     0.261 C 
BRANCH   6   7
ATOM      7  O   UNL A   1      32.305  32.416  27.481  1.00  0.00    -0.460 OA
BRANCH   7   8
ATOM      8  C   UNL A   1      33.474  33.031  27.791  1.00  0.00     0.338 C 
ATOM      9  O   UNL A   1      33.492  34.261  27.811  1.00  0.00    -0.246 OA
BRANCH   8  10
ATOM     10  C   UNL A   1      34.745  32.314  28.139  1.00  0.00     0.060 A 
ATOM     11  C   UNL A   1      34.864  30.955  28.435  1.00  0.00     0.016 A 
ATOM     12  C   UNL A   1      35.924  33.084  28.133  1.00  0.00     0.016 A 
ATOM     13  C   UNL A   1      36.074  30.394  28.817  1.00  0.00     0.010 A 
ATOM     14  C   UNL A   1      37.155  32.526  28.490  1.00  0.00     0.010 A 
ATOM     15  C   UNL A   1      37.214  31.186  28.883  1.00  0.00    -0.014 A 
BRANCH  15  16
ATOM     16  C   UNL A   1      38.373  30.627  29.598  1.00  0.00     0.031 A 
ATOM     17  C   UNL A   1      38.479  30.913  31.067  1.00  0.00     0.074 A 
ATOM     18  C   UNL A   1      39.173  29.734  28.991  1.00  0.00     0.049 A 
ATOM     19  N   UNL A   1      39.376  30.518  31.928  1.00  0.00    -0.248 NA
ATOM     20  C   UNL A   1      37.406  31.740  31.650  1.00  0.00     0.031 C 
ATOM     21  C   UNL A   1      39.027  29.271  27.608  1.00  0.00     0.029 A 
ATOM     22  N   UNL A   1      40.234  29.018  29.474  1.00  0.00    -0.354 N 
ATOM     23  C   UNL A   1      38.997  31.079  33.141  1.00  0.00     0.074 A 
ATOM     24  C   UNL A   1      37.791  31.837  32.912  1.00  0.00     0.031 C 
ATOM     25  C   UNL A   1      39.945  28.320  27.367  1.00  0.00     0.029 A 
ATOM     26  C   UNL A   1      40.781  28.160  28.552  1.00  0.00     0.049 A 
ATOM     27  H   UNL A   1      40.572  29.109  30.394  1.00  0.00     0.167 HD
ATOM     28  C   UNL A   1      39.615  30.977  34.340  1.00  0.00     0.031 A 
ATOM     29  C   UNL A   1      41.856  27.359  28.662  1.00  0.00     0.031 A 
ATOM     30  C   UNL A   1      40.822  30.226  34.533  1.00  0.00     0.049 A 
ATOM     31  C   UNL A   1      42.600  27.361  29.970  1.00  0.00     0.074 A 
ATOM     32  C   UNL A   1      41.600  30.104  35.668  1.00  0.00     0.029 A 
ATOM     33  N   UNL A   1      41.427  29.462  33.543  1.00  0.00    -0.354 N 
ATOM     34  N   UNL A   1      42.290  27.963  31.095  1.00  0.00    -0.248 NA
ATOM     35  C   UNL A   1      43.845  26.588  30.020  1.00  0.00     0.031 C 
ATOM     36  C   UNL A   1      42.704  29.306  35.348  1.00  0.00     0.029 A 
ATOM     37  C   UNL A   1      42.581  28.882  34.031  1.00  0.00     0.049 A 
ATOM     38  H   UNL A   1      41.082  29.349  32.627  1.00  0.00     0.167 HD
ATOM     39  C   UNL A   1      43.294  27.631  31.993  1.00  0.00     0.074 A 
ATOM     40  C   UNL A   1      44.208  26.754  31.285  1.00  0.00     0.031 C 
ATOM     41  C   UNL A   1      43.455  28.013  33.285  1.00  0.00     0.031 A 
BRANCH  28  42
ATOM     42  C   UNL A   1      39.039  31.786  35.468  1.00  0.00    -0.014 A 
ATOM     43  C   UNL A   1      39.361  33.141  35.651  1.00  0.00     0.009 A 
ATOM     44  C   UNL A   1      38.215  31.152  36.410  1.00  0.00     0.009 A 
ATOM     45  C   UNL A   1      38.909  33.827  36.781  1.00  0.00     0.001 A 
ATOM     46  C   UNL A   1      37.742  31.847  37.523  1.00  0.00     0.001 A 
ATOM     47  C   UNL A   1      38.102  33.181  37.716  1.00  0.00     0.000 A 
ENDBRANCH  28  42
BRANCH  29  48
ATOM     48  C   UNL A   1      42.321  26.549  27.502  1.00  0.00    -0.014 A 
ATOM     49  C   UNL A   1      41.853  25.243  27.296  1.00  0.00     0.009 A 
ATOM     50  C   UNL A   1      43.258  27.078  26.598  1.00  0.00     0.009 A 
ATOM     51  C   UNL A   1      42.328  24.478  26.226  1.00  0.00     0.001 A 
ATOM     52  C   UNL A   1      43.708  26.324  25.512  1.00  0.00     0.001 A 
ATOM     53  C   UNL A   1      43.250  25.021  25.332  1.00  0.00     0.000 A 
ENDBRANCH  29  48
BRANCH  41  54
ATOM     54  C   UNL A   1      44.642  27.450  34.010  1.00  0.00    -0.014 A 
ATOM     55  C   UNL A   1      44.563  26.232  34.701  1.00  0.00     0.009 A 
ATOM     56  C   UNL A   1      45.867  28.132  33.957  1.00  0.00     0.009 A 
ATOM     57  C   UNL A   1      45.685  25.725  35.357  1.00  0.00     0.001 A 
ATOM     58  C   UNL A   1      46.994  27.607  34.587  1.00  0.00     0.001 A 
ATOM     59  C   UNL A   1      46.898  26.410  35.294  1.00  0.00     0.000 A 
ENDBRANCH  41  54
ENDBRANCH  15  16
ENDBRANCH   8  10
ENDBRANCH   7   8
ENDBRANCH   6   7
ENDBRANCH   5   6
ENDBRANCH   4   5
ENDBRANCH   3   4
ENDBRANCH   2   3
ENDBRANCH   1   2
BRANCH   1  60
ATOM     60  C   UNL A   1      32.879  28.301  23.041  1.00  0.00     0.188 C 
BRANCH  60  61
ATOM     61  C   UNL A   1      33.913  27.823  21.998  1.00  0.00     0.188 C 
BRANCH  61  62
ATOM     62  O   UNL A   1      33.679  26.512  21.509  1.00  0.00    -0.376 OA
BRANCH  62  63
ATOM     63  C   UNL A   1      33.645  25.473  22.478  1.00  0.00     0.202 C 
BRANCH  63  64
ATOM     64  C   UNL A   1      32.542  24.414  22.327  1.00  0.00     0.261 C 
BRANCH  64  65
ATOM     65  O   UNL A   1      32.967  23.109  21.901  1.00  0.00    -0.460 OA
BRANCH  65  66
ATOM     66  C   UNL A   1      32.462  22.014  22.524  1.00  0.00     0.339 C 
ATOM     67  O   UNL A   1      31.848  21.103  22.014  1.00  0.00    -0.246 OA
BRANCH  66  68
ATOM     68  C   UNL A   1      32.984  22.037  23.922  1.00  0.00     0.077 A 
ATOM     69  C   UNL A   1      32.115  21.929  24.941  1.00  0.00     0.101 A 
ATOM     70  C   UNL A   1      34.405  22.040  24.202  1.00  0.00     0.031 A 
ATOM     71  N   UNL A   1      32.576  21.727  26.223  1.00  0.00    -0.328 N 
ATOM     72  C   UNL A   1      34.884  21.927  25.457  1.00  0.00     0.048 A 
ATOM     73  C   UNL A   1      33.911  21.659  26.569  1.00  0.00     0.255 A 
ATOM     74  H   UNL A   1      31.909  21.624  26.940  1.00  0.00     0.169 HD
ATOM     75  O   UNL A   1      34.263  21.406  27.716  1.00  0.00    -0.269 OA
BRANCH  72  76
ATOM     76  C   UNL A   1      36.309  22.209  25.703  1.00  0.00    -0.006 A 
ATOM     77  C   UNL A   1      36.663  23.539  26.006  1.00  0.00     0.009 A 
ATOM     78  C   UNL A   1      37.308  21.229  25.675  1.00  0.00     0.094 A 
ATOM     79  C   UNL A   1      37.986  23.902  26.243  1.00  0.00     0.008 A 
ATOM     80  C   UNL A   1      38.642  21.601  25.918  1.00  0.00     0.270 A 
ATOM     81  C   UNL A   1      38.982  22.935  26.194  1.00  0.00     0.085 A 
BRANCH  80  82
ATOM     82  N   UNL A   1      39.708  20.591  25.879  1.00  0.00     0.062 N 
ATOM     83  O   UNL A   1      39.426  19.476  25.416  1.00  0.00    -0.258 OA
ATOM     84  O   UNL A   1      40.822  20.906  26.319  1.00  0.00    -0.258 OA
ENDBRANCH  80  82
ENDBRANCH  72  76
ENDBRANCH  66  68
ENDBRANCH  65  66
ENDBRANCH  64  65
ENDBRANCH  63  64
ENDBRANCH  62  63
ENDBRANCH  61  62
ENDBRANCH  60  61
ENDBRANCH   1  60
TORSDOF 22
ENDMDL
MODEL 2
REMARK VINA RESULT:      -9.4      2.818      9.118
REMARK SMILES O=C(OCCOCCOCCOCCOC(=O)c1c[nH]c(=O)c(-c2cccc([N+](=O)[O-])c2)c1)c1ccc(-c2c3nc(c(-c4ccccc4)c4ccc([nH]4)c(-c4ccccc4)c4nc(c(-c5ccccc5)c5ccc2[nH]5)C=C4)C=C3)cc1
REMARK SMILES IDX 9 1 8 2 7 3 6 4 5 5 4 6 3 7 2 8 1 9 34 10 35 11 81 12 36 13
REMARK SMILES IDX 80 14 37 15 38 16 39 17 74 18 40 19 79 20 73 21 75 22 41 23
REMARK SMILES IDX 78 24 72 25 71 26 42 28 64 29 49 30 63 31 50 32 53 33 62 34
REMARK SMILES IDX 76 35 51 36 52 37 61 39 77 40 54 41 43 42 44 43 48 44 45 45
REMARK SMILES IDX 47 46 46 47 65 48 66 49 70 50 67 51 69 52 68 53 55 54 56 55
REMARK SMILES IDX 60 56 57 57 59 58 58 59 10 60 11 61 12 62 13 63 14 64 15 65
REMARK SMILES IDX 16 66 17 67 18 68 19 69 33 70 20 71 23 72 21 73 22 75 24 76
REMARK SMILES IDX 25 77 32 78 26 79 28 80 27 81 29 82 30 83 31 84
REMARK H PARENT 75 27 53 38 20 74
REMARK Flexibility Score: inf
ROOT
ATOM      1  O   UNL A   1      44.518  18.469  24.662  1.00  0.00    -0.377 OA
ENDROOT
BRANCH   1   2
ATOM      2  C   UNL A   1      45.686  18.811  25.406  1.00  0.00     0.188 C 
BRANCH   2   3
ATOM      3  C   UNL A   1      46.782  19.513  24.605  1.00  0.00     0.188 C 
BRANCH   3   4
ATOM      4  O   UNL A   1      46.737  20.931  24.800  1.00  0.00    -0.376 OA
BRANCH   4   5
ATOM      5  C   UNL A   1      45.426  21.501  24.792  1.00  0.00     0.202 C 
BRANCH   5   6
ATOM      6  C   UNL A   1      45.136  22.419  25.981  1.00  0.00     0.261 C 
BRANCH   6   7
ATOM      7  O   UNL A   1      44.043  23.312  25.724  1.00  0.00    -0.460 OA
BRANCH   7   8
ATOM      8  C   UNL A   1      44.074  24.665  25.625  1.00  0.00     0.338 C 
ATOM      9  O   UNL A   1      44.759  25.163  24.733  1.00  0.00    -0.246 OA
BRANCH   8  10
ATOM     10  C   UNL A   1      43.306  25.599  26.512  1.00  0.00     0.060 A 
ATOM     11  C   UNL A   1      43.525  26.972  26.641  1.00  0.00     0.016 A 
ATOM     12  C   UNL A   1      42.249  25.037  27.253  1.00  0.00     0.016 A 
ATOM     13  C   UNL A   1      42.809  27.744  27.543  1.00  0.00     0.010 A 
ATOM     14  C   UNL A   1      41.501  25.810  28.147  1.00  0.00     0.010 A 
ATOM     15  C   UNL A   1      41.822  27.158  28.327  1.00  0.00    -0.014 A 
BRANCH  15  16
ATOM     16  C   UNL A   1      41.334  27.936  29.477  1.00  0.00     0.031 A 
ATOM     17  C   UNL A   1      42.169  27.920  30.723  1.00  0.00     0.074 A 
ATOM     18  C   UNL A   1      40.298  28.780  29.330  1.00  0.00     0.049 A 
ATOM     19  N   UNL A   1      41.983  28.538  31.857  1.00  0.00    -0.248 NA
ATOM     20  C   UNL A   1      43.402  27.112  30.672  1.00  0.00     0.031 C 
ATOM     21  C   UNL A   1      39.542  28.981  28.090  1.00  0.00     0.029 A 
ATOM     22  N   UNL A   1      39.739  29.663  30.212  1.00  0.00    -0.354 N 
ATOM     23  C   UNL A   1      43.052  28.164  32.663  1.00  0.00     0.074 A 
ATOM     24  C   UNL A   1      43.883  27.270  31.894  1.00  0.00     0.031 C 
ATOM     25  C   UNL A   1      38.638  29.956  28.285  1.00  0.00     0.029 A 
ATOM     26  C   UNL A   1      38.709  30.395  29.674  1.00  0.00     0.049 A 
ATOM     27  H   UNL A   1      40.046  29.764  31.142  1.00  0.00     0.167 HD
ATOM     28  C   UNL A   1      43.303  28.528  33.941  1.00  0.00     0.031 A 
ATOM     29  C   UNL A   1      37.904  31.297  30.263  1.00  0.00     0.031 A 
ATOM     30  C   UNL A   1      42.448  29.408  34.683  1.00  0.00     0.049 A 
ATOM     31  C   UNL A   1      38.129  31.591  31.722  1.00  0.00     0.074 A 
ATOM     32  C   UNL A   1      42.535  29.795  36.006  1.00  0.00     0.029 A 
ATOM     33  N   UNL A   1      41.334  30.041  34.147  1.00  0.00    -0.354 N 
ATOM     34  N   UNL A   1      39.089  31.167  32.511  1.00  0.00    -0.248 NA
ATOM     35  C   UNL A   1      37.154  32.471  32.375  1.00  0.00     0.031 C 
ATOM     36  C   UNL A   1      41.442  30.624  36.283  1.00  0.00     0.029 A 
ATOM     37  C   UNL A   1      40.709  30.801  35.117  1.00  0.00     0.049 A 
ATOM     38  H   UNL A   1      41.034  29.962  33.213  1.00  0.00     0.167 HD
ATOM     39  C   UNL A   1      38.845  31.739  33.750  1.00  0.00     0.074 A 
ATOM     40  C   UNL A   1      37.657  32.560  33.598  1.00  0.00     0.031 C 
ATOM     41  C   UNL A   1      39.530  31.603  34.913  1.00  0.00     0.031 A 
BRANCH  28  42
ATOM     42  C   UNL A   1      44.481  27.877  34.608  1.00  0.00    -0.014 A 
ATOM     43  C   UNL A   1      45.777  28.412  34.518  1.00  0.00     0.009 A 
ATOM     44  C   UNL A   1      44.297  26.658  35.279  1.00  0.00     0.009 A 
ATOM     45  C   UNL A   1      46.867  27.713  35.042  1.00  0.00     0.001 A 
ATOM     46  C   UNL A   1      45.384  25.976  35.826  1.00  0.00     0.001 A 
ATOM     47  C   UNL A   1      46.671  26.496  35.695  1.00  0.00     0.000 A 
ENDBRANCH  28  42
BRANCH  29  48
ATOM     48  C   UNL A   1      36.793  31.934  29.503  1.00  0.00    -0.014 A 
ATOM     49  C   UNL A   1      35.501  31.385  29.511  1.00  0.00     0.009 A 
ATOM     50  C   UNL A   1      37.025  33.093  28.744  1.00  0.00     0.009 A 
ATOM     51  C   UNL A   1      34.476  31.970  28.761  1.00  0.00     0.001 A 
ATOM     52  C   UNL A   1      35.993  33.694  28.020  1.00  0.00     0.001 A 
ATOM     53  C   UNL A   1      34.721  33.126  28.021  1.00  0.00     0.000 A 
ENDBRANCH  29  48
BRANCH  41  54
ATOM     54  C   UNL A   1      39.026  32.390  36.087  1.00  0.00    -0.014 A 
ATOM     55  C   UNL A   1      39.406  33.725  36.287  1.00  0.00     0.009 A 
ATOM     56  C   UNL A   1      38.121  31.792  36.978  1.00  0.00     0.009 A 
ATOM     57  C   UNL A   1      38.913  34.437  37.380  1.00  0.00     0.001 A 
ATOM     58  C   UNL A   1      37.607  32.516  38.052  1.00  0.00     0.001 A 
ATOM     59  C   UNL A   1      38.012  33.834  38.257  1.00  0.00     0.000 A 
ENDBRANCH  41  54
ENDBRANCH  15  16
ENDBRANCH   8  10
ENDBRANCH   7   8
ENDBRANCH   6   7
ENDBRANCH   5   6
ENDBRANCH   4   5
ENDBRANCH   3   4
ENDBRANCH   2   3
ENDBRANCH   1   2
BRANCH   1  60
ATOM     60  C   UNL A   1      43.277  18.543  25.355  1.00  0.00     0.188 C 
BRANCH  60  61
ATOM     61  C   UNL A   1      43.099  17.689  26.630  1.00  0.00     0.188 C 
BRANCH  61  62
ATOM     62  O   UNL A   1      42.741  18.435  27.782  1.00  0.00    -0.376 OA
BRANCH  62  63
ATOM     63  C   UNL A   1      42.438  19.808  27.576  1.00  0.00     0.202 C 
BRANCH  63  64
ATOM     64  C   UNL A   1      41.041  20.285  28.003  1.00  0.00     0.261 C 
BRANCH  64  65
ATOM     65  O   UNL A   1      40.094  20.510  26.946  1.00  0.00    -0.460 OA
BRANCH  65  66
ATOM     66  C   UNL A   1      40.249  21.589  26.137  1.00  0.00     0.339 C 
ATOM     67  O   UNL A   1      41.212  21.856  25.452  1.00  0.00    -0.246 OA
BRANCH  66  68
ATOM     68  C   UNL A   1      38.928  22.282  26.090  1.00  0.00     0.077 A 
ATOM     69  C   UNL A   1      38.838  23.540  26.553  1.00  0.00     0.101 A 
ATOM     70  C   UNL A   1      37.781  21.684  25.439  1.00  0.00     0.031 A 
ATOM     71  N   UNL A   1      37.699  24.280  26.326  1.00  0.00    -0.328 N 
ATOM     72  C   UNL A   1      36.623  22.357  25.276  1.00  0.00     0.048 A 
ATOM     73  C   UNL A   1      36.582  23.807  25.665  1.00  0.00     0.255 A 
ATOM     74  H   UNL A   1      37.680  25.207  26.656  1.00  0.00     0.169 HD
ATOM     75  O   UNL A   1      35.623  24.533  25.428  1.00  0.00    -0.269 OA
BRANCH  72  76
ATOM     76  C   UNL A   1      35.421  21.615  24.861  1.00  0.00    -0.006 A 
ATOM     77  C   UNL A   1      34.401  22.342  24.217  1.00  0.00     0.009 A 
ATOM     78  C   UNL A   1      35.257  20.238  25.052  1.00  0.00     0.094 A 
ATOM     79  C   UNL A   1      33.223  21.728  23.799  1.00  0.00     0.008 A 
ATOM     80  C   UNL A   1      34.067  19.622  24.625  1.00  0.00     0.270 A 
ATOM     81  C   UNL A   1      33.050  20.365  24.007  1.00  0.00     0.085 A 
BRANCH  80  82
ATOM     82  N   UNL A   1      33.869  18.180  24.829  1.00  0.00     0.062 N 
ATOM     83  O   UNL A   1      32.877  17.823  25.483  1.00  0.00    -0.258 OA
ATOM     84  O   UNL A   1      34.706  17.406  24.346  1.00  0.00    -0.258 OA
ENDBRANCH  80  82
ENDBRANCH  72  76
ENDBRANCH  66  68
ENDBRANCH  65  66
ENDBRANCH  64  65
ENDBRANCH  63  64
ENDBRANCH  62  63
ENDBRANCH  61  62
ENDBRANCH  60  61
ENDBRANCH   1  60
TORSDOF 22
ENDMDL
MODEL 3
REMARK VINA RESULT:      -9.2      1.838      3.092
REMARK SMILES O=C(OCCOCCOCCOCCOC(=O)c1c[nH]c(=O)c(-c2cccc([N+](=O)[O-])c2)c1)c1ccc(-c2c3nc(c(-c4ccccc4)c4ccc([nH]4)c(-c4ccccc4)c4nc(c(-c5ccccc5)c5ccc2[nH]5)C=C4)C=C3)cc1
REMARK SMILES IDX 9 1 8 2 7 3 6 4 5 5 4 6 3 7 2 8 1 9 34 10 35 11 81 12 36 13
REMARK SMILES IDX 80 14 37 15 38 16 39 17 74 18 40 19 79 20 73 21 75 22 41 23
REMARK SMILES IDX 78 24 72 25 71 26 42 28 64 29 49 30 63 31 50 32 53 33 62 34
REMARK SMILES IDX 76 35 51 36 52 37 61 39 77 40 54 41 43 42 44 43 48 44 45 45
REMARK SMILES IDX 47 46 46 47 65 48 66 49 70 50 67 51 69 52 68 53 55 54 56 55
REMARK SMILES IDX 60 56 57 57 59 58 58 59 10 60 11 61 12 62 13 63 14 64 15 65
REMARK SMILES IDX 16 66 17 67 18 68 19 69 33 70 20 71 23 72 21 73 22 75 24 76
REMARK SMILES IDX 25 77 32 78 26 79 28 80 27 81 29 82 30 83 31 84
REMARK H PARENT 75 27 53 38 20 74
REMARK Flexibility Score: inf
ROOT
ATOM      1  O   UNL A   1      31.497  26.664  24.076  1.00  0.00    -0.377 OA
ENDROOT
BRANCH   1   2
ATOM      2  C   UNL A   1      30.256  27.131  23.549  1.00  0.00     0.188 C 
BRANCH   2   3
ATOM      3  C   UNL A   1      30.116  28.650  23.466  1.00  0.00     0.188 C 
BRANCH   3   4
ATOM      4  O   UNL A   1      31.323  29.304  23.875  1.00  0.00    -0.376 OA
BRANCH   4   5
ATOM      5  C   UNL A   1      31.250  29.975  25.134  1.00  0.00     0.202 C 
BRANCH   5   6
ATOM      6  C   UNL A   1      32.574  30.016  25.899  1.00  0.00     0.261 C 
BRANCH   6   7
ATOM      7  O   UNL A   1      32.497  30.830  27.078  1.00  0.00    -0.460 OA
BRANCH   7   8
ATOM      8  C   UNL A   1      33.428  31.689  27.563  1.00  0.00     0.338 C 
ATOM      9  O   UNL A   1      33.108  32.868  27.707  1.00  0.00    -0.246 OA
BRANCH   8  10
ATOM     10  C   UNL A   1      34.819  31.296  27.964  1.00  0.00     0.060 A 
ATOM     11  C   UNL A   1      35.243  30.008  28.297  1.00  0.00     0.016 A 
ATOM     12  C   UNL A   1      35.785  32.321  27.972  1.00  0.00     0.016 A 
ATOM     13  C   UNL A   1      36.537  29.754  28.725  1.00  0.00     0.010 A 
ATOM     14  C   UNL A   1      37.100  32.073  28.377  1.00  0.00     0.010 A 
ATOM     15  C   UNL A   1      37.458  30.791  28.805  1.00  0.00    -0.014 A 
BRANCH  15  16
ATOM     16  C   UNL A   1      38.691  30.531  29.565  1.00  0.00     0.031 A 
ATOM     17  C   UNL A   1      38.681  30.866  31.027  1.00  0.00     0.074 A 
ATOM     18  C   UNL A   1      39.695  29.836  29.004  1.00  0.00     0.049 A 
ATOM     19  N   UNL A   1      39.618  30.710  31.922  1.00  0.00    -0.248 NA
ATOM     20  C   UNL A   1      37.428  31.434  31.559  1.00  0.00     0.031 C 
ATOM     21  C   UNL A   1      39.704  29.322  27.632  1.00  0.00     0.029 A 
ATOM     22  N   UNL A   1      40.877  29.396  29.536  1.00  0.00    -0.354 N 
ATOM     23  C   UNL A   1      39.080  31.193  33.109  1.00  0.00     0.074 A 
ATOM     24  C   UNL A   1      37.740  31.646  32.826  1.00  0.00     0.031 C 
ATOM     25  C   UNL A   1      40.824  28.604  27.442  1.00  0.00     0.029 A 
ATOM     26  C   UNL A   1      41.636  28.668  28.652  1.00  0.00     0.049 A 
ATOM     27  H   UNL A   1      41.155  29.583  30.461  1.00  0.00     0.167 HD
ATOM     28  C   UNL A   1      39.667  31.263  34.325  1.00  0.00     0.031 A 
ATOM     29  C   UNL A   1      42.863  28.141  28.813  1.00  0.00     0.031 A 
ATOM     30  C   UNL A   1      41.008  30.817  34.571  1.00  0.00     0.049 A 
ATOM     31  C   UNL A   1      43.544  28.343  30.140  1.00  0.00     0.074 A 
ATOM     32  C   UNL A   1      41.756  30.904  35.729  1.00  0.00     0.029 A 
ATOM     33  N   UNL A   1      41.804  30.192  33.619  1.00  0.00    -0.354 N 
ATOM     34  N   UNL A   1      43.068  28.881  31.239  1.00  0.00    -0.248 NA
ATOM     35  C   UNL A   1      44.932  27.882  30.245  1.00  0.00     0.031 C 
ATOM     36  C   UNL A   1      43.024  30.376  35.461  1.00  0.00     0.029 A 
ATOM     37  C   UNL A   1      43.044  29.906  34.154  1.00  0.00     0.049 A 
ATOM     38  H   UNL A   1      41.524  29.983  32.699  1.00  0.00     0.167 HD
ATOM     39  C   UNL A   1      44.092  28.811  32.172  1.00  0.00     0.074 A 
ATOM     40  C   UNL A   1      45.206  28.155  31.513  1.00  0.00     0.031 C 
ATOM     41  C   UNL A   1      44.119  29.248  33.456  1.00  0.00     0.031 A 
BRANCH  28  42
ATOM     42  C   UNL A   1      38.884  31.941  35.414  1.00  0.00    -0.014 A 
ATOM     43  C   UNL A   1      38.750  33.338  35.475  1.00  0.00     0.009 A 
ATOM     44  C   UNL A   1      38.333  31.162  36.444  1.00  0.00     0.009 A 
ATOM     45  C   UNL A   1      38.124  33.940  36.569  1.00  0.00     0.001 A 
ATOM     46  C   UNL A   1      37.684  31.765  37.522  1.00  0.00     0.001 A 
ATOM     47  C   UNL A   1      37.593  33.154  37.591  1.00  0.00     0.000 A 
ENDBRANCH  28  42
BRANCH  29  48
ATOM     48  C   UNL A   1      43.540  27.436  27.690  1.00  0.00    -0.014 A 
ATOM     49  C   UNL A   1      43.610  26.035  27.650  1.00  0.00     0.009 A 
ATOM     50  C   UNL A   1      44.140  28.168  26.651  1.00  0.00     0.009 A 
ATOM     51  C   UNL A   1      44.283  25.387  26.610  1.00  0.00     0.001 A 
ATOM     52  C   UNL A   1      44.784  27.518  25.597  1.00  0.00     0.001 A 
ATOM     53  C   UNL A   1      44.864  26.128  25.582  1.00  0.00     0.000 A 
ENDBRANCH  29  48
BRANCH  41  54
ATOM     54  C   UNL A   1      45.380  28.991  34.227  1.00  0.00    -0.014 A 
ATOM     55  C   UNL A   1      45.702  27.707  34.692  1.00  0.00     0.009 A 
ATOM     56  C   UNL A   1      46.278  30.047  34.450  1.00  0.00     0.009 A 
ATOM     57  C   UNL A   1      46.887  27.494  35.396  1.00  0.00     0.001 A 
ATOM     58  C   UNL A   1      47.475  29.824  35.126  1.00  0.00     0.001 A 
ATOM     59  C   UNL A   1      47.773  28.550  35.607  1.00  0.00     0.000 A 
ENDBRANCH  41  54
ENDBRANCH  15  16
ENDBRANCH   8  10
ENDBRANCH   7   8
ENDBRANCH   6   7
ENDBRANCH   5   6
ENDBRANCH   4   5
ENDBRANCH   3   4
ENDBRANCH   2   3
ENDBRANCH   1   2
BRANCH   1  60
ATOM     60  C   UNL A   1      31.601  25.266  24.318  1.00  0.00     0.188 C 
BRANCH  60  61
ATOM     61  C   UNL A   1      32.643  24.460  23.510  1.00  0.00     0.188 C 
BRANCH  61  62
ATOM     62  O   UNL A   1      32.958  23.195  24.070  1.00  0.00    -0.376 OA
BRANCH  62  63
ATOM     63  C   UNL A   1      33.587  23.207  25.344  1.00  0.00     0.202 C 
BRANCH  63  64
ATOM     64  C   UNL A   1      34.363  21.945  25.751  1.00  0.00     0.261 C 
BRANCH  64  65
ATOM     65  O   UNL A   1      35.732  22.138  26.141  1.00  0.00    -0.460 OA
BRANCH  65  66
ATOM     66  C   UNL A   1      36.709  22.030  25.205  1.00  0.00     0.339 C 
ATOM     67  O   UNL A   1      36.572  21.741  24.037  1.00  0.00    -0.246 OA
BRANCH  66  68
ATOM     68  C   UNL A   1      37.965  22.533  25.836  1.00  0.00     0.077 A 
ATOM     69  C   UNL A   1      37.902  23.607  26.640  1.00  0.00     0.101 A 
ATOM     70  C   UNL A   1      39.217  21.816  25.710  1.00  0.00     0.031 A 
ATOM     71  N   UNL A   1      38.990  23.962  27.406  1.00  0.00    -0.328 N 
ATOM     72  C   UNL A   1      40.323  22.191  26.385  1.00  0.00     0.048 A 
ATOM     73  C   UNL A   1      40.202  23.301  27.390  1.00  0.00     0.255 A 
ATOM     74  H   UNL A   1      38.898  24.738  28.004  1.00  0.00     0.169 HD
ATOM     75  O   UNL A   1      41.115  23.617  28.145  1.00  0.00    -0.269 OA
BRANCH  72  76
ATOM     76  C   UNL A   1      41.619  21.600  26.011  1.00  0.00    -0.006 A 
ATOM     77  C   UNL A   1      42.627  22.477  25.566  1.00  0.00     0.009 A 
ATOM     78  C   UNL A   1      41.900  20.231  26.099  1.00  0.00     0.094 A 
ATOM     79  C   UNL A   1      43.880  22.009  25.181  1.00  0.00     0.008 A 
ATOM     80  C   UNL A   1      43.168  19.763  25.712  1.00  0.00     0.270 A 
ATOM     81  C   UNL A   1      44.154  20.648  25.247  1.00  0.00     0.085 A 
BRANCH  80  82
ATOM     82  N   UNL A   1      43.479  18.330  25.783  1.00  0.00     0.062 N 
ATOM     83  O   UNL A   1      44.671  17.995  25.707  1.00  0.00    -0.258 OA
ATOM     84  O   UNL A   1      42.535  17.537  25.903  1.00  0.00    -0.258 OA
ENDBRANCH  80  82
ENDBRANCH  72  76
ENDBRANCH  66  68
ENDBRANCH  65  66
ENDBRANCH  64  65
ENDBRANCH  63  64
ENDBRANCH  62  63
ENDBRANCH  61  62
ENDBRANCH  60  61
ENDBRANCH   1  60
TORSDOF 22
ENDMDL
