MODEL 1
REMARK VINA RESULT:      -9.9      0.000      0.000
REMARK SMILES Cc1ccccc1NC(=O)CSc1nc(C(=O)OCCOCCOCCOCCOC(=O)c2ccc(-c3c4nc(c(-c5ccccc5)c5ccc([nH]5)c(-c5ccccc5)c5nc(c(-c6ccccc6)c6ccc3[nH]6)C=C5)C=C4)cc2)c2ccccc2n1
REMARK SMILES IDX 23 1 22 2 21 3 20 4 19 5 18 6 16 7 17 8 15 9 13 10 14 11
REMARK SMILES IDX 87 12 86 13 81 14 85 15 82 16 84 17 83 18 12 19 11 20 9 21
REMARK SMILES IDX 8 22 10 24 7 25 1 26 2 27 3 28 4 29 6 30 5 31 24 32 25 33
REMARK SMILES IDX 26 34 27 35 28 36 29 37 30 38 31 39 32 40 33 41 34 42 80 43
REMARK SMILES IDX 35 44 79 45 36 46 37 47 38 48 73 49 39 50 78 51 72 52 74 53
REMARK SMILES IDX 40 54 77 55 71 56 70 57 41 59 63 60 48 61 62 62 49 63 52 64
REMARK SMILES IDX 61 65 75 66 50 67 51 68 60 70 76 71 53 72 42 73 43 74 47 75
REMARK SMILES IDX 44 76 46 77 45 78 64 79 65 80 69 81 66 82 68 83 67 84 54 85
REMARK SMILES IDX 55 86 59 87 56 88 58 89 57 90
REMARK H PARENT 8 23 74 58 52 69
REMARK Flexibility Score: inf
ROOT
ATOM      1  C   UNL A   1      32.787  26.564  26.290  1.00  0.00     0.188 C 
ENDROOT
BRANCH   1   2
ATOM      2  C   UNL A   1      31.938  25.300  26.462  1.00  0.00     0.188 C 
BRANCH   2   3
ATOM      3  O   UNL A   1      32.623  24.077  26.703  1.00  0.00    -0.376 OA
BRANCH   3   4
ATOM      4  C   UNL A   1      31.809  22.907  26.793  1.00  0.00     0.202 C 
BRANCH   4   5
ATOM      5  C   UNL A   1      31.415  22.287  25.458  1.00  0.00     0.261 C 
BRANCH   5   6
ATOM      6  O   UNL A   1      32.040  20.993  25.345  1.00  0.00    -0.458 OA
BRANCH   6   7
ATOM      7  C   UNL A   1      32.485  20.715  24.103  1.00  0.00     0.357 C 
ATOM      8  O   UNL A   1      31.956  19.962  23.302  1.00  0.00    -0.244 OA
BRANCH   7   9
ATOM      9  C   UNL A   1      33.375  21.799  23.639  1.00  0.00     0.160 A 
ATOM     10  C   UNL A   1      33.004  23.736  22.583  1.00  0.00     0.189 A 
ATOM     11  N   UNL A   1      32.725  22.463  22.680  1.00  0.00    -0.215 NA
ATOM     12  N   UNL A   1      34.183  24.253  22.929  1.00  0.00    -0.222 NA
ATOM     13  C   UNL A   1      34.997  23.469  23.652  1.00  0.00     0.076 A 
ATOM     14  C   UNL A   1      34.563  22.258  24.197  1.00  0.00     0.034 A 
ATOM     15  C   UNL A   1      36.281  23.905  23.957  1.00  0.00     0.029 A 
ATOM     16  C   UNL A   1      35.324  21.648  25.214  1.00  0.00     0.013 A 
ATOM     17  C   UNL A   1      37.090  23.229  24.876  1.00  0.00     0.002 A 
ATOM     18  C   UNL A   1      36.583  22.131  25.553  1.00  0.00     0.001 A 
BRANCH  10  19
ATOM     19  S   UNL A   1      31.544  24.740  22.713  1.00  0.00    -0.076 SA
BRANCH  19  20
ATOM     20  C   UNL A   1      32.084  26.242  21.764  1.00  0.00     0.178 C 
BRANCH  20  21
ATOM     21  C   UNL A   1      32.696  27.398  22.566  1.00  0.00     0.234 C 
ATOM     22  N   UNL A   1      31.964  28.417  23.108  1.00  0.00    -0.325 N 
ATOM     23  H   UNL A   1      32.439  28.956  23.782  1.00  0.00     0.169 HD
ATOM     24  O   UNL A   1      33.923  27.461  22.722  1.00  0.00    -0.274 OA
BRANCH  22  25
ATOM     25  C   UNL A   1      30.645  28.819  22.857  1.00  0.00     0.044 A 
ATOM     26  C   UNL A   1      29.709  27.082  24.508  1.00  0.00     0.046 C 
ATOM     27  C   UNL A   1      29.569  28.131  23.439  1.00  0.00    -0.027 A 
ATOM     28  C   UNL A   1      28.267  28.441  23.004  1.00  0.00     0.005 A 
ATOM     29  C   UNL A   1      28.039  29.418  22.035  1.00  0.00     0.000 A 
ATOM     30  C   UNL A   1      30.388  29.894  21.997  1.00  0.00     0.026 A 
ATOM     31  C   UNL A   1      29.100  30.164  21.547  1.00  0.00     0.002 A 
ENDBRANCH  22  25
ENDBRANCH  20  21
ENDBRANCH  19  20
ENDBRANCH  10  19
ENDBRANCH   7   9
ENDBRANCH   6   7
ENDBRANCH   5   6
ENDBRANCH   4   5
ENDBRANCH   3   4
ENDBRANCH   2   3
ENDBRANCH   1   2
BRANCH   1  32
ATOM     32  O   UNL A   1      32.718  27.540  27.320  1.00  0.00    -0.377 OA
BRANCH  32  33
ATOM     33  C   UNL A   1      31.856  28.670  27.160  1.00  0.00     0.188 C 
BRANCH  33  34
ATOM     34  C   UNL A   1      32.277  29.786  26.200  1.00  0.00     0.188 C 
BRANCH  34  35
ATOM     35  O   UNL A   1      32.631  30.938  26.964  1.00  0.00    -0.376 OA
BRANCH  35  36
ATOM     36  C   UNL A   1      31.634  31.952  27.069  1.00  0.00     0.202 C 
BRANCH  36  37
ATOM     37  C   UNL A   1      32.169  33.386  26.948  1.00  0.00     0.261 C 
BRANCH  37  38
ATOM     38  O   UNL A   1      32.609  33.858  28.236  1.00  0.00    -0.460 OA
BRANCH  38  39
ATOM     39  C   UNL A   1      33.903  34.267  28.287  1.00  0.00     0.338 C 
ATOM     40  O   UNL A   1      34.324  35.341  27.872  1.00  0.00    -0.246 OA
BRANCH  39  41
ATOM     41  C   UNL A   1      34.780  33.122  28.653  1.00  0.00     0.060 A 
ATOM     42  C   UNL A   1      34.559  32.420  29.851  1.00  0.00     0.016 A 
ATOM     43  C   UNL A   1      35.999  32.995  27.997  1.00  0.00     0.016 A 
ATOM     44  C   UNL A   1      35.617  31.744  30.479  1.00  0.00     0.010 A 
ATOM     45  C   UNL A   1      37.057  32.442  28.683  1.00  0.00     0.010 A 
ATOM     46  C   UNL A   1      36.901  31.835  29.941  1.00  0.00    -0.014 A 
BRANCH  46  47
ATOM     47  C   UNL A   1      38.170  31.537  30.637  1.00  0.00     0.031 A 
ATOM     48  C   UNL A   1      38.795  32.592  31.522  1.00  0.00     0.074 A 
ATOM     49  C   UNL A   1      38.525  30.236  30.808  1.00  0.00     0.049 A 
ATOM     50  N   UNL A   1      39.749  32.387  32.368  1.00  0.00    -0.248 NA
ATOM     51  C   UNL A   1      38.366  33.993  31.545  1.00  0.00     0.031 C 
ATOM     52  C   UNL A   1      39.235  29.713  31.973  1.00  0.00     0.029 A 
ATOM     53  N   UNL A   1      38.291  29.071  30.092  1.00  0.00    -0.354 N 
ATOM     54  C   UNL A   1      39.818  33.453  33.239  1.00  0.00     0.074 A 
ATOM     55  C   UNL A   1      38.988  34.462  32.634  1.00  0.00     0.031 C 
ATOM     56  C   UNL A   1      39.478  28.407  31.841  1.00  0.00     0.029 A 
ATOM     57  C   UNL A   1      39.225  28.101  30.468  1.00  0.00     0.049 A 
ATOM     58  H   UNL A   1      37.579  28.948  29.423  1.00  0.00     0.167 HD
ATOM     59  C   UNL A   1      40.473  33.309  34.432  1.00  0.00     0.031 A 
ATOM     60  C   UNL A   1      40.233  27.624  29.678  1.00  0.00     0.031 A 
ATOM     61  C   UNL A   1      41.252  32.057  34.495  1.00  0.00     0.049 A 
ATOM     62  C   UNL A   1      41.610  27.983  30.248  1.00  0.00     0.074 A 
ATOM     63  C   UNL A   1      41.383  31.047  35.429  1.00  0.00     0.029 A 
ATOM     64  N   UNL A   1      41.974  31.621  33.379  1.00  0.00    -0.354 N 
ATOM     65  N   UNL A   1      41.808  29.042  31.006  1.00  0.00    -0.248 NA
ATOM     66  C   UNL A   1      42.801  27.137  30.191  1.00  0.00     0.031 C 
ATOM     67  C   UNL A   1      42.037  29.944  34.812  1.00  0.00     0.029 A 
ATOM     68  C   UNL A   1      42.436  30.334  33.544  1.00  0.00     0.049 A 
ATOM     69  H   UNL A   1      42.131  32.165  32.575  1.00  0.00     0.167 HD
ATOM     70  C   UNL A   1      43.025  28.955  31.628  1.00  0.00     0.074 A 
ATOM     71  C   UNL A   1      43.638  27.779  31.033  1.00  0.00     0.031 C 
ATOM     72  C   UNL A   1      43.435  29.773  32.645  1.00  0.00     0.031 A 
BRANCH  59  73
ATOM     73  C   UNL A   1      40.272  34.214  35.654  1.00  0.00    -0.014 A 
ATOM     74  C   UNL A   1      39.313  33.881  36.635  1.00  0.00     0.009 A 
ATOM     75  C   UNL A   1      40.911  35.453  35.858  1.00  0.00     0.009 A 
ATOM     76  C   UNL A   1      38.992  34.728  37.712  1.00  0.00     0.001 A 
ATOM     77  C   UNL A   1      40.631  36.286  36.958  1.00  0.00     0.001 A 
ATOM     78  C   UNL A   1      39.660  35.931  37.879  1.00  0.00     0.000 A 
ENDBRANCH  59  73
BRANCH  60  79
ATOM     79  C   UNL A   1      39.750  27.267  28.314  1.00  0.00    -0.014 A 
ATOM     80  C   UNL A   1      40.392  28.009  27.295  1.00  0.00     0.009 A 
ATOM     81  C   UNL A   1      39.426  25.925  28.046  1.00  0.00     0.009 A 
ATOM     82  C   UNL A   1      40.990  27.354  26.212  1.00  0.00     0.001 A 
ATOM     83  C   UNL A   1      40.004  25.279  26.939  1.00  0.00     0.001 A 
ATOM     84  C   UNL A   1      40.844  25.978  26.069  1.00  0.00     0.000 A 
ENDBRANCH  60  79
BRANCH  72  85
ATOM     85  C   UNL A   1      44.872  30.133  32.969  1.00  0.00    -0.014 A 
ATOM     86  C   UNL A   1      45.561  29.661  34.087  1.00  0.00     0.009 A 
ATOM     87  C   UNL A   1      45.652  30.798  31.984  1.00  0.00     0.009 A 
ATOM     88  C   UNL A   1      46.946  29.841  34.212  1.00  0.00     0.001 A 
ATOM     89  C   UNL A   1      47.034  30.945  32.084  1.00  0.00     0.001 A 
ATOM     90  C   UNL A   1      47.683  30.463  33.206  1.00  0.00     0.000 A 
ENDBRANCH  72  85
ENDBRANCH  46  47
ENDBRANCH  39  41
ENDBRANCH  38  39
ENDBRANCH  37  38
ENDBRANCH  36  37
ENDBRANCH  35  36
ENDBRANCH  34  35
ENDBRANCH  33  34
ENDBRANCH  32  33
ENDBRANCH   1  32
TORSDOF 24
ENDMDL
MODEL 2
REMARK VINA RESULT:      -9.7      4.168      8.321
REMARK SMILES Cc1ccccc1NC(=O)CSc1nc(C(=O)OCCOCCOCCOCCOC(=O)c2ccc(-c3c4nc(c(-c5ccccc5)c5ccc([nH]5)c(-c5ccccc5)c5nc(c(-c6ccccc6)c6ccc3[nH]6)C=C5)C=C4)cc2)c2ccccc2n1
REMARK SMILES IDX 23 1 22 2 21 3 20 4 19 5 18 6 16 7 17 8 15 9 13 10 14 11
REMARK SMILES IDX 87 12 86 13 81 14 85 15 82 16 84 17 83 18 12 19 11 20 9 21
REMARK SMILES IDX 8 22 10 24 7 25 1 26 2 27 3 28 4 29 6 30 5 31 24 32 25 33
REMARK SMILES IDX 26 34 27 35 28 36 29 37 30 38 31 39 32 40 33 41 34 42 80 43
REMARK SMILES IDX 35 44 79 45 36 46 37 47 38 48 73 49 39 50 78 51 72 52 74 53
REMARK SMILES IDX 40 54 77 55 71 56 70 57 41 59 63 60 48 61 62 62 49 63 52 64
REMARK SMILES IDX 61 65 75 66 50 67 51 68 60 70 76 71 53 72 42 73 43 74 47 75
REMARK SMILES IDX 44 76 46 77 45 78 64 79 65 80 69 81 66 82 68 83 67 84 54 85
REMARK SMILES IDX 55 86 59 87 56 88 58 89 57 90
REMARK H PARENT 8 23 74 58 52 69
REMARK Flexibility Score: inf
ROOT
ATOM      1  C   UNL A   1      34.339  34.548  29.069  1.00  0.00     0.188 C 
ENDROOT
BRANCH   1   2
ATOM      2  C   UNL A   1      33.988  33.450  28.060  1.00  0.00     0.188 C 
BRANCH   2   3
ATOM      3  O   UNL A   1      34.010  32.104  28.520  1.00  0.00    -0.376 OA
BRANCH   3   4
ATOM      4  C   UNL A   1      34.181  31.099  27.519  1.00  0.00     0.202 C 
BRANCH   4   5
ATOM      5  C   UNL A   1      32.925  30.309  27.173  1.00  0.00     0.261 C 
BRANCH   5   6
ATOM      6  O   UNL A   1      33.280  28.922  27.008  1.00  0.00    -0.458 OA
BRANCH   6   7
ATOM      7  C   UNL A   1      32.239  28.077  27.150  1.00  0.00     0.357 C 
ATOM      8  O   UNL A   1      31.400  28.113  28.035  1.00  0.00    -0.244 OA
BRANCH   7   9
ATOM      9  C   UNL A   1      31.934  27.441  25.851  1.00  0.00     0.160 A 
ATOM     10  C   UNL A   1      31.585  25.320  25.233  1.00  0.00     0.189 A 
ATOM     11  N   UNL A   1      32.292  26.158  25.945  1.00  0.00    -0.215 NA
ATOM     12  N   UNL A   1      30.984  25.658  24.092  1.00  0.00    -0.222 NA
ATOM     13  C   UNL A   1      30.885  26.970  23.827  1.00  0.00     0.076 A 
ATOM     14  C   UNL A   1      31.201  27.940  24.781  1.00  0.00     0.034 A 
ATOM     15  C   UNL A   1      30.365  27.388  22.609  1.00  0.00     0.029 A 
ATOM     16  C   UNL A   1      30.763  29.266  24.585  1.00  0.00     0.013 A 
ATOM     17  C   UNL A   1      30.045  28.727  22.366  1.00  0.00     0.002 A 
ATOM     18  C   UNL A   1      30.187  29.659  23.382  1.00  0.00     0.001 A 
BRANCH  10  19
ATOM     19  S   UNL A   1      30.882  24.035  26.238  1.00  0.00    -0.076 SA
BRANCH  19  20
ATOM     20  C   UNL A   1      32.359  22.929  26.451  1.00  0.00     0.178 C 
BRANCH  20  21
ATOM     21  C   UNL A   1      32.399  21.643  25.615  1.00  0.00     0.234 C 
ATOM     22  N   UNL A   1      33.542  21.128  25.069  1.00  0.00    -0.325 N 
ATOM     23  H   UNL A   1      33.471  20.195  24.761  1.00  0.00     0.169 HD
ATOM     24  O   UNL A   1      31.351  21.029  25.373  1.00  0.00    -0.274 OA
BRANCH  22  25
ATOM     25  C   UNL A   1      34.799  21.717  24.877  1.00  0.00     0.044 A 
ATOM     26  C   UNL A   1      33.940  23.111  22.892  1.00  0.00     0.046 C 
ATOM     27  C   UNL A   1      35.022  22.581  23.793  1.00  0.00    -0.027 A 
ATOM     28  C   UNL A   1      36.342  22.989  23.527  1.00  0.00     0.005 A 
ATOM     29  C   UNL A   1      37.406  22.567  24.325  1.00  0.00     0.000 A 
ATOM     30  C   UNL A   1      35.855  21.425  25.750  1.00  0.00     0.026 A 
ATOM     31  C   UNL A   1      37.160  21.803  25.454  1.00  0.00     0.002 A 
ENDBRANCH  22  25
ENDBRANCH  20  21
ENDBRANCH  19  20
ENDBRANCH  10  19
ENDBRANCH   7   9
ENDBRANCH   6   7
ENDBRANCH   5   6
ENDBRANCH   4   5
ENDBRANCH   3   4
ENDBRANCH   2   3
ENDBRANCH   1   2
BRANCH   1  32
ATOM     32  O   UNL A   1      33.814  34.419  30.382  1.00  0.00    -0.377 OA
BRANCH  32  33
ATOM     33  C   UNL A   1      34.660  33.947  31.434  1.00  0.00     0.188 C 
BRANCH  33  34
ATOM     34  C   UNL A   1      35.044  32.465  31.460  1.00  0.00     0.188 C 
BRANCH  34  35
ATOM     35  O   UNL A   1      35.475  32.127  32.778  1.00  0.00    -0.376 OA
BRANCH  35  36
ATOM     36  C   UNL A   1      36.718  31.434  32.872  1.00  0.00     0.202 C 
BRANCH  36  37
ATOM     37  C   UNL A   1      36.823  30.192  31.975  1.00  0.00     0.261 C 
BRANCH  37  38
ATOM     38  O   UNL A   1      38.198  29.967  31.606  1.00  0.00    -0.460 OA
BRANCH  38  39
ATOM     39  C   UNL A   1      38.482  30.167  30.293  1.00  0.00     0.338 C 
ATOM     40  O   UNL A   1      37.939  30.995  29.569  1.00  0.00    -0.246 OA
BRANCH  39  41
ATOM     41  C   UNL A   1      39.333  29.057  29.786  1.00  0.00     0.060 A 
ATOM     42  C   UNL A   1      40.197  28.377  30.661  1.00  0.00     0.016 A 
ATOM     43  C   UNL A   1      39.522  28.952  28.414  1.00  0.00     0.016 A 
ATOM     44  C   UNL A   1      41.350  27.746  30.167  1.00  0.00     0.010 A 
ATOM     45  C   UNL A   1      40.718  28.446  27.954  1.00  0.00     0.010 A 
ATOM     46  C   UNL A   1      41.665  27.862  28.813  1.00  0.00    -0.014 A 
BRANCH  46  47
ATOM     47  C   UNL A   1      42.984  27.618  28.192  1.00  0.00     0.031 A 
ATOM     48  C   UNL A   1      43.976  28.755  28.086  1.00  0.00     0.074 A 
ATOM     49  C   UNL A   1      43.435  26.338  28.113  1.00  0.00     0.049 A 
ATOM     50  N   UNL A   1      45.228  28.629  27.800  1.00  0.00    -0.248 NA
ATOM     51  C   UNL A   1      43.631  30.160  28.327  1.00  0.00     0.031 C 
ATOM     52  C   UNL A   1      44.835  25.940  28.236  1.00  0.00     0.029 A 
ATOM     53  N   UNL A   1      42.814  25.103  28.004  1.00  0.00    -0.354 N 
ATOM     54  C   UNL A   1      45.890  29.789  28.142  1.00  0.00     0.074 A 
ATOM     55  C   UNL A   1      44.836  30.739  28.390  1.00  0.00     0.031 C 
ATOM     56  C   UNL A   1      44.976  24.623  28.078  1.00  0.00     0.029 A 
ATOM     57  C   UNL A   1      43.737  24.161  27.537  1.00  0.00     0.049 A 
ATOM     58  H   UNL A   1      41.872  24.918  28.221  1.00  0.00     0.167 HD
ATOM     59  C   UNL A   1      47.250  29.772  28.291  1.00  0.00     0.031 A 
ATOM     60  C   UNL A   1      43.707  23.568  26.306  1.00  0.00     0.031 A 
ATOM     61  C   UNL A   1      47.851  28.518  27.799  1.00  0.00     0.049 A 
ATOM     62  C   UNL A   1      44.930  23.958  25.467  1.00  0.00     0.074 A 
ATOM     63  C   UNL A   1      48.773  27.623  28.310  1.00  0.00     0.029 A 
ATOM     64  N   UNL A   1      47.389  27.933  26.616  1.00  0.00    -0.354 N 
ATOM     65  N   UNL A   1      45.574  25.094  25.639  1.00  0.00    -0.248 NA
ATOM     66  C   UNL A   1      45.635  23.081  24.533  1.00  0.00     0.031 C 
ATOM     67  C   UNL A   1      48.735  26.438  27.522  1.00  0.00     0.029 A 
ATOM     68  C   UNL A   1      47.895  26.664  26.444  1.00  0.00     0.049 A 
ATOM     69  H   UNL A   1      46.777  28.373  25.984  1.00  0.00     0.167 HD
ATOM     70  C   UNL A   1      46.784  25.051  25.000  1.00  0.00     0.074 A 
ATOM     71  C   UNL A   1      46.747  23.797  24.266  1.00  0.00     0.031 C 
ATOM     72  C   UNL A   1      47.780  25.974  25.166  1.00  0.00     0.031 A 
BRANCH  59  73
ATOM     73  C   UNL A   1      48.057  30.821  29.066  1.00  0.00    -0.014 A 
ATOM     74  C   UNL A   1      49.465  30.848  28.970  1.00  0.00     0.009 A 
ATOM     75  C   UNL A   1      47.516  31.743  29.985  1.00  0.00     0.009 A 
ATOM     76  C   UNL A   1      50.271  31.700  29.749  1.00  0.00     0.001 A 
ATOM     77  C   UNL A   1      48.310  32.631  30.734  1.00  0.00     0.001 A 
ATOM     78  C   UNL A   1      49.691  32.601  30.627  1.00  0.00     0.000 A 
ENDBRANCH  59  73
BRANCH  60  79
ATOM     79  C   UNL A   1      42.348  23.063  25.963  1.00  0.00    -0.014 A 
ATOM     80  C   UNL A   1      42.323  21.664  25.748  1.00  0.00     0.009 A 
ATOM     81  C   UNL A   1      41.234  23.651  26.588  1.00  0.00     0.009 A 
ATOM     82  C   UNL A   1      41.405  20.859  26.431  1.00  0.00     0.001 A 
ATOM     83  C   UNL A   1      40.297  22.837  27.245  1.00  0.00     0.001 A 
ATOM     84  C   UNL A   1      40.428  21.446  27.228  1.00  0.00     0.000 A 
ENDBRANCH  60  79
BRANCH  72  85
ATOM     85  C   UNL A   1      48.836  26.334  24.139  1.00  0.00    -0.014 A 
ATOM     86  C   UNL A   1      48.551  26.699  22.822  1.00  0.00     0.009 A 
ATOM     87  C   UNL A   1      50.174  26.542  24.573  1.00  0.00     0.009 A 
ATOM     88  C   UNL A   1      49.543  27.239  21.991  1.00  0.00     0.001 A 
ATOM     89  C   UNL A   1      51.152  27.115  23.765  1.00  0.00     0.001 A 
ATOM     90  C   UNL A   1      50.834  27.465  22.465  1.00  0.00     0.000 A 
ENDBRANCH  72  85
ENDBRANCH  46  47
ENDBRANCH  39  41
ENDBRANCH  38  39
ENDBRANCH  37  38
ENDBRANCH  36  37
ENDBRANCH  35  36
ENDBRANCH  34  35
ENDBRANCH  33  34
ENDBRANCH  32  33
ENDBRANCH   1  32
TORSDOF 24
ENDMDL
MODEL 3
REMARK VINA RESULT:      -9.7      3.159      8.321
REMARK SMILES Cc1ccccc1NC(=O)CSc1nc(C(=O)OCCOCCOCCOCCOC(=O)c2ccc(-c3c4nc(c(-c5ccccc5)c5ccc([nH]5)c(-c5ccccc5)c5nc(c(-c6ccccc6)c6ccc3[nH]6)C=C5)C=C4)cc2)c2ccccc2n1
REMARK SMILES IDX 23 1 22 2 21 3 20 4 19 5 18 6 16 7 17 8 15 9 13 10 14 11
REMARK SMILES IDX 87 12 86 13 81 14 85 15 82 16 84 17 83 18 12 19 11 20 9 21
REMARK SMILES IDX 8 22 10 24 7 25 1 26 2 27 3 28 4 29 6 30 5 31 24 32 25 33
REMARK SMILES IDX 26 34 27 35 28 36 29 37 30 38 31 39 32 40 33 41 34 42 80 43
REMARK SMILES IDX 35 44 79 45 36 46 37 47 38 48 73 49 39 50 78 51 72 52 74 53
REMARK SMILES IDX 40 54 77 55 71 56 70 57 41 59 63 60 48 61 62 62 49 63 52 64
REMARK SMILES IDX 61 65 75 66 50 67 51 68 60 70 76 71 53 72 42 73 43 74 47 75
REMARK SMILES IDX 44 76 46 77 45 78 64 79 65 80 69 81 66 82 68 83 67 84 54 85
REMARK SMILES IDX 55 86 59 87 56 88 58 89 57 90
REMARK H PARENT 8 23 74 58 52 69
REMARK Flexibility Score: inf
ROOT
ATOM      1  C   UNL A   1      33.292  34.004  27.987  1.00  0.00     0.188 C 
ENDROOT
BRANCH   1   2
ATOM      2  C   UNL A   1      34.246  32.946  28.551  1.00  0.00     0.188 C 
BRANCH   2   3
ATOM      3  O   UNL A   1      35.134  32.309  27.640  1.00  0.00    -0.376 OA
BRANCH   3   4
ATOM      4  C   UNL A   1      35.111  30.881  27.633  1.00  0.00     0.202 C 
BRANCH   4   5
ATOM      5  C   UNL A   1      33.721  30.256  27.622  1.00  0.00     0.261 C 
BRANCH   5   6
ATOM      6  O   UNL A   1      33.280  30.128  26.256  1.00  0.00    -0.458 OA
BRANCH   6   7
ATOM      7  C   UNL A   1      31.973  30.407  26.083  1.00  0.00     0.357 C 
ATOM      8  O   UNL A   1      31.395  31.411  26.467  1.00  0.00    -0.244 OA
BRANCH   7   9
ATOM      9  C   UNL A   1      31.444  29.625  24.946  1.00  0.00     0.160 A 
ATOM     10  C   UNL A   1      31.447  27.442  24.458  1.00  0.00     0.189 A 
ATOM     11  N   UNL A   1      32.114  28.470  24.912  1.00  0.00    -0.215 NA
ATOM     12  N   UNL A   1      30.458  27.548  23.571  1.00  0.00    -0.222 NA
ATOM     13  C   UNL A   1      29.966  28.779  23.359  1.00  0.00     0.076 A 
ATOM     14  C   UNL A   1      30.316  29.862  24.168  1.00  0.00     0.034 A 
ATOM     15  C   UNL A   1      29.007  28.976  22.373  1.00  0.00     0.029 A 
ATOM     16  C   UNL A   1      29.531  31.032  24.131  1.00  0.00     0.013 A 
ATOM     17  C   UNL A   1      28.312  30.183  22.253  1.00  0.00     0.002 A 
ATOM     18  C   UNL A   1      28.532  31.193  23.177  1.00  0.00     0.001 A 
BRANCH  10  19
ATOM     19  S   UNL A   1      31.426  26.105  25.627  1.00  0.00    -0.076 SA
BRANCH  19  20
ATOM     20  C   UNL A   1      32.648  24.950  24.838  1.00  0.00     0.178 C 
BRANCH  20  21
ATOM     21  C   UNL A   1      32.083  23.814  23.974  1.00  0.00     0.234 C 
ATOM     22  N   UNL A   1      32.753  22.650  23.718  1.00  0.00    -0.325 N 
ATOM     23  H   UNL A   1      32.198  21.924  23.352  1.00  0.00     0.169 HD
ATOM     24  O   UNL A   1      30.976  23.940  23.434  1.00  0.00    -0.274 OA
BRANCH  22  25
ATOM     25  C   UNL A   1      34.106  22.326  23.892  1.00  0.00     0.044 A 
ATOM     26  C   UNL A   1      33.522  20.316  25.389  1.00  0.00     0.046 C 
ATOM     27  C   UNL A   1      34.483  21.286  24.756  1.00  0.00    -0.027 A 
ATOM     28  C   UNL A   1      35.849  21.127  25.051  1.00  0.00     0.005 A 
ATOM     29  C   UNL A   1      36.814  21.965  24.489  1.00  0.00     0.000 A 
ATOM     30  C   UNL A   1      35.097  23.059  23.226  1.00  0.00     0.026 A 
ATOM     31  C   UNL A   1      36.440  22.917  23.556  1.00  0.00     0.002 A 
ENDBRANCH  22  25
ENDBRANCH  20  21
ENDBRANCH  19  20
ENDBRANCH  10  19
ENDBRANCH   7   9
ENDBRANCH   6   7
ENDBRANCH   5   6
ENDBRANCH   4   5
ENDBRANCH   3   4
ENDBRANCH   2   3
ENDBRANCH   1   2
BRANCH   1  32
ATOM     32  O   UNL A   1      32.638  34.855  28.917  1.00  0.00    -0.377 OA
BRANCH  32  33
ATOM     33  C   UNL A   1      33.405  35.498  29.939  1.00  0.00     0.188 C 
BRANCH  33  34
ATOM     34  C   UNL A   1      32.730  35.813  31.276  1.00  0.00     0.188 C 
BRANCH  34  35
ATOM     35  O   UNL A   1      33.216  34.903  32.262  1.00  0.00    -0.376 OA
BRANCH  35  36
ATOM     36  C   UNL A   1      34.350  34.123  31.889  1.00  0.00     0.202 C 
BRANCH  36  37
ATOM     37  C   UNL A   1      34.526  32.830  32.697  1.00  0.00     0.261 C 
BRANCH  37  38
ATOM     38  O   UNL A   1      35.761  32.183  32.331  1.00  0.00    -0.460 OA
BRANCH  38  39
ATOM     39  C   UNL A   1      36.785  32.361  33.205  1.00  0.00     0.338 C 
ATOM     40  O   UNL A   1      36.663  32.559  34.408  1.00  0.00    -0.246 OA
BRANCH  39  41
ATOM     41  C   UNL A   1      38.055  32.568  32.457  1.00  0.00     0.060 A 
ATOM     42  C   UNL A   1      38.041  32.640  31.053  1.00  0.00     0.016 A 
ATOM     43  C   UNL A   1      39.251  32.330  33.121  1.00  0.00     0.016 A 
ATOM     44  C   UNL A   1      39.185  32.295  30.316  1.00  0.00     0.010 A 
ATOM     45  C   UNL A   1      40.324  31.868  32.392  1.00  0.00     0.010 A 
ATOM     46  C   UNL A   1      40.309  31.812  30.988  1.00  0.00    -0.014 A 
BRANCH  46  47
ATOM     47  C   UNL A   1      41.429  31.052  30.394  1.00  0.00     0.031 A 
ATOM     48  C   UNL A   1      41.331  29.546  30.291  1.00  0.00     0.074 A 
ATOM     49  C   UNL A   1      42.309  31.713  29.596  1.00  0.00     0.049 A 
ATOM     50  N   UNL A   1      42.108  28.794  29.586  1.00  0.00    -0.248 NA
ATOM     51  C   UNL A   1      40.306  28.749  30.973  1.00  0.00     0.031 C 
ATOM     52  C   UNL A   1      42.965  31.137  28.425  1.00  0.00     0.029 A 
ATOM     53  N   UNL A   1      42.768  33.020  29.544  1.00  0.00    -0.354 N 
ATOM     54  C   UNL A   1      41.523  27.554  29.436  1.00  0.00     0.074 A 
ATOM     55  C   UNL A   1      40.441  27.554  30.386  1.00  0.00     0.031 C 
ATOM     56  C   UNL A   1      43.803  32.012  27.865  1.00  0.00     0.029 A 
ATOM     57  C   UNL A   1      43.963  33.063  28.819  1.00  0.00     0.049 A 
ATOM     58  H   UNL A   1      42.322  33.797  29.954  1.00  0.00     0.167 HD
ATOM     59  C   UNL A   1      41.952  26.722  28.438  1.00  0.00     0.031 A 
ATOM     60  C   UNL A   1      45.197  33.327  29.343  1.00  0.00     0.031 A 
ATOM     61  C   UNL A   1      43.197  27.201  27.807  1.00  0.00     0.049 A 
ATOM     62  C   UNL A   1      46.129  32.116  29.219  1.00  0.00     0.074 A 
ATOM     63  C   UNL A   1      43.615  27.367  26.499  1.00  0.00     0.029 A 
ATOM     64  N   UNL A   1      44.220  27.743  28.590  1.00  0.00    -0.354 N 
ATOM     65  N   UNL A   1      45.681  30.879  29.175  1.00  0.00    -0.248 NA
ATOM     66  C   UNL A   1      47.566  32.173  28.954  1.00  0.00     0.031 C 
ATOM     67  C   UNL A   1      44.801  28.154  26.502  1.00  0.00     0.029 A 
ATOM     68  C   UNL A   1      45.188  28.345  27.818  1.00  0.00     0.049 A 
ATOM     69  H   UNL A   1      44.245  27.701  29.573  1.00  0.00     0.167 HD
ATOM     70  C   UNL A   1      46.671  30.034  28.751  1.00  0.00     0.074 A 
ATOM     71  C   UNL A   1      47.851  30.880  28.690  1.00  0.00     0.031 C 
ATOM     72  C   UNL A   1      46.473  28.730  28.386  1.00  0.00     0.031 A 
BRANCH  59  73
ATOM     73  C   UNL A   1      41.147  25.544  27.877  1.00  0.00    -0.014 A 
ATOM     74  C   UNL A   1      39.874  25.760  27.305  1.00  0.00     0.009 A 
ATOM     75  C   UNL A   1      41.525  24.189  27.965  1.00  0.00     0.009 A 
ATOM     76  C   UNL A   1      39.033  24.713  26.887  1.00  0.00     0.001 A 
ATOM     77  C   UNL A   1      40.710  23.136  27.507  1.00  0.00     0.001 A 
ATOM     78  C   UNL A   1      39.456  23.396  26.979  1.00  0.00     0.000 A 
ENDBRANCH  59  73
BRANCH  60  79
ATOM     79  C   UNL A   1      45.180  34.521  30.236  1.00  0.00    -0.014 A 
ATOM     80  C   UNL A   1      46.052  34.388  31.342  1.00  0.00     0.009 A 
ATOM     81  C   UNL A   1      45.045  35.793  29.654  1.00  0.00     0.009 A 
ATOM     82  C   UNL A   1      46.996  35.383  31.623  1.00  0.00     0.001 A 
ATOM     83  C   UNL A   1      45.975  36.800  29.963  1.00  0.00     0.001 A 
ATOM     84  C   UNL A   1      46.993  36.566  30.891  1.00  0.00     0.000 A 
ENDBRANCH  60  79
BRANCH  72  85
ATOM     85  C   UNL A   1      47.499  27.617  28.476  1.00  0.00    -0.014 A 
ATOM     86  C   UNL A   1      47.576  26.711  29.533  1.00  0.00     0.009 A 
ATOM     87  C   UNL A   1      48.288  27.318  27.332  1.00  0.00     0.009 A 
ATOM     88  C   UNL A   1      48.391  25.572  29.452  1.00  0.00     0.001 A 
ATOM     89  C   UNL A   1      49.068  26.168  27.230  1.00  0.00     0.001 A 
ATOM     90  C   UNL A   1      49.119  25.291  28.298  1.00  0.00     0.000 A 
ENDBRANCH  72  85
ENDBRANCH  46  47
ENDBRANCH  39  41
ENDBRANCH  38  39
ENDBRANCH  37  38
ENDBRANCH  36  37
ENDBRANCH  35  36
ENDBRANCH  34  35
ENDBRANCH  33  34
ENDBRANCH  32  33
ENDBRANCH   1  32
TORSDOF 24
ENDMDL
