MODEL 1
REMARK VINA RESULT:      -8.9      0.000      0.000
REMARK SMILES Nc1ccc(Cl)c(SC[C@H]2CC[C@H](C(=O)OCCOCCOCCOCCOC(=O)c3ccc(-c4c5nc(c(-c6ccccc6)c6ccc([nH]6)c(-c6ccccc6)c6nc(c(-c7ccccc7)c7ccc4[nH]7)C=C6)C=C5)cc3)O2)c1
REMARK SMILES IDX 21 1 20 2 19 3 18 4 17 5 16 6 14 7 15 8 13 9 10 10 11 11
REMARK SMILES IDX 79 12 12 13 9 14 8 15 7 16 2 17 3 18 80 19 4 20 5 21 6 22
REMARK SMILES IDX 1 23 22 26 23 27 24 28 25 29 26 30 27 31 28 32 29 33 30 34
REMARK SMILES IDX 31 35 32 36 78 37 33 38 77 39 34 40 35 41 36 42 71 43 37 44
REMARK SMILES IDX 76 45 70 46 72 47 38 48 75 49 69 50 68 51 39 53 61 54 46 55
REMARK SMILES IDX 60 56 47 57 50 58 59 59 73 60 48 61 49 62 58 64 74 65 51 66
REMARK SMILES IDX 40 67 41 68 45 69 42 70 44 71 43 72 62 73 63 74 67 75 64 76
REMARK SMILES IDX 66 77 65 78 52 79 53 80 57 81 54 82 56 83 55 84
REMARK H PARENT 1 24 1 25 72 52 50 63
REMARK Flexibility Score: inf
ROOT
ATOM      1  C   UNL A   1      34.358  30.916  27.647  1.00  0.00     0.188 C 
ENDROOT
BRANCH   1   2
ATOM      2  C   UNL A   1      33.285  30.013  27.029  1.00  0.00     0.188 C 
BRANCH   2   3
ATOM      3  O   UNL A   1      32.695  30.342  25.786  1.00  0.00    -0.376 OA
BRANCH   3   4
ATOM      4  C   UNL A   1      31.317  30.657  25.646  1.00  0.00     0.202 C 
BRANCH   4   5
ATOM      5  C   UNL A   1      30.467  30.383  24.395  1.00  0.00     0.261 C 
BRANCH   5   6
ATOM      6  O   UNL A   1      30.260  29.016  24.026  1.00  0.00    -0.461 OA
BRANCH   6   7
ATOM      7  C   UNL A   1      30.749  28.681  22.808  1.00  0.00     0.335 C 
ATOM      8  O   UNL A   1      30.237  29.027  21.745  1.00  0.00    -0.249 OA
BRANCH   7   9
ATOM      9  C   UNL A   1      31.957  27.761  22.849  1.00  0.00     0.228 C 
ATOM     10  C   UNL A   1      33.531  27.177  24.462  1.00  0.00     0.129 C 
ATOM     11  C   UNL A   1      34.233  28.116  23.505  1.00  0.00     0.036 C 
ATOM     12  O   UNL A   1      32.143  27.400  24.231  1.00  0.00    -0.362 OA
ATOM     13  C   UNL A   1      33.325  28.146  22.305  1.00  0.00     0.047 C 
BRANCH  10  14
ATOM     14  C   UNL A   1      33.919  25.682  24.387  1.00  0.00     0.107 C 
BRANCH  14  15
ATOM     15  S   UNL A   1      33.433  24.506  25.719  1.00  0.00    -0.122 SA
BRANCH  15  16
ATOM     16  C   UNL A   1      34.178  22.909  25.282  1.00  0.00     0.028 A 
ATOM     17  C   UNL A   1      36.162  21.525  24.849  1.00  0.00     0.033 A 
ATOM     18  C   UNL A   1      35.371  20.382  24.838  1.00  0.00     0.027 A 
ATOM     19  C   UNL A   1      35.540  22.775  24.970  1.00  0.00     0.042 A 
ATOM     20  C   UNL A   1      33.999  20.480  25.067  1.00  0.00     0.024 A 
ATOM     21  C   UNL A   1      33.409  21.727  25.313  1.00  0.00     0.054 A 
ATOM     22  Cl  UNL A   1      31.710  21.718  25.657  1.00  0.00    -0.083 Cl
BRANCH  17  23
ATOM     23  N   UNL A   1      37.529  21.445  24.617  1.00  0.00    -0.399 N 
ATOM     24  H   UNL A   1      37.996  20.583  24.711  1.00  0.00     0.156 HD
ATOM     25  H   UNL A   1      38.034  22.250  24.358  1.00  0.00     0.156 HD
ENDBRANCH  17  23
ENDBRANCH  15  16
ENDBRANCH  14  15
ENDBRANCH  10  14
ENDBRANCH   7   9
ENDBRANCH   6   7
ENDBRANCH   5   6
ENDBRANCH   4   5
ENDBRANCH   3   4
ENDBRANCH   2   3
ENDBRANCH   1   2
BRANCH   1  26
ATOM     26  O   UNL A   1      33.863  31.954  28.467  1.00  0.00    -0.377 OA
BRANCH  26  27
ATOM     27  C   UNL A   1      33.465  33.183  27.874  1.00  0.00     0.188 C 
BRANCH  27  28
ATOM     28  C   UNL A   1      33.757  34.509  28.597  1.00  0.00     0.188 C 
BRANCH  28  29
ATOM     29  O   UNL A   1      32.861  34.796  29.657  1.00  0.00    -0.376 OA
BRANCH  29  30
ATOM     30  C   UNL A   1      33.260  35.728  30.652  1.00  0.00     0.202 C 
BRANCH  30  31
ATOM     31  C   UNL A   1      34.006  35.192  31.883  1.00  0.00     0.261 C 
BRANCH  31  32
ATOM     32  O   UNL A   1      35.205  34.435  31.643  1.00  0.00    -0.460 OA
BRANCH  32  33
ATOM     33  C   UNL A   1      35.182  33.094  31.818  1.00  0.00     0.338 C 
ATOM     34  O   UNL A   1      34.237  32.405  32.120  1.00  0.00    -0.246 OA
BRANCH  33  35
ATOM     35  C   UNL A   1      36.501  32.581  31.377  1.00  0.00     0.060 A 
ATOM     36  C   UNL A   1      36.902  32.771  30.048  1.00  0.00     0.016 A 
ATOM     37  C   UNL A   1      37.343  31.933  32.283  1.00  0.00     0.016 A 
ATOM     38  C   UNL A   1      38.149  32.309  29.619  1.00  0.00     0.010 A 
ATOM     39  C   UNL A   1      38.579  31.448  31.845  1.00  0.00     0.010 A 
ATOM     40  C   UNL A   1      38.982  31.618  30.508  1.00  0.00    -0.014 A 
BRANCH  40  41
ATOM     41  C   UNL A   1      40.215  30.946  30.028  1.00  0.00     0.031 A 
ATOM     42  C   UNL A   1      41.494  31.734  29.978  1.00  0.00     0.074 A 
ATOM     43  C   UNL A   1      40.195  29.667  29.614  1.00  0.00     0.049 A 
ATOM     44  N   UNL A   1      42.656  31.399  29.478  1.00  0.00    -0.248 NA
ATOM     45  C   UNL A   1      41.455  33.081  30.569  1.00  0.00     0.031 C 
ATOM     46  C   UNL A   1      39.038  28.776  29.664  1.00  0.00     0.029 A 
ATOM     47  N   UNL A   1      41.186  28.903  29.046  1.00  0.00    -0.354 N 
ATOM     48  C   UNL A   1      43.481  32.499  29.680  1.00  0.00     0.074 A 
ATOM     49  C   UNL A   1      42.683  33.516  30.329  1.00  0.00     0.031 C 
ATOM     50  C   UNL A   1      39.380  27.590  29.129  1.00  0.00     0.029 A 
ATOM     51  C   UNL A   1      40.762  27.655  28.656  1.00  0.00     0.049 A 
ATOM     52  H   UNL A   1      42.112  29.219  28.930  1.00  0.00     0.167 HD
ATOM     53  C   UNL A   1      44.786  32.648  29.352  1.00  0.00     0.031 A 
ATOM     54  C   UNL A   1      41.403  26.695  27.962  1.00  0.00     0.031 A 
ATOM     55  C   UNL A   1      45.573  31.645  28.685  1.00  0.00     0.049 A 
ATOM     56  C   UNL A   1      42.820  26.929  27.504  1.00  0.00     0.074 A 
ATOM     57  C   UNL A   1      46.909  31.697  28.325  1.00  0.00     0.029 A 
ATOM     58  N   UNL A   1      45.093  30.415  28.265  1.00  0.00    -0.354 N 
ATOM     59  N   UNL A   1      43.601  27.960  27.722  1.00  0.00    -0.248 NA
ATOM     60  C   UNL A   1      43.443  25.866  26.699  1.00  0.00     0.031 C 
ATOM     61  C   UNL A   1      47.216  30.528  27.623  1.00  0.00     0.029 A 
ATOM     62  C   UNL A   1      46.093  29.717  27.610  1.00  0.00     0.049 A 
ATOM     63  H   UNL A   1      44.176  30.085  28.412  1.00  0.00     0.167 HD
ATOM     64  C   UNL A   1      44.810  27.659  27.105  1.00  0.00     0.074 A 
ATOM     65  C   UNL A   1      44.666  26.344  26.519  1.00  0.00     0.031 C 
ATOM     66  C   UNL A   1      45.937  28.409  27.027  1.00  0.00     0.031 A 
BRANCH  53  67
ATOM     67  C   UNL A   1      45.433  33.969  29.665  1.00  0.00    -0.014 A 
ATOM     68  C   UNL A   1      45.472  35.009  28.722  1.00  0.00     0.009 A 
ATOM     69  C   UNL A   1      45.982  34.186  30.939  1.00  0.00     0.009 A 
ATOM     70  C   UNL A   1      46.078  36.226  29.039  1.00  0.00     0.001 A 
ATOM     71  C   UNL A   1      46.558  35.416  31.263  1.00  0.00     0.001 A 
ATOM     72  C   UNL A   1      46.614  36.431  30.310  1.00  0.00     0.000 A 
ENDBRANCH  53  67
BRANCH  54  73
ATOM     73  C   UNL A   1      40.699  25.432  27.607  1.00  0.00    -0.014 A 
ATOM     74  C   UNL A   1      39.636  25.437  26.691  1.00  0.00     0.009 A 
ATOM     75  C   UNL A   1      41.070  24.217  28.207  1.00  0.00     0.009 A 
ATOM     76  C   UNL A   1      38.944  24.258  26.402  1.00  0.00     0.001 A 
ATOM     77  C   UNL A   1      40.397  23.034  27.892  1.00  0.00     0.001 A 
ATOM     78  C   UNL A   1      39.328  23.057  26.998  1.00  0.00     0.000 A 
ENDBRANCH  54  73
BRANCH  66  79
ATOM     79  C   UNL A   1      47.119  27.819  26.306  1.00  0.00    -0.014 A 
ATOM     80  C   UNL A   1      48.079  27.054  26.986  1.00  0.00     0.009 A 
ATOM     81  C   UNL A   1      47.237  27.978  24.916  1.00  0.00     0.009 A 
ATOM     82  C   UNL A   1      49.147  26.480  26.290  1.00  0.00     0.001 A 
ATOM     83  C   UNL A   1      48.286  27.377  24.219  1.00  0.00     0.001 A 
ATOM     84  C   UNL A   1      49.244  26.636  24.908  1.00  0.00     0.000 A 
ENDBRANCH  66  79
ENDBRANCH  40  41
ENDBRANCH  33  35
ENDBRANCH  32  33
ENDBRANCH  31  32
ENDBRANCH  30  31
ENDBRANCH  29  30
ENDBRANCH  28  29
ENDBRANCH  27  28
ENDBRANCH  26  27
ENDBRANCH   1  26
TORSDOF 24
ENDMDL
MODEL 2
REMARK VINA RESULT:      -8.7      1.478      2.390
REMARK SMILES Nc1ccc(Cl)c(SC[C@H]2CC[C@H](C(=O)OCCOCCOCCOCCOC(=O)c3ccc(-c4c5nc(c(-c6ccccc6)c6ccc([nH]6)c(-c6ccccc6)c6nc(c(-c7ccccc7)c7ccc4[nH]7)C=C6)C=C5)cc3)O2)c1
REMARK SMILES IDX 21 1 20 2 19 3 18 4 17 5 16 6 14 7 15 8 13 9 10 10 11 11
REMARK SMILES IDX 79 12 12 13 9 14 8 15 7 16 2 17 3 18 80 19 4 20 5 21 6 22
REMARK SMILES IDX 1 23 22 26 23 27 24 28 25 29 26 30 27 31 28 32 29 33 30 34
REMARK SMILES IDX 31 35 32 36 78 37 33 38 77 39 34 40 35 41 36 42 71 43 37 44
REMARK SMILES IDX 76 45 70 46 72 47 38 48 75 49 69 50 68 51 39 53 61 54 46 55
REMARK SMILES IDX 60 56 47 57 50 58 59 59 73 60 48 61 49 62 58 64 74 65 51 66
REMARK SMILES IDX 40 67 41 68 45 69 42 70 44 71 43 72 62 73 63 74 67 75 64 76
REMARK SMILES IDX 66 77 65 78 52 79 53 80 57 81 54 82 56 83 55 84
REMARK H PARENT 1 24 1 25 72 52 50 63
REMARK Flexibility Score: inf
ROOT
ATOM      1  C   UNL A   1      34.300  34.584  27.999  1.00  0.00     0.188 C 
ENDROOT
BRANCH   1   2
ATOM      2  C   UNL A   1      34.589  33.131  28.393  1.00  0.00     0.188 C 
BRANCH   2   3
ATOM      3  O   UNL A   1      34.452  32.087  27.448  1.00  0.00    -0.376 OA
BRANCH   3   4
ATOM      4  C   UNL A   1      33.292  31.273  27.362  1.00  0.00     0.202 C 
BRANCH   4   5
ATOM      5  C   UNL A   1      33.273  29.798  26.926  1.00  0.00     0.261 C 
BRANCH   5   6
ATOM      6  O   UNL A   1      33.400  29.523  25.527  1.00  0.00    -0.461 OA
BRANCH   6   7
ATOM      7  C   UNL A   1      32.244  29.171  24.916  1.00  0.00     0.335 C 
ATOM      8  O   UNL A   1      31.231  29.867  24.911  1.00  0.00    -0.249 OA
BRANCH   7   9
ATOM      9  C   UNL A   1      32.264  27.787  24.288  1.00  0.00     0.228 C 
ATOM     10  C   UNL A   1      32.802  26.935  22.190  1.00  0.00     0.129 C 
ATOM     11  C   UNL A   1      31.292  26.912  22.282  1.00  0.00     0.036 C 
ATOM     12  O   UNL A   1      33.210  27.848  23.204  1.00  0.00    -0.362 OA
ATOM     13  C   UNL A   1      31.022  27.090  23.752  1.00  0.00     0.047 C 
BRANCH  10  14
ATOM     14  C   UNL A   1      33.530  25.575  22.279  1.00  0.00     0.107 C 
BRANCH  14  15
ATOM     15  S   UNL A   1      33.977  24.841  23.909  1.00  0.00    -0.122 SA
BRANCH  15  16
ATOM     16  C   UNL A   1      33.371  23.130  23.878  1.00  0.00     0.028 A 
ATOM     17  C   UNL A   1      32.248  21.283  22.709  1.00  0.00     0.033 A 
ATOM     18  C   UNL A   1      32.631  20.404  23.714  1.00  0.00     0.027 A 
ATOM     19  C   UNL A   1      32.536  22.646  22.857  1.00  0.00     0.042 A 
ATOM     20  C   UNL A   1      33.397  20.860  24.787  1.00  0.00     0.024 A 
ATOM     21  C   UNL A   1      33.787  22.204  24.857  1.00  0.00     0.054 A 
ATOM     22  Cl  UNL A   1      34.798  22.641  26.197  1.00  0.00    -0.083 Cl
BRANCH  17  23
ATOM     23  N   UNL A   1      31.481  20.846  21.636  1.00  0.00    -0.399 N 
ATOM     24  H   UNL A   1      30.498  20.863  21.694  1.00  0.00     0.156 HD
ATOM     25  H   UNL A   1      31.919  20.519  20.817  1.00  0.00     0.156 HD
ENDBRANCH  17  23
ENDBRANCH  15  16
ENDBRANCH  14  15
ENDBRANCH  10  14
ENDBRANCH   7   9
ENDBRANCH   6   7
ENDBRANCH   5   6
ENDBRANCH   4   5
ENDBRANCH   3   4
ENDBRANCH   2   3
ENDBRANCH   1   2
BRANCH   1  26
ATOM     26  O   UNL A   1      34.166  35.480  29.083  1.00  0.00    -0.377 OA
BRANCH  26  27
ATOM     27  C   UNL A   1      33.287  35.156  30.151  1.00  0.00     0.188 C 
BRANCH  27  28
ATOM     28  C   UNL A   1      33.725  35.418  31.604  1.00  0.00     0.188 C 
BRANCH  28  29
ATOM     29  O   UNL A   1      33.716  34.262  32.424  1.00  0.00    -0.376 OA
BRANCH  29  30
ATOM     30  C   UNL A   1      34.131  33.026  31.862  1.00  0.00     0.202 C 
BRANCH  30  31
ATOM     31  C   UNL A   1      35.219  32.229  32.598  1.00  0.00     0.261 C 
BRANCH  31  32
ATOM     32  O   UNL A   1      36.038  32.951  33.535  1.00  0.00    -0.460 OA
BRANCH  32  33
ATOM     33  C   UNL A   1      36.974  33.807  33.066  1.00  0.00     0.338 C 
ATOM     34  O   UNL A   1      37.095  34.981  33.323  1.00  0.00    -0.246 OA
BRANCH  33  35
ATOM     35  C   UNL A   1      37.962  32.994  32.318  1.00  0.00     0.060 A 
ATOM     36  C   UNL A   1      38.813  32.131  33.021  1.00  0.00     0.016 A 
ATOM     37  C   UNL A   1      38.029  33.073  30.926  1.00  0.00     0.016 A 
ATOM     38  C   UNL A   1      39.740  31.345  32.331  1.00  0.00     0.010 A 
ATOM     39  C   UNL A   1      38.975  32.305  30.240  1.00  0.00     0.010 A 
ATOM     40  C   UNL A   1      39.846  31.449  30.938  1.00  0.00    -0.014 A 
BRANCH  40  41
ATOM     41  C   UNL A   1      40.950  30.779  30.208  1.00  0.00     0.031 A 
ATOM     42  C   UNL A   1      42.213  31.550  29.944  1.00  0.00     0.074 A 
ATOM     43  C   UNL A   1      40.824  29.518  29.758  1.00  0.00     0.049 A 
ATOM     44  N   UNL A   1      43.251  31.219  29.219  1.00  0.00    -0.248 NA
ATOM     45  C   UNL A   1      42.316  32.872  30.580  1.00  0.00     0.031 C 
ATOM     46  C   UNL A   1      39.678  28.643  29.995  1.00  0.00     0.029 A 
ATOM     47  N   UNL A   1      41.672  28.763  28.984  1.00  0.00    -0.354 N 
ATOM     48  C   UNL A   1      44.123  32.298  29.300  1.00  0.00     0.074 A 
ATOM     49  C   UNL A   1      43.485  33.299  30.126  1.00  0.00     0.031 C 
ATOM     50  C   UNL A   1      39.886  27.474  29.362  1.00  0.00     0.029 A 
ATOM     51  C   UNL A   1      41.154  27.539  28.636  1.00  0.00     0.049 A 
ATOM     52  H   UNL A   1      42.565  29.071  28.705  1.00  0.00     0.167 HD
ATOM     53  C   UNL A   1      45.344  32.442  28.734  1.00  0.00     0.031 A 
ATOM     54  C   UNL A   1      41.630  26.598  27.797  1.00  0.00     0.031 A 
ATOM     55  C   UNL A   1      45.969  31.455  27.894  1.00  0.00     0.049 A 
ATOM     56  C   UNL A   1      42.939  26.830  27.087  1.00  0.00     0.074 A 
ATOM     57  C   UNL A   1      47.212  31.502  27.287  1.00  0.00     0.029 A 
ATOM     58  N   UNL A   1      45.391  30.249  27.528  1.00  0.00    -0.354 N 
ATOM     59  N   UNL A   1      43.769  27.840  27.190  1.00  0.00    -0.248 NA
ATOM     60  C   UNL A   1      43.374  25.792  26.139  1.00  0.00     0.031 C 
ATOM     61  C   UNL A   1      47.355  30.357  26.496  1.00  0.00     0.029 A 
ATOM     62  C   UNL A   1      46.232  29.565  26.668  1.00  0.00     0.049 A 
ATOM     63  H   UNL A   1      44.512  29.927  27.835  1.00  0.00     0.167 HD
ATOM     64  C   UNL A   1      44.832  27.547  26.342  1.00  0.00     0.074 A 
ATOM     65  C   UNL A   1      44.551  26.258  25.746  1.00  0.00     0.031 C 
ATOM     66  C   UNL A   1      45.940  28.283  26.078  1.00  0.00     0.031 A 
BRANCH  53  67
ATOM     67  C   UNL A   1      46.068  33.739  28.967  1.00  0.00    -0.014 A 
ATOM     68  C   UNL A   1      46.870  33.939  30.102  1.00  0.00     0.009 A 
ATOM     69  C   UNL A   1      45.973  34.765  28.013  1.00  0.00     0.009 A 
ATOM     70  C   UNL A   1      47.533  35.153  30.292  1.00  0.00     0.001 A 
ATOM     71  C   UNL A   1      46.663  35.965  28.191  1.00  0.00     0.001 A 
ATOM     72  C   UNL A   1      47.434  36.162  29.334  1.00  0.00     0.000 A 
ENDBRANCH  53  67
BRANCH  54  73
ATOM     73  C   UNL A   1      40.844  25.361  27.537  1.00  0.00    -0.014 A 
ATOM     74  C   UNL A   1      41.255  24.127  28.064  1.00  0.00     0.009 A 
ATOM     75  C   UNL A   1      39.693  25.404  26.733  1.00  0.00     0.009 A 
ATOM     76  C   UNL A   1      40.544  22.959  27.772  1.00  0.00     0.001 A 
ATOM     77  C   UNL A   1      38.966  24.241  26.470  1.00  0.00     0.001 A 
ATOM     78  C   UNL A   1      39.398  23.018  26.980  1.00  0.00     0.000 A 
ENDBRANCH  54  73
BRANCH  66  79
ATOM     79  C   UNL A   1      46.950  27.706  25.124  1.00  0.00    -0.014 A 
ATOM     80  C   UNL A   1      46.961  28.069  23.768  1.00  0.00     0.009 A 
ATOM     81  C   UNL A   1      47.945  26.838  25.602  1.00  0.00     0.009 A 
ATOM     82  C   UNL A   1      47.934  27.554  22.907  1.00  0.00     0.001 A 
ATOM     83  C   UNL A   1      48.933  26.350  24.747  1.00  0.00     0.001 A 
ATOM     84  C   UNL A   1      48.922  26.702  23.398  1.00  0.00     0.000 A 
ENDBRANCH  66  79
ENDBRANCH  40  41
ENDBRANCH  33  35
ENDBRANCH  32  33
ENDBRANCH  31  32
ENDBRANCH  30  31
ENDBRANCH  29  30
ENDBRANCH  28  29
ENDBRANCH  27  28
ENDBRANCH  26  27
ENDBRANCH   1  26
TORSDOF 24
ENDMDL
MODEL 3
REMARK VINA RESULT:      -8.6      1.930      6.468
REMARK SMILES Nc1ccc(Cl)c(SC[C@H]2CC[C@H](C(=O)OCCOCCOCCOCCOC(=O)c3ccc(-c4c5nc(c(-c6ccccc6)c6ccc([nH]6)c(-c6ccccc6)c6nc(c(-c7ccccc7)c7ccc4[nH]7)C=C6)C=C5)cc3)O2)c1
REMARK SMILES IDX 21 1 20 2 19 3 18 4 17 5 16 6 14 7 15 8 13 9 10 10 11 11
REMARK SMILES IDX 79 12 12 13 9 14 8 15 7 16 2 17 3 18 80 19 4 20 5 21 6 22
REMARK SMILES IDX 1 23 22 26 23 27 24 28 25 29 26 30 27 31 28 32 29 33 30 34
REMARK SMILES IDX 31 35 32 36 78 37 33 38 77 39 34 40 35 41 36 42 71 43 37 44
REMARK SMILES IDX 76 45 70 46 72 47 38 48 75 49 69 50 68 51 39 53 61 54 46 55
REMARK SMILES IDX 60 56 47 57 50 58 59 59 73 60 48 61 49 62 58 64 74 65 51 66
REMARK SMILES IDX 40 67 41 68 45 69 42 70 44 71 43 72 62 73 63 74 67 75 64 76
REMARK SMILES IDX 66 77 65 78 52 79 53 80 57 81 54 82 56 83 55 84
REMARK H PARENT 1 24 1 25 72 52 50 63
REMARK Flexibility Score: inf
ROOT
ATOM      1  C   UNL A   1      34.276  34.460  28.018  1.00  0.00     0.188 C 
ENDROOT
BRANCH   1   2
ATOM      2  C   UNL A   1      35.077  33.154  27.982  1.00  0.00     0.188 C 
BRANCH   2   3
ATOM      3  O   UNL A   1      34.550  32.002  27.351  1.00  0.00    -0.376 OA
BRANCH   3   4
ATOM      4  C   UNL A   1      34.808  30.684  27.813  1.00  0.00     0.202 C 
BRANCH   4   5
ATOM      5  C   UNL A   1      34.544  29.397  27.015  1.00  0.00     0.261 C 
BRANCH   5   6
ATOM      6  O   UNL A   1      33.520  29.441  26.015  1.00  0.00    -0.461 OA
BRANCH   6   7
ATOM      7  C   UNL A   1      32.327  28.936  26.409  1.00  0.00     0.335 C 
ATOM      8  O   UNL A   1      31.776  29.226  27.470  1.00  0.00    -0.249 OA
BRANCH   7   9
ATOM      9  C   UNL A   1      31.740  27.902  25.462  1.00  0.00     0.228 C 
ATOM     10  C   UNL A   1      32.598  26.503  23.812  1.00  0.00     0.129 C 
ATOM     11  C   UNL A   1      31.885  27.625  23.088  1.00  0.00     0.036 C 
ATOM     12  O   UNL A   1      32.816  27.006  25.127  1.00  0.00    -0.362 OA
ATOM     13  C   UNL A   1      31.040  28.259  24.159  1.00  0.00     0.047 C 
BRANCH  10  14
ATOM     14  C   UNL A   1      31.913  25.118  23.804  1.00  0.00     0.107 C 
BRANCH  14  15
ATOM     15  S   UNL A   1      31.678  24.165  25.364  1.00  0.00    -0.122 SA
BRANCH  15  16
ATOM     16  C   UNL A   1      32.722  22.688  25.218  1.00  0.00     0.028 A 
ATOM     17  C   UNL A   1      32.995  20.313  24.649  1.00  0.00     0.033 A 
ATOM     18  C   UNL A   1      34.375  20.438  24.754  1.00  0.00     0.027 A 
ATOM     19  C   UNL A   1      32.190  21.410  24.980  1.00  0.00     0.042 A 
ATOM     20  C   UNL A   1      34.942  21.673  25.065  1.00  0.00     0.024 A 
ATOM     21  C   UNL A   1      34.128  22.796  25.269  1.00  0.00     0.054 A 
ATOM     22  Cl  UNL A   1      34.946  24.293  25.576  1.00  0.00    -0.083 Cl
BRANCH  17  23
ATOM     23  N   UNL A   1      32.414  19.088  24.345  1.00  0.00    -0.399 N 
ATOM     24  H   UNL A   1      32.070  18.916  23.438  1.00  0.00     0.156 HD
ATOM     25  H   UNL A   1      32.345  18.389  25.036  1.00  0.00     0.156 HD
ENDBRANCH  17  23
ENDBRANCH  15  16
ENDBRANCH  14  15
ENDBRANCH  10  14
ENDBRANCH   7   9
ENDBRANCH   6   7
ENDBRANCH   5   6
ENDBRANCH   4   5
ENDBRANCH   3   4
ENDBRANCH   2   3
ENDBRANCH   1   2
BRANCH   1  26
ATOM     26  O   UNL A   1      34.344  35.168  29.238  1.00  0.00    -0.377 OA
BRANCH  26  27
ATOM     27  C   UNL A   1      33.396  34.890  30.260  1.00  0.00     0.188 C 
BRANCH  27  28
ATOM     28  C   UNL A   1      33.793  35.070  31.736  1.00  0.00     0.188 C 
BRANCH  28  29
ATOM     29  O   UNL A   1      34.013  33.851  32.426  1.00  0.00    -0.376 OA
BRANCH  29  30
ATOM     30  C   UNL A   1      34.453  32.721  31.686  1.00  0.00     0.202 C 
BRANCH  30  31
ATOM     31  C   UNL A   1      35.958  32.412  31.671  1.00  0.00     0.261 C 
BRANCH  31  32
ATOM     32  O   UNL A   1      36.386  31.287  30.883  1.00  0.00    -0.460 OA
BRANCH  32  33
ATOM     33  C   UNL A   1      36.961  30.232  31.503  1.00  0.00     0.338 C 
ATOM     34  O   UNL A   1      36.460  29.489  32.313  1.00  0.00    -0.246 OA
BRANCH  33  35
ATOM     35  C   UNL A   1      38.280  30.022  30.859  1.00  0.00     0.060 A 
ATOM     36  C   UNL A   1      38.384  30.111  29.464  1.00  0.00     0.016 A 
ATOM     37  C   UNL A   1      39.410  29.761  31.636  1.00  0.00     0.016 A 
ATOM     38  C   UNL A   1      39.622  29.933  28.841  1.00  0.00     0.010 A 
ATOM     39  C   UNL A   1      40.642  29.557  31.008  1.00  0.00     0.010 A 
ATOM     40  C   UNL A   1      40.753  29.625  29.608  1.00  0.00    -0.014 A 
BRANCH  40  41
ATOM     41  C   UNL A   1      42.028  29.236  28.958  1.00  0.00     0.031 A 
ATOM     42  C   UNL A   1      42.200  27.816  28.498  1.00  0.00     0.074 A 
ATOM     43  C   UNL A   1      43.031  30.119  28.806  1.00  0.00     0.049 A 
ATOM     44  N   UNL A   1      43.265  27.219  28.027  1.00  0.00    -0.248 NA
ATOM     45  C   UNL A   1      41.012  26.953  28.585  1.00  0.00     0.031 C 
ATOM     46  C   UNL A   1      42.975  31.537  29.155  1.00  0.00     0.029 A 
ATOM     47  N   UNL A   1      44.309  29.938  28.333  1.00  0.00    -0.354 N 
ATOM     48  C   UNL A   1      42.880  25.907  27.776  1.00  0.00     0.074 A 
ATOM     49  C   UNL A   1      41.491  25.791  28.165  1.00  0.00     0.031 C 
ATOM     50  C   UNL A   1      44.172  32.095  28.902  1.00  0.00     0.029 A 
ATOM     51  C   UNL A   1      45.091  31.064  28.420  1.00  0.00     0.049 A 
ATOM     52  H   UNL A   1      44.632  29.083  27.965  1.00  0.00     0.167 HD
ATOM     53  C   UNL A   1      43.617  24.891  27.269  1.00  0.00     0.031 A 
ATOM     54  C   UNL A   1      46.406  31.233  28.180  1.00  0.00     0.031 A 
ATOM     55  C   UNL A   1      45.004  25.001  26.904  1.00  0.00     0.049 A 
ATOM     56  C   UNL A   1      47.235  30.058  27.726  1.00  0.00     0.074 A 
ATOM     57  C   UNL A   1      45.833  24.032  26.367  1.00  0.00     0.029 A 
ATOM     58  N   UNL A   1      45.771  26.146  27.053  1.00  0.00    -0.354 N 
ATOM     59  N   UNL A   1      46.856  28.829  27.467  1.00  0.00    -0.248 NA
ATOM     60  C   UNL A   1      48.675  30.293  27.538  1.00  0.00     0.031 C 
ATOM     61  C   UNL A   1      47.120  24.569  26.259  1.00  0.00     0.029 A 
ATOM     62  C   UNL A   1      47.075  25.894  26.661  1.00  0.00     0.049 A 
ATOM     63  H   UNL A   1      45.439  27.011  27.389  1.00  0.00     0.167 HD
ATOM     64  C   UNL A   1      48.004  28.155  27.062  1.00  0.00     0.074 A 
ATOM     65  C   UNL A   1      49.087  29.114  27.093  1.00  0.00     0.031 C 
ATOM     66  C   UNL A   1      48.146  26.856  26.700  1.00  0.00     0.031 A 
BRANCH  53  67
ATOM     67  C   UNL A   1      42.947  23.553  27.127  1.00  0.00    -0.014 A 
ATOM     68  C   UNL A   1      42.406  23.130  25.902  1.00  0.00     0.009 A 
ATOM     69  C   UNL A   1      42.891  22.686  28.230  1.00  0.00     0.009 A 
ATOM     70  C   UNL A   1      41.792  21.880  25.796  1.00  0.00     0.001 A 
ATOM     71  C   UNL A   1      42.304  21.425  28.112  1.00  0.00     0.001 A 
ATOM     72  C   UNL A   1      41.747  21.027  26.899  1.00  0.00     0.000 A 
ENDBRANCH  53  67
BRANCH  54  73
ATOM     73  C   UNL A   1      47.045  32.558  28.407  1.00  0.00    -0.014 A 
ATOM     74  C   UNL A   1      47.561  32.898  29.667  1.00  0.00     0.009 A 
ATOM     75  C   UNL A   1      47.115  33.502  27.369  1.00  0.00     0.009 A 
ATOM     76  C   UNL A   1      48.111  34.163  29.889  1.00  0.00     0.001 A 
ATOM     77  C   UNL A   1      47.695  34.755  27.586  1.00  0.00     0.001 A 
ATOM     78  C   UNL A   1      48.183  35.088  28.848  1.00  0.00     0.000 A 
ENDBRANCH  54  73
BRANCH  66  79
ATOM     79  C   UNL A   1      49.516  26.395  26.282  1.00  0.00    -0.014 A 
ATOM     80  C   UNL A   1      50.013  26.659  24.996  1.00  0.00     0.009 A 
ATOM     81  C   UNL A   1      50.346  25.745  27.210  1.00  0.00     0.009 A 
ATOM     82  C   UNL A   1      51.304  26.258  24.642  1.00  0.00     0.001 A 
ATOM     83  C   UNL A   1      51.645  25.374  26.864  1.00  0.00     0.001 A 
ATOM     84  C   UNL A   1      52.121  25.624  25.577  1.00  0.00     0.000 A 
ENDBRANCH  66  79
ENDBRANCH  40  41
ENDBRANCH  33  35
ENDBRANCH  32  33
ENDBRANCH  31  32
ENDBRANCH  30  31
ENDBRANCH  29  30
ENDBRANCH  28  29
ENDBRANCH  27  28
ENDBRANCH  26  27
ENDBRANCH   1  26
TORSDOF 24
ENDMDL
