MODEL 1
REMARK VINA RESULT:     -10.2      0.000      0.000
REMARK SMILES C[C@@H](C(=O)OCCOCCOCCOCCOC(=O)c1ccc(-c2c3nc(c(-c4ccccc4)c4ccc([nH]4)c(-c4ccccc4)c4nc(c(-c5ccccc5)c5ccc2[nH]5)C=C4)C=C3)cc1)c1ccc(C[C@H]2CCC[C@@H]2O)cc1F
REMARK SMILES IDX 10 1 9 2 8 3 7 4 6 5 5 6 3 7 4 8 2 9 1 10 68 11 69 12 80 13
REMARK SMILES IDX 70 14 79 15 81 16 71 17 72 18 73 19 74 20 77 21 75 22 76 23
REMARK SMILES IDX 78 24 11 26 12 27 13 28 14 29 15 30 16 31 17 32 18 33 19 34
REMARK SMILES IDX 20 35 21 36 67 37 22 38 66 39 23 40 24 41 25 42 60 43 26 44
REMARK SMILES IDX 65 45 59 46 61 47 27 48 64 49 58 50 57 51 28 53 50 54 35 55
REMARK SMILES IDX 49 56 36 57 39 58 48 59 62 60 37 61 38 62 47 64 63 65 40 66
REMARK SMILES IDX 29 67 30 68 34 69 31 70 33 71 32 72 51 73 52 74 56 75 53 76
REMARK SMILES IDX 55 77 54 78 41 79 42 80 46 81 43 82 45 83 44 84
REMARK H PARENT 78 25 61 52 39 63
REMARK Flexibility Score: inf
ROOT
ATOM      1  C   UNL A   1      34.778  35.223  28.444  1.00  0.00     0.188 C 
ENDROOT
BRANCH   1   2
ATOM      2  C   UNL A   1      34.135  33.933  27.900  1.00  0.00     0.188 C 
BRANCH   2   3
ATOM      3  O   UNL A   1      34.925  32.770  27.709  1.00  0.00    -0.376 OA
BRANCH   3   4
ATOM      4  C   UNL A   1      34.519  31.536  28.283  1.00  0.00     0.202 C 
BRANCH   4   5
ATOM      5  C   UNL A   1      34.436  30.238  27.451  1.00  0.00     0.261 C 
BRANCH   5   6
ATOM      6  O   UNL A   1      33.660  30.267  26.235  1.00  0.00    -0.463 OA
BRANCH   6   7
ATOM      7  C   UNL A   1      32.308  30.231  26.374  1.00  0.00     0.313 C 
ATOM      8  O   UNL A   1      31.621  31.240  26.510  1.00  0.00    -0.252 OA
BRANCH   7   9
ATOM      9  C   UNL A   1      31.698  28.811  26.334  1.00  0.00     0.129 C 
ATOM     10  C   UNL A   1      31.777  27.931  27.589  1.00  0.00     0.025 C 
BRANCH   9  11
ATOM     11  C   UNL A   1      32.154  28.086  25.069  1.00  0.00     0.002 A 
ATOM     12  C   UNL A   1      31.415  28.079  23.874  1.00  0.00     0.008 A 
ATOM     13  C   UNL A   1      33.285  27.271  25.129  1.00  0.00     0.127 A 
ATOM     14  C   UNL A   1      31.736  27.204  22.830  1.00  0.00     0.004 A 
ATOM     15  C   UNL A   1      33.623  26.411  24.087  1.00  0.00     0.043 A 
ATOM     16  F   UNL A   1      34.056  27.281  26.226  1.00  0.00    -0.207 F 
ATOM     17  C   UNL A   1      32.816  26.326  22.947  1.00  0.00    -0.045 A 
BRANCH  17  18
ATOM     18  C   UNL A   1      33.081  25.274  21.898  1.00  0.00     0.041 C 
BRANCH  18  19
ATOM     19  C   UNL A   1      32.917  23.812  22.350  1.00  0.00     0.022 C 
ATOM     20  C   UNL A   1      34.166  23.122  22.924  1.00  0.00     0.007 C 
ATOM     21  C   UNL A   1      31.838  23.558  23.406  1.00  0.00     0.117 C 
ATOM     22  C   UNL A   1      33.657  22.132  23.977  1.00  0.00     0.003 C 
ATOM     23  C   UNL A   1      32.142  22.131  23.845  1.00  0.00     0.032 C 
BRANCH  21  24
ATOM     24  O   UNL A   1      30.541  23.674  22.854  1.00  0.00    -0.393 OA
ATOM     25  H   UNL A   1      30.044  24.352  23.336  1.00  0.00     0.210 HD
ENDBRANCH  21  24
ENDBRANCH  18  19
ENDBRANCH  17  18
ENDBRANCH   9  11
ENDBRANCH   7   9
ENDBRANCH   6   7
ENDBRANCH   5   6
ENDBRANCH   4   5
ENDBRANCH   3   4
ENDBRANCH   2   3
ENDBRANCH   1   2
BRANCH   1  26
ATOM     26  O   UNL A   1      33.912  36.336  28.518  1.00  0.00    -0.377 OA
BRANCH  26  27
ATOM     27  C   UNL A   1      32.770  36.186  29.344  1.00  0.00     0.188 C 
BRANCH  27  28
ATOM     28  C   UNL A   1      32.935  36.442  30.854  1.00  0.00     0.188 C 
BRANCH  28  29
ATOM     29  O   UNL A   1      32.863  35.263  31.650  1.00  0.00    -0.376 OA
BRANCH  29  30
ATOM     30  C   UNL A   1      33.954  34.944  32.501  1.00  0.00     0.202 C 
BRANCH  30  31
ATOM     31  C   UNL A   1      34.009  33.516  33.068  1.00  0.00     0.261 C 
BRANCH  31  32
ATOM     32  O   UNL A   1      35.024  32.654  32.531  1.00  0.00    -0.460 OA
BRANCH  32  33
ATOM     33  C   UNL A   1      36.129  32.435  33.274  1.00  0.00     0.338 C 
ATOM     34  O   UNL A   1      36.273  32.659  34.464  1.00  0.00    -0.246 OA
BRANCH  33  35
ATOM     35  C   UNL A   1      37.084  31.671  32.444  1.00  0.00     0.060 A 
ATOM     36  C   UNL A   1      38.094  30.937  33.081  1.00  0.00     0.016 A 
ATOM     37  C   UNL A   1      36.972  31.658  31.052  1.00  0.00     0.016 A 
ATOM     38  C   UNL A   1      39.017  30.214  32.324  1.00  0.00     0.010 A 
ATOM     39  C   UNL A   1      37.913  30.956  30.294  1.00  0.00     0.010 A 
ATOM     40  C   UNL A   1      38.960  30.261  30.926  1.00  0.00    -0.014 A 
BRANCH  40  41
ATOM     41  C   UNL A   1      40.113  29.775  30.131  1.00  0.00     0.031 A 
ATOM     42  C   UNL A   1      41.255  30.725  29.890  1.00  0.00     0.074 A 
ATOM     43  C   UNL A   1      40.165  28.519  29.655  1.00  0.00     0.049 A 
ATOM     44  N   UNL A   1      42.351  30.550  29.197  1.00  0.00    -0.248 NA
ATOM     45  C   UNL A   1      41.143  32.053  30.517  1.00  0.00     0.031 C 
ATOM     46  C   UNL A   1      39.153  27.487  29.869  1.00  0.00     0.029 A 
ATOM     47  N   UNL A   1      41.120  27.903  28.884  1.00  0.00    -0.354 N 
ATOM     48  C   UNL A   1      43.049  31.748  29.293  1.00  0.00     0.074 A 
ATOM     49  C   UNL A   1      42.244  32.650  30.086  1.00  0.00     0.031 C 
ATOM     50  C   UNL A   1      39.540  26.364  29.237  1.00  0.00     0.029 A 
ATOM     51  C   UNL A   1      40.804  26.611  28.546  1.00  0.00     0.049 A 
ATOM     52  H   UNL A   1      41.953  28.347  28.602  1.00  0.00     0.167 HD
ATOM     53  C   UNL A   1      44.254  32.070  28.768  1.00  0.00     0.031 A 
ATOM     54  C   UNL A   1      41.452  25.738  27.748  1.00  0.00     0.031 A 
ATOM     55  C   UNL A   1      45.047  31.179  27.965  1.00  0.00     0.049 A 
ATOM     56  C   UNL A   1      42.747  26.154  27.098  1.00  0.00     0.074 A 
ATOM     57  C   UNL A   1      46.289  31.405  27.399  1.00  0.00     0.029 A 
ATOM     58  N   UNL A   1      44.667  29.896  27.603  1.00  0.00    -0.354 N 
ATOM     59  N   UNL A   1      43.412  27.277  27.217  1.00  0.00    -0.248 NA
ATOM     60  C   UNL A   1      43.385  25.172  26.206  1.00  0.00     0.031 C 
ATOM     61  C   UNL A   1      46.630  30.284  26.636  1.00  0.00     0.029 A 
ATOM     62  C   UNL A   1      45.635  29.331  26.790  1.00  0.00     0.049 A 
ATOM     63  H   UNL A   1      43.833  29.453  27.881  1.00  0.00     0.167 HD
ATOM     64  C   UNL A   1      44.560  27.124  26.446  1.00  0.00     0.074 A 
ATOM     65  C   UNL A   1      44.508  25.794  25.877  1.00  0.00     0.031 C 
ATOM     66  C   UNL A   1      45.570  28.004  26.233  1.00  0.00     0.031 A 
BRANCH  53  67
ATOM     67  C   UNL A   1      44.765  33.463  29.009  1.00  0.00    -0.014 A 
ATOM     68  C   UNL A   1      44.453  34.521  28.140  1.00  0.00     0.009 A 
ATOM     69  C   UNL A   1      45.550  33.725  30.143  1.00  0.00     0.009 A 
ATOM     70  C   UNL A   1      44.946  35.805  28.384  1.00  0.00     0.001 A 
ATOM     71  C   UNL A   1      46.015  35.015  30.402  1.00  0.00     0.001 A 
ATOM     72  C   UNL A   1      45.721  36.052  29.517  1.00  0.00     0.000 A 
ENDBRANCH  53  67
BRANCH  54  73
ATOM     73  C   UNL A   1      40.882  24.387  27.493  1.00  0.00    -0.014 A 
ATOM     74  C   UNL A   1      41.462  23.244  28.065  1.00  0.00     0.009 A 
ATOM     75  C   UNL A   1      39.776  24.229  26.642  1.00  0.00     0.009 A 
ATOM     76  C   UNL A   1      40.966  21.972  27.767  1.00  0.00     0.001 A 
ATOM     77  C   UNL A   1      39.262  22.960  26.372  1.00  0.00     0.001 A 
ATOM     78  C   UNL A   1      39.864  21.831  26.926  1.00  0.00     0.000 A 
ENDBRANCH  54  73
BRANCH  66  79
ATOM     79  C   UNL A   1      46.726  27.542  25.387  1.00  0.00    -0.014 A 
ATOM     80  C   UNL A   1      46.810  27.854  24.021  1.00  0.00     0.009 A 
ATOM     81  C   UNL A   1      47.775  26.823  25.984  1.00  0.00     0.009 A 
ATOM     82  C   UNL A   1      47.901  27.422  23.263  1.00  0.00     0.001 A 
ATOM     83  C   UNL A   1      48.881  26.424  25.233  1.00  0.00     0.001 A 
ATOM     84  C   UNL A   1      48.938  26.713  23.871  1.00  0.00     0.000 A 
ENDBRANCH  66  79
ENDBRANCH  40  41
ENDBRANCH  33  35
ENDBRANCH  32  33
ENDBRANCH  31  32
ENDBRANCH  30  31
ENDBRANCH  29  30
ENDBRANCH  28  29
ENDBRANCH  27  28
ENDBRANCH  26  27
ENDBRANCH   1  26
TORSDOF 24
ENDMDL
MODEL 2
REMARK VINA RESULT:      -9.7      3.748      6.033
REMARK SMILES C[C@@H](C(=O)OCCOCCOCCOCCOC(=O)c1ccc(-c2c3nc(c(-c4ccccc4)c4ccc([nH]4)c(-c4ccccc4)c4nc(c(-c5ccccc5)c5ccc2[nH]5)C=C4)C=C3)cc1)c1ccc(C[C@H]2CCC[C@@H]2O)cc1F
REMARK SMILES IDX 10 1 9 2 8 3 7 4 6 5 5 6 3 7 4 8 2 9 1 10 68 11 69 12 80 13
REMARK SMILES IDX 70 14 79 15 81 16 71 17 72 18 73 19 74 20 77 21 75 22 76 23
REMARK SMILES IDX 78 24 11 26 12 27 13 28 14 29 15 30 16 31 17 32 18 33 19 34
REMARK SMILES IDX 20 35 21 36 67 37 22 38 66 39 23 40 24 41 25 42 60 43 26 44
REMARK SMILES IDX 65 45 59 46 61 47 27 48 64 49 58 50 57 51 28 53 50 54 35 55
REMARK SMILES IDX 49 56 36 57 39 58 48 59 62 60 37 61 38 62 47 64 63 65 40 66
REMARK SMILES IDX 29 67 30 68 34 69 31 70 33 71 32 72 51 73 52 74 56 75 53 76
REMARK SMILES IDX 55 77 54 78 41 79 42 80 46 81 43 82 45 83 44 84
REMARK H PARENT 78 25 61 52 39 63
REMARK Flexibility Score: inf
ROOT
ATOM      1  C   UNL A   1      32.971  28.921  23.109  1.00  0.00     0.188 C 
ENDROOT
BRANCH   1   2
ATOM      2  C   UNL A   1      32.812  27.470  22.615  1.00  0.00     0.188 C 
BRANCH   2   3
ATOM      3  O   UNL A   1      31.565  27.024  22.107  1.00  0.00    -0.376 OA
BRANCH   3   4
ATOM      4  C   UNL A   1      30.466  26.843  22.988  1.00  0.00     0.202 C 
BRANCH   4   5
ATOM      5  C   UNL A   1      30.392  25.649  23.965  1.00  0.00     0.261 C 
BRANCH   5   6
ATOM      6  O   UNL A   1      31.007  25.800  25.261  1.00  0.00    -0.463 OA
BRANCH   6   7
ATOM      7  C   UNL A   1      31.494  24.669  25.838  1.00  0.00     0.313 C 
ATOM      8  O   UNL A   1      30.807  23.674  26.049  1.00  0.00    -0.252 OA
BRANCH   7   9
ATOM      9  C   UNL A   1      32.997  24.731  26.198  1.00  0.00     0.129 C 
ATOM     10  C   UNL A   1      33.784  26.012  25.893  1.00  0.00     0.025 C 
BRANCH   9  11
ATOM     11  C   UNL A   1      33.701  23.468  25.703  1.00  0.00     0.002 A 
ATOM     12  C   UNL A   1      33.460  22.892  24.445  1.00  0.00     0.008 A 
ATOM     13  C   UNL A   1      34.519  22.762  26.586  1.00  0.00     0.127 A 
ATOM     14  C   UNL A   1      33.929  21.611  24.134  1.00  0.00     0.004 A 
ATOM     15  C   UNL A   1      35.005  21.494  26.279  1.00  0.00     0.043 A 
ATOM     16  F   UNL A   1      34.824  23.291  27.780  1.00  0.00    -0.207 F 
ATOM     17  C   UNL A   1      34.664  20.878  25.069  1.00  0.00    -0.045 A 
BRANCH  17  18
ATOM     18  C   UNL A   1      35.044  19.441  24.807  1.00  0.00     0.041 C 
BRANCH  18  19
ATOM     19  C   UNL A   1      33.881  18.480  24.501  1.00  0.00     0.022 C 
ATOM     20  C   UNL A   1      34.135  17.410  23.426  1.00  0.00     0.007 C 
ATOM     21  C   UNL A   1      33.341  17.685  25.692  1.00  0.00     0.117 C 
ATOM     22  C   UNL A   1      33.307  16.188  23.842  1.00  0.00     0.003 C 
ATOM     23  C   UNL A   1      32.456  16.646  25.016  1.00  0.00     0.032 C 
BRANCH  21  24
ATOM     24  O   UNL A   1      32.604  18.512  26.571  1.00  0.00    -0.393 OA
ATOM     25  H   UNL A   1      32.980  19.406  26.567  1.00  0.00     0.210 HD
ENDBRANCH  21  24
ENDBRANCH  18  19
ENDBRANCH  17  18
ENDBRANCH   9  11
ENDBRANCH   7   9
ENDBRANCH   6   7
ENDBRANCH   5   6
ENDBRANCH   4   5
ENDBRANCH   3   4
ENDBRANCH   2   3
ENDBRANCH   1   2
BRANCH   1  26
ATOM     26  O   UNL A   1      33.072  29.066  24.510  1.00  0.00    -0.377 OA
BRANCH  26  27
ATOM     27  C   UNL A   1      31.903  29.506  25.180  1.00  0.00     0.188 C 
BRANCH  27  28
ATOM     28  C   UNL A   1      32.068  30.150  26.569  1.00  0.00     0.188 C 
BRANCH  28  29
ATOM     29  O   UNL A   1      33.317  30.810  26.754  1.00  0.00    -0.376 OA
BRANCH  29  30
ATOM     30  C   UNL A   1      33.440  31.762  27.801  1.00  0.00     0.202 C 
BRANCH  30  31
ATOM     31  C   UNL A   1      32.796  33.140  27.579  1.00  0.00     0.261 C 
BRANCH  31  32
ATOM     32  O   UNL A   1      33.542  34.276  28.040  1.00  0.00    -0.460 OA
BRANCH  32  33
ATOM     33  C   UNL A   1      33.569  34.522  29.366  1.00  0.00     0.338 C 
ATOM     34  O   UNL A   1      32.665  34.971  30.051  1.00  0.00    -0.246 OA
BRANCH  33  35
ATOM     35  C   UNL A   1      34.822  33.952  29.904  1.00  0.00     0.060 A 
ATOM     36  C   UNL A   1      36.029  34.238  29.250  1.00  0.00     0.016 A 
ATOM     37  C   UNL A   1      34.813  33.163  31.057  1.00  0.00     0.016 A 
ATOM     38  C   UNL A   1      37.226  33.706  29.728  1.00  0.00     0.010 A 
ATOM     39  C   UNL A   1      36.010  32.609  31.518  1.00  0.00     0.010 A 
ATOM     40  C   UNL A   1      37.215  32.849  30.834  1.00  0.00    -0.014 A 
BRANCH  40  41
ATOM     41  C   UNL A   1      38.415  32.034  31.140  1.00  0.00     0.031 A 
ATOM     42  C   UNL A   1      39.326  32.505  32.242  1.00  0.00     0.074 A 
ATOM     43  C   UNL A   1      38.683  30.893  30.482  1.00  0.00     0.049 A 
ATOM     44  N   UNL A   1      40.451  31.991  32.668  1.00  0.00    -0.248 NA
ATOM     45  C   UNL A   1      38.909  33.722  32.958  1.00  0.00     0.031 C 
ATOM     46  C   UNL A   1      37.850  30.299  29.437  1.00  0.00     0.029 A 
ATOM     47  N   UNL A   1      39.745  30.030  30.600  1.00  0.00    -0.354 N 
ATOM     48  C   UNL A   1      40.882  32.828  33.690  1.00  0.00     0.074 A 
ATOM     49  C   UNL A   1      39.914  33.897  33.802  1.00  0.00     0.031 C 
ATOM     50  C   UNL A   1      38.438  29.169  29.006  1.00  0.00     0.029 A 
ATOM     51  C   UNL A   1      39.703  28.982  29.715  1.00  0.00     0.049 A 
ATOM     52  H   UNL A   1      40.467  30.152  31.259  1.00  0.00     0.167 HD
ATOM     53  C   UNL A   1      41.984  32.719  34.468  1.00  0.00     0.031 A 
ATOM     54  C   UNL A   1      40.597  27.999  29.489  1.00  0.00     0.031 A 
ATOM     55  C   UNL A   1      42.955  31.665  34.344  1.00  0.00     0.049 A 
ATOM     56  C   UNL A   1      41.864  27.952  30.305  1.00  0.00     0.074 A 
ATOM     57  C   UNL A   1      44.098  31.456  35.094  1.00  0.00     0.029 A 
ATOM     58  N   UNL A   1      42.902  30.651  33.401  1.00  0.00    -0.354 N 
ATOM     59  N   UNL A   1      42.248  28.732  31.286  1.00  0.00    -0.248 NA
ATOM     60  C   UNL A   1      42.819  26.880  29.983  1.00  0.00     0.031 C 
ATOM     61  C   UNL A   1      44.775  30.356  34.559  1.00  0.00     0.029 A 
ATOM     62  C   UNL A   1      44.012  29.834  33.526  1.00  0.00     0.049 A 
ATOM     63  H   UNL A   1      42.182  30.531  32.740  1.00  0.00     0.167 HD
ATOM     64  C   UNL A   1      43.469  28.225  31.721  1.00  0.00     0.074 A 
ATOM     65  C   UNL A   1      43.752  27.062  30.906  1.00  0.00     0.031 C 
ATOM     66  C   UNL A   1      44.280  28.678  32.709  1.00  0.00     0.031 A 
BRANCH  53  67
ATOM     67  C   UNL A   1      42.221  33.795  35.489  1.00  0.00    -0.014 A 
ATOM     68  C   UNL A   1      41.668  33.723  36.778  1.00  0.00     0.009 A 
ATOM     69  C   UNL A   1      43.037  34.890  35.162  1.00  0.00     0.009 A 
ATOM     70  C   UNL A   1      41.899  34.741  37.705  1.00  0.00     0.001 A 
ATOM     71  C   UNL A   1      43.293  35.890  36.102  1.00  0.00     0.001 A 
ATOM     72  C   UNL A   1      42.716  35.820  37.369  1.00  0.00     0.000 A 
ENDBRANCH  53  67
BRANCH  54  73
ATOM     73  C   UNL A   1      40.347  26.984  28.429  1.00  0.00    -0.014 A 
ATOM     74  C   UNL A   1      39.627  25.813  28.712  1.00  0.00     0.009 A 
ATOM     75  C   UNL A   1      40.864  27.163  27.136  1.00  0.00     0.009 A 
ATOM     76  C   UNL A   1      39.455  24.832  27.732  1.00  0.00     0.001 A 
ATOM     77  C   UNL A   1      40.662  26.196  26.149  1.00  0.00     0.001 A 
ATOM     78  C   UNL A   1      39.968  25.027  26.451  1.00  0.00     0.000 A 
ENDBRANCH  54  73
BRANCH  66  79
ATOM     79  C   UNL A   1      45.528  27.889  33.000  1.00  0.00    -0.014 A 
ATOM     80  C   UNL A   1      45.527  26.815  33.903  1.00  0.00     0.009 A 
ATOM     81  C   UNL A   1      46.716  28.198  32.315  1.00  0.00     0.009 A 
ATOM     82  C   UNL A   1      46.697  26.092  34.143  1.00  0.00     0.001 A 
ATOM     83  C   UNL A   1      47.874  27.452  32.531  1.00  0.00     0.001 A 
ATOM     84  C   UNL A   1      47.868  26.408  33.453  1.00  0.00     0.000 A 
ENDBRANCH  66  79
ENDBRANCH  40  41
ENDBRANCH  33  35
ENDBRANCH  32  33
ENDBRANCH  31  32
ENDBRANCH  30  31
ENDBRANCH  29  30
ENDBRANCH  28  29
ENDBRANCH  27  28
ENDBRANCH  26  27
ENDBRANCH   1  26
TORSDOF 24
ENDMDL
MODEL 3
REMARK VINA RESULT:      -9.2      1.755      6.314
REMARK SMILES C[C@@H](C(=O)OCCOCCOCCOCCOC(=O)c1ccc(-c2c3nc(c(-c4ccccc4)c4ccc([nH]4)c(-c4ccccc4)c4nc(c(-c5ccccc5)c5ccc2[nH]5)C=C4)C=C3)cc1)c1ccc(C[C@H]2CCC[C@@H]2O)cc1F
REMARK SMILES IDX 10 1 9 2 8 3 7 4 6 5 5 6 3 7 4 8 2 9 1 10 68 11 69 12 80 13
REMARK SMILES IDX 70 14 79 15 81 16 71 17 72 18 73 19 74 20 77 21 75 22 76 23
REMARK SMILES IDX 78 24 11 26 12 27 13 28 14 29 15 30 16 31 17 32 18 33 19 34
REMARK SMILES IDX 20 35 21 36 67 37 22 38 66 39 23 40 24 41 25 42 60 43 26 44
REMARK SMILES IDX 65 45 59 46 61 47 27 48 64 49 58 50 57 51 28 53 50 54 35 55
REMARK SMILES IDX 49 56 36 57 39 58 48 59 62 60 37 61 38 62 47 64 63 65 40 66
REMARK SMILES IDX 29 67 30 68 34 69 31 70 33 71 32 72 51 73 52 74 56 75 53 76
REMARK SMILES IDX 55 77 54 78 41 79 42 80 46 81 43 82 45 83 44 84
REMARK H PARENT 78 25 61 52 39 63
REMARK Flexibility Score: inf
ROOT
ATOM      1  C   UNL A   1      33.711  31.538  27.721  1.00  0.00     0.188 C 
ENDROOT
BRANCH   1   2
ATOM      2  C   UNL A   1      34.423  30.204  27.424  1.00  0.00     0.188 C 
BRANCH   2   3
ATOM      3  O   UNL A   1      34.011  29.407  26.325  1.00  0.00    -0.376 OA
BRANCH   3   4
ATOM      4  C   UNL A   1      32.823  29.734  25.619  1.00  0.00     0.202 C 
BRANCH   4   5
ATOM      5  C   UNL A   1      31.782  28.660  25.234  1.00  0.00     0.261 C 
BRANCH   5   6
ATOM      6  O   UNL A   1      31.997  27.314  25.705  1.00  0.00    -0.463 OA
BRANCH   6   7
ATOM      7  C   UNL A   1      32.650  26.471  24.862  1.00  0.00     0.313 C 
ATOM      8  O   UNL A   1      33.875  26.394  24.806  1.00  0.00    -0.252 OA
BRANCH   7   9
ATOM      9  C   UNL A   1      31.723  25.601  23.982  1.00  0.00     0.129 C 
ATOM     10  C   UNL A   1      30.211  25.857  24.015  1.00  0.00     0.025 C 
BRANCH   9  11
ATOM     11  C   UNL A   1      32.081  24.126  24.152  1.00  0.00     0.002 A 
ATOM     12  C   UNL A   1      31.480  23.290  25.107  1.00  0.00     0.008 A 
ATOM     13  C   UNL A   1      33.155  23.605  23.427  1.00  0.00     0.127 A 
ATOM     14  C   UNL A   1      32.010  22.028  25.400  1.00  0.00     0.004 A 
ATOM     15  C   UNL A   1      33.677  22.343  23.699  1.00  0.00     0.043 A 
ATOM     16  F   UNL A   1      33.730  24.342  22.467  1.00  0.00    -0.207 F 
ATOM     17  C   UNL A   1      33.145  21.562  24.732  1.00  0.00    -0.045 A 
BRANCH  17  18
ATOM     18  C   UNL A   1      33.816  20.274  25.141  1.00  0.00     0.041 C 
BRANCH  18  19
ATOM     19  C   UNL A   1      33.873  19.171  24.068  1.00  0.00     0.022 C 
ATOM     20  C   UNL A   1      34.573  17.860  24.463  1.00  0.00     0.007 C 
ATOM     21  C   UNL A   1      32.523  18.714  23.508  1.00  0.00     0.117 C 
ATOM     22  C   UNL A   1      33.850  16.747  23.695  1.00  0.00     0.003 C 
ATOM     23  C   UNL A   1      32.899  17.453  22.742  1.00  0.00     0.032 C 
BRANCH  21  24
ATOM     24  O   UNL A   1      31.959  19.697  22.661  1.00  0.00    -0.393 OA
ATOM     25  H   UNL A   1      31.957  19.373  21.747  1.00  0.00     0.210 HD
ENDBRANCH  21  24
ENDBRANCH  18  19
ENDBRANCH  17  18
ENDBRANCH   9  11
ENDBRANCH   7   9
ENDBRANCH   6   7
ENDBRANCH   5   6
ENDBRANCH   4   5
ENDBRANCH   3   4
ENDBRANCH   2   3
ENDBRANCH   1   2
BRANCH   1  26
ATOM     26  O   UNL A   1      34.552  32.672  27.739  1.00  0.00    -0.377 OA
BRANCH  26  27
ATOM     27  C   UNL A   1      35.266  32.902  28.942  1.00  0.00     0.188 C 
BRANCH  27  28
ATOM     28  C   UNL A   1      34.483  33.448  30.151  1.00  0.00     0.188 C 
BRANCH  28  29
ATOM     29  O   UNL A   1      34.371  32.527  31.230  1.00  0.00    -0.376 OA
BRANCH  29  30
ATOM     30  C   UNL A   1      34.350  33.027  32.559  1.00  0.00     0.202 C 
BRANCH  30  31
ATOM     31  C   UNL A   1      35.322  34.170  32.896  1.00  0.00     0.261 C 
BRANCH  31  32
ATOM     32  O   UNL A   1      36.721  33.847  32.875  1.00  0.00    -0.460 OA
BRANCH  32  33
ATOM     33  C   UNL A   1      37.111  32.681  33.432  1.00  0.00     0.338 C 
ATOM     34  O   UNL A   1      36.672  32.165  34.446  1.00  0.00    -0.246 OA
BRANCH  33  35
ATOM     35  C   UNL A   1      38.027  32.014  32.482  1.00  0.00     0.060 A 
ATOM     36  C   UNL A   1      39.011  31.153  32.986  1.00  0.00     0.016 A 
ATOM     37  C   UNL A   1      37.902  32.217  31.105  1.00  0.00     0.016 A 
ATOM     38  C   UNL A   1      39.897  30.517  32.115  1.00  0.00     0.010 A 
ATOM     39  C   UNL A   1      38.807  31.601  30.237  1.00  0.00     0.010 A 
ATOM     40  C   UNL A   1      39.830  30.778  30.741  1.00  0.00    -0.014 A 
BRANCH  40  41
ATOM     41  C   UNL A   1      40.955  30.373  29.865  1.00  0.00     0.031 A 
ATOM     42  C   UNL A   1      40.883  29.021  29.206  1.00  0.00     0.074 A 
ATOM     43  C   UNL A   1      42.001  31.184  29.634  1.00  0.00     0.049 A 
ATOM     44  N   UNL A   1      41.754  28.426  28.431  1.00  0.00    -0.248 NA
ATOM     45  C   UNL A   1      39.662  28.236  29.455  1.00  0.00     0.031 C 
ATOM     46  C   UNL A   1      42.160  32.536  30.165  1.00  0.00     0.029 A 
ATOM     47  N   UNL A   1      43.135  30.977  28.888  1.00  0.00    -0.354 N 
ATOM     48  C   UNL A   1      41.193  27.195  28.115  1.00  0.00     0.074 A 
ATOM     49  C   UNL A   1      39.922  27.115  28.800  1.00  0.00     0.031 C 
ATOM     50  C   UNL A   1      43.331  33.037  29.730  1.00  0.00     0.029 A 
ATOM     51  C   UNL A   1      44.017  32.027  28.925  1.00  0.00     0.049 A 
ATOM     52  H   UNL A   1      43.299  30.152  28.375  1.00  0.00     0.167 HD
ATOM     53  C   UNL A   1      41.690  26.216  27.323  1.00  0.00     0.031 A 
ATOM     54  C   UNL A   1      45.248  32.148  28.389  1.00  0.00     0.031 A 
ATOM     55  C   UNL A   1      42.961  26.288  26.655  1.00  0.00     0.049 A 
ATOM     56  C   UNL A   1      45.820  31.005  27.589  1.00  0.00     0.074 A 
ATOM     57  C   UNL A   1      43.548  25.355  25.819  1.00  0.00     0.029 A 
ATOM     58  N   UNL A   1      43.847  27.349  26.760  1.00  0.00    -0.354 N 
ATOM     59  N   UNL A   1      45.271  29.857  27.273  1.00  0.00    -0.248 NA
ATOM     60  C   UNL A   1      47.184  31.181  27.065  1.00  0.00     0.031 C 
ATOM     61  C   UNL A   1      44.820  25.821  25.473  1.00  0.00     0.029 A 
ATOM     62  C   UNL A   1      44.993  27.078  26.032  1.00  0.00     0.049 A 
ATOM     63  H   UNL A   1      43.686  28.172  27.275  1.00  0.00     0.167 HD
ATOM     64  C   UNL A   1      46.205  29.191  26.486  1.00  0.00     0.074 A 
ATOM     65  C   UNL A   1      47.349  30.070  26.361  1.00  0.00     0.031 C 
ATOM     66  C   UNL A   1      46.123  27.964  25.914  1.00  0.00     0.031 A 
BRANCH  53  67
ATOM     67  C   UNL A   1      40.874  24.962  27.177  1.00  0.00    -0.014 A 
ATOM     68  C   UNL A   1      41.280  23.748  27.755  1.00  0.00     0.009 A 
ATOM     69  C   UNL A   1      39.662  25.005  26.471  1.00  0.00     0.009 A 
ATOM     70  C   UNL A   1      40.506  22.597  27.598  1.00  0.00     0.001 A 
ATOM     71  C   UNL A   1      38.874  23.860  26.344  1.00  0.00     0.001 A 
ATOM     72  C   UNL A   1      39.302  22.655  26.898  1.00  0.00     0.000 A 
ENDBRANCH  53  67
BRANCH  54  73
ATOM     73  C   UNL A   1      46.044  33.387  28.604  1.00  0.00    -0.014 A 
ATOM     74  C   UNL A   1      46.870  33.523  29.731  1.00  0.00     0.009 A 
ATOM     75  C   UNL A   1      45.952  34.459  27.702  1.00  0.00     0.009 A 
ATOM     76  C   UNL A   1      47.561  34.715  29.964  1.00  0.00     0.001 A 
ATOM     77  C   UNL A   1      46.669  35.636  27.920  1.00  0.00     0.001 A 
ATOM     78  C   UNL A   1      47.465  35.767  29.056  1.00  0.00     0.000 A 
ENDBRANCH  54  73
BRANCH  66  79
ATOM     79  C   UNL A   1      47.278  27.516  25.060  1.00  0.00    -0.014 A 
ATOM     80  C   UNL A   1      48.305  26.710  25.574  1.00  0.00     0.009 A 
ATOM     81  C   UNL A   1      47.311  27.871  23.701  1.00  0.00     0.009 A 
ATOM     82  C   UNL A   1      49.359  26.299  24.755  1.00  0.00     0.001 A 
ATOM     83  C   UNL A   1      48.345  27.430  22.876  1.00  0.00     0.001 A 
ATOM     84  C   UNL A   1      49.375  26.655  23.406  1.00  0.00     0.000 A 
ENDBRANCH  66  79
ENDBRANCH  40  41
ENDBRANCH  33  35
ENDBRANCH  32  33
ENDBRANCH  31  32
ENDBRANCH  30  31
ENDBRANCH  29  30
ENDBRANCH  28  29
ENDBRANCH  27  28
ENDBRANCH  26  27
ENDBRANCH   1  26
TORSDOF 24
ENDMDL
