MODEL 1
REMARK VINA RESULT:      -8.6      0.000      0.000
REMARK SMILES O=C(CCCCC(=O)N1CCC(CO)CC1)OCCOCCOCCOCCOC(=O)c1ccc(-c2c3nc(c(-c4ccccc4)c4ccc([nH]4)c(-c4ccccc4)c4nc(c(-c5ccccc5)c5ccc2[nH]5)C=C4)C=C3)cc1
REMARK SMILES IDX 21 1 20 2 19 3 18 4 17 5 2 6 1 7 3 8 4 9 5 10 6 11 7 12 8 13
REMARK SMILES IDX 9 14 10 15 16 16 11 17 15 18 12 19 13 20 14 21 22 23 23 24
REMARK SMILES IDX 24 25 25 26 26 27 27 28 28 29 29 30 30 31 31 32 32 33 33 34
REMARK SMILES IDX 79 35 34 36 78 37 35 38 36 39 37 40 72 41 38 42 77 43 71 44
REMARK SMILES IDX 73 45 39 46 76 47 70 48 69 49 40 51 62 52 47 53 61 54 48 55
REMARK SMILES IDX 51 56 60 57 74 58 49 59 50 60 59 62 75 63 52 64 41 65 42 66
REMARK SMILES IDX 46 67 43 68 45 69 44 70 63 71 64 72 68 73 65 74 67 75 66 76
REMARK SMILES IDX 53 77 54 78 58 79 55 80 57 81 56 82
REMARK H PARENT 14 22 73 50 51 61
REMARK Flexibility Score: inf
ROOT
ATOM      1  C   UNL A   1      41.348  21.123  27.313  1.00  0.00     0.188 C 
ENDROOT
BRANCH   1   2
ATOM      2  O   UNL A   1      40.129  21.850  27.190  1.00  0.00    -0.376 OA
BRANCH   2   3
ATOM      3  C   UNL A   1      39.381  21.794  25.987  1.00  0.00     0.202 C 
BRANCH   3   4
ATOM      4  C   UNL A   1      38.117  22.624  26.093  1.00  0.00     0.261 C 
BRANCH   4   5
ATOM      5  O   UNL A   1      37.140  22.242  25.117  1.00  0.00    -0.463 OA
BRANCH   5   6
ATOM      6  C   UNL A   1      36.312  21.181  25.219  1.00  0.00     0.305 C 
ATOM      7  O   UNL A   1      36.764  20.057  24.992  1.00  0.00    -0.252 OA
BRANCH   6   8
ATOM      8  C   UNL A   1      34.834  21.346  25.542  1.00  0.00     0.123 C 
BRANCH   8   9
ATOM      9  C   UNL A   1      33.816  20.645  24.643  1.00  0.00     0.012 C 
BRANCH   9  10
ATOM     10  C   UNL A   1      32.752  21.466  23.848  1.00  0.00     0.010 C 
BRANCH  10  11
ATOM     11  C   UNL A   1      31.734  22.385  24.537  1.00  0.00     0.100 C 
BRANCH  11  12
ATOM     12  C   UNL A   1      31.230  23.720  23.967  1.00  0.00     0.222 C 
ATOM     13  O   UNL A   1      30.318  23.696  23.133  1.00  0.00    -0.275 OA
ATOM     14  N   UNL A   1      31.646  24.911  24.534  1.00  0.00    -0.343 N 
ATOM     15  C   UNL A   1      30.740  26.062  24.561  1.00  0.00     0.120 C 
ATOM     16  C   UNL A   1      32.898  25.092  25.228  1.00  0.00     0.120 C 
ATOM     17  C   UNL A   1      31.427  27.375  24.179  1.00  0.00     0.027 C 
ATOM     18  C   UNL A   1      33.633  26.322  24.738  1.00  0.00     0.027 C 
ATOM     19  C   UNL A   1      32.774  27.570  24.900  1.00  0.00     0.018 C 
BRANCH  19  20
ATOM     20  C   UNL A   1      33.553  28.776  24.376  1.00  0.00     0.159 C 
BRANCH  20  21
ATOM     21  O   UNL A   1      34.014  29.583  25.445  1.00  0.00    -0.396 OA
ATOM     22  H   UNL A   1      33.419  29.486  26.205  1.00  0.00     0.210 HD
ENDBRANCH  20  21
ENDBRANCH  19  20
ENDBRANCH  11  12
ENDBRANCH  10  11
ENDBRANCH   9  10
ENDBRANCH   8   9
ENDBRANCH   6   8
ENDBRANCH   5   6
ENDBRANCH   4   5
ENDBRANCH   3   4
ENDBRANCH   2   3
ENDBRANCH   1   2
BRANCH   1  23
ATOM     23  C   UNL A   1      41.725  20.240  26.133  1.00  0.00     0.188 C 
BRANCH  23  24
ATOM     24  O   UNL A   1      42.604  19.143  26.370  1.00  0.00    -0.377 OA
BRANCH  24  25
ATOM     25  C   UNL A   1      43.659  18.845  25.469  1.00  0.00     0.188 C 
BRANCH  25  26
ATOM     26  C   UNL A   1      44.635  19.995  25.195  1.00  0.00     0.188 C 
BRANCH  26  27
ATOM     27  O   UNL A   1      44.627  20.567  23.897  1.00  0.00    -0.376 OA
BRANCH  27  28
ATOM     28  C   UNL A   1      44.855  21.970  23.781  1.00  0.00     0.202 C 
BRANCH  28  29
ATOM     29  C   UNL A   1      43.788  22.969  24.280  1.00  0.00     0.261 C 
BRANCH  29  30
ATOM     30  O   UNL A   1      44.067  23.572  25.563  1.00  0.00    -0.460 OA
BRANCH  30  31
ATOM     31  C   UNL A   1      44.450  24.872  25.555  1.00  0.00     0.338 C 
ATOM     32  O   UNL A   1      45.259  25.393  24.810  1.00  0.00    -0.246 OA
BRANCH  31  33
ATOM     33  C   UNL A   1      43.596  25.670  26.469  1.00  0.00     0.060 A 
ATOM     34  C   UNL A   1      43.900  27.029  26.651  1.00  0.00     0.016 A 
ATOM     35  C   UNL A   1      42.585  25.076  27.221  1.00  0.00     0.016 A 
ATOM     36  C   UNL A   1      43.209  27.793  27.595  1.00  0.00     0.010 A 
ATOM     37  C   UNL A   1      41.919  25.830  28.198  1.00  0.00     0.010 A 
ATOM     38  C   UNL A   1      42.252  27.182  28.415  1.00  0.00    -0.014 A 
BRANCH  38  39
ATOM     39  C   UNL A   1      41.789  27.872  29.647  1.00  0.00     0.031 A 
ATOM     40  C   UNL A   1      40.577  28.762  29.546  1.00  0.00     0.074 A 
ATOM     41  C   UNL A   1      42.405  27.718  30.834  1.00  0.00     0.049 A 
ATOM     42  N   UNL A   1      40.024  29.526  30.453  1.00  0.00    -0.248 NA
ATOM     43  C   UNL A   1      39.900  28.793  28.239  1.00  0.00     0.031 C 
ATOM     44  C   UNL A   1      43.544  26.842  31.093  1.00  0.00     0.029 A 
ATOM     45  N   UNL A   1      42.154  28.315  32.047  1.00  0.00    -0.354 N 
ATOM     46  C   UNL A   1      38.948  30.139  29.822  1.00  0.00     0.074 A 
ATOM     47  C   UNL A   1      38.939  29.677  28.452  1.00  0.00     0.031 C 
ATOM     48  C   UNL A   1      43.906  26.969  32.383  1.00  0.00     0.029 A 
ATOM     49  C   UNL A   1      43.049  27.965  33.029  1.00  0.00     0.049 A 
ATOM     50  H   UNL A   1      41.403  28.933  32.198  1.00  0.00     0.167 HD
ATOM     51  C   UNL A   1      38.044  31.008  30.334  1.00  0.00     0.031 A 
ATOM     52  C   UNL A   1      43.178  28.416  34.293  1.00  0.00     0.031 A 
ATOM     53  C   UNL A   1      38.061  31.489  31.689  1.00  0.00     0.049 A 
ATOM     54  C   UNL A   1      42.219  29.459  34.814  1.00  0.00     0.074 A 
ATOM     55  C   UNL A   1      37.184  32.367  32.302  1.00  0.00     0.029 A 
ATOM     56  N   UNL A   1      39.010  31.141  32.637  1.00  0.00    -0.354 N 
ATOM     57  N   UNL A   1      41.195  30.017  34.215  1.00  0.00    -0.248 NA
ATOM     58  C   UNL A   1      42.435  29.932  36.191  1.00  0.00     0.031 C 
ATOM     59  C   UNL A   1      37.643  32.603  33.602  1.00  0.00     0.029 A 
ATOM     60  C   UNL A   1      38.758  31.812  33.822  1.00  0.00     0.049 A 
ATOM     61  H   UNL A   1      39.752  30.512  32.489  1.00  0.00     0.167 HD
ATOM     62  C   UNL A   1      40.623  30.872  35.152  1.00  0.00     0.074 A 
ATOM     63  C   UNL A   1      41.409  30.752  36.362  1.00  0.00     0.031 C 
ATOM     64  C   UNL A   1      39.542  31.681  35.023  1.00  0.00     0.031 A 
BRANCH  51  65
ATOM     65  C   UNL A   1      36.986  31.533  29.403  1.00  0.00    -0.014 A 
ATOM     66  C   UNL A   1      35.841  30.780  29.093  1.00  0.00     0.009 A 
ATOM     67  C   UNL A   1      37.126  32.814  28.847  1.00  0.00     0.009 A 
ATOM     68  C   UNL A   1      34.879  31.286  28.218  1.00  0.00     0.001 A 
ATOM     69  C   UNL A   1      36.145  33.330  27.999  1.00  0.00     0.001 A 
ATOM     70  C   UNL A   1      35.028  32.563  27.676  1.00  0.00     0.000 A 
ENDBRANCH  51  65
BRANCH  52  71
ATOM     71  C   UNL A   1      44.276  27.911  35.164  1.00  0.00    -0.014 A 
ATOM     72  C   UNL A   1      44.136  26.706  35.872  1.00  0.00     0.009 A 
ATOM     73  C   UNL A   1      45.455  28.655  35.326  1.00  0.00     0.009 A 
ATOM     74  C   UNL A   1      45.140  26.274  36.742  1.00  0.00     0.001 A 
ATOM     75  C   UNL A   1      46.472  28.204  36.171  1.00  0.00     0.001 A 
ATOM     76  C   UNL A   1      46.309  27.019  36.888  1.00  0.00     0.000 A 
ENDBRANCH  52  71
BRANCH  64  77
ATOM     77  C   UNL A   1      39.103  32.460  36.234  1.00  0.00    -0.014 A 
ATOM     78  C   UNL A   1      39.584  33.753  36.494  1.00  0.00     0.009 A 
ATOM     79  C   UNL A   1      38.145  31.908  37.100  1.00  0.00     0.009 A 
ATOM     80  C   UNL A   1      39.140  34.460  37.614  1.00  0.00     0.001 A 
ATOM     81  C   UNL A   1      37.678  32.630  38.199  1.00  0.00     0.001 A 
ATOM     82  C   UNL A   1      38.183  33.901  38.461  1.00  0.00     0.000 A 
ENDBRANCH  64  77
ENDBRANCH  38  39
ENDBRANCH  31  33
ENDBRANCH  30  31
ENDBRANCH  29  30
ENDBRANCH  28  29
ENDBRANCH  27  28
ENDBRANCH  26  27
ENDBRANCH  25  26
ENDBRANCH  24  25
ENDBRANCH  23  24
ENDBRANCH   1  23
TORSDOF 26
ENDMDL
MODEL 2
REMARK VINA RESULT:      -8.3      1.764      6.527
REMARK SMILES O=C(CCCCC(=O)N1CCC(CO)CC1)OCCOCCOCCOCCOC(=O)c1ccc(-c2c3nc(c(-c4ccccc4)c4ccc([nH]4)c(-c4ccccc4)c4nc(c(-c5ccccc5)c5ccc2[nH]5)C=C4)C=C3)cc1
REMARK SMILES IDX 21 1 20 2 19 3 18 4 17 5 2 6 1 7 3 8 4 9 5 10 6 11 7 12 8 13
REMARK SMILES IDX 9 14 10 15 16 16 11 17 15 18 12 19 13 20 14 21 22 23 23 24
REMARK SMILES IDX 24 25 25 26 26 27 27 28 28 29 29 30 30 31 31 32 32 33 33 34
REMARK SMILES IDX 79 35 34 36 78 37 35 38 36 39 37 40 72 41 38 42 77 43 71 44
REMARK SMILES IDX 73 45 39 46 76 47 70 48 69 49 40 51 62 52 47 53 61 54 48 55
REMARK SMILES IDX 51 56 60 57 74 58 49 59 50 60 59 62 75 63 52 64 41 65 42 66
REMARK SMILES IDX 46 67 43 68 45 69 44 70 63 71 64 72 68 73 65 74 67 75 66 76
REMARK SMILES IDX 53 77 54 78 58 79 55 80 57 81 56 82
REMARK H PARENT 14 22 73 50 51 61
REMARK Flexibility Score: inf
ROOT
ATOM      1  C   UNL A   1      41.332  21.402  26.502  1.00  0.00     0.188 C 
ENDROOT
BRANCH   1   2
ATOM      2  O   UNL A   1      40.075  21.884  26.966  1.00  0.00    -0.376 OA
BRANCH   2   3
ATOM      3  C   UNL A   1      38.977  21.991  26.074  1.00  0.00     0.202 C 
BRANCH   3   4
ATOM      4  C   UNL A   1      38.618  23.443  25.826  1.00  0.00     0.261 C 
BRANCH   4   5
ATOM      5  O   UNL A   1      37.203  23.633  25.701  1.00  0.00    -0.463 OA
BRANCH   5   6
ATOM      6  C   UNL A   1      36.488  23.434  24.575  1.00  0.00     0.305 C 
ATOM      7  O   UNL A   1      36.973  22.731  23.686  1.00  0.00    -0.252 OA
BRANCH   6   8
ATOM      8  C   UNL A   1      35.139  24.103  24.353  1.00  0.00     0.123 C 
BRANCH   8   9
ATOM      9  C   UNL A   1      34.606  25.030  25.443  1.00  0.00     0.012 C 
BRANCH   9  10
ATOM     10  C   UNL A   1      33.162  24.849  26.012  1.00  0.00     0.010 C 
BRANCH  10  11
ATOM     11  C   UNL A   1      32.632  23.495  26.502  1.00  0.00     0.100 C 
BRANCH  11  12
ATOM     12  C   UNL A   1      33.397  22.166  26.407  1.00  0.00     0.222 C 
ATOM     13  O   UNL A   1      34.398  22.013  27.118  1.00  0.00    -0.275 OA
ATOM     14  N   UNL A   1      32.851  21.107  25.706  1.00  0.00    -0.343 N 
ATOM     15  C   UNL A   1      33.104  19.732  26.146  1.00  0.00     0.120 C 
ATOM     16  C   UNL A   1      31.930  21.244  24.605  1.00  0.00     0.120 C 
ATOM     17  C   UNL A   1      33.438  18.784  24.992  1.00  0.00     0.027 C 
ATOM     18  C   UNL A   1      32.352  20.405  23.417  1.00  0.00     0.027 C 
ATOM     19  C   UNL A   1      32.470  18.935  23.804  1.00  0.00     0.018 C 
BRANCH  19  20
ATOM     20  C   UNL A   1      32.915  18.138  22.578  1.00  0.00     0.159 C 
BRANCH  20  21
ATOM     21  O   UNL A   1      31.796  17.697  21.828  1.00  0.00    -0.396 OA
ATOM     22  H   UNL A   1      30.983  17.865  22.331  1.00  0.00     0.210 HD
ENDBRANCH  20  21
ENDBRANCH  19  20
ENDBRANCH  11  12
ENDBRANCH  10  11
ENDBRANCH   9  10
ENDBRANCH   8   9
ENDBRANCH   6   8
ENDBRANCH   5   6
ENDBRANCH   4   5
ENDBRANCH   3   4
ENDBRANCH   2   3
ENDBRANCH   1   2
BRANCH   1  23
ATOM     23  C   UNL A   1      41.420  19.907  26.230  1.00  0.00     0.188 C 
BRANCH  23  24
ATOM     24  O   UNL A   1      42.622  19.230  26.588  1.00  0.00    -0.377 OA
BRANCH  24  25
ATOM     25  C   UNL A   1      43.379  18.524  25.618  1.00  0.00     0.188 C 
BRANCH  25  26
ATOM     26  C   UNL A   1      44.849  18.943  25.497  1.00  0.00     0.188 C 
BRANCH  26  27
ATOM     27  O   UNL A   1      45.257  19.562  24.288  1.00  0.00    -0.376 OA
BRANCH  27  28
ATOM     28  C   UNL A   1      45.459  20.974  24.291  1.00  0.00     0.202 C 
BRANCH  28  29
ATOM     29  C   UNL A   1      44.645  21.866  25.252  1.00  0.00     0.261 C 
BRANCH  29  30
ATOM     30  O   UNL A   1      45.386  22.390  26.376  1.00  0.00    -0.460 OA
BRANCH  30  31
ATOM     31  C   UNL A   1      45.697  23.709  26.340  1.00  0.00     0.338 C 
ATOM     32  O   UNL A   1      46.578  24.236  25.687  1.00  0.00    -0.246 OA
BRANCH  31  33
ATOM     33  C   UNL A   1      44.678  24.503  27.069  1.00  0.00     0.060 A 
ATOM     34  C   UNL A   1      44.535  25.864  26.751  1.00  0.00     0.016 A 
ATOM     35  C   UNL A   1      43.950  23.955  28.124  1.00  0.00     0.016 A 
ATOM     36  C   UNL A   1      43.682  26.683  27.494  1.00  0.00     0.010 A 
ATOM     37  C   UNL A   1      43.125  24.786  28.896  1.00  0.00     0.010 A 
ATOM     38  C   UNL A   1      43.015  26.161  28.607  1.00  0.00    -0.014 A 
BRANCH  38  39
ATOM     39  C   UNL A   1      42.415  27.084  29.607  1.00  0.00     0.031 A 
ATOM     40  C   UNL A   1      43.068  27.179  30.961  1.00  0.00     0.074 A 
ATOM     41  C   UNL A   1      41.331  27.833  29.335  1.00  0.00     0.049 A 
ATOM     42  N   UNL A   1      42.696  27.849  32.022  1.00  0.00    -0.248 NA
ATOM     43  C   UNL A   1      44.309  26.408  31.141  1.00  0.00     0.031 C 
ATOM     44  C   UNL A   1      40.637  27.892  28.051  1.00  0.00     0.029 A 
ATOM     45  N   UNL A   1      40.617  28.685  30.144  1.00  0.00    -0.354 N 
ATOM     46  C   UNL A   1      43.646  27.569  32.997  1.00  0.00     0.074 A 
ATOM     47  C   UNL A   1      44.597  26.650  32.410  1.00  0.00     0.031 C 
ATOM     48  C   UNL A   1      39.586  28.724  28.163  1.00  0.00     0.029 A 
ATOM     49  C   UNL A   1      39.510  29.225  29.536  1.00  0.00     0.049 A 
ATOM     50  H   UNL A   1      40.875  28.889  31.072  1.00  0.00     0.167 HD
ATOM     51  C   UNL A   1      43.725  28.032  34.267  1.00  0.00     0.031 A 
ATOM     52  C   UNL A   1      38.534  30.009  30.037  1.00  0.00     0.031 A 
ATOM     53  C   UNL A   1      42.771  28.927  34.862  1.00  0.00     0.049 A 
ATOM     54  C   UNL A   1      38.588  30.434  31.484  1.00  0.00     0.074 A 
ATOM     55  C   UNL A   1      42.768  29.456  36.142  1.00  0.00     0.029 A 
ATOM     56  N   UNL A   1      41.642  29.414  34.223  1.00  0.00    -0.354 N 
ATOM     57  N   UNL A   1      39.501  30.178  32.391  1.00  0.00    -0.248 NA
ATOM     58  C   UNL A   1      37.476  31.263  31.975  1.00  0.00     0.031 C 
ATOM     59  C   UNL A   1      41.601  30.211  36.298  1.00  0.00     0.029 A 
ATOM     60  C   UNL A   1      40.919  30.214  35.092  1.00  0.00     0.049 A 
ATOM     61  H   UNL A   1      41.392  29.220  33.292  1.00  0.00     0.167 HD
ATOM     62  C   UNL A   1      39.094  30.845  33.542  1.00  0.00     0.074 A 
ATOM     63  C   UNL A   1      37.858  31.524  33.217  1.00  0.00     0.031 C 
ATOM     64  C   UNL A   1      39.693  30.892  34.758  1.00  0.00     0.031 A 
BRANCH  51  65
ATOM     65  C   UNL A   1      44.865  27.535  35.114  1.00  0.00    -0.014 A 
ATOM     66  C   UNL A   1      45.814  28.416  35.656  1.00  0.00     0.009 A 
ATOM     67  C   UNL A   1      44.973  26.164  35.395  1.00  0.00     0.009 A 
ATOM     68  C   UNL A   1      46.868  27.928  36.432  1.00  0.00     0.001 A 
ATOM     69  C   UNL A   1      46.008  25.684  36.197  1.00  0.00     0.001 A 
ATOM     70  C   UNL A   1      46.961  26.564  36.706  1.00  0.00     0.000 A 
ENDBRANCH  51  65
BRANCH  52  71
ATOM     71  C   UNL A   1      37.393  30.431  29.177  1.00  0.00    -0.014 A 
ATOM     72  C   UNL A   1      37.248  31.771  28.781  1.00  0.00     0.009 A 
ATOM     73  C   UNL A   1      36.416  29.503  28.785  1.00  0.00     0.009 A 
ATOM     74  C   UNL A   1      36.137  32.175  28.036  1.00  0.00     0.001 A 
ATOM     75  C   UNL A   1      35.324  29.902  28.010  1.00  0.00     0.001 A 
ATOM     76  C   UNL A   1      35.179  31.240  27.646  1.00  0.00     0.000 A 
ENDBRANCH  52  71
BRANCH  64  77
ATOM     77  C   UNL A   1      39.057  31.752  35.818  1.00  0.00    -0.014 A 
ATOM     78  C   UNL A   1      39.336  33.124  35.921  1.00  0.00     0.009 A 
ATOM     79  C   UNL A   1      38.117  31.185  36.694  1.00  0.00     0.009 A 
ATOM     80  C   UNL A   1      38.713  33.900  36.902  1.00  0.00     0.001 A 
ATOM     81  C   UNL A   1      37.471  31.970  37.650  1.00  0.00     0.001 A 
ATOM     82  C   UNL A   1      37.776  33.324  37.760  1.00  0.00     0.000 A 
ENDBRANCH  64  77
ENDBRANCH  38  39
ENDBRANCH  31  33
ENDBRANCH  30  31
ENDBRANCH  29  30
ENDBRANCH  28  29
ENDBRANCH  27  28
ENDBRANCH  26  27
ENDBRANCH  25  26
ENDBRANCH  24  25
ENDBRANCH  23  24
ENDBRANCH   1  23
TORSDOF 26
ENDMDL
MODEL 3
REMARK VINA RESULT:      -8.1      3.614      5.184
REMARK SMILES O=C(CCCCC(=O)N1CCC(CO)CC1)OCCOCCOCCOCCOC(=O)c1ccc(-c2c3nc(c(-c4ccccc4)c4ccc([nH]4)c(-c4ccccc4)c4nc(c(-c5ccccc5)c5ccc2[nH]5)C=C4)C=C3)cc1
REMARK SMILES IDX 21 1 20 2 19 3 18 4 17 5 2 6 1 7 3 8 4 9 5 10 6 11 7 12 8 13
REMARK SMILES IDX 9 14 10 15 16 16 11 17 15 18 12 19 13 20 14 21 22 23 23 24
REMARK SMILES IDX 24 25 25 26 26 27 27 28 28 29 29 30 30 31 31 32 32 33 33 34
REMARK SMILES IDX 79 35 34 36 78 37 35 38 36 39 37 40 72 41 38 42 77 43 71 44
REMARK SMILES IDX 73 45 39 46 76 47 70 48 69 49 40 51 62 52 47 53 61 54 48 55
REMARK SMILES IDX 51 56 60 57 74 58 49 59 50 60 59 62 75 63 52 64 41 65 42 66
REMARK SMILES IDX 46 67 43 68 45 69 44 70 63 71 64 72 68 73 65 74 67 75 66 76
REMARK SMILES IDX 53 77 54 78 58 79 55 80 57 81 56 82
REMARK H PARENT 14 22 73 50 51 61
REMARK Flexibility Score: inf
ROOT
ATOM      1  C   UNL A   1      35.482  23.636  23.363  1.00  0.00     0.188 C 
ENDROOT
BRANCH   1   2
ATOM      2  O   UNL A   1      34.629  23.013  22.407  1.00  0.00    -0.376 OA
BRANCH   2   3
ATOM      3  C   UNL A   1      33.226  23.217  22.460  1.00  0.00     0.202 C 
BRANCH   3   4
ATOM      4  C   UNL A   1      32.500  21.921  22.761  1.00  0.00     0.261 C 
BRANCH   4   5
ATOM      5  O   UNL A   1      33.237  21.092  23.669  1.00  0.00    -0.463 OA
BRANCH   5   6
ATOM      6  C   UNL A   1      32.819  20.719  24.896  1.00  0.00     0.305 C 
ATOM      7  O   UNL A   1      31.987  19.814  24.985  1.00  0.00    -0.252 OA
BRANCH   6   8
ATOM      8  C   UNL A   1      33.298  21.426  26.156  1.00  0.00     0.123 C 
BRANCH   8   9
ATOM      9  C   UNL A   1      32.690  22.785  26.496  1.00  0.00     0.012 C 
BRANCH   9  10
ATOM     10  C   UNL A   1      33.512  24.100  26.302  1.00  0.00     0.010 C 
BRANCH  10  11
ATOM     11  C   UNL A   1      32.882  25.397  25.776  1.00  0.00     0.100 C 
BRANCH  11  12
ATOM     12  C   UNL A   1      31.597  25.472  24.936  1.00  0.00     0.222 C 
ATOM     13  O   UNL A   1      31.004  24.419  24.676  1.00  0.00    -0.275 OA
ATOM     14  N   UNL A   1      31.022  26.700  24.667  1.00  0.00    -0.343 N 
ATOM     15  C   UNL A   1      29.566  26.813  24.548  1.00  0.00     0.120 C 
ATOM     16  C   UNL A   1      31.746  27.946  24.603  1.00  0.00     0.120 C 
ATOM     17  C   UNL A   1      29.126  27.677  23.364  1.00  0.00     0.027 C 
ATOM     18  C   UNL A   1      31.404  28.726  23.352  1.00  0.00     0.027 C 
ATOM     19  C   UNL A   1      29.907  29.001  23.276  1.00  0.00     0.018 C 
BRANCH  19  20
ATOM     20  C   UNL A   1      29.613  29.773  21.989  1.00  0.00     0.159 C 
BRANCH  20  21
ATOM     21  O   UNL A   1      30.804  30.012  21.260  1.00  0.00    -0.396 OA
ATOM     22  H   UNL A   1      30.628  30.650  20.551  1.00  0.00     0.210 HD
ENDBRANCH  20  21
ENDBRANCH  19  20
ENDBRANCH  11  12
ENDBRANCH  10  11
ENDBRANCH   9  10
ENDBRANCH   8   9
ENDBRANCH   6   8
ENDBRANCH   5   6
ENDBRANCH   4   5
ENDBRANCH   3   4
ENDBRANCH   2   3
ENDBRANCH   1   2
BRANCH   1  23
ATOM     23  C   UNL A   1      36.696  22.833  23.805  1.00  0.00     0.188 C 
BRANCH  23  24
ATOM     24  O   UNL A   1      36.492  21.754  24.713  1.00  0.00    -0.377 OA
BRANCH  24  25
ATOM     25  C   UNL A   1      37.367  21.547  25.810  1.00  0.00     0.188 C 
BRANCH  25  26
ATOM     26  C   UNL A   1      38.856  21.765  25.515  1.00  0.00     0.188 C 
BRANCH  26  27
ATOM     27  O   UNL A   1      39.792  21.219  26.430  1.00  0.00    -0.376 OA
BRANCH  27  28
ATOM     28  C   UNL A   1      40.164  19.851  26.274  1.00  0.00     0.202 C 
BRANCH  28  29
ATOM     29  C   UNL A   1      41.653  19.470  26.120  1.00  0.00     0.261 C 
BRANCH  29  30
ATOM     30  O   UNL A   1      42.401  20.290  25.194  1.00  0.00    -0.460 OA
BRANCH  30  31
ATOM     31  C   UNL A   1      43.536  20.861  25.666  1.00  0.00     0.338 C 
ATOM     32  O   UNL A   1      44.678  20.482  25.482  1.00  0.00    -0.246 OA
BRANCH  31  33
ATOM     33  C   UNL A   1      43.234  22.166  26.303  1.00  0.00     0.060 A 
ATOM     34  C   UNL A   1      43.308  23.327  25.515  1.00  0.00     0.016 A 
ATOM     35  C   UNL A   1      42.990  22.268  27.671  1.00  0.00     0.016 A 
ATOM     36  C   UNL A   1      43.158  24.590  26.093  1.00  0.00     0.010 A 
ATOM     37  C   UNL A   1      42.881  23.537  28.258  1.00  0.00     0.010 A 
ATOM     38  C   UNL A   1      43.001  24.704  27.479  1.00  0.00    -0.014 A 
BRANCH  38  39
ATOM     39  C   UNL A   1      43.213  26.019  28.139  1.00  0.00     0.031 A 
ATOM     40  C   UNL A   1      42.009  26.898  28.366  1.00  0.00     0.074 A 
ATOM     41  C   UNL A   1      44.427  26.435  28.543  1.00  0.00     0.049 A 
ATOM     42  N   UNL A   1      41.942  28.112  28.850  1.00  0.00    -0.248 NA
ATOM     43  C   UNL A   1      40.706  26.326  27.991  1.00  0.00     0.031 C 
ATOM     44  C   UNL A   1      45.665  25.665  28.448  1.00  0.00     0.029 A 
ATOM     45  N   UNL A   1      44.813  27.627  29.109  1.00  0.00    -0.354 N 
ATOM     46  C   UNL A   1      40.595  28.453  28.822  1.00  0.00     0.074 A 
ATOM     47  C   UNL A   1      39.884  27.329  28.253  1.00  0.00     0.031 C 
ATOM     48  C   UNL A   1      46.678  26.411  28.924  1.00  0.00     0.029 A 
ATOM     49  C   UNL A   1      46.167  27.724  29.322  1.00  0.00     0.049 A 
ATOM     50  H   UNL A   1      44.178  28.343  29.341  1.00  0.00     0.167 HD
ATOM     51  C   UNL A   1      39.998  29.596  29.233  1.00  0.00     0.031 A 
ATOM     52  C   UNL A   1      46.910  28.761  29.759  1.00  0.00     0.031 A 
ATOM     53  C   UNL A   1      40.701  30.726  29.778  1.00  0.00     0.049 A 
ATOM     54  C   UNL A   1      46.235  30.062  30.119  1.00  0.00     0.074 A 
ATOM     55  C   UNL A   1      40.183  31.928  30.228  1.00  0.00     0.029 A 
ATOM     56  N   UNL A   1      42.076  30.797  29.936  1.00  0.00    -0.354 N 
ATOM     57  N   UNL A   1      44.959  30.366  30.107  1.00  0.00    -0.248 NA
ATOM     58  C   UNL A   1      47.107  31.163  30.559  1.00  0.00     0.031 C 
ATOM     59  C   UNL A   1      41.251  32.752  30.595  1.00  0.00     0.029 A 
ATOM     60  C   UNL A   1      42.427  32.035  30.447  1.00  0.00     0.049 A 
ATOM     61  H   UNL A   1      42.708  30.075  29.716  1.00  0.00     0.167 HD
ATOM     62  C   UNL A   1      44.874  31.674  30.573  1.00  0.00     0.074 A 
ATOM     63  C   UNL A   1      46.224  32.102  30.868  1.00  0.00     0.031 C 
ATOM     64  C   UNL A   1      43.774  32.449  30.744  1.00  0.00     0.031 A 
BRANCH  51  65
ATOM     65  C   UNL A   1      38.507  29.698  29.061  1.00  0.00    -0.014 A 
ATOM     66  C   UNL A   1      37.932  30.030  27.824  1.00  0.00     0.009 A 
ATOM     67  C   UNL A   1      37.664  29.432  30.151  1.00  0.00     0.009 A 
ATOM     68  C   UNL A   1      36.545  30.128  27.693  1.00  0.00     0.001 A 
ATOM     69  C   UNL A   1      36.277  29.498  30.009  1.00  0.00     0.001 A 
ATOM     70  C   UNL A   1      35.719  29.856  28.783  1.00  0.00     0.000 A 
ENDBRANCH  51  65
BRANCH  52  71
ATOM     71  C   UNL A   1      48.390  28.635  29.860  1.00  0.00    -0.014 A 
ATOM     72  C   UNL A   1      49.214  28.935  28.762  1.00  0.00     0.009 A 
ATOM     73  C   UNL A   1      48.986  28.171  31.043  1.00  0.00     0.009 A 
ATOM     74  C   UNL A   1      50.596  28.745  28.840  1.00  0.00     0.001 A 
ATOM     75  C   UNL A   1      50.372  28.015  31.130  1.00  0.00     0.001 A 
ATOM     76  C   UNL A   1      51.175  28.291  30.024  1.00  0.00     0.000 A 
ENDBRANCH  52  71
BRANCH  64  77
ATOM     77  C   UNL A   1      43.970  33.822  31.331  1.00  0.00    -0.014 A 
ATOM     78  C   UNL A   1      43.562  34.132  32.638  1.00  0.00     0.009 A 
ATOM     79  C   UNL A   1      44.628  34.807  30.575  1.00  0.00     0.009 A 
ATOM     80  C   UNL A   1      43.779  35.409  33.161  1.00  0.00     0.001 A 
ATOM     81  C   UNL A   1      44.873  36.071  31.114  1.00  0.00     0.001 A 
ATOM     82  C   UNL A   1      44.439  36.375  32.402  1.00  0.00     0.000 A 
ENDBRANCH  64  77
ENDBRANCH  38  39
ENDBRANCH  31  33
ENDBRANCH  30  31
ENDBRANCH  29  30
ENDBRANCH  28  29
ENDBRANCH  27  28
ENDBRANCH  26  27
ENDBRANCH  25  26
ENDBRANCH  24  25
ENDBRANCH  23  24
ENDBRANCH   1  23
TORSDOF 26
ENDMDL
