MODEL 1
REMARK VINA RESULT:     -10.0      0.000      0.000
REMARK SMILES CCN1C[C@@]2(C(=O)OCCOCCOCCOCCOC(=O)c3ccc(-c4c5nc(c(-c6ccccc6)c6ccc([nH]6)c(-c6ccccc6)c6nc(c(-c7ccccc7)c7ccc4[nH]7)C=C6)C=C5)cc3)CN(c3ccc(-c4ccccc4)nn3)C[C@H]2C1=O
REMARK SMILES IDX 14 1 13 2 12 3 11 4 10 5 9 6 8 7 6 8 7 9 5 10 3 11 4 12
REMARK SMILES IDX 87 13 86 14 88 15 71 16 85 17 72 18 2 19 1 20 73 21 74 22
REMARK SMILES IDX 84 23 75 24 83 25 76 26 77 27 78 28 82 29 79 30 81 31 80 32
REMARK SMILES IDX 15 33 16 34 17 35 18 36 19 37 20 38 21 39 22 40 23 41 24 42
REMARK SMILES IDX 70 43 25 44 69 45 26 46 27 47 28 48 63 49 29 50 68 51 62 52
REMARK SMILES IDX 64 53 30 54 67 55 61 56 60 57 31 59 53 60 38 61 52 62 39 63
REMARK SMILES IDX 42 64 51 65 65 66 40 67 41 68 50 70 66 71 43 72 32 73 33 74
REMARK SMILES IDX 37 75 34 76 36 77 35 78 54 79 55 80 59 81 56 82 58 83 57 84
REMARK SMILES IDX 44 85 45 86 49 87 46 88 48 89 47 90
REMARK H PARENT 64 58 42 69
REMARK Flexibility Score: inf
ROOT
ATOM      1  O   UNL A   1      35.685  33.062  30.294  1.00  0.00    -0.377 OA
ENDROOT
BRANCH   1   2
ATOM      2  C   UNL A   1      35.201  33.350  28.999  1.00  0.00     0.188 C 
BRANCH   2   3
ATOM      3  C   UNL A   1      35.449  32.261  27.928  1.00  0.00     0.188 C 
BRANCH   3   4
ATOM      4  O   UNL A   1      34.427  31.341  27.562  1.00  0.00    -0.376 OA
BRANCH   4   5
ATOM      5  C   UNL A   1      34.589  29.926  27.683  1.00  0.00     0.202 C 
BRANCH   5   6
ATOM      6  C   UNL A   1      33.396  28.957  27.660  1.00  0.00     0.261 C 
BRANCH   6   7
ATOM      7  O   UNL A   1      33.557  28.043  26.588  1.00  0.00    -0.463 OA
BRANCH   7   8
ATOM      8  C   UNL A   1      32.529  27.265  26.161  1.00  0.00     0.316 C 
ATOM      9  O   UNL A   1      31.601  26.898  26.864  1.00  0.00    -0.251 OA
BRANCH   8  10
ATOM     10  C   UNL A   1      32.802  27.013  24.636  1.00  0.00     0.116 C 
ATOM     11  N   UNL A   1      31.415  28.933  23.999  1.00  0.00    -0.341 N 
ATOM     12  C   UNL A   1      32.698  28.602  24.560  1.00  0.00     0.141 C 
ATOM     13  C   UNL A   1      30.997  27.880  23.205  1.00  0.00     0.228 C 
ATOM     14  C   UNL A   1      32.197  26.980  23.172  1.00  0.00     0.119 C 
ATOM     15  O   UNL A   1      29.936  27.748  22.622  1.00  0.00    -0.274 OA
ATOM     16  C   UNL A   1      32.184  25.605  25.000  1.00  0.00     0.139 C 
ATOM     17  C   UNL A   1      32.032  25.573  22.633  1.00  0.00     0.133 C 
ATOM     18  N   UNL A   1      32.183  24.781  23.812  1.00  0.00    -0.353 N 
BRANCH  11  19
ATOM     19  C   UNL A   1      30.562  30.024  24.443  1.00  0.00     0.116 C 
ATOM     20  C   UNL A   1      31.106  30.845  25.603  1.00  0.00     0.027 C 
ENDBRANCH  11  19
BRANCH  18  21
ATOM     21  C   UNL A   1      32.490  23.445  23.830  1.00  0.00     0.151 A 
ATOM     22  C   UNL A   1      31.969  22.587  22.869  1.00  0.00     0.051 A 
ATOM     23  N   UNL A   1      33.273  22.923  24.797  1.00  0.00    -0.132 NA
ATOM     24  C   UNL A   1      32.237  21.224  22.906  1.00  0.00     0.035 A 
ATOM     25  N   UNL A   1      33.541  21.556  24.855  1.00  0.00    -0.148 NA
ATOM     26  C   UNL A   1      33.042  20.729  23.914  1.00  0.00     0.093 A 
BRANCH  26  27
ATOM     27  C   UNL A   1      33.458  19.328  23.938  1.00  0.00     0.002 A 
ATOM     28  C   UNL A   1      34.596  18.899  24.636  1.00  0.00     0.010 A 
ATOM     29  C   UNL A   1      32.685  18.364  23.264  1.00  0.00     0.010 A 
ATOM     30  C   UNL A   1      34.942  17.544  24.667  1.00  0.00     0.001 A 
ATOM     31  C   UNL A   1      33.035  17.014  23.287  1.00  0.00     0.001 A 
ATOM     32  C   UNL A   1      34.162  16.605  23.991  1.00  0.00     0.000 A 
ENDBRANCH  26  27
ENDBRANCH  18  21
ENDBRANCH   8  10
ENDBRANCH   7   8
ENDBRANCH   6   7
ENDBRANCH   5   6
ENDBRANCH   4   5
ENDBRANCH   3   4
ENDBRANCH   2   3
ENDBRANCH   1   2
BRANCH   1  33
ATOM     33  C   UNL A   1      34.789  32.505  31.249  1.00  0.00     0.188 C 
BRANCH  33  34
ATOM     34  C   UNL A   1      34.284  33.351  32.435  1.00  0.00     0.188 C 
BRANCH  34  35
ATOM     35  O   UNL A   1      34.871  34.636  32.533  1.00  0.00    -0.376 OA
BRANCH  35  36
ATOM     36  C   UNL A   1      35.548  35.013  33.721  1.00  0.00     0.202 C 
BRANCH  36  37
ATOM     37  C   UNL A   1      35.881  33.938  34.768  1.00  0.00     0.261 C 
BRANCH  37  38
ATOM     38  O   UNL A   1      36.350  32.673  34.282  1.00  0.00    -0.460 OA
BRANCH  38  39
ATOM     39  C   UNL A   1      37.446  32.135  34.850  1.00  0.00     0.338 C 
ATOM     40  O   UNL A   1      37.756  32.146  36.026  1.00  0.00    -0.246 OA
BRANCH  39  41
ATOM     41  C   UNL A   1      38.142  31.357  33.804  1.00  0.00     0.060 A 
ATOM     42  C   UNL A   1      38.914  30.249  34.175  1.00  0.00     0.016 A 
ATOM     43  C   UNL A   1      38.042  31.738  32.464  1.00  0.00     0.016 A 
ATOM     44  C   UNL A   1      39.644  29.557  33.210  1.00  0.00     0.010 A 
ATOM     45  C   UNL A   1      38.782  31.052  31.500  1.00  0.00     0.010 A 
ATOM     46  C   UNL A   1      39.626  29.993  31.879  1.00  0.00    -0.014 A 
BRANCH  46  47
ATOM     47  C   UNL A   1      40.657  29.508  30.932  1.00  0.00     0.031 A 
ATOM     48  C   UNL A   1      41.931  30.300  30.806  1.00  0.00     0.074 A 
ATOM     49  C   UNL A   1      40.482  28.387  30.214  1.00  0.00     0.049 A 
ATOM     50  N   UNL A   1      42.958  30.109  30.019  1.00  0.00    -0.248 NA
ATOM     51  C   UNL A   1      42.060  31.471  31.692  1.00  0.00     0.031 C 
ATOM     52  C   UNL A   1      39.322  27.501  30.289  1.00  0.00     0.029 A 
ATOM     53  N   UNL A   1      41.294  27.806  29.273  1.00  0.00    -0.354 N 
ATOM     54  C   UNL A   1      43.846  31.139  30.306  1.00  0.00     0.074 A 
ATOM     55  C   UNL A   1      43.221  31.974  31.307  1.00  0.00     0.031 C 
ATOM     56  C   UNL A   1      39.498  26.484  29.428  1.00  0.00     0.029 A 
ATOM     57  C   UNL A   1      40.761  26.671  28.714  1.00  0.00     0.049 A 
ATOM     58  H   UNL A   1      42.174  28.167  29.022  1.00  0.00     0.167 HD
ATOM     59  C   UNL A   1      45.075  31.369  29.788  1.00  0.00     0.031 A 
ATOM     60  C   UNL A   1      41.233  25.885  27.727  1.00  0.00     0.031 A 
ATOM     61  C   UNL A   1      45.682  30.556  28.769  1.00  0.00     0.049 A 
ATOM     62  C   UNL A   1      42.556  26.219  27.088  1.00  0.00     0.074 A 
ATOM     63  C   UNL A   1      46.921  30.700  28.171  1.00  0.00     0.029 A 
ATOM     64  N   UNL A   1      45.083  29.448  28.188  1.00  0.00    -0.354 N 
ATOM     65  N   UNL A   1      43.395  27.187  27.374  1.00  0.00    -0.248 NA
ATOM     66  C   UNL A   1      43.000  25.343  25.995  1.00  0.00     0.031 C 
ATOM     67  C   UNL A   1      47.044  29.718  27.181  1.00  0.00     0.029 A 
ATOM     68  C   UNL A   1      45.915  28.915  27.218  1.00  0.00     0.049 A 
ATOM     69  H   UNL A   1      44.197  29.093  28.429  1.00  0.00     0.167 HD
ATOM     70  C   UNL A   1      44.482  27.012  26.525  1.00  0.00     0.074 A 
ATOM     71  C   UNL A   1      44.199  25.840  25.722  1.00  0.00     0.031 C 
ATOM     72  C   UNL A   1      45.618  27.748  26.426  1.00  0.00     0.031 A 
BRANCH  59  73
ATOM     73  C   UNL A   1      45.815  32.581  30.289  1.00  0.00    -0.014 A 
ATOM     74  C   UNL A   1      45.694  33.829  29.656  1.00  0.00     0.009 A 
ATOM     75  C   UNL A   1      46.651  32.471  31.411  1.00  0.00     0.009 A 
ATOM     76  C   UNL A   1      46.436  34.925  30.102  1.00  0.00     0.001 A 
ATOM     77  C   UNL A   1      47.363  33.578  31.878  1.00  0.00     0.001 A 
ATOM     78  C   UNL A   1      47.267  34.799  31.214  1.00  0.00     0.000 A 
ENDBRANCH  59  73
BRANCH  60  79
ATOM     79  C   UNL A   1      40.454  24.701  27.279  1.00  0.00    -0.014 A 
ATOM     80  C   UNL A   1      39.288  24.862  26.515  1.00  0.00     0.009 A 
ATOM     81  C   UNL A   1      40.863  23.402  27.623  1.00  0.00     0.009 A 
ATOM     82  C   UNL A   1      38.536  23.752  26.124  1.00  0.00     0.001 A 
ATOM     83  C   UNL A   1      40.127  22.292  27.204  1.00  0.00     0.001 A 
ATOM     84  C   UNL A   1      38.960  22.468  26.463  1.00  0.00     0.000 A 
ENDBRANCH  60  79
BRANCH  72  85
ATOM     85  C   UNL A   1      46.665  27.277  25.452  1.00  0.00    -0.014 A 
ATOM     86  C   UNL A   1      47.434  26.128  25.689  1.00  0.00     0.009 A 
ATOM     87  C   UNL A   1      46.855  27.983  24.252  1.00  0.00     0.009 A 
ATOM     88  C   UNL A   1      48.399  25.720  24.764  1.00  0.00     0.001 A 
ATOM     89  C   UNL A   1      47.793  27.553  23.314  1.00  0.00     0.001 A 
ATOM     90  C   UNL A   1      48.573  26.429  23.576  1.00  0.00     0.000 A 
ENDBRANCH  72  85
ENDBRANCH  46  47
ENDBRANCH  39  41
ENDBRANCH  38  39
ENDBRANCH  37  38
ENDBRANCH  36  37
ENDBRANCH  35  36
ENDBRANCH  34  35
ENDBRANCH  33  34
ENDBRANCH   1  33
TORSDOF 23
ENDMDL
MODEL 2
REMARK VINA RESULT:      -9.3      6.191     13.675
REMARK SMILES CCN1C[C@@]2(C(=O)OCCOCCOCCOCCOC(=O)c3ccc(-c4c5nc(c(-c6ccccc6)c6ccc([nH]6)c(-c6ccccc6)c6nc(c(-c7ccccc7)c7ccc4[nH]7)C=C6)C=C5)cc3)CN(c3ccc(-c4ccccc4)nn3)C[C@H]2C1=O
REMARK SMILES IDX 14 1 13 2 12 3 11 4 10 5 9 6 8 7 6 8 7 9 5 10 3 11 4 12
REMARK SMILES IDX 87 13 86 14 88 15 71 16 85 17 72 18 2 19 1 20 73 21 74 22
REMARK SMILES IDX 84 23 75 24 83 25 76 26 77 27 78 28 82 29 79 30 81 31 80 32
REMARK SMILES IDX 15 33 16 34 17 35 18 36 19 37 20 38 21 39 22 40 23 41 24 42
REMARK SMILES IDX 70 43 25 44 69 45 26 46 27 47 28 48 63 49 29 50 68 51 62 52
REMARK SMILES IDX 64 53 30 54 67 55 61 56 60 57 31 59 53 60 38 61 52 62 39 63
REMARK SMILES IDX 42 64 51 65 65 66 40 67 41 68 50 70 66 71 43 72 32 73 33 74
REMARK SMILES IDX 37 75 34 76 36 77 35 78 54 79 55 80 59 81 56 82 58 83 57 84
REMARK SMILES IDX 44 85 45 86 49 87 46 88 48 89 47 90
REMARK H PARENT 64 58 42 69
REMARK Flexibility Score: inf
ROOT
ATOM      1  O   UNL A   1      45.668  18.782  24.997  1.00  0.00    -0.377 OA
ENDROOT
BRANCH   1   2
ATOM      2  C   UNL A   1      46.426  19.895  24.570  1.00  0.00     0.188 C 
BRANCH   2   3
ATOM      3  C   UNL A   1      45.784  21.282  24.811  1.00  0.00     0.188 C 
BRANCH   3   4
ATOM      4  O   UNL A   1      46.475  22.301  25.524  1.00  0.00    -0.376 OA
BRANCH   4   5
ATOM      5  C   UNL A   1      45.801  23.407  26.129  1.00  0.00     0.202 C 
BRANCH   5   6
ATOM      6  C   UNL A   1      46.396  24.185  27.314  1.00  0.00     0.261 C 
BRANCH   6   7
ATOM      7  O   UNL A   1      47.395  25.071  26.837  1.00  0.00    -0.463 OA
BRANCH   7   8
ATOM      8  C   UNL A   1      48.159  25.800  27.690  1.00  0.00     0.316 C 
ATOM      9  O   UNL A   1      48.522  25.419  28.792  1.00  0.00    -0.251 OA
BRANCH   8  10
ATOM     10  C   UNL A   1      48.468  27.140  26.933  1.00  0.00     0.116 C 
ATOM     11  N   UNL A   1      50.826  26.525  26.660  1.00  0.00    -0.341 N 
ATOM     12  C   UNL A   1      49.514  26.225  26.153  1.00  0.00     0.141 C 
ATOM     13  C   UNL A   1      50.822  27.819  27.150  1.00  0.00     0.228 C 
ATOM     14  C   UNL A   1      49.481  28.341  26.729  1.00  0.00     0.119 C 
ATOM     15  O   UNL A   1      51.718  28.412  27.727  1.00  0.00    -0.274 OA
ATOM     16  C   UNL A   1      47.901  27.753  28.275  1.00  0.00     0.139 C 
ATOM     17  C   UNL A   1      48.986  29.640  27.333  1.00  0.00     0.133 C 
ATOM     18  N   UNL A   1      47.915  29.195  28.165  1.00  0.00    -0.353 N 
BRANCH  11  19
ATOM     19  C   UNL A   1      51.871  25.546  26.917  1.00  0.00     0.116 C 
ATOM     20  C   UNL A   1      52.533  24.961  25.679  1.00  0.00     0.027 C 
ENDBRANCH  11  19
BRANCH  18  21
ATOM     21  C   UNL A   1      46.903  29.988  28.640  1.00  0.00     0.151 A 
ATOM     22  C   UNL A   1      46.518  29.918  29.975  1.00  0.00     0.051 A 
ATOM     23  N   UNL A   1      46.232  30.827  27.824  1.00  0.00    -0.132 NA
ATOM     24  C   UNL A   1      45.464  30.685  30.456  1.00  0.00     0.035 A 
ATOM     25  N   UNL A   1      45.163  31.592  28.289  1.00  0.00    -0.148 NA
ATOM     26  C   UNL A   1      44.801  31.530  29.586  1.00  0.00     0.093 A 
BRANCH  26  27
ATOM     27  C   UNL A   1      43.765  32.448  30.058  1.00  0.00     0.002 A 
ATOM     28  C   UNL A   1      43.493  32.628  31.421  1.00  0.00     0.010 A 
ATOM     29  C   UNL A   1      43.028  33.199  29.124  1.00  0.00     0.010 A 
ATOM     30  C   UNL A   1      42.520  33.543  31.836  1.00  0.00     0.001 A 
ATOM     31  C   UNL A   1      42.051  34.104  29.537  1.00  0.00     0.001 A 
ATOM     32  C   UNL A   1      41.800  34.278  30.894  1.00  0.00     0.000 A 
ENDBRANCH  26  27
ENDBRANCH  18  21
ENDBRANCH   8  10
ENDBRANCH   7   8
ENDBRANCH   6   7
ENDBRANCH   5   6
ENDBRANCH   4   5
ENDBRANCH   3   4
ENDBRANCH   2   3
ENDBRANCH   1   2
BRANCH   1  33
ATOM     33  C   UNL A   1      44.250  18.895  25.028  1.00  0.00     0.188 C 
BRANCH  33  34
ATOM     34  C   UNL A   1      43.426  18.126  26.081  1.00  0.00     0.188 C 
BRANCH  34  35
ATOM     35  O   UNL A   1      42.518  18.927  26.816  1.00  0.00    -0.376 OA
BRANCH  35  36
ATOM     36  C   UNL A   1      41.893  20.036  26.191  1.00  0.00     0.202 C 
BRANCH  36  37
ATOM     37  C   UNL A   1      42.278  21.459  26.628  1.00  0.00     0.261 C 
BRANCH  37  38
ATOM     38  O   UNL A   1      41.588  22.547  25.998  1.00  0.00    -0.460 OA
BRANCH  38  39
ATOM     39  C   UNL A   1      42.303  23.621  25.612  1.00  0.00     0.338 C 
ATOM     40  O   UNL A   1      43.114  23.689  24.709  1.00  0.00    -0.246 OA
BRANCH  39  41
ATOM     41  C   UNL A   1      41.795  24.780  26.377  1.00  0.00     0.060 A 
ATOM     42  C   UNL A   1      42.418  26.025  26.225  1.00  0.00     0.016 A 
ATOM     43  C   UNL A   1      40.718  24.624  27.253  1.00  0.00     0.016 A 
ATOM     44  C   UNL A   1      42.006  27.106  27.003  1.00  0.00     0.010 A 
ATOM     45  C   UNL A   1      40.314  25.704  28.039  1.00  0.00     0.010 A 
ATOM     46  C   UNL A   1      40.992  26.932  27.954  1.00  0.00    -0.014 A 
BRANCH  46  47
ATOM     47  C   UNL A   1      40.798  27.947  29.016  1.00  0.00     0.031 A 
ATOM     48  C   UNL A   1      41.750  27.940  30.182  1.00  0.00     0.074 A 
ATOM     49  C   UNL A   1      39.819  28.863  28.945  1.00  0.00     0.049 A 
ATOM     50  N   UNL A   1      41.761  28.690  31.253  1.00  0.00    -0.248 NA
ATOM     51  C   UNL A   1      42.836  26.946  30.130  1.00  0.00     0.031 C 
ATOM     52  C   UNL A   1      38.872  29.012  27.842  1.00  0.00     0.029 A 
ATOM     53  N   UNL A   1      39.462  29.845  29.834  1.00  0.00    -0.354 N 
ATOM     54  C   UNL A   1      42.845  28.251  32.005  1.00  0.00     0.074 A 
ATOM     55  C   UNL A   1      43.440  27.146  31.289  1.00  0.00     0.031 C 
ATOM     56  C   UNL A   1      38.040  30.030  28.121  1.00  0.00     0.029 A 
ATOM     57  C   UNL A   1      38.371  30.576  29.436  1.00  0.00     0.049 A 
ATOM     58  H   UNL A   1      39.944  30.011  30.677  1.00  0.00     0.167 HD
ATOM     59  C   UNL A   1      43.309  28.729  33.184  1.00  0.00     0.031 A 
ATOM     60  C   UNL A   1      37.707  31.560  30.073  1.00  0.00     0.031 A 
ATOM     61  C   UNL A   1      42.696  29.809  33.910  1.00  0.00     0.049 A 
ATOM     62  C   UNL A   1      38.175  32.005  31.434  1.00  0.00     0.074 A 
ATOM     63  C   UNL A   1      43.083  30.370  35.115  1.00  0.00     0.029 A 
ATOM     64  N   UNL A   1      41.557  30.484  33.500  1.00  0.00    -0.354 N 
ATOM     65  N   UNL A   1      39.208  31.595  32.131  1.00  0.00    -0.248 NA
ATOM     66  C   UNL A   1      37.389  33.059  32.090  1.00  0.00     0.031 C 
ATOM     67  C   UNL A   1      42.138  31.340  35.466  1.00  0.00     0.029 A 
ATOM     68  C   UNL A   1      41.208  31.438  34.441  1.00  0.00     0.049 A 
ATOM     69  H   UNL A   1      41.067  30.310  32.664  1.00  0.00     0.167 HD
ATOM     70  C   UNL A   1      39.218  32.367  33.288  1.00  0.00     0.074 A 
ATOM     71  C   UNL A   1      38.094  33.276  33.191  1.00  0.00     0.031 C 
ATOM     72  C   UNL A   1      40.085  32.335  34.331  1.00  0.00     0.031 A 
BRANCH  59  73
ATOM     73  C   UNL A   1      44.513  28.043  33.775  1.00  0.00    -0.014 A 
ATOM     74  C   UNL A   1      44.383  27.065  34.774  1.00  0.00     0.009 A 
ATOM     75  C   UNL A   1      45.798  28.387  33.329  1.00  0.00     0.009 A 
ATOM     76  C   UNL A   1      45.517  26.486  35.350  1.00  0.00     0.001 A 
ATOM     77  C   UNL A   1      46.928  27.779  33.880  1.00  0.00     0.001 A 
ATOM     78  C   UNL A   1      46.787  26.841  34.901  1.00  0.00     0.000 A 
ENDBRANCH  59  73
BRANCH  60  79
ATOM     79  C   UNL A   1      36.526  32.197  29.433  1.00  0.00    -0.014 A 
ATOM     80  C   UNL A   1      35.227  31.768  29.745  1.00  0.00     0.009 A 
ATOM     81  C   UNL A   1      36.690  33.231  28.496  1.00  0.00     0.009 A 
ATOM     82  C   UNL A   1      34.119  32.343  29.118  1.00  0.00     0.001 A 
ATOM     83  C   UNL A   1      35.579  33.825  27.894  1.00  0.00     0.001 A 
ATOM     84  C   UNL A   1      34.296  33.375  28.198  1.00  0.00     0.000 A 
ENDBRANCH  60  79
BRANCH  72  85
ATOM     85  C   UNL A   1      39.887  33.347  35.428  1.00  0.00    -0.014 A 
ATOM     86  C   UNL A   1      39.113  33.065  36.564  1.00  0.00     0.009 A 
ATOM     87  C   UNL A   1      40.523  34.596  35.334  1.00  0.00     0.009 A 
ATOM     88  C   UNL A   1      38.948  34.028  37.563  1.00  0.00     0.001 A 
ATOM     89  C   UNL A   1      40.386  35.542  36.350  1.00  0.00     0.001 A 
ATOM     90  C   UNL A   1      39.589  35.262  37.458  1.00  0.00     0.000 A 
ENDBRANCH  72  85
ENDBRANCH  46  47
ENDBRANCH  39  41
ENDBRANCH  38  39
ENDBRANCH  37  38
ENDBRANCH  36  37
ENDBRANCH  35  36
ENDBRANCH  34  35
ENDBRANCH  33  34
ENDBRANCH   1  33
TORSDOF 23
ENDMDL
MODEL 3
REMARK VINA RESULT:      -9.0      6.446     14.085
REMARK SMILES CCN1C[C@@]2(C(=O)OCCOCCOCCOCCOC(=O)c3ccc(-c4c5nc(c(-c6ccccc6)c6ccc([nH]6)c(-c6ccccc6)c6nc(c(-c7ccccc7)c7ccc4[nH]7)C=C6)C=C5)cc3)CN(c3ccc(-c4ccccc4)nn3)C[C@H]2C1=O
REMARK SMILES IDX 14 1 13 2 12 3 11 4 10 5 9 6 8 7 6 8 7 9 5 10 3 11 4 12
REMARK SMILES IDX 87 13 86 14 88 15 71 16 85 17 72 18 2 19 1 20 73 21 74 22
REMARK SMILES IDX 84 23 75 24 83 25 76 26 77 27 78 28 82 29 79 30 81 31 80 32
REMARK SMILES IDX 15 33 16 34 17 35 18 36 19 37 20 38 21 39 22 40 23 41 24 42
REMARK SMILES IDX 70 43 25 44 69 45 26 46 27 47 28 48 63 49 29 50 68 51 62 52
REMARK SMILES IDX 64 53 30 54 67 55 61 56 60 57 31 59 53 60 38 61 52 62 39 63
REMARK SMILES IDX 42 64 51 65 65 66 40 67 41 68 50 70 66 71 43 72 32 73 33 74
REMARK SMILES IDX 37 75 34 76 36 77 35 78 54 79 55 80 59 81 56 82 58 83 57 84
REMARK SMILES IDX 44 85 45 86 49 87 46 88 48 89 47 90
REMARK H PARENT 64 58 42 69
REMARK Flexibility Score: inf
ROOT
ATOM      1  O   UNL A   1      45.413  18.874  25.439  1.00  0.00    -0.377 OA
ENDROOT
BRANCH   1   2
ATOM      2  C   UNL A   1      46.284  19.887  24.980  1.00  0.00     0.188 C 
BRANCH   2   3
ATOM      3  C   UNL A   1      45.734  21.331  25.048  1.00  0.00     0.188 C 
BRANCH   3   4
ATOM      4  O   UNL A   1      46.404  22.341  25.793  1.00  0.00    -0.376 OA
BRANCH   4   5
ATOM      5  C   UNL A   1      45.706  23.271  26.626  1.00  0.00     0.202 C 
BRANCH   5   6
ATOM      6  C   UNL A   1      46.393  24.016  27.782  1.00  0.00     0.261 C 
BRANCH   6   7
ATOM      7  O   UNL A   1      47.318  24.950  27.250  1.00  0.00    -0.463 OA
BRANCH   7   8
ATOM      8  C   UNL A   1      48.589  25.034  27.723  1.00  0.00     0.316 C 
ATOM      9  O   UNL A   1      49.540  24.427  27.259  1.00  0.00    -0.251 OA
BRANCH   8  10
ATOM     10  C   UNL A   1      48.528  26.069  28.902  1.00  0.00     0.116 C 
ATOM     11  N   UNL A   1      49.225  27.899  27.426  1.00  0.00    -0.341 N 
ATOM     12  C   UNL A   1      48.093  27.067  27.738  1.00  0.00     0.141 C 
ATOM     13  C   UNL A   1      50.030  27.984  28.547  1.00  0.00     0.228 C 
ATOM     14  C   UNL A   1      49.212  27.311  29.608  1.00  0.00     0.119 C 
ATOM     15  O   UNL A   1      51.113  28.532  28.660  1.00  0.00    -0.274 OA
ATOM     16  C   UNL A   1      49.557  25.051  29.535  1.00  0.00     0.139 C 
ATOM     17  C   UNL A   1      49.881  26.949  30.919  1.00  0.00     0.133 C 
ATOM     18  N   UNL A   1      49.923  25.523  30.851  1.00  0.00    -0.353 N 
BRANCH  11  19
ATOM     19  C   UNL A   1      49.625  28.304  26.087  1.00  0.00     0.116 C 
ATOM     20  C   UNL A   1      49.104  27.425  24.959  1.00  0.00     0.027 C 
ENDBRANCH  11  19
BRANCH  18  21
ATOM     21  C   UNL A   1      50.085  24.687  31.925  1.00  0.00     0.151 A 
ATOM     22  C   UNL A   1      49.430  24.943  33.125  1.00  0.00     0.051 A 
ATOM     23  N   UNL A   1      50.908  23.619  31.861  1.00  0.00    -0.132 NA
ATOM     24  C   UNL A   1      49.623  24.128  34.233  1.00  0.00     0.035 A 
ATOM     25  N   UNL A   1      51.122  22.800  32.968  1.00  0.00    -0.148 NA
ATOM     26  C   UNL A   1      50.476  23.046  34.126  1.00  0.00     0.093 A 
BRANCH  26  27
ATOM     27  C   UNL A   1      50.627  22.084  35.217  1.00  0.00     0.002 A 
ATOM     28  C   UNL A   1      51.429  20.940  35.097  1.00  0.00     0.010 A 
ATOM     29  C   UNL A   1      49.973  22.316  36.441  1.00  0.00     0.010 A 
ATOM     30  C   UNL A   1      51.580  20.062  36.175  1.00  0.00     0.001 A 
ATOM     31  C   UNL A   1      50.115  21.436  37.513  1.00  0.00     0.001 A 
ATOM     32  C   UNL A   1      50.922  20.311  37.380  1.00  0.00     0.000 A 
ENDBRANCH  26  27
ENDBRANCH  18  21
ENDBRANCH   8  10
ENDBRANCH   7   8
ENDBRANCH   6   7
ENDBRANCH   5   6
ENDBRANCH   4   5
ENDBRANCH   3   4
ENDBRANCH   2   3
ENDBRANCH   1   2
BRANCH   1  33
ATOM     33  C   UNL A   1      44.010  19.086  25.344  1.00  0.00     0.188 C 
BRANCH  33  34
ATOM     34  C   UNL A   1      43.039  18.333  26.276  1.00  0.00     0.188 C 
BRANCH  34  35
ATOM     35  O   UNL A   1      42.145  19.167  26.991  1.00  0.00    -0.376 OA
BRANCH  35  36
ATOM     36  C   UNL A   1      41.621  20.331  26.373  1.00  0.00     0.202 C 
BRANCH  36  37
ATOM     37  C   UNL A   1      42.094  21.713  26.851  1.00  0.00     0.261 C 
BRANCH  37  38
ATOM     38  O   UNL A   1      41.385  22.856  26.355  1.00  0.00    -0.460 OA
BRANCH  38  39
ATOM     39  C   UNL A   1      42.098  23.912  25.918  1.00  0.00     0.338 C 
ATOM     40  O   UNL A   1      42.884  23.946  24.992  1.00  0.00    -0.246 OA
BRANCH  39  41
ATOM     41  C   UNL A   1      41.621  25.098  26.661  1.00  0.00     0.060 A 
ATOM     42  C   UNL A   1      42.176  26.352  26.377  1.00  0.00     0.016 A 
ATOM     43  C   UNL A   1      40.641  24.959  27.647  1.00  0.00     0.016 A 
ATOM     44  C   UNL A   1      41.798  27.464  27.127  1.00  0.00     0.010 A 
ATOM     45  C   UNL A   1      40.272  26.071  28.405  1.00  0.00     0.010 A 
ATOM     46  C   UNL A   1      40.888  27.314  28.183  1.00  0.00    -0.014 A 
BRANCH  46  47
ATOM     47  C   UNL A   1      40.758  28.385  29.198  1.00  0.00     0.031 A 
ATOM     48  C   UNL A   1      41.785  28.446  30.297  1.00  0.00     0.074 A 
ATOM     49  C   UNL A   1      39.770  29.293  29.143  1.00  0.00     0.049 A 
ATOM     50  N   UNL A   1      41.862  29.254  31.323  1.00  0.00    -0.248 NA
ATOM     51  C   UNL A   1      42.872  27.454  30.228  1.00  0.00     0.031 C 
ATOM     52  C   UNL A   1      38.752  29.377  28.098  1.00  0.00     0.029 A 
ATOM     53  N   UNL A   1      39.467  30.321  29.998  1.00  0.00    -0.354 N 
ATOM     54  C   UNL A   1      42.996  28.860  32.024  1.00  0.00     0.074 A 
ATOM     55  C   UNL A   1      43.551  27.719  31.332  1.00  0.00     0.031 C 
ATOM     56  C   UNL A   1      37.933  30.407  28.375  1.00  0.00     0.029 A 
ATOM     57  C   UNL A   1      38.346  31.025  29.634  1.00  0.00     0.049 A 
ATOM     58  H   UNL A   1      40.001  30.535  30.797  1.00  0.00     0.167 HD
ATOM     59  C   UNL A   1      43.534  29.404  33.142  1.00  0.00     0.031 A 
ATOM     60  C   UNL A   1      37.719  32.041  30.259  1.00  0.00     0.031 A 
ATOM     61  C   UNL A   1      42.963  30.519  33.847  1.00  0.00     0.049 A 
ATOM     62  C   UNL A   1      38.273  32.561  31.559  1.00  0.00     0.074 A 
ATOM     63  C   UNL A   1      43.424  31.147  34.991  1.00  0.00     0.029 A 
ATOM     64  N   UNL A   1      41.794  31.168  33.477  1.00  0.00    -0.354 N 
ATOM     65  N   UNL A   1      39.353  32.193  32.208  1.00  0.00    -0.248 NA
ATOM     66  C   UNL A   1      37.524  33.648  32.207  1.00  0.00     0.031 C 
ATOM     67  C   UNL A   1      42.497  32.132  35.350  1.00  0.00     0.029 A 
ATOM     68  C   UNL A   1      41.502  32.170  34.386  1.00  0.00     0.049 A 
ATOM     69  H   UNL A   1      41.251  30.947  32.686  1.00  0.00     0.167 HD
ATOM     70  C   UNL A   1      39.434  33.028  33.318  1.00  0.00     0.074 A 
ATOM     71  C   UNL A   1      38.299  33.927  33.246  1.00  0.00     0.031 C 
ATOM     72  C   UNL A   1      40.368  33.056  34.301  1.00  0.00     0.031 A 
BRANCH  59  73
ATOM     73  C   UNL A   1      44.778  28.755  33.688  1.00  0.00    -0.014 A 
ATOM     74  C   UNL A   1      44.713  27.736  34.653  1.00  0.00     0.009 A 
ATOM     75  C   UNL A   1      46.038  29.176  33.235  1.00  0.00     0.009 A 
ATOM     76  C   UNL A   1      45.882  27.192  35.189  1.00  0.00     0.001 A 
ATOM     77  C   UNL A   1      47.205  28.603  33.746  1.00  0.00     0.001 A 
ATOM     78  C   UNL A   1      47.125  27.623  34.734  1.00  0.00     0.000 A 
ENDBRANCH  59  73
BRANCH  60  79
ATOM     79  C   UNL A   1      36.494  32.638  29.664  1.00  0.00    -0.014 A 
ATOM     80  C   UNL A   1      35.230  32.091  29.935  1.00  0.00     0.009 A 
ATOM     81  C   UNL A   1      36.580  33.752  28.814  1.00  0.00     0.009 A 
ATOM     82  C   UNL A   1      34.083  32.630  29.349  1.00  0.00     0.001 A 
ATOM     83  C   UNL A   1      35.429  34.309  28.254  1.00  0.00     0.001 A 
ATOM     84  C   UNL A   1      34.183  33.743  28.514  1.00  0.00     0.000 A 
ENDBRANCH  60  79
BRANCH  72  85
ATOM     85  C   UNL A   1      40.235  34.126  35.351  1.00  0.00    -0.014 A 
ATOM     86  C   UNL A   1      40.826  35.390  35.200  1.00  0.00     0.009 A 
ATOM     87  C   UNL A   1      39.468  33.871  36.501  1.00  0.00     0.009 A 
ATOM     88  C   UNL A   1      40.684  36.360  36.195  1.00  0.00     0.001 A 
ATOM     89  C   UNL A   1      39.298  34.854  37.476  1.00  0.00     0.001 A 
ATOM     90  C   UNL A   1      39.916  36.094  37.328  1.00  0.00     0.000 A 
ENDBRANCH  72  85
ENDBRANCH  46  47
ENDBRANCH  39  41
ENDBRANCH  38  39
ENDBRANCH  37  38
ENDBRANCH  36  37
ENDBRANCH  35  36
ENDBRANCH  34  35
ENDBRANCH  33  34
ENDBRANCH   1  33
TORSDOF 23
ENDMDL
