MODEL 1
REMARK VINA RESULT:     -10.7      0.000      0.000
REMARK SMILES O=C(OCCOCCOCCOCCOC(=O)[C@]1(NC(=O)C2CCN(C(=O)C3CC3)CC2)CCCc2ccccc21)c1ccc(-c2c3nc(c(-c4ccccc4)c4ccc([nH]4)c(-c4ccccc4)c4nc(c(-c5ccccc5)c5ccc2[nH]5)C=C4)C=C3)cc1
REMARK SMILES IDX 10 1 9 2 8 3 7 4 6 5 5 6 4 7 3 8 2 9 1 10 42 11 43 12 89 13
REMARK SMILES IDX 44 14 88 15 45 16 46 17 47 18 82 19 48 20 87 21 81 22 83 23
REMARK SMILES IDX 49 24 86 25 80 26 79 27 50 29 72 30 57 31 71 32 58 33 61 34
REMARK SMILES IDX 70 35 84 36 59 37 60 38 69 40 85 41 62 42 51 43 52 44 56 45
REMARK SMILES IDX 53 46 55 47 54 48 73 49 74 50 78 51 75 52 77 53 76 54 63 55
REMARK SMILES IDX 64 56 68 57 65 58 67 59 66 60 11 61 12 62 13 63 14 64 15 65
REMARK SMILES IDX 16 66 17 67 18 68 33 69 41 70 34 71 36 72 40 73 35 74 37 75
REMARK SMILES IDX 39 76 38 77 19 78 20 79 21 81 22 82 23 83 32 84 24 85 31 86
REMARK SMILES IDX 25 87 26 88 27 89 28 90 29 91 30 92
REMARK H PARENT 83 28 61 39 19 80
REMARK Flexibility Score: inf
ROOT
ATOM      1  C   UNL A   1      27.292  30.029  23.078  1.00  0.00     0.188 C 
ENDROOT
BRANCH   1   2
ATOM      2  O   UNL A   1      27.370  31.232  23.806  1.00  0.00    -0.377 OA
BRANCH   2   3
ATOM      3  C   UNL A   1      28.178  32.259  23.258  1.00  0.00     0.188 C 
BRANCH   3   4
ATOM      4  C   UNL A   1      29.549  32.470  23.899  1.00  0.00     0.188 C 
BRANCH   4   5
ATOM      5  O   UNL A   1      29.693  31.636  25.052  1.00  0.00    -0.376 OA
BRANCH   5   6
ATOM      6  C   UNL A   1      31.024  31.469  25.550  1.00  0.00     0.202 C 
BRANCH   6   7
ATOM      7  C   UNL A   1      31.277  32.160  26.881  1.00  0.00     0.261 C 
BRANCH   7   8
ATOM      8  O   UNL A   1      32.493  32.913  26.897  1.00  0.00    -0.460 OA
BRANCH   8   9
ATOM      9  C   UNL A   1      33.038  33.618  27.918  1.00  0.00     0.338 C 
ATOM     10  O   UNL A   1      32.422  34.612  28.305  1.00  0.00    -0.246 OA
BRANCH   9  11
ATOM     11  C   UNL A   1      34.352  33.318  28.590  1.00  0.00     0.060 A 
ATOM     12  C   UNL A   1      35.625  33.668  28.129  1.00  0.00     0.016 A 
ATOM     13  C   UNL A   1      34.277  32.651  29.829  1.00  0.00     0.016 A 
ATOM     14  C   UNL A   1      36.773  33.394  28.852  1.00  0.00     0.010 A 
ATOM     15  C   UNL A   1      35.428  32.306  30.539  1.00  0.00     0.010 A 
ATOM     16  C   UNL A   1      36.678  32.655  30.023  1.00  0.00    -0.014 A 
BRANCH  16  17
ATOM     17  C   UNL A   1      37.914  31.995  30.458  1.00  0.00     0.031 A 
ATOM     18  C   UNL A   1      38.565  32.548  31.691  1.00  0.00     0.074 A 
ATOM     19  C   UNL A   1      38.285  30.828  29.907  1.00  0.00     0.049 A 
ATOM     20  N   UNL A   1      39.655  32.171  32.298  1.00  0.00    -0.248 NA
ATOM     21  C   UNL A   1      37.865  33.667  32.353  1.00  0.00     0.031 C 
ATOM     22  C   UNL A   1      37.560  30.125  28.847  1.00  0.00     0.029 A 
ATOM     23  N   UNL A   1      39.339  30.011  30.197  1.00  0.00    -0.354 N 
ATOM     24  C   UNL A   1      39.787  33.026  33.385  1.00  0.00     0.074 A 
ATOM     25  C   UNL A   1      38.669  33.937  33.367  1.00  0.00     0.031 C 
ATOM     26  C   UNL A   1      38.196  28.972  28.577  1.00  0.00     0.029 A 
ATOM     27  C   UNL A   1      39.401  28.899  29.396  1.00  0.00     0.049 A 
ATOM     28  H   UNL A   1      39.991  30.201  30.911  1.00  0.00     0.167 HD
ATOM     29  C   UNL A   1      40.774  33.052  34.306  1.00  0.00     0.031 A 
ATOM     30  C   UNL A   1      40.362  27.961  29.319  1.00  0.00     0.031 A 
ATOM     31  C   UNL A   1      41.883  32.143  34.264  1.00  0.00     0.049 A 
ATOM     32  C   UNL A   1      41.539  28.107  30.248  1.00  0.00     0.074 A 
ATOM     33  C   UNL A   1      43.012  32.109  35.057  1.00  0.00     0.029 A 
ATOM     34  N   UNL A   1      41.990  31.098  33.353  1.00  0.00    -0.354 N 
ATOM     35  N   UNL A   1      41.727  28.981  31.213  1.00  0.00    -0.248 NA
ATOM     36  C   UNL A   1      42.638  27.154  30.075  1.00  0.00     0.031 C 
ATOM     37  C   UNL A   1      43.833  31.079  34.582  1.00  0.00     0.029 A 
ATOM     38  C   UNL A   1      43.179  30.425  33.544  1.00  0.00     0.049 A 
ATOM     39  H   UNL A   1      41.316  30.871  32.673  1.00  0.00     0.167 HD
ATOM     40  C   UNL A   1      42.955  28.668  31.777  1.00  0.00     0.074 A 
ATOM     41  C   UNL A   1      43.454  27.511  31.057  1.00  0.00     0.031 C 
ATOM     42  C   UNL A   1      43.619  29.275  32.793  1.00  0.00     0.031 A 
BRANCH  29  43
ATOM     43  C   UNL A   1      40.732  34.163  35.316  1.00  0.00    -0.014 A 
ATOM     44  C   UNL A   1      40.333  33.949  36.646  1.00  0.00     0.009 A 
ATOM     45  C   UNL A   1      41.021  35.472  34.900  1.00  0.00     0.009 A 
ATOM     46  C   UNL A   1      40.179  35.028  37.521  1.00  0.00     0.001 A 
ATOM     47  C   UNL A   1      40.896  36.544  35.785  1.00  0.00     0.001 A 
ATOM     48  C   UNL A   1      40.461  36.324  37.090  1.00  0.00     0.000 A 
ENDBRANCH  29  43
BRANCH  30  49
ATOM     49  C   UNL A   1      40.297  26.883  28.296  1.00  0.00    -0.014 A 
ATOM     50  C   UNL A   1      40.908  27.031  27.042  1.00  0.00     0.009 A 
ATOM     51  C   UNL A   1      39.592  25.696  28.562  1.00  0.00     0.009 A 
ATOM     52  C   UNL A   1      40.788  26.031  26.071  1.00  0.00     0.001 A 
ATOM     53  C   UNL A   1      39.501  24.685  27.603  1.00  0.00     0.001 A 
ATOM     54  C   UNL A   1      40.088  24.858  26.353  1.00  0.00     0.000 A 
ENDBRANCH  30  49
BRANCH  42  55
ATOM     55  C   UNL A   1      44.923  28.659  33.206  1.00  0.00    -0.014 A 
ATOM     56  C   UNL A   1      44.991  27.716  34.241  1.00  0.00     0.009 A 
ATOM     57  C   UNL A   1      46.090  28.996  32.503  1.00  0.00     0.009 A 
ATOM     58  C   UNL A   1      46.214  27.145  34.587  1.00  0.00     0.001 A 
ATOM     59  C   UNL A   1      47.305  28.395  32.827  1.00  0.00     0.001 A 
ATOM     60  C   UNL A   1      47.367  27.479  33.876  1.00  0.00     0.000 A 
ENDBRANCH  42  55
ENDBRANCH  16  17
ENDBRANCH   9  11
ENDBRANCH   8   9
ENDBRANCH   7   8
ENDBRANCH   6   7
ENDBRANCH   5   6
ENDBRANCH   4   5
ENDBRANCH   3   4
ENDBRANCH   2   3
ENDBRANCH   1   2
BRANCH   1  61
ATOM     61  C   UNL A   1      28.041  29.837  21.726  1.00  0.00     0.188 C 
BRANCH  61  62
ATOM     62  O   UNL A   1      29.360  29.332  21.659  1.00  0.00    -0.376 OA
BRANCH  62  63
ATOM     63  C   UNL A   1      29.951  28.843  22.842  1.00  0.00     0.202 C 
BRANCH  63  64
ATOM     64  C   UNL A   1      31.473  28.908  22.981  1.00  0.00     0.261 C 
BRANCH  64  65
ATOM     65  O   UNL A   1      32.194  27.702  22.621  1.00  0.00    -0.461 OA
BRANCH  65  66
ATOM     66  C   UNL A   1      33.301  27.393  23.354  1.00  0.00     0.336 C 
ATOM     67  O   UNL A   1      34.384  27.917  23.103  1.00  0.00    -0.249 OA
BRANCH  66  68
ATOM     68  C   UNL A   1      33.101  26.145  24.373  1.00  0.00     0.164 C 
ATOM     69  C   UNL A   1      32.054  25.023  24.092  1.00  0.00     0.046 C 
ATOM     70  C   UNL A   1      32.687  26.833  25.713  1.00  0.00    -0.008 A 
ATOM     71  C   UNL A   1      30.580  25.386  24.323  1.00  0.00     0.008 C 
ATOM     72  C   UNL A   1      31.360  26.847  26.196  1.00  0.00    -0.042 A 
ATOM     73  C   UNL A   1      33.636  27.660  26.348  1.00  0.00     0.007 A 
ATOM     74  C   UNL A   1      30.315  25.875  25.729  1.00  0.00     0.036 C 
ATOM     75  C   UNL A   1      30.997  27.761  27.199  1.00  0.00     0.004 A 
ATOM     76  C   UNL A   1      33.259  28.570  27.331  1.00  0.00     0.000 A 
ATOM     77  C   UNL A   1      31.934  28.639  27.736  1.00  0.00     0.000 A 
BRANCH  68  78
ATOM     78  N   UNL A   1      34.406  25.432  24.600  1.00  0.00    -0.336 N 
ATOM     79  C   UNL A   1      34.688  24.149  24.983  1.00  0.00     0.224 C 
ATOM     80  H   UNL A   1      35.202  25.992  24.444  1.00  0.00     0.164 HD
ATOM     81  O   UNL A   1      35.669  23.961  25.705  1.00  0.00    -0.275 OA
BRANCH  79  82
ATOM     82  C   UNL A   1      33.904  22.975  24.417  1.00  0.00     0.082 C 
ATOM     83  C   UNL A   1      32.908  22.381  25.431  1.00  0.00     0.035 C 
ATOM     84  C   UNL A   1      34.822  21.942  23.754  1.00  0.00     0.035 C 
ATOM     85  C   UNL A   1      33.500  21.251  26.272  1.00  0.00     0.120 C 
ATOM     86  C   UNL A   1      35.321  20.890  24.727  1.00  0.00     0.120 C 
ATOM     87  N   UNL A   1      34.171  20.296  25.391  1.00  0.00    -0.342 N 
ATOM     88  C   UNL A   1      33.515  19.104  25.087  1.00  0.00     0.225 C 
ATOM     89  O   UNL A   1      32.434  18.828  25.630  1.00  0.00    -0.275 OA
BRANCH  88  90
ATOM     90  C   UNL A   1      34.003  18.080  24.112  1.00  0.00     0.079 C 
ATOM     91  C   UNL A   1      33.758  16.598  24.167  1.00  0.00     0.014 C 
ATOM     92  C   UNL A   1      33.161  17.423  23.054  1.00  0.00     0.014 C 
ENDBRANCH  88  90
ENDBRANCH  79  82
ENDBRANCH  68  78
ENDBRANCH  66  68
ENDBRANCH  65  66
ENDBRANCH  64  65
ENDBRANCH  63  64
ENDBRANCH  62  63
ENDBRANCH  61  62
ENDBRANCH   1  61
TORSDOF 23
ENDMDL
MODEL 2
REMARK VINA RESULT:      -9.9      3.256      8.471
REMARK SMILES O=C(OCCOCCOCCOCCOC(=O)[C@]1(NC(=O)C2CCN(C(=O)C3CC3)CC2)CCCc2ccccc21)c1ccc(-c2c3nc(c(-c4ccccc4)c4ccc([nH]4)c(-c4ccccc4)c4nc(c(-c5ccccc5)c5ccc2[nH]5)C=C4)C=C3)cc1
REMARK SMILES IDX 10 1 9 2 8 3 7 4 6 5 5 6 4 7 3 8 2 9 1 10 42 11 43 12 89 13
REMARK SMILES IDX 44 14 88 15 45 16 46 17 47 18 82 19 48 20 87 21 81 22 83 23
REMARK SMILES IDX 49 24 86 25 80 26 79 27 50 29 72 30 57 31 71 32 58 33 61 34
REMARK SMILES IDX 70 35 84 36 59 37 60 38 69 40 85 41 62 42 51 43 52 44 56 45
REMARK SMILES IDX 53 46 55 47 54 48 73 49 74 50 78 51 75 52 77 53 76 54 63 55
REMARK SMILES IDX 64 56 68 57 65 58 67 59 66 60 11 61 12 62 13 63 14 64 15 65
REMARK SMILES IDX 16 66 17 67 18 68 33 69 41 70 34 71 36 72 40 73 35 74 37 75
REMARK SMILES IDX 39 76 38 77 19 78 20 79 21 81 22 82 23 83 32 84 24 85 31 86
REMARK SMILES IDX 25 87 26 88 27 89 28 90 29 91 30 92
REMARK H PARENT 83 28 61 39 19 80
REMARK Flexibility Score: inf
ROOT
ATOM      1  C   UNL A   1      40.793  21.524  27.230  1.00  0.00     0.188 C 
ENDROOT
BRANCH   1   2
ATOM      2  O   UNL A   1      41.567  20.824  26.284  1.00  0.00    -0.377 OA
BRANCH   2   3
ATOM      3  C   UNL A   1      42.741  21.466  25.819  1.00  0.00     0.188 C 
BRANCH   3   4
ATOM      4  C   UNL A   1      43.565  22.227  26.858  1.00  0.00     0.188 C 
BRANCH   4   5
ATOM      5  O   UNL A   1      43.888  23.535  26.376  1.00  0.00    -0.376 OA
BRANCH   5   6
ATOM      6  C   UNL A   1      43.404  23.865  25.070  1.00  0.00     0.202 C 
BRANCH   6   7
ATOM      7  C   UNL A   1      42.484  25.076  25.041  1.00  0.00     0.261 C 
BRANCH   7   8
ATOM      8  O   UNL A   1      43.185  26.312  25.208  1.00  0.00    -0.460 OA
BRANCH   8   9
ATOM      9  C   UNL A   1      42.698  27.512  25.609  1.00  0.00     0.338 C 
ATOM     10  O   UNL A   1      42.324  28.289  24.729  1.00  0.00    -0.246 OA
BRANCH   9  11
ATOM     11  C   UNL A   1      42.617  27.996  27.033  1.00  0.00     0.060 A 
ATOM     12  C   UNL A   1      41.969  27.360  28.096  1.00  0.00     0.016 A 
ATOM     13  C   UNL A   1      43.301  29.194  27.319  1.00  0.00     0.016 A 
ATOM     14  C   UNL A   1      42.000  27.862  29.385  1.00  0.00     0.010 A 
ATOM     15  C   UNL A   1      43.287  29.750  28.601  1.00  0.00     0.010 A 
ATOM     16  C   UNL A   1      42.602  29.090  29.623  1.00  0.00    -0.014 A 
BRANCH  16  17
ATOM     17  C   UNL A   1      42.184  29.775  30.851  1.00  0.00     0.031 A 
ATOM     18  C   UNL A   1      40.854  30.469  30.805  1.00  0.00     0.074 A 
ATOM     19  C   UNL A   1      42.857  29.579  31.996  1.00  0.00     0.049 A 
ATOM     20  N   UNL A   1      40.239  31.150  31.729  1.00  0.00    -0.248 NA
ATOM     21  C   UNL A   1      40.097  30.346  29.543  1.00  0.00     0.031 C 
ATOM     22  C   UNL A   1      44.039  28.727  32.147  1.00  0.00     0.029 A 
ATOM     23  N   UNL A   1      42.613  30.047  33.255  1.00  0.00    -0.354 N 
ATOM     24  C   UNL A   1      39.045  31.562  31.150  1.00  0.00     0.074 A 
ATOM     25  C   UNL A   1      39.012  31.055  29.801  1.00  0.00     0.031 C 
ATOM     26  C   UNL A   1      44.416  28.733  33.436  1.00  0.00     0.029 A 
ATOM     27  C   UNL A   1      43.544  29.639  34.176  1.00  0.00     0.049 A 
ATOM     28  H   UNL A   1      41.844  30.620  33.479  1.00  0.00     0.167 HD
ATOM     29  C   UNL A   1      38.072  32.319  31.703  1.00  0.00     0.031 A 
ATOM     30  C   UNL A   1      43.684  30.010  35.461  1.00  0.00     0.031 A 
ATOM     31  C   UNL A   1      38.165  32.827  33.041  1.00  0.00     0.049 A 
ATOM     32  C   UNL A   1      42.677  30.988  36.007  1.00  0.00     0.074 A 
ATOM     33  C   UNL A   1      37.319  33.691  33.706  1.00  0.00     0.029 A 
ATOM     34  N   UNL A   1      39.194  32.504  33.918  1.00  0.00    -0.354 N 
ATOM     35  N   UNL A   1      41.599  31.473  35.430  1.00  0.00    -0.248 NA
ATOM     36  C   UNL A   1      42.906  31.481  37.368  1.00  0.00     0.031 C 
ATOM     37  C   UNL A   1      37.873  33.940  34.967  1.00  0.00     0.029 A 
ATOM     38  C   UNL A   1      39.022  33.172  35.113  1.00  0.00     0.049 A 
ATOM     39  H   UNL A   1      39.936  31.890  33.717  1.00  0.00     0.167 HD
ATOM     40  C   UNL A   1      41.008  32.309  36.365  1.00  0.00     0.074 A 
ATOM     41  C   UNL A   1      41.841  32.247  37.553  1.00  0.00     0.031 C 
ATOM     42  C   UNL A   1      39.886  33.065  36.263  1.00  0.00     0.031 A 
BRANCH  29  43
ATOM     43  C   UNL A   1      36.933  32.719  30.809  1.00  0.00    -0.014 A 
ATOM     44  C   UNL A   1      37.077  33.690  29.804  1.00  0.00     0.009 A 
ATOM     45  C   UNL A   1      35.663  32.164  31.035  1.00  0.00     0.009 A 
ATOM     46  C   UNL A   1      35.965  34.131  29.081  1.00  0.00     0.001 A 
ATOM     47  C   UNL A   1      34.560  32.585  30.290  1.00  0.00     0.001 A 
ATOM     48  C   UNL A   1      34.709  33.577  29.324  1.00  0.00     0.000 A 
ENDBRANCH  29  43
BRANCH  30  49
ATOM     49  C   UNL A   1      44.839  29.536  36.271  1.00  0.00    -0.014 A 
ATOM     50  C   UNL A   1      44.743  28.392  37.076  1.00  0.00     0.009 A 
ATOM     51  C   UNL A   1      46.049  30.252  36.265  1.00  0.00     0.009 A 
ATOM     52  C   UNL A   1      45.820  27.993  37.876  1.00  0.00     0.001 A 
ATOM     53  C   UNL A   1      47.133  29.835  37.039  1.00  0.00     0.001 A 
ATOM     54  C   UNL A   1      47.015  28.713  37.854  1.00  0.00     0.000 A 
ENDBRANCH  30  49
BRANCH  42  55
ATOM     55  C   UNL A   1      39.481  33.834  37.485  1.00  0.00    -0.014 A 
ATOM     56  C   UNL A   1      38.711  33.244  38.498  1.00  0.00     0.009 A 
ATOM     57  C   UNL A   1      39.928  35.156  37.641  1.00  0.00     0.009 A 
ATOM     58  C   UNL A   1      38.367  33.978  39.632  1.00  0.00     0.001 A 
ATOM     59  C   UNL A   1      39.615  35.873  38.794  1.00  0.00     0.001 A 
ATOM     60  C   UNL A   1      38.825  35.287  39.782  1.00  0.00     0.000 A 
ENDBRANCH  42  55
ENDBRANCH  16  17
ENDBRANCH   9  11
ENDBRANCH   8   9
ENDBRANCH   7   8
ENDBRANCH   6   7
ENDBRANCH   5   6
ENDBRANCH   4   5
ENDBRANCH   3   4
ENDBRANCH   2   3
ENDBRANCH   1   2
BRANCH   1  61
ATOM     61  C   UNL A   1      39.798  22.646  26.810  1.00  0.00     0.188 C 
BRANCH  61  62
ATOM     62  O   UNL A   1      38.567  22.364  26.173  1.00  0.00    -0.376 OA
BRANCH  62  63
ATOM     63  C   UNL A   1      37.779  23.446  25.730  1.00  0.00     0.202 C 
BRANCH  63  64
ATOM     64  C   UNL A   1      36.256  23.315  25.794  1.00  0.00     0.261 C 
BRANCH  64  65
ATOM     65  O   UNL A   1      35.502  24.375  25.152  1.00  0.00    -0.461 OA
BRANCH  65  66
ATOM     66  C   UNL A   1      34.837  24.064  24.004  1.00  0.00     0.336 C 
ATOM     67  O   UNL A   1      35.455  23.754  22.987  1.00  0.00    -0.249 OA
BRANCH  66  68
ATOM     68  C   UNL A   1      33.244  24.369  24.050  1.00  0.00     0.164 C 
ATOM     69  C   UNL A   1      32.348  24.222  22.780  1.00  0.00     0.046 C 
ATOM     70  C   UNL A   1      33.172  25.866  24.491  1.00  0.00    -0.008 A 
ATOM     71  C   UNL A   1      32.479  25.321  21.718  1.00  0.00     0.008 C 
ATOM     72  C   UNL A   1      32.884  26.921  23.597  1.00  0.00    -0.042 A 
ATOM     73  C   UNL A   1      33.634  26.194  25.782  1.00  0.00     0.007 A 
ATOM     74  C   UNL A   1      32.209  26.702  22.272  1.00  0.00     0.036 C 
ATOM     75  C   UNL A   1      33.176  28.243  23.968  1.00  0.00     0.004 A 
ATOM     76  C   UNL A   1      33.931  27.507  26.130  1.00  0.00     0.000 A 
ATOM     77  C   UNL A   1      33.728  28.529  25.214  1.00  0.00     0.000 A 
BRANCH  68  78
ATOM     78  N   UNL A   1      32.577  23.539  25.113  1.00  0.00    -0.336 N 
ATOM     79  C   UNL A   1      32.268  22.207  25.168  1.00  0.00     0.224 C 
ATOM     80  H   UNL A   1      32.315  24.047  25.915  1.00  0.00     0.164 HD
ATOM     81  O   UNL A   1      31.229  21.875  25.741  1.00  0.00    -0.275 OA
BRANCH  79  82
ATOM     82  C   UNL A   1      33.248  21.157  24.666  1.00  0.00     0.082 C 
ATOM     83  C   UNL A   1      33.013  20.781  23.191  1.00  0.00     0.035 C 
ATOM     84  C   UNL A   1      33.336  19.958  25.617  1.00  0.00     0.035 C 
ATOM     85  C   UNL A   1      32.054  19.604  23.010  1.00  0.00     0.120 C 
ATOM     86  C   UNL A   1      32.317  18.880  25.299  1.00  0.00     0.120 C 
ATOM     87  N   UNL A   1      32.457  18.514  23.897  1.00  0.00    -0.342 N 
ATOM     88  C   UNL A   1      33.150  17.437  23.349  1.00  0.00     0.225 C 
ATOM     89  O   UNL A   1      33.331  17.368  22.123  1.00  0.00    -0.275 OA
BRANCH  88  90
ATOM     90  C   UNL A   1      33.737  16.305  24.131  1.00  0.00     0.079 C 
ATOM     91  C   UNL A   1      34.935  16.365  25.037  1.00  0.00     0.014 C 
ATOM     92  C   UNL A   1      33.565  16.096  25.610  1.00  0.00     0.014 C 
ENDBRANCH  88  90
ENDBRANCH  79  82
ENDBRANCH  68  78
ENDBRANCH  66  68
ENDBRANCH  65  66
ENDBRANCH  64  65
ENDBRANCH  63  64
ENDBRANCH  62  63
ENDBRANCH  61  62
ENDBRANCH   1  61
TORSDOF 23
ENDMDL
MODEL 3
REMARK VINA RESULT:      -9.8      2.979      9.489
REMARK SMILES O=C(OCCOCCOCCOCCOC(=O)[C@]1(NC(=O)C2CCN(C(=O)C3CC3)CC2)CCCc2ccccc21)c1ccc(-c2c3nc(c(-c4ccccc4)c4ccc([nH]4)c(-c4ccccc4)c4nc(c(-c5ccccc5)c5ccc2[nH]5)C=C4)C=C3)cc1
REMARK SMILES IDX 10 1 9 2 8 3 7 4 6 5 5 6 4 7 3 8 2 9 1 10 42 11 43 12 89 13
REMARK SMILES IDX 44 14 88 15 45 16 46 17 47 18 82 19 48 20 87 21 81 22 83 23
REMARK SMILES IDX 49 24 86 25 80 26 79 27 50 29 72 30 57 31 71 32 58 33 61 34
REMARK SMILES IDX 70 35 84 36 59 37 60 38 69 40 85 41 62 42 51 43 52 44 56 45
REMARK SMILES IDX 53 46 55 47 54 48 73 49 74 50 78 51 75 52 77 53 76 54 63 55
REMARK SMILES IDX 64 56 68 57 65 58 67 59 66 60 11 61 12 62 13 63 14 64 15 65
REMARK SMILES IDX 16 66 17 67 18 68 33 69 41 70 34 71 36 72 40 73 35 74 37 75
REMARK SMILES IDX 39 76 38 77 19 78 20 79 21 81 22 82 23 83 32 84 24 85 31 86
REMARK SMILES IDX 25 87 26 88 27 89 28 90 29 91 30 92
REMARK H PARENT 83 28 61 39 19 80
REMARK Flexibility Score: inf
ROOT
ATOM      1  C   UNL A   1      40.623  22.684  28.001  1.00  0.00     0.188 C 
ENDROOT
BRANCH   1   2
ATOM      2  O   UNL A   1      41.144  21.872  26.975  1.00  0.00    -0.377 OA
BRANCH   2   3
ATOM      3  C   UNL A   1      42.467  22.149  26.551  1.00  0.00     0.188 C 
BRANCH   3   4
ATOM      4  C   UNL A   1      43.036  21.257  25.449  1.00  0.00     0.188 C 
BRANCH   4   5
ATOM      5  O   UNL A   1      44.466  21.301  25.461  1.00  0.00    -0.376 OA
BRANCH   5   6
ATOM      6  C   UNL A   1      45.092  21.814  24.281  1.00  0.00     0.202 C 
BRANCH   6   7
ATOM      7  C   UNL A   1      45.772  23.161  24.478  1.00  0.00     0.261 C 
BRANCH   7   8
ATOM      8  O   UNL A   1      44.842  24.238  24.625  1.00  0.00    -0.460 OA
BRANCH   8   9
ATOM      9  C   UNL A   1      45.071  25.497  25.072  1.00  0.00     0.338 C 
ATOM     10  O   UNL A   1      46.063  26.078  24.630  1.00  0.00    -0.246 OA
BRANCH   9  11
ATOM     11  C   UNL A   1      44.244  26.229  26.096  1.00  0.00     0.060 A 
ATOM     12  C   UNL A   1      44.279  27.599  26.373  1.00  0.00     0.016 A 
ATOM     13  C   UNL A   1      43.317  25.450  26.816  1.00  0.00     0.016 A 
ATOM     14  C   UNL A   1      43.435  28.186  27.299  1.00  0.00     0.010 A 
ATOM     15  C   UNL A   1      42.504  26.014  27.802  1.00  0.00     0.010 A 
ATOM     16  C   UNL A   1      42.596  27.384  28.059  1.00  0.00    -0.014 A 
BRANCH  16  17
ATOM     17  C   UNL A   1      42.116  27.975  29.313  1.00  0.00     0.031 A 
ATOM     18  C   UNL A   1      40.820  28.728  29.240  1.00  0.00     0.074 A 
ATOM     19  C   UNL A   1      42.697  27.650  30.478  1.00  0.00     0.049 A 
ATOM     20  N   UNL A   1      40.165  29.351  30.178  1.00  0.00    -0.248 NA
ATOM     21  C   UNL A   1      40.152  28.751  27.923  1.00  0.00     0.031 C 
ATOM     22  C   UNL A   1      43.832  26.736  30.632  1.00  0.00     0.029 A 
ATOM     23  N   UNL A   1      42.381  28.014  31.755  1.00  0.00    -0.354 N 
ATOM     24  C   UNL A   1      39.034  29.866  29.559  1.00  0.00     0.074 A 
ATOM     25  C   UNL A   1      39.079  29.482  28.170  1.00  0.00     0.031 C 
ATOM     26  C   UNL A   1      44.115  26.612  31.939  1.00  0.00     0.029 A 
ATOM     27  C   UNL A   1      43.227  27.486  32.697  1.00  0.00     0.049 A 
ATOM     28  H   UNL A   1      41.620  28.599  31.978  1.00  0.00     0.167 HD
ATOM     29  C   UNL A   1      38.052  30.613  30.110  1.00  0.00     0.031 A 
ATOM     30  C   UNL A   1      43.287  27.736  34.017  1.00  0.00     0.031 A 
ATOM     31  C   UNL A   1      38.067  30.996  31.493  1.00  0.00     0.049 A 
ATOM     32  C   UNL A   1      42.281  28.705  34.580  1.00  0.00     0.074 A 
ATOM     33  C   UNL A   1      37.208  31.834  32.174  1.00  0.00     0.029 A 
ATOM     34  N   UNL A   1      39.018  30.552  32.405  1.00  0.00    -0.354 N 
ATOM     35  N   UNL A   1      41.267  29.286  33.977  1.00  0.00    -0.248 NA
ATOM     36  C   UNL A   1      42.430  29.065  35.993  1.00  0.00     0.031 C 
ATOM     37  C   UNL A   1      37.679  31.946  33.488  1.00  0.00     0.029 A 
ATOM     38  C   UNL A   1      38.785  31.118  33.641  1.00  0.00     0.049 A 
ATOM     39  H   UNL A   1      39.749  29.926  32.199  1.00  0.00     0.167 HD
ATOM     40  C   UNL A   1      40.642  30.062  34.943  1.00  0.00     0.074 A 
ATOM     41  C   UNL A   1      41.384  29.858  36.174  1.00  0.00     0.031 C 
ATOM     42  C   UNL A   1      39.560  30.872  34.833  1.00  0.00     0.031 A 
BRANCH  29  43
ATOM     43  C   UNL A   1      36.996  31.139  29.180  1.00  0.00    -0.014 A 
ATOM     44  C   UNL A   1      36.974  32.479  28.758  1.00  0.00     0.009 A 
ATOM     45  C   UNL A   1      35.952  30.289  28.784  1.00  0.00     0.009 A 
ATOM     46  C   UNL A   1      35.904  32.965  28.001  1.00  0.00     0.001 A 
ATOM     47  C   UNL A   1      34.900  30.769  28.003  1.00  0.00     0.001 A 
ATOM     48  C   UNL A   1      34.870  32.110  27.623  1.00  0.00     0.000 A 
ENDBRANCH  29  43
BRANCH  30  49
ATOM     49  C   UNL A   1      44.362  27.142  34.858  1.00  0.00    -0.014 A 
ATOM     50  C   UNL A   1      45.550  27.839  35.122  1.00  0.00     0.009 A 
ATOM     51  C   UNL A   1      44.215  25.847  35.385  1.00  0.00     0.009 A 
ATOM     52  C   UNL A   1      46.574  27.243  35.866  1.00  0.00     0.001 A 
ATOM     53  C   UNL A   1      45.224  25.266  36.155  1.00  0.00     0.001 A 
ATOM     54  C   UNL A   1      46.409  25.959  36.385  1.00  0.00     0.000 A 
ENDBRANCH  30  49
BRANCH  42  55
ATOM     55  C   UNL A   1      39.096  31.547  36.090  1.00  0.00    -0.014 A 
ATOM     56  C   UNL A   1      39.648  32.766  36.511  1.00  0.00     0.009 A 
ATOM     57  C   UNL A   1      38.050  30.973  36.829  1.00  0.00     0.009 A 
ATOM     58  C   UNL A   1      39.181  33.381  37.671  1.00  0.00     0.001 A 
ATOM     59  C   UNL A   1      37.560  31.609  37.967  1.00  0.00     0.001 A 
ATOM     60  C   UNL A   1      38.134  32.805  38.393  1.00  0.00     0.000 A 
ENDBRANCH  42  55
ENDBRANCH  16  17
ENDBRANCH   9  11
ENDBRANCH   8   9
ENDBRANCH   7   8
ENDBRANCH   6   7
ENDBRANCH   5   6
ENDBRANCH   4   5
ENDBRANCH   3   4
ENDBRANCH   2   3
ENDBRANCH   1   2
BRANCH   1  61
ATOM     61  C   UNL A   1      39.671  23.880  27.700  1.00  0.00     0.188 C 
BRANCH  61  62
ATOM     62  O   UNL A   1      39.191  24.152  26.398  1.00  0.00    -0.376 OA
BRANCH  62  63
ATOM     63  C   UNL A   1      37.922  23.656  26.034  1.00  0.00     0.202 C 
BRANCH  63  64
ATOM     64  C   UNL A   1      37.835  22.272  25.390  1.00  0.00     0.261 C 
BRANCH  64  65
ATOM     65  O   UNL A   1      36.527  21.882  24.899  1.00  0.00    -0.461 OA
BRANCH  65  66
ATOM     66  C   UNL A   1      36.049  22.537  23.803  1.00  0.00     0.336 C 
ATOM     67  O   UNL A   1      36.712  22.593  22.770  1.00  0.00    -0.249 OA
BRANCH  66  68
ATOM     68  C   UNL A   1      34.698  23.395  24.074  1.00  0.00     0.164 C 
ATOM     69  C   UNL A   1      34.577  24.363  25.293  1.00  0.00     0.046 C 
ATOM     70  C   UNL A   1      33.599  22.299  24.247  1.00  0.00    -0.008 A 
ATOM     71  C   UNL A   1      34.381  23.710  26.668  1.00  0.00     0.008 C 
ATOM     72  C   UNL A   1      33.068  21.930  25.502  1.00  0.00    -0.042 A 
ATOM     73  C   UNL A   1      33.291  21.496  23.130  1.00  0.00     0.007 A 
ATOM     74  C   UNL A   1      33.168  22.808  26.717  1.00  0.00     0.036 C 
ATOM     75  C   UNL A   1      32.359  20.724  25.627  1.00  0.00     0.004 A 
ATOM     76  C   UNL A   1      32.599  20.297  23.273  1.00  0.00     0.000 A 
ATOM     77  C   UNL A   1      32.158  19.898  24.526  1.00  0.00     0.000 A 
BRANCH  68  78
ATOM     78  N   UNL A   1      34.346  24.221  22.866  1.00  0.00    -0.336 N 
ATOM     79  C   UNL A   1      33.179  24.826  22.486  1.00  0.00     0.224 C 
ATOM     80  H   UNL A   1      35.091  24.349  22.235  1.00  0.00     0.164 HD
ATOM     81  O   UNL A   1      32.910  24.865  21.284  1.00  0.00    -0.275 OA
BRANCH  79  82
ATOM     82  C   UNL A   1      32.312  25.557  23.500  1.00  0.00     0.082 C 
ATOM     83  C   UNL A   1      30.938  25.957  22.930  1.00  0.00     0.035 C 
ATOM     84  C   UNL A   1      33.071  26.703  24.179  1.00  0.00     0.035 C 
ATOM     85  C   UNL A   1      30.924  27.347  22.296  1.00  0.00     0.120 C 
ATOM     86  C   UNL A   1      32.954  28.013  23.423  1.00  0.00     0.120 C 
ATOM     87  N   UNL A   1      31.543  28.301  23.216  1.00  0.00    -0.342 N 
ATOM     88  C   UNL A   1      30.711  29.136  23.960  1.00  0.00     0.225 C 
ATOM     89  O   UNL A   1      29.485  29.131  23.769  1.00  0.00    -0.275 OA
BRANCH  88  90
ATOM     90  C   UNL A   1      31.172  30.077  25.027  1.00  0.00     0.079 C 
ATOM     91  C   UNL A   1      31.427  29.744  26.471  1.00  0.00     0.014 C 
ATOM     92  C   UNL A   1      32.571  30.146  25.573  1.00  0.00     0.014 C 
ENDBRANCH  88  90
ENDBRANCH  79  82
ENDBRANCH  68  78
ENDBRANCH  66  68
ENDBRANCH  65  66
ENDBRANCH  64  65
ENDBRANCH  63  64
ENDBRANCH  62  63
ENDBRANCH  61  62
ENDBRANCH   1  61
TORSDOF 23
ENDMDL
