MODEL 1
REMARK VINA RESULT:      -8.2      0.000      0.000
REMARK SMILES C=CCN(CC(=O)OCCOCCOCCOCCOC(=O)c1ccc(-c2c3nc(c(-c4ccccc4)c4ccc([nH]4)c(-c4ccccc4)c4nc(c(-c5ccccc5)c5ccc2[nH]5)C=C4)C=C3)cc1)C(=O)c1cn(C2C[NH2+]C2)nn1
REMARK SMILES IDX 13 1 12 2 11 3 10 4 9 5 8 6 6 7 7 8 5 9 4 10 3 11 2 12 1 13
REMARK SMILES IDX 71 14 72 15 73 16 74 17 81 18 75 19 80 20 76 21 77 22 79 23
REMARK SMILES IDX 78 24 14 27 15 28 16 29 17 30 18 31 19 32 20 33 21 34 22 35
REMARK SMILES IDX 23 36 24 37 70 38 25 39 69 40 26 41 27 42 28 43 63 44 29 45
REMARK SMILES IDX 68 46 62 47 64 48 30 49 67 50 61 51 60 52 31 54 53 55 38 56
REMARK SMILES IDX 52 57 39 58 42 59 51 60 65 61 40 62 41 63 50 65 66 66 43 67
REMARK SMILES IDX 32 68 33 69 37 70 34 71 36 72 35 73 54 74 55 75 59 76 56 77
REMARK SMILES IDX 58 78 57 79 44 80 45 81 49 82 46 83 48 84 47 85
REMARK H PARENT 78 25 78 26 64 53 42 64
REMARK Flexibility Score: inf
ROOT
ATOM      1  C   UNL A   1      34.897  32.592  28.055  1.00  0.00     0.188 C 
ENDROOT
BRANCH   1   2
ATOM      2  C   UNL A   1      34.144  31.266  27.890  1.00  0.00     0.188 C 
BRANCH   2   3
ATOM      3  O   UNL A   1      34.877  30.384  27.047  1.00  0.00    -0.376 OA
BRANCH   3   4
ATOM      4  C   UNL A   1      34.598  29.005  27.262  1.00  0.00     0.202 C 
BRANCH   4   5
ATOM      5  C   UNL A   1      33.244  28.525  26.703  1.00  0.00     0.261 C 
BRANCH   5   6
ATOM      6  O   UNL A   1      33.128  28.649  25.253  1.00  0.00    -0.462 OA
BRANCH   6   7
ATOM      7  C   UNL A   1      32.081  29.331  24.737  1.00  0.00     0.325 C 
ATOM      8  O   UNL A   1      31.516  30.237  25.339  1.00  0.00    -0.250 OA
BRANCH   7   9
ATOM      9  C   UNL A   1      31.680  28.917  23.285  1.00  0.00     0.242 C 
BRANCH   9  10
ATOM     10  N   UNL A   1      30.806  27.775  22.905  1.00  0.00    -0.322 N 
BRANCH  10  11
ATOM     11  C   UNL A   1      29.359  27.936  23.080  1.00  0.00     0.147 C 
BRANCH  11  12
ATOM     12  C   UNL A   1      28.884  29.276  22.594  1.00  0.00    -0.014 C 
ATOM     13  C   UNL A   1      27.748  29.856  23.014  1.00  0.00     0.006 C 
ENDBRANCH  11  12
ENDBRANCH  10  11
BRANCH  10  14
ATOM     14  C   UNL A   1      31.258  26.529  22.400  1.00  0.00     0.276 C 
ATOM     15  O   UNL A   1      31.418  26.332  21.196  1.00  0.00    -0.267 OA
BRANCH  14  16
ATOM     16  C   UNL A   1      31.372  25.393  23.305  1.00  0.00     0.170 A 
ATOM     17  C   UNL A   1      32.219  25.331  24.390  1.00  0.00     0.145 A 
ATOM     18  N   UNL A   1      30.589  24.269  23.304  1.00  0.00    -0.125 NA
ATOM     19  N   UNL A   1      32.015  24.100  24.930  1.00  0.00    -0.237 N 
ATOM     20  N   UNL A   1      30.967  23.500  24.327  1.00  0.00    -0.066 NA
BRANCH  19  21
ATOM     21  C   UNL A   1      32.903  23.381  25.801  1.00  0.00     0.218 C 
ATOM     22  C   UNL A   1      32.447  21.904  25.852  1.00  0.00     0.294 C 
ATOM     23  C   UNL A   1      34.223  22.810  25.249  1.00  0.00     0.294 C 
ATOM     24  N   UNL A   1      33.855  21.481  25.785  1.00  0.00    -0.342 N 
ATOM     25  H   UNL A   1      34.029  20.710  25.141  1.00  0.00     0.346 HD
ATOM     26  H   UNL A   1      34.324  21.108  26.610  1.00  0.00     0.346 HD
ENDBRANCH  19  21
ENDBRANCH  14  16
ENDBRANCH  10  14
ENDBRANCH   9  10
ENDBRANCH   7   9
ENDBRANCH   6   7
ENDBRANCH   5   6
ENDBRANCH   4   5
ENDBRANCH   3   4
ENDBRANCH   2   3
ENDBRANCH   1   2
BRANCH   1  27
ATOM     27  O   UNL A   1      34.172  33.797  27.948  1.00  0.00    -0.377 OA
BRANCH  27  28
ATOM     28  C   UNL A   1      33.905  34.452  29.157  1.00  0.00     0.188 C 
BRANCH  28  29
ATOM     29  C   UNL A   1      34.571  33.816  30.391  1.00  0.00     0.188 C 
BRANCH  29  30
ATOM     30  O   UNL A   1      34.851  34.559  31.579  1.00  0.00    -0.376 OA
BRANCH  30  31
ATOM     31  C   UNL A   1      36.079  34.473  32.290  1.00  0.00     0.202 C 
BRANCH  31  32
ATOM     32  C   UNL A   1      36.524  33.132  32.851  1.00  0.00     0.261 C 
BRANCH  32  33
ATOM     33  O   UNL A   1      37.414  32.466  31.961  1.00  0.00    -0.460 OA
BRANCH  33  34
ATOM     34  C   UNL A   1      37.065  31.196  31.644  1.00  0.00     0.338 C 
ATOM     35  O   UNL A   1      35.979  30.679  31.716  1.00  0.00    -0.246 OA
BRANCH  34  36
ATOM     36  C   UNL A   1      38.230  30.595  30.965  1.00  0.00     0.060 A 
ATOM     37  C   UNL A   1      39.145  29.880  31.754  1.00  0.00     0.016 A 
ATOM     38  C   UNL A   1      38.349  30.639  29.574  1.00  0.00     0.016 A 
ATOM     39  C   UNL A   1      40.186  29.193  31.147  1.00  0.00     0.010 A 
ATOM     40  C   UNL A   1      39.423  30.002  28.971  1.00  0.00     0.010 A 
ATOM     41  C   UNL A   1      40.354  29.310  29.763  1.00  0.00    -0.014 A 
BRANCH  41  42
ATOM     42  C   UNL A   1      41.671  29.016  29.180  1.00  0.00     0.031 A 
ATOM     43  C   UNL A   1      41.876  27.616  28.682  1.00  0.00     0.074 A 
ATOM     44  C   UNL A   1      42.640  29.940  29.142  1.00  0.00     0.049 A 
ATOM     45  N   UNL A   1      42.962  27.045  28.241  1.00  0.00    -0.248 NA
ATOM     46  C   UNL A   1      40.691  26.737  28.703  1.00  0.00     0.031 C 
ATOM     47  C   UNL A   1      42.503  31.338  29.549  1.00  0.00     0.029 A 
ATOM     48  N   UNL A   1      43.945  29.824  28.750  1.00  0.00    -0.354 N 
ATOM     49  C   UNL A   1      42.593  25.736  27.954  1.00  0.00     0.074 A 
ATOM     50  C   UNL A   1      41.197  25.590  28.287  1.00  0.00     0.031 C 
ATOM     51  C   UNL A   1      43.691  31.950  29.397  1.00  0.00     0.029 A 
ATOM     52  C   UNL A   1      44.672  30.974  28.929  1.00  0.00     0.049 A 
ATOM     53  H   UNL A   1      44.326  28.996  28.377  1.00  0.00     0.167 HD
ATOM     54  C   UNL A   1      43.363  24.740  27.464  1.00  0.00     0.031 A 
ATOM     55  C   UNL A   1      45.989  31.185  28.756  1.00  0.00     0.031 A 
ATOM     56  C   UNL A   1      44.759  24.900  27.181  1.00  0.00     0.049 A 
ATOM     57  C   UNL A   1      46.849  30.033  28.304  1.00  0.00     0.074 A 
ATOM     58  C   UNL A   1      45.649  23.975  26.673  1.00  0.00     0.029 A 
ATOM     59  N   UNL A   1      45.471  26.071  27.407  1.00  0.00    -0.354 N 
ATOM     60  N   UNL A   1      46.497  28.804  28.002  1.00  0.00    -0.248 NA
ATOM     61  C   UNL A   1      48.288  30.294  28.172  1.00  0.00     0.031 C 
ATOM     62  C   UNL A   1      46.915  24.565  26.655  1.00  0.00     0.029 A 
ATOM     63  C   UNL A   1      46.798  25.881  27.080  1.00  0.00     0.049 A 
ATOM     64  H   UNL A   1      45.086  26.910  27.749  1.00  0.00     0.167 HD
ATOM     65  C   UNL A   1      47.660  28.159  27.604  1.00  0.00     0.074 A 
ATOM     66  C   UNL A   1      48.730  29.133  27.706  1.00  0.00     0.031 C 
ATOM     67  C   UNL A   1      47.832  26.882  27.182  1.00  0.00     0.031 A 
BRANCH  54  68
ATOM     68  C   UNL A   1      42.715  23.398  27.283  1.00  0.00    -0.014 A 
ATOM     69  C   UNL A   1      42.637  22.469  28.334  1.00  0.00     0.009 A 
ATOM     70  C   UNL A   1      42.194  23.046  26.028  1.00  0.00     0.009 A 
ATOM     71  C   UNL A   1      42.094  21.200  28.118  1.00  0.00     0.001 A 
ATOM     72  C   UNL A   1      41.621  21.791  25.825  1.00  0.00     0.001 A 
ATOM     73  C   UNL A   1      41.582  20.864  26.865  1.00  0.00     0.000 A 
ENDBRANCH  54  68
BRANCH  55  74
ATOM     74  C   UNL A   1      46.573  32.528  29.013  1.00  0.00    -0.014 A 
ATOM     75  C   UNL A   1      47.000  32.877  30.303  1.00  0.00     0.009 A 
ATOM     76  C   UNL A   1      46.710  33.466  27.978  1.00  0.00     0.009 A 
ATOM     77  C   UNL A   1      47.532  34.144  30.555  1.00  0.00     0.001 A 
ATOM     78  C   UNL A   1      47.268  34.722  28.227  1.00  0.00     0.001 A 
ATOM     79  C   UNL A   1      47.670  35.062  29.517  1.00  0.00     0.000 A 
ENDBRANCH  55  74
BRANCH  67  80
ATOM     80  C   UNL A   1      49.209  26.478  26.739  1.00  0.00    -0.014 A 
ATOM     81  C   UNL A   1      50.059  25.737  27.570  1.00  0.00     0.009 A 
ATOM     82  C   UNL A   1      49.614  26.765  25.425  1.00  0.00     0.009 A 
ATOM     83  C   UNL A   1      51.301  25.306  27.098  1.00  0.00     0.001 A 
ATOM     84  C   UNL A   1      50.840  26.307  24.946  1.00  0.00     0.001 A 
ATOM     85  C   UNL A   1      51.685  25.583  25.785  1.00  0.00     0.000 A 
ENDBRANCH  67  80
ENDBRANCH  41  42
ENDBRANCH  34  36
ENDBRANCH  33  34
ENDBRANCH  32  33
ENDBRANCH  31  32
ENDBRANCH  30  31
ENDBRANCH  29  30
ENDBRANCH  28  29
ENDBRANCH  27  28
ENDBRANCH   1  27
TORSDOF 26
ENDMDL
MODEL 2
REMARK VINA RESULT:      -7.6      1.616      5.987
REMARK SMILES C=CCN(CC(=O)OCCOCCOCCOCCOC(=O)c1ccc(-c2c3nc(c(-c4ccccc4)c4ccc([nH]4)c(-c4ccccc4)c4nc(c(-c5ccccc5)c5ccc2[nH]5)C=C4)C=C3)cc1)C(=O)c1cn(C2C[NH2+]C2)nn1
REMARK SMILES IDX 13 1 12 2 11 3 10 4 9 5 8 6 6 7 7 8 5 9 4 10 3 11 2 12 1 13
REMARK SMILES IDX 71 14 72 15 73 16 74 17 81 18 75 19 80 20 76 21 77 22 79 23
REMARK SMILES IDX 78 24 14 27 15 28 16 29 17 30 18 31 19 32 20 33 21 34 22 35
REMARK SMILES IDX 23 36 24 37 70 38 25 39 69 40 26 41 27 42 28 43 63 44 29 45
REMARK SMILES IDX 68 46 62 47 64 48 30 49 67 50 61 51 60 52 31 54 53 55 38 56
REMARK SMILES IDX 52 57 39 58 42 59 51 60 65 61 40 62 41 63 50 65 66 66 43 67
REMARK SMILES IDX 32 68 33 69 37 70 34 71 36 72 35 73 54 74 55 75 59 76 56 77
REMARK SMILES IDX 58 78 57 79 44 80 45 81 49 82 46 83 48 84 47 85
REMARK H PARENT 78 25 78 26 64 53 42 64
REMARK Flexibility Score: inf
ROOT
ATOM      1  C   UNL A   1      33.633  33.911  28.642  1.00  0.00     0.188 C 
ENDROOT
BRANCH   1   2
ATOM      2  C   UNL A   1      32.865  33.377  27.426  1.00  0.00     0.188 C 
BRANCH   2   3
ATOM      3  O   UNL A   1      32.489  32.021  27.639  1.00  0.00    -0.376 OA
BRANCH   3   4
ATOM      4  C   UNL A   1      32.741  31.165  26.529  1.00  0.00     0.202 C 
BRANCH   4   5
ATOM      5  C   UNL A   1      31.679  30.071  26.303  1.00  0.00     0.261 C 
BRANCH   5   6
ATOM      6  O   UNL A   1      31.913  28.854  27.075  1.00  0.00    -0.462 OA
BRANCH   6   7
ATOM      7  C   UNL A   1      31.462  27.675  26.591  1.00  0.00     0.325 C 
ATOM      8  O   UNL A   1      31.286  26.689  27.298  1.00  0.00    -0.250 OA
BRANCH   7   9
ATOM      9  C   UNL A   1      31.126  27.678  25.065  1.00  0.00     0.242 C 
BRANCH   9  10
ATOM     10  N   UNL A   1      31.938  27.059  23.983  1.00  0.00    -0.322 N 
BRANCH  10  11
ATOM     11  C   UNL A   1      31.302  26.873  22.675  1.00  0.00     0.147 C 
BRANCH  11  12
ATOM     12  C   UNL A   1      30.963  25.432  22.420  1.00  0.00    -0.014 C 
ATOM     13  C   UNL A   1      30.200  24.693  23.242  1.00  0.00     0.006 C 
ENDBRANCH  11  12
ENDBRANCH  10  11
BRANCH  10  14
ATOM     14  C   UNL A   1      33.279  26.617  24.115  1.00  0.00     0.276 C 
ATOM     15  O   UNL A   1      34.205  27.149  23.504  1.00  0.00    -0.267 OA
BRANCH  14  16
ATOM     16  C   UNL A   1      33.556  25.393  24.854  1.00  0.00     0.170 A 
ATOM     17  C   UNL A   1      33.436  24.118  24.343  1.00  0.00     0.145 A 
ATOM     18  N   UNL A   1      34.087  25.304  26.113  1.00  0.00    -0.125 NA
ATOM     19  N   UNL A   1      33.770  23.291  25.369  1.00  0.00    -0.237 N 
ATOM     20  N   UNL A   1      34.249  24.012  26.405  1.00  0.00    -0.066 NA
BRANCH  19  21
ATOM     21  C   UNL A   1      33.429  21.902  25.505  1.00  0.00     0.218 C 
ATOM     22  C   UNL A   1      32.240  21.597  24.565  1.00  0.00     0.294 C 
ATOM     23  C   UNL A   1      34.179  20.844  24.673  1.00  0.00     0.294 C 
ATOM     24  N   UNL A   1      32.880  20.326  24.189  1.00  0.00    -0.342 N 
ATOM     25  H   UNL A   1      32.857  20.128  23.189  1.00  0.00     0.346 HD
ATOM     26  H   UNL A   1      32.515  19.440  24.535  1.00  0.00     0.346 HD
ENDBRANCH  19  21
ENDBRANCH  14  16
ENDBRANCH  10  14
ENDBRANCH   9  10
ENDBRANCH   7   9
ENDBRANCH   6   7
ENDBRANCH   5   6
ENDBRANCH   4   5
ENDBRANCH   3   4
ENDBRANCH   2   3
ENDBRANCH   1   2
BRANCH   1  27
ATOM     27  O   UNL A   1      32.909  34.563  29.664  1.00  0.00    -0.377 OA
BRANCH  27  28
ATOM     28  C   UNL A   1      33.667  35.367  30.524  1.00  0.00     0.188 C 
BRANCH  28  29
ATOM     29  C   UNL A   1      33.570  34.984  32.011  1.00  0.00     0.188 C 
BRANCH  29  30
ATOM     30  O   UNL A   1      34.462  34.050  32.622  1.00  0.00    -0.376 OA
BRANCH  30  31
ATOM     31  C   UNL A   1      35.543  33.430  31.938  1.00  0.00     0.202 C 
BRANCH  31  32
ATOM     32  C   UNL A   1      35.347  32.053  31.323  1.00  0.00     0.261 C 
BRANCH  32  33
ATOM     33  O   UNL A   1      36.391  31.740  30.406  1.00  0.00    -0.460 OA
BRANCH  33  34
ATOM     34  C   UNL A   1      36.087  30.784  29.496  1.00  0.00     0.338 C 
ATOM     35  O   UNL A   1      35.075  30.659  28.852  1.00  0.00    -0.246 OA
BRANCH  34  36
ATOM     36  C   UNL A   1      37.328  30.024  29.252  1.00  0.00     0.060 A 
ATOM     37  C   UNL A   1      37.869  29.300  30.326  1.00  0.00     0.016 A 
ATOM     38  C   UNL A   1      37.874  29.937  27.969  1.00  0.00     0.016 A 
ATOM     39  C   UNL A   1      38.961  28.471  30.116  1.00  0.00     0.010 A 
ATOM     40  C   UNL A   1      39.003  29.155  27.770  1.00  0.00     0.010 A 
ATOM     41  C   UNL A   1      39.560  28.453  28.852  1.00  0.00    -0.014 A 
BRANCH  41  42
ATOM     42  C   UNL A   1      40.950  27.991  28.731  1.00  0.00     0.031 A 
ATOM     43  C   UNL A   1      42.011  29.035  28.914  1.00  0.00     0.074 A 
ATOM     44  C   UNL A   1      41.239  26.719  28.428  1.00  0.00     0.049 A 
ATOM     45  N   UNL A   1      43.301  28.944  28.742  1.00  0.00    -0.248 NA
ATOM     46  C   UNL A   1      41.546  30.370  29.336  1.00  0.00     0.031 C 
ATOM     47  C   UNL A   1      40.271  25.632  28.293  1.00  0.00     0.029 A 
ATOM     48  N   UNL A   1      42.448  26.135  28.163  1.00  0.00    -0.354 N 
ATOM     49  C   UNL A   1      43.794  30.215  29.012  1.00  0.00     0.074 A 
ATOM     50  C   UNL A   1      42.672  31.061  29.339  1.00  0.00     0.031 C 
ATOM     51  C   UNL A   1      40.928  24.508  27.955  1.00  0.00     0.029 A 
ATOM     52  C   UNL A   1      42.349  24.815  27.806  1.00  0.00     0.049 A 
ATOM     53  H   UNL A   1      43.305  26.616  28.223  1.00  0.00     0.167 HD
ATOM     54  C   UNL A   1      45.076  30.637  28.978  1.00  0.00     0.031 A 
ATOM     55  C   UNL A   1      43.307  23.972  27.381  1.00  0.00     0.031 A 
ATOM     56  C   UNL A   1      46.169  29.786  28.607  1.00  0.00     0.049 A 
ATOM     57  C   UNL A   1      44.716  24.492  27.253  1.00  0.00     0.074 A 
ATOM     58  C   UNL A   1      47.514  30.087  28.541  1.00  0.00     0.029 A 
ATOM     59  N   UNL A   1      46.027  28.461  28.217  1.00  0.00    -0.354 N 
ATOM     60  N   UNL A   1      45.189  25.683  27.539  1.00  0.00    -0.248 NA
ATOM     61  C   UNL A   1      45.723  23.553  26.742  1.00  0.00     0.031 C 
ATOM     62  C   UNL A   1      48.180  28.963  28.047  1.00  0.00     0.029 A 
ATOM     63  C   UNL A   1      47.258  27.939  27.877  1.00  0.00     0.049 A 
ATOM     64  H   UNL A   1      45.175  27.968  28.189  1.00  0.00     0.167 HD
ATOM     65  C   UNL A   1      46.552  25.624  27.284  1.00  0.00     0.074 A 
ATOM     66  C   UNL A   1      46.830  24.280  26.818  1.00  0.00     0.031 C 
ATOM     67  C   UNL A   1      47.496  26.589  27.430  1.00  0.00     0.031 A 
BRANCH  54  68
ATOM     68  C   UNL A   1      45.329  32.087  29.279  1.00  0.00    -0.014 A 
ATOM     69  C   UNL A   1      45.596  32.533  30.584  1.00  0.00     0.009 A 
ATOM     70  C   UNL A   1      45.275  33.027  28.239  1.00  0.00     0.009 A 
ATOM     71  C   UNL A   1      45.755  33.895  30.847  1.00  0.00     0.001 A 
ATOM     72  C   UNL A   1      45.469  34.384  28.499  1.00  0.00     0.001 A 
ATOM     73  C   UNL A   1      45.696  34.819  29.803  1.00  0.00     0.000 A 
ENDBRANCH  54  68
BRANCH  55  74
ATOM     74  C   UNL A   1      42.971  22.564  27.042  1.00  0.00    -0.014 A 
ATOM     75  C   UNL A   1      42.281  21.762  27.962  1.00  0.00     0.009 A 
ATOM     76  C   UNL A   1      43.333  22.014  25.802  1.00  0.00     0.009 A 
ATOM     77  C   UNL A   1      41.978  20.433  27.657  1.00  0.00     0.001 A 
ATOM     78  C   UNL A   1      43.004  20.693  25.488  1.00  0.00     0.001 A 
ATOM     79  C   UNL A   1      42.335  19.902  26.419  1.00  0.00     0.000 A 
ENDBRANCH  55  74
BRANCH  67  80
ATOM     80  C   UNL A   1      48.921  26.213  27.145  1.00  0.00    -0.014 A 
ATOM     81  C   UNL A   1      49.724  25.592  28.112  1.00  0.00     0.009 A 
ATOM     82  C   UNL A   1      49.429  26.399  25.849  1.00  0.00     0.009 A 
ATOM     83  C   UNL A   1      51.019  25.180  27.789  1.00  0.00     0.001 A 
ATOM     84  C   UNL A   1      50.711  25.958  25.521  1.00  0.00     0.001 A 
ATOM     85  C   UNL A   1      51.506  25.355  26.493  1.00  0.00     0.000 A 
ENDBRANCH  67  80
ENDBRANCH  41  42
ENDBRANCH  34  36
ENDBRANCH  33  34
ENDBRANCH  32  33
ENDBRANCH  31  32
ENDBRANCH  30  31
ENDBRANCH  29  30
ENDBRANCH  28  29
ENDBRANCH  27  28
ENDBRANCH   1  27
TORSDOF 26
ENDMDL
MODEL 3
REMARK VINA RESULT:      -7.6      3.637      8.204
REMARK SMILES C=CCN(CC(=O)OCCOCCOCCOCCOC(=O)c1ccc(-c2c3nc(c(-c4ccccc4)c4ccc([nH]4)c(-c4ccccc4)c4nc(c(-c5ccccc5)c5ccc2[nH]5)C=C4)C=C3)cc1)C(=O)c1cn(C2C[NH2+]C2)nn1
REMARK SMILES IDX 13 1 12 2 11 3 10 4 9 5 8 6 6 7 7 8 5 9 4 10 3 11 2 12 1 13
REMARK SMILES IDX 71 14 72 15 73 16 74 17 81 18 75 19 80 20 76 21 77 22 79 23
REMARK SMILES IDX 78 24 14 27 15 28 16 29 17 30 18 31 19 32 20 33 21 34 22 35
REMARK SMILES IDX 23 36 24 37 70 38 25 39 69 40 26 41 27 42 28 43 63 44 29 45
REMARK SMILES IDX 68 46 62 47 64 48 30 49 67 50 61 51 60 52 31 54 53 55 38 56
REMARK SMILES IDX 52 57 39 58 42 59 51 60 65 61 40 62 41 63 50 65 66 66 43 67
REMARK SMILES IDX 32 68 33 69 37 70 34 71 36 72 35 73 54 74 55 75 59 76 56 77
REMARK SMILES IDX 58 78 57 79 44 80 45 81 49 82 46 83 48 84 47 85
REMARK H PARENT 78 25 78 26 64 53 42 64
REMARK Flexibility Score: inf
ROOT
ATOM      1  C   UNL A   1      35.946  21.360  25.087  1.00  0.00     0.188 C 
ENDROOT
BRANCH   1   2
ATOM      2  C   UNL A   1      35.128  21.617  26.360  1.00  0.00     0.188 C 
BRANCH   2   3
ATOM      3  O   UNL A   1      33.885  22.228  26.032  1.00  0.00    -0.376 OA
BRANCH   3   4
ATOM      4  C   UNL A   1      33.629  22.314  24.634  1.00  0.00     0.202 C 
BRANCH   4   5
ATOM      5  C   UNL A   1      32.691  23.465  24.219  1.00  0.00     0.261 C 
BRANCH   5   6
ATOM      6  O   UNL A   1      31.791  23.903  25.281  1.00  0.00    -0.462 OA
BRANCH   6   7
ATOM      7  C   UNL A   1      32.022  25.089  25.887  1.00  0.00     0.325 C 
ATOM      8  O   UNL A   1      31.312  25.526  26.787  1.00  0.00    -0.250 OA
BRANCH   7   9
ATOM      9  C   UNL A   1      33.300  25.839  25.395  1.00  0.00     0.242 C 
BRANCH   9  10
ATOM     10  N   UNL A   1      33.527  27.309  25.431  1.00  0.00    -0.322 N 
BRANCH  10  11
ATOM     11  C   UNL A   1      33.871  27.915  26.722  1.00  0.00     0.147 C 
BRANCH  11  12
ATOM     12  C   UNL A   1      34.502  29.268  26.553  1.00  0.00    -0.014 C 
ATOM     13  C   UNL A   1      34.803  30.078  27.581  1.00  0.00     0.006 C 
ENDBRANCH  11  12
ENDBRANCH  10  11
BRANCH  10  14
ATOM     14  C   UNL A   1      33.423  28.183  24.319  1.00  0.00     0.276 C 
ATOM     15  O   UNL A   1      34.410  28.560  23.690  1.00  0.00    -0.267 OA
BRANCH  14  16
ATOM     16  C   UNL A   1      32.136  28.795  24.012  1.00  0.00     0.170 A 
ATOM     17  C   UNL A   1      31.304  28.407  22.985  1.00  0.00     0.145 A 
ATOM     18  N   UNL A   1      31.494  29.754  24.749  1.00  0.00    -0.125 NA
ATOM     19  N   UNL A   1      30.239  29.249  23.053  1.00  0.00    -0.237 N 
ATOM     20  N   UNL A   1      30.315  29.999  24.173  1.00  0.00    -0.066 NA
BRANCH  19  21
ATOM     21  C   UNL A   1      29.304  29.546  22.004  1.00  0.00     0.218 C 
ATOM     22  C   UNL A   1      27.873  29.337  22.551  1.00  0.00     0.294 C 
ATOM     23  C   UNL A   1      28.852  31.000  21.767  1.00  0.00     0.294 C 
ATOM     24  N   UNL A   1      27.442  30.560  21.855  1.00  0.00    -0.342 N 
ATOM     25  H   UNL A   1      26.849  31.171  22.415  1.00  0.00     0.346 HD
ATOM     26  H   UNL A   1      26.864  30.503  21.017  1.00  0.00     0.346 HD
ENDBRANCH  19  21
ENDBRANCH  14  16
ENDBRANCH  10  14
ENDBRANCH   9  10
ENDBRANCH   7   9
ENDBRANCH   6   7
ENDBRANCH   5   6
ENDBRANCH   4   5
ENDBRANCH   3   4
ENDBRANCH   2   3
ENDBRANCH   1   2
BRANCH   1  27
ATOM     27  O   UNL A   1      37.131  22.100  24.887  1.00  0.00    -0.377 OA
BRANCH  27  28
ATOM     28  C   UNL A   1      37.237  23.283  25.629  1.00  0.00     0.188 C 
BRANCH  28  29
ATOM     29  C   UNL A   1      38.566  23.446  26.389  1.00  0.00     0.188 C 
BRANCH  29  30
ATOM     30  O   UNL A   1      39.286  24.680  26.418  1.00  0.00    -0.376 OA
BRANCH  30  31
ATOM     31  C   UNL A   1      39.517  25.428  27.605  1.00  0.00     0.202 C 
BRANCH  31  32
ATOM     32  C   UNL A   1      40.884  25.374  28.268  1.00  0.00     0.261 C 
BRANCH  32  33
ATOM     33  O   UNL A   1      41.751  24.466  27.596  1.00  0.00    -0.460 OA
BRANCH  33  34
ATOM     34  C   UNL A   1      42.903  24.181  28.251  1.00  0.00     0.338 C 
ATOM     35  O   UNL A   1      43.167  23.208  28.911  1.00  0.00    -0.246 OA
BRANCH  34  36
ATOM     36  C   UNL A   1      43.890  25.191  27.825  1.00  0.00     0.060 A 
ATOM     37  C   UNL A   1      44.640  25.830  28.825  1.00  0.00     0.016 A 
ATOM     38  C   UNL A   1      44.149  25.413  26.471  1.00  0.00     0.016 A 
ATOM     39  C   UNL A   1      45.667  26.693  28.470  1.00  0.00     0.010 A 
ATOM     40  C   UNL A   1      45.136  26.321  26.114  1.00  0.00     0.010 A 
ATOM     41  C   UNL A   1      45.867  26.981  27.117  1.00  0.00    -0.014 A 
BRANCH  41  42
ATOM     42  C   UNL A   1      46.582  28.211  26.750  1.00  0.00     0.031 A 
ATOM     43  C   UNL A   1      48.043  28.060  26.444  1.00  0.00     0.074 A 
ATOM     44  C   UNL A   1      45.965  29.401  26.736  1.00  0.00     0.049 A 
ATOM     45  N   UNL A   1      48.941  28.978  26.218  1.00  0.00    -0.248 NA
ATOM     46  C   UNL A   1      48.562  26.680  26.407  1.00  0.00     0.031 C 
ATOM     47  C   UNL A   1      44.538  29.624  26.961  1.00  0.00     0.029 A 
ATOM     48  N   UNL A   1      46.481  30.652  26.536  1.00  0.00    -0.354 N 
ATOM     49  C   UNL A   1      50.131  28.285  26.034  1.00  0.00     0.074 A 
ATOM     50  C   UNL A   1      49.850  26.879  26.194  1.00  0.00     0.031 C 
ATOM     51  C   UNL A   1      44.294  30.945  26.900  1.00  0.00     0.029 A 
ATOM     52  C   UNL A   1      45.554  31.652  26.678  1.00  0.00     0.049 A 
ATOM     53  H   UNL A   1      47.425  30.818  26.313  1.00  0.00     0.167 HD
ATOM     54  C   UNL A   1      51.356  28.787  25.766  1.00  0.00     0.031 A 
ATOM     55  C   UNL A   1      45.729  32.985  26.659  1.00  0.00     0.031 A 
ATOM     56  C   UNL A   1      51.617  30.192  25.654  1.00  0.00     0.049 A 
ATOM     57  C   UNL A   1      47.121  33.525  26.458  1.00  0.00     0.074 A 
ATOM     58  C   UNL A   1      52.810  30.829  25.376  1.00  0.00     0.029 A 
ATOM     59  N   UNL A   1      50.659  31.180  25.839  1.00  0.00    -0.354 N 
ATOM     60  N   UNL A   1      48.241  32.872  26.252  1.00  0.00    -0.248 NA
ATOM     61  C   UNL A   1      47.276  34.985  26.488  1.00  0.00     0.031 C 
ATOM     62  C   UNL A   1      52.587  32.206  25.459  1.00  0.00     0.029 A 
ATOM     63  C   UNL A   1      51.241  32.425  25.714  1.00  0.00     0.049 A 
ATOM     64  H   UNL A   1      49.707  31.015  26.030  1.00  0.00     0.167 HD
ATOM     65  C   UNL A   1      49.224  33.839  26.087  1.00  0.00     0.074 A 
ATOM     66  C   UNL A   1      48.566  35.124  26.219  1.00  0.00     0.031 C 
ATOM     67  C   UNL A   1      50.548  33.683  25.838  1.00  0.00     0.031 A 
BRANCH  54  68
ATOM     68  C   UNL A   1      52.489  27.807  25.653  1.00  0.00    -0.014 A 
ATOM     69  C   UNL A   1      53.272  27.453  26.765  1.00  0.00     0.009 A 
ATOM     70  C   UNL A   1      52.794  27.245  24.404  1.00  0.00     0.009 A 
ATOM     71  C   UNL A   1      54.364  26.596  26.617  1.00  0.00     0.001 A 
ATOM     72  C   UNL A   1      53.865  26.362  24.266  1.00  0.00     0.001 A 
ATOM     73  C   UNL A   1      54.656  26.047  25.369  1.00  0.00     0.000 A 
ENDBRANCH  54  68
BRANCH  55  74
ATOM     74  C   UNL A   1      44.567  33.896  26.838  1.00  0.00    -0.014 A 
ATOM     75  C   UNL A   1      44.180  34.302  28.124  1.00  0.00     0.009 A 
ATOM     76  C   UNL A   1      43.842  34.368  25.732  1.00  0.00     0.009 A 
ATOM     77  C   UNL A   1      43.078  35.143  28.300  1.00  0.00     0.001 A 
ATOM     78  C   UNL A   1      42.758  35.231  25.910  1.00  0.00     0.001 A 
ATOM     79  C   UNL A   1      42.372  35.610  27.194  1.00  0.00     0.000 A 
ENDBRANCH  55  74
BRANCH  67  80
ATOM     80  C   UNL A   1      51.365  34.927  25.629  1.00  0.00    -0.014 A 
ATOM     81  C   UNL A   1      51.533  35.489  24.357  1.00  0.00     0.009 A 
ATOM     82  C   UNL A   1      51.889  35.594  26.748  1.00  0.00     0.009 A 
ATOM     83  C   UNL A   1      52.229  36.690  24.207  1.00  0.00     0.001 A 
ATOM     84  C   UNL A   1      52.555  36.810  26.600  1.00  0.00     0.001 A 
ATOM     85  C   UNL A   1      52.730  37.353  25.329  1.00  0.00     0.000 A 
ENDBRANCH  67  80
ENDBRANCH  41  42
ENDBRANCH  34  36
ENDBRANCH  33  34
ENDBRANCH  32  33
ENDBRANCH  31  32
ENDBRANCH  30  31
ENDBRANCH  29  30
ENDBRANCH  28  29
ENDBRANCH  27  28
ENDBRANCH   1  27
TORSDOF 26
ENDMDL
