MODEL 1
REMARK VINA RESULT:      -8.0      0.000      0.000
REMARK SMILES C[NH+](CC(=O)OCCOCCOCCOCCOC(=O)c1ccc(-c2c3nc(c(-c4ccccc4)c4ccc([nH]4)c(-c4ccccc4)c4nc(c(-c5ccccc5)c5ccc2[nH]5)C=C4)C=C3)cc1)Cc1csc(-c2ccco2)n1
REMARK SMILES IDX 11 1 10 2 9 3 8 4 7 5 6 6 4 7 5 8 3 9 2 10 1 11 69 13 70 14
REMARK SMILES IDX 71 15 79 16 72 17 73 18 74 19 75 20 78 21 76 22 77 23 12 24
REMARK SMILES IDX 13 25 14 26 15 27 16 28 17 29 18 30 19 31 20 32 21 33 22 34
REMARK SMILES IDX 68 35 23 36 67 37 24 38 25 39 26 40 61 41 27 42 66 43 60 44
REMARK SMILES IDX 62 45 28 46 65 47 59 48 58 49 29 51 51 52 36 53 50 54 37 55
REMARK SMILES IDX 40 56 49 57 63 58 38 59 39 60 48 62 64 63 41 64 30 65 31 66
REMARK SMILES IDX 35 67 32 68 34 69 33 70 52 71 53 72 57 73 54 74 56 75 55 76
REMARK SMILES IDX 42 77 43 78 47 79 44 80 46 81 45 82
REMARK H PARENT 2 12 62 50 40 61
REMARK Flexibility Score: inf
ROOT
ATOM      1  C   UNL A   1      41.425  42.938  22.986  1.00  0.00     0.188 C 
ENDROOT
BRANCH   1   2
ATOM      2  C   UNL A   1      41.837  43.469  21.445  1.00  0.00     0.188 C 
BRANCH   2   3
ATOM      3  O   UNL A   1      42.283  42.550  20.453  1.00  0.00    -0.376 OA
BRANCH   3   4
ATOM      4  C   UNL A   1      42.516  42.996  19.116  1.00  0.00     0.202 C 
BRANCH   4   5
ATOM      5  C   UNL A   1      42.647  44.512  18.847  1.00  0.00     0.261 C 
BRANCH   5   6
ATOM      6  O   UNL A   1      43.280  44.812  17.582  1.00  0.00    -0.459 OA
BRANCH   6   7
ATOM      7  C   UNL A   1      43.245  46.103  17.160  1.00  0.00     0.361 C 
ATOM      8  O   UNL A   1      42.206  46.726  16.958  1.00  0.00    -0.245 OA
BRANCH   7   9
ATOM      9  C   UNL A   1      44.617  46.778  17.031  1.00  0.00     0.386 C 
BRANCH   9  10
ATOM     10  N   UNL A   1      45.265  47.228  18.257  1.00  0.00    -0.323 N 
ATOM     11  C   UNL A   1      44.719  48.356  18.968  1.00  0.00     0.333 C 
ATOM     12  H   UNL A   1      46.092  47.599  17.791  1.00  0.00     0.348 HD
BRANCH  10  13
ATOM     13  C   UNL A   1      46.419  46.516  18.789  1.00  0.00     0.320 C 
BRANCH  13  14
ATOM     14  C   UNL A   1      46.018  45.508  19.825  1.00  0.00     0.106 A 
ATOM     15  C   UNL A   1      46.181  43.747  19.718  1.00  0.00     0.097 A 
ATOM     16  N   UNL A   1      45.563  46.055  21.575  1.00  0.00    -0.232 NA
ATOM     17  S   UNL A   1      45.689  42.734  21.739  1.00  0.00    -0.119 S 
ATOM     18  C   UNL A   1      45.335  44.827  22.685  1.00  0.00     0.159 A 
BRANCH  18  19
ATOM     19  C   UNL A   1      45.632  44.824  24.099  1.00  0.00     0.162 A 
ATOM     20  C   UNL A   1      46.835  44.994  24.763  1.00  0.00     0.053 A 
ATOM     21  O   UNL A   1      44.677  44.473  25.027  1.00  0.00    -0.462 OA
ATOM     22  C   UNL A   1      46.615  44.654  26.125  1.00  0.00     0.043 A 
ATOM     23  C   UNL A   1      45.286  44.329  26.225  1.00  0.00     0.196 A 
ENDBRANCH  18  19
ENDBRANCH  13  14
ENDBRANCH  10  13
ENDBRANCH   9  10
ENDBRANCH   7   9
ENDBRANCH   6   7
ENDBRANCH   5   6
ENDBRANCH   4   5
ENDBRANCH   3   4
ENDBRANCH   2   3
ENDBRANCH   1   2
BRANCH   1  24
ATOM     24  O   UNL A   1      42.553  42.286  24.569  1.00  0.00    -0.377 OA
BRANCH  24  25
ATOM     25  C   UNL A   1      42.817  41.285  25.642  1.00  0.00     0.188 C 
BRANCH  25  26
ATOM     26  C   UNL A   1      41.532  40.596  26.085  1.00  0.00     0.188 C 
BRANCH  26  27
ATOM     27  O   UNL A   1      41.596  39.785  27.253  1.00  0.00    -0.376 OA
BRANCH  27  28
ATOM     28  C   UNL A   1      42.898  39.480  27.735  1.00  0.00     0.202 C 
BRANCH  28  29
ATOM     29  C   UNL A   1      43.498  38.285  26.982  1.00  0.00     0.261 C 
BRANCH  29  30
ATOM     30  O   UNL A   1      42.470  37.324  26.690  1.00  0.00    -0.460 OA
BRANCH  30  31
ATOM     31  C   UNL A   1      42.244  36.429  27.688  1.00  0.00     0.338 C 
ATOM     32  O   UNL A   1      41.443  36.523  28.603  1.00  0.00    -0.246 OA
BRANCH  31  33
ATOM     33  C   UNL A   1      43.002  35.189  27.397  1.00  0.00     0.060 A 
ATOM     34  C   UNL A   1      43.393  34.392  28.484  1.00  0.00     0.016 A 
ATOM     35  C   UNL A   1      43.273  34.778  26.088  1.00  0.00     0.016 A 
ATOM     36  C   UNL A   1      44.116  33.220  28.271  1.00  0.00     0.010 A 
ATOM     37  C   UNL A   1      44.024  33.621  25.871  1.00  0.00     0.010 A 
ATOM     38  C   UNL A   1      44.498  32.878  26.966  1.00  0.00    -0.014 A 
BRANCH  38  39
ATOM     39  C   UNL A   1      45.695  32.028  26.779  1.00  0.00     0.031 A 
ATOM     40  C   UNL A   1      45.450  30.543  26.697  1.00  0.00     0.074 A 
ATOM     41  C   UNL A   1      46.939  32.528  26.703  1.00  0.00     0.049 A 
ATOM     42  N   UNL A   1      46.304  29.561  26.574  1.00  0.00    -0.248 NA
ATOM     43  C   UNL A   1      44.042  30.107  26.770  1.00  0.00     0.031 C 
ATOM     44  C   UNL A   1      47.296  33.943  26.742  1.00  0.00     0.029 A 
ATOM     45  N   UNL A   1      48.140  31.877  26.588  1.00  0.00    -0.354 N 
ATOM     46  C   UNL A   1      45.534  28.403  26.550  1.00  0.00     0.074 A 
ATOM     47  C   UNL A   1      44.154  28.793  26.696  1.00  0.00     0.031 C 
ATOM     48  C   UNL A   1      48.637  34.055  26.671  1.00  0.00     0.029 A 
ATOM     49  C   UNL A   1      49.226  32.718  26.601  1.00  0.00     0.049 A 
ATOM     50  H   UNL A   1      48.218  30.899  26.504  1.00  0.00     0.167 HD
ATOM     51  C   UNL A   1      45.938  27.119  26.425  1.00  0.00     0.031 A 
ATOM     52  C   UNL A   1      50.541  32.428  26.575  1.00  0.00     0.031 A 
ATOM     53  C   UNL A   1      47.311  26.723  26.334  1.00  0.00     0.049 A 
ATOM     54  C   UNL A   1      50.972  30.985  26.492  1.00  0.00     0.074 A 
ATOM     55  C   UNL A   1      47.838  25.450  26.232  1.00  0.00     0.029 A 
ATOM     56  N   UNL A   1      48.377  27.607  26.351  1.00  0.00    -0.354 N 
ATOM     57  N   UNL A   1      50.235  29.900  26.439  1.00  0.00    -0.248 NA
ATOM     58  C   UNL A   1      52.419  30.728  26.452  1.00  0.00     0.031 C 
ATOM     59  C   UNL A   1      49.233  25.562  26.225  1.00  0.00     0.029 A 
ATOM     60  C   UNL A   1      49.566  26.907  26.273  1.00  0.00     0.049 A 
ATOM     61  H   UNL A   1      48.300  28.587  26.409  1.00  0.00     0.167 HD
ATOM     62  C   UNL A   1      51.126  28.839  26.330  1.00  0.00     0.074 A 
ATOM     63  C   UNL A   1      52.457  29.410  26.312  1.00  0.00     0.031 C 
ATOM     64  C   UNL A   1      50.872  27.509  26.248  1.00  0.00     0.031 A 
BRANCH  51  65
ATOM     65  C   UNL A   1      44.865  26.071  26.432  1.00  0.00    -0.014 A 
ATOM     66  C   UNL A   1      44.262  25.645  25.237  1.00  0.00     0.009 A 
ATOM     67  C   UNL A   1      44.429  25.529  27.649  1.00  0.00     0.009 A 
ATOM     68  C   UNL A   1      43.217  24.720  25.267  1.00  0.00     0.001 A 
ATOM     69  C   UNL A   1      43.401  24.586  27.673  1.00  0.00     0.001 A 
ATOM     70  C   UNL A   1      42.789  24.189  26.483  1.00  0.00     0.000 A 
ENDBRANCH  51  65
BRANCH  52  71
ATOM     71  C   UNL A   1      51.556  33.513  26.642  1.00  0.00    -0.014 A 
ATOM     72  C   UNL A   1      52.306  33.864  25.508  1.00  0.00     0.009 A 
ATOM     73  C   UNL A   1      51.810  34.174  27.853  1.00  0.00     0.009 A 
ATOM     74  C   UNL A   1      53.311  34.832  25.596  1.00  0.00     0.001 A 
ATOM     75  C   UNL A   1      52.798  35.159  27.932  1.00  0.00     0.001 A 
ATOM     76  C   UNL A   1      53.555  35.480  26.807  1.00  0.00     0.000 A 
ENDBRANCH  52  71
BRANCH  64  77
ATOM     77  C   UNL A   1      52.050  26.594  26.085  1.00  0.00    -0.014 A 
ATOM     78  C   UNL A   1      52.804  26.172  27.190  1.00  0.00     0.009 A 
ATOM     79  C   UNL A   1      52.370  26.106  24.809  1.00  0.00     0.009 A 
ATOM     80  C   UNL A   1      53.881  25.302  27.013  1.00  0.00     0.001 A 
ATOM     81  C   UNL A   1      53.431  25.216  24.640  1.00  0.00     0.001 A 
ATOM     82  C   UNL A   1      54.191  24.822  25.740  1.00  0.00     0.000 A 
ENDBRANCH  64  77
ENDBRANCH  38  39
ENDBRANCH  31  33
ENDBRANCH  30  31
ENDBRANCH  29  30
ENDBRANCH  28  29
ENDBRANCH  27  28
ENDBRANCH  26  27
ENDBRANCH  25  26
ENDBRANCH  24  25
ENDBRANCH   1  24
TORSDOF 24
ENDMDL
MODEL 2
REMARK VINA RESULT:      -7.7     10.213     13.934
REMARK SMILES C[NH+](CC(=O)OCCOCCOCCOCCOC(=O)c1ccc(-c2c3nc(c(-c4ccccc4)c4ccc([nH]4)c(-c4ccccc4)c4nc(c(-c5ccccc5)c5ccc2[nH]5)C=C4)C=C3)cc1)Cc1csc(-c2ccco2)n1
REMARK SMILES IDX 11 1 10 2 9 3 8 4 7 5 6 6 4 7 5 8 3 9 2 10 1 11 69 13 70 14
REMARK SMILES IDX 71 15 79 16 72 17 73 18 74 19 75 20 78 21 76 22 77 23 12 24
REMARK SMILES IDX 13 25 14 26 15 27 16 28 17 29 18 30 19 31 20 32 21 33 22 34
REMARK SMILES IDX 68 35 23 36 67 37 24 38 25 39 26 40 61 41 27 42 66 43 60 44
REMARK SMILES IDX 62 45 28 46 65 47 59 48 58 49 29 51 51 52 36 53 50 54 37 55
REMARK SMILES IDX 40 56 49 57 63 58 38 59 39 60 48 62 64 63 41 64 30 65 31 66
REMARK SMILES IDX 35 67 32 68 34 69 33 70 52 71 53 72 57 73 54 74 56 75 55 76
REMARK SMILES IDX 42 77 43 78 47 79 44 80 46 81 45 82
REMARK H PARENT 2 12 62 50 40 61
REMARK Flexibility Score: inf
ROOT
ATOM      1  C   UNL A   1      38.816  24.697  26.795  1.00  0.00     0.188 C 
ENDROOT
BRANCH   1   2
ATOM      2  C   UNL A   1      39.329  26.086  27.592  1.00  0.00     0.188 C 
BRANCH   2   3
ATOM      3  O   UNL A   1      40.713  26.403  27.686  1.00  0.00    -0.376 OA
BRANCH   3   4
ATOM      4  C   UNL A   1      41.270  26.820  28.933  1.00  0.00     0.202 C 
BRANCH   4   5
ATOM      5  C   UNL A   1      40.465  27.795  29.822  1.00  0.00     0.261 C 
BRANCH   5   6
ATOM      6  O   UNL A   1      40.822  29.181  29.613  1.00  0.00    -0.459 OA
BRANCH   6   7
ATOM      7  C   UNL A   1      39.807  30.060  29.410  1.00  0.00     0.361 C 
ATOM      8  O   UNL A   1      39.028  29.997  28.462  1.00  0.00    -0.245 OA
BRANCH   7   9
ATOM      9  C   UNL A   1      39.635  31.114  30.513  1.00  0.00     0.386 C 
BRANCH   9  10
ATOM     10  N   UNL A   1      39.196  30.652  31.824  1.00  0.00    -0.323 N 
ATOM     11  C   UNL A   1      40.174  30.448  32.863  1.00  0.00     0.333 C 
ATOM     12  H   UNL A   1      38.959  29.710  31.513  1.00  0.00     0.348 HD
BRANCH  10  13
ATOM     13  C   UNL A   1      37.781  30.446  32.101  1.00  0.00     0.320 C 
BRANCH  13  14
ATOM     14  C   UNL A   1      36.917  31.331  31.252  1.00  0.00     0.106 A 
ATOM     15  C   UNL A   1      36.003  30.860  29.809  1.00  0.00     0.097 A 
ATOM     16  N   UNL A   1      36.434  33.059  31.842  1.00  0.00    -0.232 NA
ATOM     17  S   UNL A   1      34.608  32.566  29.106  1.00  0.00    -0.119 S 
ATOM     18  C   UNL A   1      35.308  33.861  30.904  1.00  0.00     0.159 A 
BRANCH  18  19
ATOM     19  C   UNL A   1      34.277  34.782  31.324  1.00  0.00     0.162 A 
ATOM     20  C   UNL A   1      33.608  34.889  32.532  1.00  0.00     0.053 A 
ATOM     21  O   UNL A   1      33.688  35.648  30.430  1.00  0.00    -0.462 OA
ATOM     22  C   UNL A   1      32.528  35.791  32.334  1.00  0.00     0.043 A 
ATOM     23  C   UNL A   1      32.615  36.209  31.031  1.00  0.00     0.196 A 
ENDBRANCH  18  19
ENDBRANCH  13  14
ENDBRANCH  10  13
ENDBRANCH   9  10
ENDBRANCH   7   9
ENDBRANCH   6   7
ENDBRANCH   5   6
ENDBRANCH   4   5
ENDBRANCH   3   4
ENDBRANCH   2   3
ENDBRANCH   1   2
BRANCH   1  24
ATOM     24  O   UNL A   1      36.967  24.060  26.179  1.00  0.00    -0.377 OA
BRANCH  24  25
ATOM     25  C   UNL A   1      35.897  24.011  25.143  1.00  0.00     0.188 C 
BRANCH  25  26
ATOM     26  C   UNL A   1      35.462  22.577  24.864  1.00  0.00     0.188 C 
BRANCH  26  27
ATOM     27  O   UNL A   1      36.450  21.682  24.363  1.00  0.00    -0.376 OA
BRANCH  27  28
ATOM     28  C   UNL A   1      37.719  21.728  25.001  1.00  0.00     0.202 C 
BRANCH  28  29
ATOM     29  C   UNL A   1      38.261  20.314  25.252  1.00  0.00     0.261 C 
BRANCH  29  30
ATOM     30  O   UNL A   1      39.163  20.327  26.370  1.00  0.00    -0.460 OA
BRANCH  30  31
ATOM     31  C   UNL A   1      40.408  19.861  26.087  1.00  0.00     0.338 C 
ATOM     32  O   UNL A   1      40.705  18.777  25.613  1.00  0.00    -0.246 OA
BRANCH  31  33
ATOM     33  C   UNL A   1      41.383  20.962  26.267  1.00  0.00     0.060 A 
ATOM     34  C   UNL A   1      42.747  20.632  26.276  1.00  0.00     0.016 A 
ATOM     35  C   UNL A   1      40.980  22.298  26.365  1.00  0.00     0.016 A 
ATOM     36  C   UNL A   1      43.708  21.626  26.450  1.00  0.00     0.010 A 
ATOM     37  C   UNL A   1      41.938  23.292  26.571  1.00  0.00     0.010 A 
ATOM     38  C   UNL A   1      43.296  22.946  26.678  1.00  0.00    -0.014 A 
BRANCH  38  39
ATOM     39  C   UNL A   1      44.201  23.854  27.417  1.00  0.00     0.031 A 
ATOM     40  C   UNL A   1      45.127  24.698  26.579  1.00  0.00     0.074 A 
ATOM     41  C   UNL A   1      44.227  23.924  28.757  1.00  0.00     0.049 A 
ATOM     42  N   UNL A   1      46.048  25.548  26.950  1.00  0.00    -0.248 NA
ATOM     43  C   UNL A   1      44.998  24.555  25.116  1.00  0.00     0.031 C 
ATOM     44  C   UNL A   1      43.363  23.180  29.670  1.00  0.00     0.029 A 
ATOM     45  N   UNL A   1      45.035  24.663  29.582  1.00  0.00    -0.354 N 
ATOM     46  C   UNL A   1      46.595  26.038  25.770  1.00  0.00     0.074 A 
ATOM     47  C   UNL A   1      45.929  25.380  24.673  1.00  0.00     0.031 C 
ATOM     48  C   UNL A   1      43.702  23.487  30.937  1.00  0.00     0.029 A 
ATOM     49  C   UNL A   1      44.817  24.433  30.918  1.00  0.00     0.049 A 
ATOM     50  H   UNL A   1      45.709  25.298  29.249  1.00  0.00     0.167 HD
ATOM     51  C   UNL A   1      47.575  26.955  25.606  1.00  0.00     0.031 A 
ATOM     52  C   UNL A   1      45.461  24.925  31.994  1.00  0.00     0.031 A 
ATOM     53  C   UNL A   1      48.276  27.572  26.692  1.00  0.00     0.049 A 
ATOM     54  C   UNL A   1      46.590  25.905  31.788  1.00  0.00     0.074 A 
ATOM     55  C   UNL A   1      49.304  28.494  26.645  1.00  0.00     0.029 A 
ATOM     56  N   UNL A   1      48.022  27.311  28.028  1.00  0.00    -0.354 N 
ATOM     57  N   UNL A   1      47.078  26.384  30.668  1.00  0.00    -0.248 NA
ATOM     58  C   UNL A   1      47.248  26.419  32.998  1.00  0.00     0.031 C 
ATOM     59  C   UNL A   1      49.700  28.763  27.959  1.00  0.00     0.029 A 
ATOM     60  C   UNL A   1      48.884  28.045  28.821  1.00  0.00     0.049 A 
ATOM     61  H   UNL A   1      47.331  26.695  28.364  1.00  0.00     0.167 HD
ATOM     62  C   UNL A   1      48.076  27.278  31.040  1.00  0.00     0.074 A 
ATOM     63  C   UNL A   1      48.116  27.282  32.488  1.00  0.00     0.031 C 
ATOM     64  C   UNL A   1      48.889  28.031  30.259  1.00  0.00     0.031 A 
BRANCH  51  65
ATOM     65  C   UNL A   1      47.958  27.289  24.195  1.00  0.00    -0.014 A 
ATOM     66  C   UNL A   1      47.156  28.131  23.407  1.00  0.00     0.009 A 
ATOM     67  C   UNL A   1      49.115  26.727  23.636  1.00  0.00     0.009 A 
ATOM     68  C   UNL A   1      47.490  28.376  22.074  1.00  0.00     0.001 A 
ATOM     69  C   UNL A   1      49.458  26.994  22.310  1.00  0.00     0.001 A 
ATOM     70  C   UNL A   1      48.641  27.810  21.528  1.00  0.00     0.000 A 
ENDBRANCH  51  65
BRANCH  52  71
ATOM     71  C   UNL A   1      45.077  24.499  33.366  1.00  0.00    -0.014 A 
ATOM     72  C   UNL A   1      45.680  23.381  33.965  1.00  0.00     0.009 A 
ATOM     73  C   UNL A   1      44.073  25.183  34.067  1.00  0.00     0.009 A 
ATOM     74  C   UNL A   1      45.261  22.940  35.223  1.00  0.00     0.001 A 
ATOM     75  C   UNL A   1      43.674  24.755  35.336  1.00  0.00     0.001 A 
ATOM     76  C   UNL A   1      44.260  23.628  35.908  1.00  0.00     0.000 A 
ENDBRANCH  52  71
BRANCH  64  77
ATOM     77  C   UNL A   1      49.849  28.952  30.953  1.00  0.00    -0.014 A 
ATOM     78  C   UNL A   1      49.467  30.242  31.347  1.00  0.00     0.009 A 
ATOM     79  C   UNL A   1      51.140  28.494  31.263  1.00  0.00     0.009 A 
ATOM     80  C   UNL A   1      50.373  31.071  32.011  1.00  0.00     0.001 A 
ATOM     81  C   UNL A   1      52.033  29.315  31.950  1.00  0.00     0.001 A 
ATOM     82  C   UNL A   1      51.653  30.606  32.315  1.00  0.00     0.000 A 
ENDBRANCH  64  77
ENDBRANCH  38  39
ENDBRANCH  31  33
ENDBRANCH  30  31
ENDBRANCH  29  30
ENDBRANCH  28  29
ENDBRANCH  27  28
ENDBRANCH  26  27
ENDBRANCH  25  26
ENDBRANCH  24  25
ENDBRANCH   1  24
TORSDOF 24
ENDMDL
MODEL 3
REMARK VINA RESULT:      -7.6      8.048     15.050
REMARK SMILES C[NH+](CC(=O)OCCOCCOCCOCCOC(=O)c1ccc(-c2c3nc(c(-c4ccccc4)c4ccc([nH]4)c(-c4ccccc4)c4nc(c(-c5ccccc5)c5ccc2[nH]5)C=C4)C=C3)cc1)Cc1csc(-c2ccco2)n1
REMARK SMILES IDX 11 1 10 2 9 3 8 4 7 5 6 6 4 7 5 8 3 9 2 10 1 11 69 13 70 14
REMARK SMILES IDX 71 15 79 16 72 17 73 18 74 19 75 20 78 21 76 22 77 23 12 24
REMARK SMILES IDX 13 25 14 26 15 27 16 28 17 29 18 30 19 31 20 32 21 33 22 34
REMARK SMILES IDX 68 35 23 36 67 37 24 38 25 39 26 40 61 41 27 42 66 43 60 44
REMARK SMILES IDX 62 45 28 46 65 47 59 48 58 49 29 51 51 52 36 53 50 54 37 55
REMARK SMILES IDX 40 56 49 57 63 58 38 59 39 60 48 62 64 63 41 64 30 65 31 66
REMARK SMILES IDX 35 67 32 68 34 69 33 70 52 71 53 72 57 73 54 74 56 75 55 76
REMARK SMILES IDX 42 77 43 78 47 79 44 80 46 81 45 82
REMARK H PARENT 2 12 62 50 40 61
REMARK Flexibility Score: inf
ROOT
ATOM      1  C   UNL A   1      40.156  23.001  27.311  1.00  0.00     0.188 C 
ENDROOT
BRANCH   1   2
ATOM      2  C   UNL A   1      38.854  23.054  26.249  1.00  0.00     0.188 C 
BRANCH   2   3
ATOM      3  O   UNL A   1      38.042  21.905  26.034  1.00  0.00    -0.376 OA
BRANCH   3   4
ATOM      4  C   UNL A   1      37.606  21.571  24.715  1.00  0.00     0.202 C 
BRANCH   4   5
ATOM      5  C   UNL A   1      36.632  22.525  23.987  1.00  0.00     0.261 C 
BRANCH   5   6
ATOM      6  O   UNL A   1      35.250  22.319  24.360  1.00  0.00    -0.459 OA
BRANCH   6   7
ATOM      7  C   UNL A   1      34.692  23.226  25.203  1.00  0.00     0.361 C 
ATOM      8  O   UNL A   1      35.245  23.646  26.216  1.00  0.00    -0.245 OA
BRANCH   7   9
ATOM      9  C   UNL A   1      33.329  23.771  24.755  1.00  0.00     0.386 C 
BRANCH   9  10
ATOM     10  N   UNL A   1      33.206  24.228  23.376  1.00  0.00    -0.323 N 
ATOM     11  C   UNL A   1      32.502  23.408  22.422  1.00  0.00     0.333 C 
ATOM     12  H   UNL A   1      34.190  24.091  23.148  1.00  0.00     0.348 HD
BRANCH  10  13
ATOM     13  C   UNL A   1      33.743  25.521  22.974  1.00  0.00     0.320 C 
BRANCH  13  14
ATOM     14  C   UNL A   1      32.984  26.653  23.600  1.00  0.00     0.106 A 
ATOM     15  C   UNL A   1      33.609  27.850  24.747  1.00  0.00     0.097 A 
ATOM     16  N   UNL A   1      31.275  27.139  22.957  1.00  0.00    -0.232 NA
ATOM     17  S   UNL A   1      32.071  29.537  25.121  1.00  0.00    -0.119 S 
ATOM     18  C   UNL A   1      30.627  28.539  23.599  1.00  0.00     0.159 A 
BRANCH  18  19
ATOM     19  C   UNL A   1      29.778  29.516  22.957  1.00  0.00     0.162 A 
ATOM     20  C   UNL A   1      28.699  30.229  23.451  1.00  0.00     0.053 A 
ATOM     21  O   UNL A   1      29.871  29.761  21.605  1.00  0.00    -0.462 OA
ATOM     22  C   UNL A   1      28.072  30.862  22.344  1.00  0.00     0.043 A 
ATOM     23  C   UNL A   1      28.818  30.529  21.242  1.00  0.00     0.196 A 
ENDBRANCH  18  19
ENDBRANCH  13  14
ENDBRANCH  10  13
ENDBRANCH   9  10
ENDBRANCH   7   9
ENDBRANCH   6   7
ENDBRANCH   5   6
ENDBRANCH   4   5
ENDBRANCH   3   4
ENDBRANCH   2   3
ENDBRANCH   1   2
BRANCH   1  24
ATOM     24  O   UNL A   1      41.597  24.376  27.800  1.00  0.00    -0.377 OA
BRANCH  24  25
ATOM     25  C   UNL A   1      43.018  24.705  28.105  1.00  0.00     0.188 C 
BRANCH  25  26
ATOM     26  C   UNL A   1      43.819  23.450  28.432  1.00  0.00     0.188 C 
BRANCH  26  27
ATOM     27  O   UNL A   1      45.133  23.631  28.947  1.00  0.00    -0.376 OA
BRANCH  27  28
ATOM     28  C   UNL A   1      46.003  24.447  28.175  1.00  0.00     0.202 C 
BRANCH  28  29
ATOM     29  C   UNL A   1      46.379  23.757  26.857  1.00  0.00     0.261 C 
BRANCH  29  30
ATOM     30  O   UNL A   1      47.562  24.361  26.308  1.00  0.00    -0.460 OA
BRANCH  30  31
ATOM     31  C   UNL A   1      48.441  24.813  27.241  1.00  0.00     0.338 C 
ATOM     32  O   UNL A   1      49.254  24.160  27.873  1.00  0.00    -0.246 OA
BRANCH  31  33
ATOM     33  C   UNL A   1      48.406  26.295  27.252  1.00  0.00     0.060 A 
ATOM     34  C   UNL A   1      48.716  26.947  28.456  1.00  0.00     0.016 A 
ATOM     35  C   UNL A   1      48.135  27.037  26.098  1.00  0.00     0.016 A 
ATOM     36  C   UNL A   1      48.689  28.338  28.527  1.00  0.00     0.010 A 
ATOM     37  C   UNL A   1      48.077  28.429  26.173  1.00  0.00     0.010 A 
ATOM     38  C   UNL A   1      48.291  29.074  27.403  1.00  0.00    -0.014 A 
BRANCH  38  39
ATOM     39  C   UNL A   1      47.709  30.419  27.608  1.00  0.00     0.031 A 
ATOM     40  C   UNL A   1      46.328  30.463  28.211  1.00  0.00     0.074 A 
ATOM     41  C   UNL A   1      48.348  31.549  27.265  1.00  0.00     0.049 A 
ATOM     42  N   UNL A   1      45.561  31.489  28.467  1.00  0.00    -0.248 NA
ATOM     43  C   UNL A   1      45.730  29.162  28.568  1.00  0.00     0.031 C 
ATOM     44  C   UNL A   1      49.693  31.635  26.702  1.00  0.00     0.029 A 
ATOM     45  N   UNL A   1      47.928  32.852  27.337  1.00  0.00    -0.354 N 
ATOM     46  C   UNL A   1      44.401  30.954  29.017  1.00  0.00     0.074 A 
ATOM     47  C   UNL A   1      44.548  29.520  29.037  1.00  0.00     0.031 C 
ATOM     48  C   UNL A   1      49.982  32.928  26.460  1.00  0.00     0.029 A 
ATOM     49  C   UNL A   1      48.834  33.753  26.835  1.00  0.00     0.049 A 
ATOM     50  H   UNL A   1      47.057  33.118  27.714  1.00  0.00     0.167 HD
ATOM     51  C   UNL A   1      43.299  31.598  29.464  1.00  0.00     0.031 A 
ATOM     52  C   UNL A   1      48.730  35.088  26.686  1.00  0.00     0.031 A 
ATOM     53  C   UNL A   1      43.126  33.018  29.397  1.00  0.00     0.049 A 
ATOM     54  C   UNL A   1      47.470  35.781  27.140  1.00  0.00     0.074 A 
ATOM     55  C   UNL A   1      42.042  33.776  29.795  1.00  0.00     0.029 A 
ATOM     56  N   UNL A   1      44.069  33.892  28.881  1.00  0.00    -0.354 N 
ATOM     57  N   UNL A   1      46.392  35.268  27.686  1.00  0.00    -0.248 NA
ATOM     58  C   UNL A   1      47.418  37.240  26.966  1.00  0.00     0.031 C 
ATOM     59  C   UNL A   1      42.315  35.112  29.483  1.00  0.00     0.029 A 
ATOM     60  C   UNL A   1      43.589  35.186  28.938  1.00  0.00     0.049 A 
ATOM     61  H   UNL A   1      44.951  33.631  28.528  1.00  0.00     0.167 HD
ATOM     62  C   UNL A   1      45.550  36.343  27.949  1.00  0.00     0.074 A 
ATOM     63  C   UNL A   1      46.246  37.536  27.512  1.00  0.00     0.031 C 
ATOM     64  C   UNL A   1      44.313  36.350  28.503  1.00  0.00     0.031 A 
BRANCH  51  65
ATOM     65  C   UNL A   1      42.195  30.744  30.012  1.00  0.00    -0.014 A 
ATOM     66  C   UNL A   1      41.318  30.057  29.158  1.00  0.00     0.009 A 
ATOM     67  C   UNL A   1      42.008  30.654  31.399  1.00  0.00     0.009 A 
ATOM     68  C   UNL A   1      40.253  29.322  29.684  1.00  0.00     0.001 A 
ATOM     69  C   UNL A   1      40.958  29.899  31.922  1.00  0.00     0.001 A 
ATOM     70  C   UNL A   1      40.076  29.242  31.064  1.00  0.00     0.000 A 
ENDBRANCH  51  65
BRANCH  52  71
ATOM     71  C   UNL A   1      49.836  35.868  26.070  1.00  0.00    -0.014 A 
ATOM     72  C   UNL A   1      49.927  36.005  24.675  1.00  0.00     0.009 A 
ATOM     73  C   UNL A   1      50.832  36.444  26.873  1.00  0.00     0.009 A 
ATOM     74  C   UNL A   1      51.010  36.674  24.098  1.00  0.00     0.001 A 
ATOM     75  C   UNL A   1      51.901  37.134  26.294  1.00  0.00     0.001 A 
ATOM     76  C   UNL A   1      51.995  37.240  24.908  1.00  0.00     0.000 A 
ENDBRANCH  52  71
BRANCH  64  77
ATOM     77  C   UNL A   1      43.659  37.684  28.709  1.00  0.00    -0.014 A 
ATOM     78  C   UNL A   1      42.693  38.169  27.816  1.00  0.00     0.009 A 
ATOM     79  C   UNL A   1      43.981  38.439  29.849  1.00  0.00     0.009 A 
ATOM     80  C   UNL A   1      42.084  39.405  28.044  1.00  0.00     0.001 A 
ATOM     81  C   UNL A   1      43.351  39.660  30.087  1.00  0.00     0.001 A 
ATOM     82  C   UNL A   1      42.410  40.147  29.180  1.00  0.00     0.000 A 
ENDBRANCH  64  77
ENDBRANCH  38  39
ENDBRANCH  31  33
ENDBRANCH  30  31
ENDBRANCH  29  30
ENDBRANCH  28  29
ENDBRANCH  27  28
ENDBRANCH  26  27
ENDBRANCH  25  26
ENDBRANCH  24  25
ENDBRANCH   1  24
TORSDOF 24
ENDMDL
