MODEL 1
REMARK VINA RESULT:      -9.2      0.000      0.000
REMARK SMILES CC1(C)C(C(=O)N2CCOC[C@H]2C(=O)OCCOCCOCCOCCOC(=O)c2ccc(-c3c4nc(c(-c5ccccc5)c5ccc([nH]5)c(-c5ccccc5)c5nc(c(-c6ccccc6)c6ccc3[nH]6)C=C5)C=C4)cc2)C1(C)C
REMARK SMILES IDX 21 1 20 2 19 3 18 4 17 5 16 6 15 7 13 8 14 9 12 10 7 11 8 12
REMARK SMILES IDX 9 13 11 14 10 15 5 16 6 17 4 18 1 19 2 20 3 21 78 22 79 23
REMARK SMILES IDX 80 24 22 25 23 26 24 27 25 28 26 29 27 30 28 31 29 32 30 33
REMARK SMILES IDX 31 34 77 35 32 36 76 37 33 38 34 39 35 40 70 41 36 42 75 43
REMARK SMILES IDX 69 44 71 45 37 46 74 47 68 48 67 49 38 51 60 52 45 53 59 54
REMARK SMILES IDX 46 55 49 56 58 57 72 58 47 59 48 60 57 62 73 63 50 64 39 65
REMARK SMILES IDX 40 66 44 67 41 68 43 69 42 70 61 71 62 72 66 73 63 74 65 75
REMARK SMILES IDX 64 76 51 77 52 78 56 79 53 80 55 81 54 82
REMARK H PARENT 71 50 49 61
REMARK Flexibility Score: inf
ROOT
ATOM      1  O   UNL A   1      39.981  22.427  27.078  1.00  0.00    -0.377 OA
ENDROOT
BRANCH   1   2
ATOM      2  C   UNL A   1      38.961  22.084  26.151  1.00  0.00     0.188 C 
BRANCH   2   3
ATOM      3  C   UNL A   1      38.070  23.201  25.583  1.00  0.00     0.188 C 
BRANCH   3   4
ATOM      4  O   UNL A   1      37.075  23.654  26.477  1.00  0.00    -0.376 OA
BRANCH   4   5
ATOM      5  C   UNL A   1      35.727  23.263  26.312  1.00  0.00     0.202 C 
BRANCH   5   6
ATOM      6  C   UNL A   1      35.234  22.271  25.243  1.00  0.00     0.261 C 
BRANCH   6   7
ATOM      7  O   UNL A   1      34.236  22.715  24.320  1.00  0.00    -0.462 OA
BRANCH   7   8
ATOM      8  C   UNL A   1      34.464  23.879  23.669  1.00  0.00     0.331 C 
ATOM      9  O   UNL A   1      35.499  24.117  23.050  1.00  0.00    -0.250 OA
BRANCH   8  10
ATOM     10  C   UNL A   1      33.364  24.939  23.893  1.00  0.00     0.221 C 
ATOM     11  N   UNL A   1      33.397  26.303  23.289  1.00  0.00    -0.324 N 
ATOM     12  C   UNL A   1      33.296  26.326  21.837  1.00  0.00     0.149 C 
ATOM     13  C   UNL A   1      32.114  25.474  21.350  1.00  0.00     0.181 C 
ATOM     14  C   UNL A   1      32.078  24.262  23.407  1.00  0.00     0.197 C 
ATOM     15  O   UNL A   1      32.064  24.175  21.968  1.00  0.00    -0.377 OA
BRANCH  11  16
ATOM     16  C   UNL A   1      33.482  27.388  24.154  1.00  0.00     0.227 C 
ATOM     17  O   UNL A   1      34.284  28.292  23.906  1.00  0.00    -0.275 OA
BRANCH  16  18
ATOM     18  C   UNL A   1      32.738  27.550  25.453  1.00  0.00     0.091 C 
ATOM     19  C   UNL A   1      31.605  28.209  27.705  1.00  0.00     0.012 C 
ATOM     20  C   UNL A   1      31.837  28.517  26.221  1.00  0.00    -0.017 C 
ATOM     21  C   UNL A   1      31.832  30.007  26.023  1.00  0.00     0.012 C 
ATOM     22  C   UNL A   1      31.195  27.558  25.227  1.00  0.00    -0.017 C 
ATOM     23  C   UNL A   1      30.393  26.368  25.709  1.00  0.00     0.012 C 
ATOM     24  C   UNL A   1      30.650  28.064  23.907  1.00  0.00     0.012 C 
ENDBRANCH  16  18
ENDBRANCH  11  16
ENDBRANCH   8  10
ENDBRANCH   7   8
ENDBRANCH   6   7
ENDBRANCH   5   6
ENDBRANCH   4   5
ENDBRANCH   3   4
ENDBRANCH   2   3
ENDBRANCH   1   2
BRANCH   1  25
ATOM     25  C   UNL A   1      41.319  22.001  26.849  1.00  0.00     0.188 C 
BRANCH  25  26
ATOM     26  C   UNL A   1      41.648  20.690  26.103  1.00  0.00     0.188 C 
BRANCH  26  27
ATOM     27  O   UNL A   1      42.868  20.693  25.383  1.00  0.00    -0.376 OA
BRANCH  27  28
ATOM     28  C   UNL A   1      43.734  21.804  25.539  1.00  0.00     0.202 C 
BRANCH  28  29
ATOM     29  C   UNL A   1      43.914  22.737  24.332  1.00  0.00     0.261 C 
BRANCH  29  30
ATOM     30  O   UNL A   1      43.846  24.145  24.605  1.00  0.00    -0.460 OA
BRANCH  30  31
ATOM     31  C   UNL A   1      44.729  24.649  25.490  1.00  0.00     0.338 C 
ATOM     32  O   UNL A   1      45.948  24.618  25.424  1.00  0.00    -0.246 OA
BRANCH  31  33
ATOM     33  C   UNL A   1      43.966  25.414  26.494  1.00  0.00     0.060 A 
ATOM     34  C   UNL A   1      44.138  26.803  26.570  1.00  0.00     0.016 A 
ATOM     35  C   UNL A   1      43.073  24.761  27.347  1.00  0.00     0.016 A 
ATOM     36  C   UNL A   1      43.433  27.540  27.522  1.00  0.00     0.010 A 
ATOM     37  C   UNL A   1      42.389  25.498  28.316  1.00  0.00     0.010 A 
ATOM     38  C   UNL A   1      42.589  26.885  28.428  1.00  0.00    -0.014 A 
BRANCH  38  39
ATOM     39  C   UNL A   1      42.076  27.614  29.611  1.00  0.00     0.031 A 
ATOM     40  C   UNL A   1      40.779  28.365  29.477  1.00  0.00     0.074 A 
ATOM     41  C   UNL A   1      42.731  27.600  30.784  1.00  0.00     0.049 A 
ATOM     42  N   UNL A   1      40.157  29.111  30.352  1.00  0.00    -0.248 NA
ATOM     43  C   UNL A   1      40.096  28.259  28.178  1.00  0.00     0.031 C 
ATOM     44  C   UNL A   1      43.965  26.867  31.060  1.00  0.00     0.029 A 
ATOM     45  N   UNL A   1      42.441  28.232  31.968  1.00  0.00    -0.354 N 
ATOM     46  C   UNL A   1      39.014  29.568  29.708  1.00  0.00     0.074 A 
ATOM     47  C   UNL A   1      39.045  29.044  28.361  1.00  0.00     0.031 C 
ATOM     48  C   UNL A   1      44.333  27.098  32.333  1.00  0.00     0.029 A 
ATOM     49  C   UNL A   1      43.382  28.023  32.947  1.00  0.00     0.049 A 
ATOM     50  H   UNL A   1      41.636  28.781  32.103  1.00  0.00     0.167 HD
ATOM     51  C   UNL A   1      38.024  30.353  30.193  1.00  0.00     0.031 A 
ATOM     52  C   UNL A   1      43.475  28.542  34.188  1.00  0.00     0.031 A 
ATOM     53  C   UNL A   1      38.004  30.893  31.527  1.00  0.00     0.049 A 
ATOM     54  C   UNL A   1      42.411  29.492  34.674  1.00  0.00     0.074 A 
ATOM     55  C   UNL A   1      37.042  31.693  32.118  1.00  0.00     0.029 A 
ATOM     56  N   UNL A   1      39.000  30.700  32.470  1.00  0.00    -0.354 N 
ATOM     57  N   UNL A   1      41.322  29.900  34.066  1.00  0.00    -0.248 NA
ATOM     58  C   UNL A   1      42.587  30.050  36.023  1.00  0.00     0.031 C 
ATOM     59  C   UNL A   1      37.489  32.039  33.396  1.00  0.00     0.029 A 
ATOM     60  C   UNL A   1      38.693  31.393  33.628  1.00  0.00     0.049 A 
ATOM     61  H   UNL A   1      39.807  30.151  32.337  1.00  0.00     0.167 HD
ATOM     62  C   UNL A   1      40.670  30.732  34.969  1.00  0.00     0.074 A 
ATOM     63  C   UNL A   1      41.477  30.758  36.170  1.00  0.00     0.031 C 
ATOM     64  C   UNL A   1      39.506  31.412  34.818  1.00  0.00     0.031 A 
BRANCH  51  65
ATOM     65  C   UNL A   1      36.902  30.710  29.258  1.00  0.00    -0.014 A 
ATOM     66  C   UNL A   1      35.968  29.751  28.833  1.00  0.00     0.009 A 
ATOM     67  C   UNL A   1      36.763  32.034  28.816  1.00  0.00     0.009 A 
ATOM     68  C   UNL A   1      34.940  30.105  27.956  1.00  0.00     0.001 A 
ATOM     69  C   UNL A   1      35.716  32.392  27.965  1.00  0.00     0.001 A 
ATOM     70  C   UNL A   1      34.812  31.426  27.528  1.00  0.00     0.000 A 
ENDBRANCH  51  65
BRANCH  52  71
ATOM     71  C   UNL A   1      44.632  28.198  35.059  1.00  0.00    -0.014 A 
ATOM     72  C   UNL A   1      44.540  27.162  36.001  1.00  0.00     0.009 A 
ATOM     73  C   UNL A   1      45.828  28.930  34.974  1.00  0.00     0.009 A 
ATOM     74  C   UNL A   1      45.609  26.886  36.858  1.00  0.00     0.001 A 
ATOM     75  C   UNL A   1      46.906  28.630  35.808  1.00  0.00     0.001 A 
ATOM     76  C   UNL A   1      46.792  27.616  36.758  1.00  0.00     0.000 A 
ENDBRANCH  52  71
BRANCH  64  77
ATOM     77  C   UNL A   1      39.009  32.208  35.995  1.00  0.00    -0.014 A 
ATOM     78  C   UNL A   1      39.369  33.552  36.179  1.00  0.00     0.009 A 
ATOM     79  C   UNL A   1      38.129  31.610  36.911  1.00  0.00     0.009 A 
ATOM     80  C   UNL A   1      38.885  34.269  37.275  1.00  0.00     0.001 A 
ATOM     81  C   UNL A   1      37.619  32.339  37.988  1.00  0.00     0.001 A 
ATOM     82  C   UNL A   1      38.007  33.665  38.175  1.00  0.00     0.000 A 
ENDBRANCH  64  77
ENDBRANCH  38  39
ENDBRANCH  31  33
ENDBRANCH  30  31
ENDBRANCH  29  30
ENDBRANCH  28  29
ENDBRANCH  27  28
ENDBRANCH  26  27
ENDBRANCH  25  26
ENDBRANCH   1  25
TORSDOF 22
ENDMDL
MODEL 2
REMARK VINA RESULT:      -8.8      3.740      6.242
REMARK SMILES CC1(C)C(C(=O)N2CCOC[C@H]2C(=O)OCCOCCOCCOCCOC(=O)c2ccc(-c3c4nc(c(-c5ccccc5)c5ccc([nH]5)c(-c5ccccc5)c5nc(c(-c6ccccc6)c6ccc3[nH]6)C=C5)C=C4)cc2)C1(C)C
REMARK SMILES IDX 21 1 20 2 19 3 18 4 17 5 16 6 15 7 13 8 14 9 12 10 7 11 8 12
REMARK SMILES IDX 9 13 11 14 10 15 5 16 6 17 4 18 1 19 2 20 3 21 78 22 79 23
REMARK SMILES IDX 80 24 22 25 23 26 24 27 25 28 26 29 27 30 28 31 29 32 30 33
REMARK SMILES IDX 31 34 77 35 32 36 76 37 33 38 34 39 35 40 70 41 36 42 75 43
REMARK SMILES IDX 69 44 71 45 37 46 74 47 68 48 67 49 38 51 60 52 45 53 59 54
REMARK SMILES IDX 46 55 49 56 58 57 72 58 47 59 48 60 57 62 73 63 50 64 39 65
REMARK SMILES IDX 40 66 44 67 41 68 43 69 42 70 61 71 62 72 66 73 63 74 65 75
REMARK SMILES IDX 64 76 51 77 52 78 56 79 53 80 55 81 54 82
REMARK H PARENT 71 50 49 61
REMARK Flexibility Score: inf
ROOT
ATOM      1  O   UNL A   1      34.301  21.193  25.966  1.00  0.00    -0.377 OA
ENDROOT
BRANCH   1   2
ATOM      2  C   UNL A   1      34.026  20.240  24.950  1.00  0.00     0.188 C 
BRANCH   2   3
ATOM      3  C   UNL A   1      32.698  20.338  24.181  1.00  0.00     0.188 C 
BRANCH   3   4
ATOM      4  O   UNL A   1      32.199  21.653  24.061  1.00  0.00    -0.376 OA
BRANCH   4   5
ATOM      5  C   UNL A   1      32.185  22.304  22.806  1.00  0.00     0.202 C 
BRANCH   5   6
ATOM      6  C   UNL A   1      33.431  22.886  22.114  1.00  0.00     0.261 C 
BRANCH   6   7
ATOM      7  O   UNL A   1      33.970  24.113  22.613  1.00  0.00    -0.462 OA
BRANCH   7   8
ATOM      8  C   UNL A   1      33.365  25.260  22.230  1.00  0.00     0.331 C 
ATOM      9  O   UNL A   1      33.223  25.591  21.055  1.00  0.00    -0.250 OA
BRANCH   8  10
ATOM     10  C   UNL A   1      32.995  26.188  23.407  1.00  0.00     0.221 C 
ATOM     11  N   UNL A   1      32.568  27.608  23.237  1.00  0.00    -0.324 N 
ATOM     12  C   UNL A   1      31.302  27.782  22.541  1.00  0.00     0.149 C 
ATOM     13  C   UNL A   1      30.210  26.888  23.147  1.00  0.00     0.181 C 
ATOM     14  C   UNL A   1      31.853  25.459  24.123  1.00  0.00     0.197 C 
ATOM     15  O   UNL A   1      30.640  25.530  23.347  1.00  0.00    -0.377 OA
BRANCH  11  16
ATOM     16  C   UNL A   1      33.385  28.594  23.778  1.00  0.00     0.227 C 
ATOM     17  O   UNL A   1      34.466  28.841  23.238  1.00  0.00    -0.275 OA
BRANCH  16  18
ATOM     18  C   UNL A   1      33.128  29.365  25.046  1.00  0.00     0.091 C 
ATOM     19  C   UNL A   1      32.299  30.559  27.209  1.00  0.00     0.012 C 
ATOM     20  C   UNL A   1      32.457  29.256  26.416  1.00  0.00    -0.017 C 
ATOM     21  C   UNL A   1      31.295  28.353  26.720  1.00  0.00     0.012 C 
ATOM     22  C   UNL A   1      33.879  28.733  26.259  1.00  0.00    -0.017 C 
ATOM     23  C   UNL A   1      35.050  29.488  26.849  1.00  0.00     0.012 C 
ATOM     24  C   UNL A   1      34.159  27.244  26.252  1.00  0.00     0.012 C 
ENDBRANCH  16  18
ENDBRANCH  11  16
ENDBRANCH   8  10
ENDBRANCH   7   8
ENDBRANCH   6   7
ENDBRANCH   5   6
ENDBRANCH   4   5
ENDBRANCH   3   4
ENDBRANCH   2   3
ENDBRANCH   1   2
BRANCH   1  25
ATOM     25  C   UNL A   1      35.381  22.106  25.809  1.00  0.00     0.188 C 
BRANCH  25  26
ATOM     26  C   UNL A   1      36.388  21.994  24.644  1.00  0.00     0.188 C 
BRANCH  26  27
ATOM     27  O   UNL A   1      37.602  21.336  24.956  1.00  0.00    -0.376 OA
BRANCH  27  28
ATOM     28  C   UNL A   1      37.622  19.919  24.933  1.00  0.00     0.202 C 
BRANCH  28  29
ATOM     29  C   UNL A   1      38.951  19.223  25.262  1.00  0.00     0.261 C 
BRANCH  29  30
ATOM     30  O   UNL A   1      39.646  19.702  26.423  1.00  0.00    -0.460 OA
BRANCH  30  31
ATOM     31  C   UNL A   1      40.980  19.870  26.322  1.00  0.00     0.338 C 
ATOM     32  O   UNL A   1      41.792  19.097  25.839  1.00  0.00    -0.246 OA
BRANCH  31  33
ATOM     33  C   UNL A   1      41.288  21.248  26.747  1.00  0.00     0.060 A 
ATOM     34  C   UNL A   1      40.801  22.322  25.990  1.00  0.00     0.016 A 
ATOM     35  C   UNL A   1      42.045  21.477  27.899  1.00  0.00     0.016 A 
ATOM     36  C   UNL A   1      41.094  23.632  26.370  1.00  0.00     0.010 A 
ATOM     37  C   UNL A   1      42.360  22.788  28.262  1.00  0.00     0.010 A 
ATOM     38  C   UNL A   1      41.911  23.869  27.483  1.00  0.00    -0.014 A 
BRANCH  38  39
ATOM     39  C   UNL A   1      42.461  25.225  27.714  1.00  0.00     0.031 A 
ATOM     40  C   UNL A   1      41.577  26.248  28.373  1.00  0.00     0.074 A 
ATOM     41  C   UNL A   1      43.719  25.544  27.364  1.00  0.00     0.049 A 
ATOM     42  N   UNL A   1      41.816  27.507  28.637  1.00  0.00    -0.248 NA
ATOM     43  C   UNL A   1      40.243  25.786  28.790  1.00  0.00     0.031 C 
ATOM     44  C   UNL A   1      44.692  24.630  26.770  1.00  0.00     0.029 A 
ATOM     45  N   UNL A   1      44.390  26.737  27.460  1.00  0.00    -0.354 N 
ATOM     46  C   UNL A   1      40.661  27.988  29.242  1.00  0.00     0.074 A 
ATOM     47  C   UNL A   1      39.713  26.897  29.278  1.00  0.00     0.031 C 
ATOM     48  C   UNL A   1      45.837  25.301  26.545  1.00  0.00     0.029 A 
ATOM     49  C   UNL A   1      45.662  26.696  26.945  1.00  0.00     0.049 A 
ATOM     50  H   UNL A   1      43.997  27.546  27.861  1.00  0.00     0.167 HD
ATOM     51  C   UNL A   1      40.412  29.226  29.728  1.00  0.00     0.031 A 
ATOM     52  C   UNL A   1      46.571  27.680  26.792  1.00  0.00     0.031 A 
ATOM     53  C   UNL A   1      41.348  30.317  29.672  1.00  0.00     0.049 A 
ATOM     54  C   UNL A   1      46.235  29.075  27.251  1.00  0.00     0.074 A 
ATOM     55  C   UNL A   1      41.193  31.609  30.144  1.00  0.00     0.029 A 
ATOM     56  N   UNL A   1      42.606  30.248  29.097  1.00  0.00    -0.354 N 
ATOM     57  N   UNL A   1      45.150  29.514  27.844  1.00  0.00    -0.248 NA
ATOM     58  C   UNL A   1      47.254  30.110  27.026  1.00  0.00     0.031 C 
ATOM     59  C   UNL A   1      42.332  32.339  29.793  1.00  0.00     0.029 A 
ATOM     60  C   UNL A   1      43.227  31.483  29.171  1.00  0.00     0.049 A 
ATOM     61  H   UNL A   1      43.001  29.440  28.695  1.00  0.00     0.167 HD
ATOM     62  C   UNL A   1      45.370  30.864  28.091  1.00  0.00     0.074 A 
ATOM     63  C   UNL A   1      46.697  31.168  27.598  1.00  0.00     0.031 C 
ATOM     64  C   UNL A   1      44.548  31.772  28.675  1.00  0.00     0.031 A 
BRANCH  51  65
ATOM     65  C   UNL A   1      39.054  29.476  30.323  1.00  0.00    -0.014 A 
ATOM     66  C   UNL A   1      38.000  29.995  29.553  1.00  0.00     0.009 A 
ATOM     67  C   UNL A   1      38.818  29.162  31.670  1.00  0.00     0.009 A 
ATOM     68  C   UNL A   1      36.750  30.227  30.131  1.00  0.00     0.001 A 
ATOM     69  C   UNL A   1      37.560  29.365  32.236  1.00  0.00     0.001 A 
ATOM     70  C   UNL A   1      36.529  29.906  31.471  1.00  0.00     0.000 A 
ENDBRANCH  51  65
BRANCH  52  71
ATOM     71  C   UNL A   1      47.884  27.394  26.150  1.00  0.00    -0.014 A 
ATOM     72  C   UNL A   1      48.031  27.456  24.756  1.00  0.00     0.009 A 
ATOM     73  C   UNL A   1      48.991  27.025  26.931  1.00  0.00     0.009 A 
ATOM     74  C   UNL A   1      49.249  27.127  24.156  1.00  0.00     0.001 A 
ATOM     75  C   UNL A   1      50.217  26.729  26.332  1.00  0.00     0.001 A 
ATOM     76  C   UNL A   1      50.342  26.768  24.945  1.00  0.00     0.000 A 
ENDBRANCH  52  71
BRANCH  64  77
ATOM     77  C   UNL A   1      45.076  33.171  28.856  1.00  0.00    -0.014 A 
ATOM     78  C   UNL A   1      44.852  34.170  27.897  1.00  0.00     0.009 A 
ATOM     79  C   UNL A   1      45.770  33.501  30.030  1.00  0.00     0.009 A 
ATOM     80  C   UNL A   1      45.344  35.463  28.095  1.00  0.00     0.001 A 
ATOM     81  C   UNL A   1      46.232  34.802  30.241  1.00  0.00     0.001 A 
ATOM     82  C   UNL A   1      46.029  35.779  29.269  1.00  0.00     0.000 A 
ENDBRANCH  64  77
ENDBRANCH  38  39
ENDBRANCH  31  33
ENDBRANCH  30  31
ENDBRANCH  29  30
ENDBRANCH  28  29
ENDBRANCH  27  28
ENDBRANCH  26  27
ENDBRANCH  25  26
ENDBRANCH   1  25
TORSDOF 22
ENDMDL
MODEL 3
REMARK VINA RESULT:      -8.7      4.048      9.302
REMARK SMILES CC1(C)C(C(=O)N2CCOC[C@H]2C(=O)OCCOCCOCCOCCOC(=O)c2ccc(-c3c4nc(c(-c5ccccc5)c5ccc([nH]5)c(-c5ccccc5)c5nc(c(-c6ccccc6)c6ccc3[nH]6)C=C5)C=C4)cc2)C1(C)C
REMARK SMILES IDX 21 1 20 2 19 3 18 4 17 5 16 6 15 7 13 8 14 9 12 10 7 11 8 12
REMARK SMILES IDX 9 13 11 14 10 15 5 16 6 17 4 18 1 19 2 20 3 21 78 22 79 23
REMARK SMILES IDX 80 24 22 25 23 26 24 27 25 28 26 29 27 30 28 31 29 32 30 33
REMARK SMILES IDX 31 34 77 35 32 36 76 37 33 38 34 39 35 40 70 41 36 42 75 43
REMARK SMILES IDX 69 44 71 45 37 46 74 47 68 48 67 49 38 51 60 52 45 53 59 54
REMARK SMILES IDX 46 55 49 56 58 57 72 58 47 59 48 60 57 62 73 63 50 64 39 65
REMARK SMILES IDX 40 66 44 67 41 68 43 69 42 70 61 71 62 72 66 73 63 74 65 75
REMARK SMILES IDX 64 76 51 77 52 78 56 79 53 80 55 81 54 82
REMARK H PARENT 71 50 49 61
REMARK Flexibility Score: inf
ROOT
ATOM      1  O   UNL A   1      46.364  21.530  25.364  1.00  0.00    -0.377 OA
ENDROOT
BRANCH   1   2
ATOM      2  C   UNL A   1      46.152  22.721  24.620  1.00  0.00     0.188 C 
BRANCH   2   3
ATOM      3  C   UNL A   1      46.587  24.064  25.229  1.00  0.00     0.188 C 
BRANCH   3   4
ATOM      4  O   UNL A   1      45.994  25.191  24.619  1.00  0.00    -0.376 OA
BRANCH   4   5
ATOM      5  C   UNL A   1      46.320  26.497  25.052  1.00  0.00     0.202 C 
BRANCH   5   6
ATOM      6  C   UNL A   1      45.344  27.687  25.038  1.00  0.00     0.261 C 
BRANCH   6   7
ATOM      7  O   UNL A   1      45.772  28.918  25.625  1.00  0.00    -0.462 OA
BRANCH   7   8
ATOM      8  C   UNL A   1      45.367  29.179  26.889  1.00  0.00     0.331 C 
ATOM      9  O   UNL A   1      45.096  28.303  27.708  1.00  0.00    -0.250 OA
BRANCH   8  10
ATOM     10  C   UNL A   1      45.137  30.680  27.168  1.00  0.00     0.221 C 
ATOM     11  N   UNL A   1      44.952  31.247  28.536  1.00  0.00    -0.324 N 
ATOM     12  C   UNL A   1      46.119  31.140  29.400  1.00  0.00     0.149 C 
ATOM     13  C   UNL A   1      47.381  31.656  28.692  1.00  0.00     0.181 C 
ATOM     14  C   UNL A   1      46.358  31.373  26.555  1.00  0.00     0.197 C 
ATOM     15  O   UNL A   1      47.531  31.138  27.358  1.00  0.00    -0.377 OA
BRANCH  11  16
ATOM     16  C   UNL A   1      43.728  31.838  28.828  1.00  0.00     0.227 C 
ATOM     17  O   UNL A   1      42.744  31.119  29.015  1.00  0.00    -0.275 OA
BRANCH  16  18
ATOM     18  C   UNL A   1      43.439  33.315  28.861  1.00  0.00     0.091 C 
ATOM     19  C   UNL A   1      42.544  35.762  28.922  1.00  0.00     0.012 C 
ATOM     20  C   UNL A   1      42.569  34.365  29.553  1.00  0.00    -0.017 C 
ATOM     21  C   UNL A   1      41.226  34.080  30.165  1.00  0.00     0.012 C 
ATOM     22  C   UNL A   1      43.874  33.950  30.218  1.00  0.00    -0.017 C 
ATOM     23  C   UNL A   1      45.068  34.880  30.224  1.00  0.00     0.012 C 
ATOM     24  C   UNL A   1      43.868  33.090  31.465  1.00  0.00     0.012 C 
ENDBRANCH  16  18
ENDBRANCH  11  16
ENDBRANCH   8  10
ENDBRANCH   7   8
ENDBRANCH   6   7
ENDBRANCH   5   6
ENDBRANCH   4   5
ENDBRANCH   3   4
ENDBRANCH   2   3
ENDBRANCH   1   2
BRANCH   1  25
ATOM     25  C   UNL A   1      46.418  20.276  24.694  1.00  0.00     0.188 C 
BRANCH  25  26
ATOM     26  C   UNL A   1      45.238  19.280  24.717  1.00  0.00     0.188 C 
BRANCH  26  27
ATOM     27  O   UNL A   1      43.950  19.868  24.699  1.00  0.00    -0.376 OA
BRANCH  27  28
ATOM     28  C   UNL A   1      43.070  19.586  25.773  1.00  0.00     0.202 C 
BRANCH  28  29
ATOM     29  C   UNL A   1      42.193  20.735  26.292  1.00  0.00     0.261 C 
BRANCH  29  30
ATOM     30  O   UNL A   1      42.869  21.972  26.566  1.00  0.00    -0.460 OA
BRANCH  30  31
ATOM     31  C   UNL A   1      42.665  22.993  25.710  1.00  0.00     0.338 C 
ATOM     32  O   UNL A   1      42.680  22.955  24.490  1.00  0.00    -0.246 OA
BRANCH  31  33
ATOM     33  C   UNL A   1      42.241  24.161  26.505  1.00  0.00     0.060 A 
ATOM     34  C   UNL A   1      42.854  25.401  26.278  1.00  0.00     0.016 A 
ATOM     35  C   UNL A   1      41.229  24.032  27.460  1.00  0.00     0.016 A 
ATOM     36  C   UNL A   1      42.474  26.513  27.030  1.00  0.00     0.010 A 
ATOM     37  C   UNL A   1      40.869  25.141  28.229  1.00  0.00     0.010 A 
ATOM     38  C   UNL A   1      41.511  26.378  28.039  1.00  0.00    -0.014 A 
BRANCH  38  39
ATOM     39  C   UNL A   1      41.320  27.470  29.022  1.00  0.00     0.031 A 
ATOM     40  C   UNL A   1      42.274  27.557  30.182  1.00  0.00     0.074 A 
ATOM     41  C   UNL A   1      40.337  28.376  28.885  1.00  0.00     0.049 A 
ATOM     42  N   UNL A   1      42.282  28.390  31.190  1.00  0.00    -0.248 NA
ATOM     43  C   UNL A   1      43.364  26.569  30.205  1.00  0.00     0.031 C 
ATOM     44  C   UNL A   1      39.384  28.434  27.779  1.00  0.00     0.029 A 
ATOM     45  N   UNL A   1      39.979  29.424  29.696  1.00  0.00    -0.354 N 
ATOM     46  C   UNL A   1      43.370  28.021  31.971  1.00  0.00     0.074 A 
ATOM     47  C   UNL A   1      43.979  26.872  31.338  1.00  0.00     0.031 C 
ATOM     48  C   UNL A   1      38.541  29.463  27.986  1.00  0.00     0.029 A 
ATOM     49  C   UNL A   1      38.873  30.108  29.254  1.00  0.00     0.049 A 
ATOM     50  H   UNL A   1      40.469  29.663  30.516  1.00  0.00     0.167 HD
ATOM     51  C   UNL A   1      43.827  28.589  33.112  1.00  0.00     0.031 A 
ATOM     52  C   UNL A   1      38.194  31.123  29.825  1.00  0.00     0.031 A 
ATOM     53  C   UNL A   1      43.207  29.718  33.753  1.00  0.00     0.049 A 
ATOM     54  C   UNL A   1      38.663  31.677  31.145  1.00  0.00     0.074 A 
ATOM     55  C   UNL A   1      43.597  30.373  34.908  1.00  0.00     0.029 A 
ATOM     56  N   UNL A   1      42.060  30.350  33.301  1.00  0.00    -0.354 N 
ATOM     57  N   UNL A   1      39.707  31.337  31.864  1.00  0.00    -0.248 NA
ATOM     58  C   UNL A   1      37.860  32.760  31.732  1.00  0.00     0.031 C 
ATOM     59  C   UNL A   1      42.647  31.358  35.192  1.00  0.00     0.029 A 
ATOM     60  C   UNL A   1      41.708  31.367  34.173  1.00  0.00     0.049 A 
ATOM     61  H   UNL A   1      41.568  30.113  32.482  1.00  0.00     0.167 HD
ATOM     62  C   UNL A   1      39.704  32.185  32.965  1.00  0.00     0.074 A 
ATOM     63  C   UNL A   1      38.564  33.064  32.812  1.00  0.00     0.031 C 
ATOM     64  C   UNL A   1      40.569  32.234  34.009  1.00  0.00     0.031 A 
BRANCH  51  65
ATOM     65  C   UNL A   1      45.030  27.966  33.762  1.00  0.00    -0.014 A 
ATOM     66  C   UNL A   1      44.903  26.932  34.704  1.00  0.00     0.009 A 
ATOM     67  C   UNL A   1      46.315  28.405  33.407  1.00  0.00     0.009 A 
ATOM     68  C   UNL A   1      46.036  26.376  35.302  1.00  0.00     0.001 A 
ATOM     69  C   UNL A   1      47.446  27.825  33.982  1.00  0.00     0.001 A 
ATOM     70  C   UNL A   1      47.307  26.818  34.936  1.00  0.00     0.000 A 
ENDBRANCH  51  65
BRANCH  52  71
ATOM     71  C   UNL A   1      36.977  31.673  29.167  1.00  0.00    -0.014 A 
ATOM     72  C   UNL A   1      35.806  30.907  29.065  1.00  0.00     0.009 A 
ATOM     73  C   UNL A   1      36.993  32.961  28.606  1.00  0.00     0.009 A 
ATOM     74  C   UNL A   1      34.688  31.407  28.392  1.00  0.00     0.001 A 
ATOM     75  C   UNL A   1      35.863  33.471  27.963  1.00  0.00     0.001 A 
ATOM     76  C   UNL A   1      34.716  32.689  27.846  1.00  0.00     0.000 A 
ENDBRANCH  52  71
BRANCH  64  77
ATOM     77  C   UNL A   1      40.344  33.301  35.048  1.00  0.00    -0.014 A 
ATOM     78  C   UNL A   1      40.733  34.632  34.831  1.00  0.00     0.009 A 
ATOM     79  C   UNL A   1      39.690  32.972  36.246  1.00  0.00     0.009 A 
ATOM     80  C   UNL A   1      40.503  35.603  35.809  1.00  0.00     0.001 A 
ATOM     81  C   UNL A   1      39.431  33.951  37.207  1.00  0.00     0.001 A 
ATOM     82  C   UNL A   1      39.848  35.263  36.992  1.00  0.00     0.000 A 
ENDBRANCH  64  77
ENDBRANCH  38  39
ENDBRANCH  31  33
ENDBRANCH  30  31
ENDBRANCH  29  30
ENDBRANCH  28  29
ENDBRANCH  27  28
ENDBRANCH  26  27
ENDBRANCH  25  26
ENDBRANCH   1  25
TORSDOF 22
ENDMDL
