MODEL 1
REMARK VINA RESULT:     -11.1      0.000      0.000
REMARK SMILES O=C(OCCOCCOCCOCCOC(=O)c1ccc(-c2c3nc(c(-c4ccccc4)c4ccc([nH]4)c(-c4ccccc4)c4nc(c(-c5ccccc5)c5ccc2[nH]5)C=C4)C=C3)cc1)C1=Cc2c(Cl)ccc(Cl)c2O[C@@H]1C(F)(F)F
REMARK SMILES IDX 10 1 9 2 8 3 7 4 6 5 5 6 4 7 3 8 2 9 1 10 66 11 67 12 77 13
REMARK SMILES IDX 68 14 76 15 69 16 75 17 70 18 71 19 73 20 72 21 74 22 78 23
REMARK SMILES IDX 79 24 80 25 81 26 11 27 12 28 13 29 14 30 15 31 16 32 17 33
REMARK SMILES IDX 18 34 19 35 65 36 20 37 64 38 21 39 22 40 23 41 58 42 24 43
REMARK SMILES IDX 63 44 57 45 59 46 25 47 62 48 56 49 55 50 26 52 48 53 33 54
REMARK SMILES IDX 47 55 34 56 37 57 46 58 60 59 35 60 36 61 45 63 61 64 38 65
REMARK SMILES IDX 27 66 28 67 32 68 29 69 31 70 30 71 49 72 50 73 54 74 51 75
REMARK SMILES IDX 53 76 52 77 39 78 40 79 44 80 41 81 43 82 42 83
REMARK H PARENT 59 51 37 62
REMARK Flexibility Score: inf
ROOT
ATOM      1  C   UNL A   1      33.115  34.494  28.127  1.00  0.00     0.188 C 
ENDROOT
BRANCH   1   2
ATOM      2  O   UNL A   1      33.471  33.215  28.593  1.00  0.00    -0.377 OA
BRANCH   2   3
ATOM      3  C   UNL A   1      34.647  32.733  27.984  1.00  0.00     0.188 C 
BRANCH   3   4
ATOM      4  C   UNL A   1      34.680  31.216  27.758  1.00  0.00     0.188 C 
BRANCH   4   5
ATOM      5  O   UNL A   1      33.497  30.409  27.424  1.00  0.00    -0.376 OA
BRANCH   5   6
ATOM      6  C   UNL A   1      32.546  30.296  26.074  1.00  0.00     0.202 C 
BRANCH   6   7
ATOM      7  C   UNL A   1      31.273  28.643  25.481  1.00  0.00     0.261 C 
BRANCH   7   8
ATOM      8  O   UNL A   1      31.239  27.258  26.087  1.00  0.00    -0.460 OA
BRANCH   8   9
ATOM      9  C   UNL A   1      30.965  26.318  25.176  1.00  0.00     0.338 C 
ATOM     10  O   UNL A   1      29.912  25.764  24.974  1.00  0.00    -0.246 OA
BRANCH   9  11
ATOM     11  C   UNL A   1      32.334  25.891  24.932  1.00  0.00     0.087 C 
ATOM     12  C   UNL A   1      32.771  24.772  25.782  1.00  0.00     0.029 C 
ATOM     13  C   UNL A   1      32.064  25.773  23.035  1.00  0.00     0.316 C 
ATOM     14  C   UNL A   1      32.900  23.048  25.236  1.00  0.00     0.037 A 
ATOM     15  O   UNL A   1      32.062  23.924  22.432  1.00  0.00    -0.474 OA
ATOM     16  C   UNL A   1      33.213  22.043  26.123  1.00  0.00     0.052 A 
ATOM     17  C   UNL A   1      32.462  22.578  23.621  1.00  0.00     0.148 A 
ATOM     18  Cl  UNL A   1      33.586  22.320  27.773  1.00  0.00    -0.084 Cl
ATOM     19  C   UNL A   1      33.165  20.728  25.619  1.00  0.00     0.023 A 
ATOM     20  C   UNL A   1      32.384  21.258  23.240  1.00  0.00     0.083 A 
ATOM     21  C   UNL A   1      32.771  20.360  24.266  1.00  0.00     0.026 A 
ATOM     22  Cl  UNL A   1      31.783  20.676  21.761  1.00  0.00    -0.080 Cl
BRANCH  13  23
ATOM     23  C   UNL A   1      33.077  27.052  22.712  1.00  0.00     0.430 C 
ATOM     24  F   UNL A   1      32.588  28.297  22.851  1.00  0.00    -0.167 F 
ATOM     25  F   UNL A   1      34.087  26.989  23.632  1.00  0.00    -0.167 F 
ATOM     26  F   UNL A   1      33.714  26.988  21.516  1.00  0.00    -0.167 F 
ENDBRANCH  13  23
ENDBRANCH   9  11
ENDBRANCH   8   9
ENDBRANCH   7   8
ENDBRANCH   6   7
ENDBRANCH   5   6
ENDBRANCH   4   5
ENDBRANCH   3   4
ENDBRANCH   2   3
ENDBRANCH   1   2
BRANCH   1  27
ATOM     27  C   UNL A   1      32.883  35.570  29.193  1.00  0.00     0.188 C 
BRANCH  27  28
ATOM     28  O   UNL A   1      33.833  35.873  30.198  1.00  0.00    -0.376 OA
BRANCH  28  29
ATOM     29  C   UNL A   1      33.957  35.081  31.364  1.00  0.00     0.202 C 
BRANCH  29  30
ATOM     30  C   UNL A   1      35.242  34.299  31.687  1.00  0.00     0.261 C 
BRANCH  30  31
ATOM     31  O   UNL A   1      35.123  32.873  31.771  1.00  0.00    -0.460 OA
BRANCH  31  32
ATOM     32  C   UNL A   1      35.935  32.260  32.659  1.00  0.00     0.338 C 
ATOM     33  O   UNL A   1      35.866  32.306  33.875  1.00  0.00    -0.246 OA
BRANCH  32  34
ATOM     34  C   UNL A   1      36.848  31.347  31.935  1.00  0.00     0.060 A 
ATOM     35  C   UNL A   1      37.722  30.534  32.679  1.00  0.00     0.016 A 
ATOM     36  C   UNL A   1      36.862  31.299  30.541  1.00  0.00     0.016 A 
ATOM     37  C   UNL A   1      38.629  29.693  32.037  1.00  0.00     0.010 A 
ATOM     38  C   UNL A   1      37.806  30.498  29.897  1.00  0.00     0.010 A 
ATOM     39  C   UNL A   1      38.717  29.725  30.643  1.00  0.00    -0.014 A 
BRANCH  39  40
ATOM     40  C   UNL A   1      39.914  29.180  29.967  1.00  0.00     0.031 A 
ATOM     41  C   UNL A   1      41.076  30.106  29.762  1.00  0.00     0.074 A 
ATOM     42  C   UNL A   1      39.960  27.919  29.509  1.00  0.00     0.049 A 
ATOM     43  N   UNL A   1      42.159  29.938  29.050  1.00  0.00    -0.248 NA
ATOM     44  C   UNL A   1      40.991  31.412  30.439  1.00  0.00     0.031 C 
ATOM     45  C   UNL A   1      38.921  26.913  29.701  1.00  0.00     0.029 A 
ATOM     46  N   UNL A   1      40.915  27.287  28.754  1.00  0.00    -0.354 N 
ATOM     47  C   UNL A   1      42.863  31.130  29.159  1.00  0.00     0.074 A 
ATOM     48  C   UNL A   1      42.078  32.016  29.990  1.00  0.00     0.031 C 
ATOM     49  C   UNL A   1      39.276  25.794  29.045  1.00  0.00     0.029 A 
ATOM     50  C   UNL A   1      40.538  26.031  28.345  1.00  0.00     0.049 A 
ATOM     51  H   UNL A   1      41.783  27.692  28.528  1.00  0.00     0.167 HD
ATOM     52  C   UNL A   1      44.052  31.461  28.603  1.00  0.00     0.031 A 
ATOM     53  C   UNL A   1      41.117  25.194  27.463  1.00  0.00     0.031 A 
ATOM     54  C   UNL A   1      44.804  30.582  27.751  1.00  0.00     0.049 A 
ATOM     55  C   UNL A   1      42.399  25.606  26.785  1.00  0.00     0.074 A 
ATOM     56  C   UNL A   1      46.031  30.803  27.155  1.00  0.00     0.029 A 
ATOM     57  N   UNL A   1      44.385  29.320  27.354  1.00  0.00    -0.354 N 
ATOM     58  N   UNL A   1      43.077  26.722  26.909  1.00  0.00    -0.248 NA
ATOM     59  C   UNL A   1      42.997  24.644  25.848  1.00  0.00     0.031 C 
ATOM     60  C   UNL A   1      46.314  29.713  26.327  1.00  0.00     0.029 A 
ATOM     61  C   UNL A   1      45.311  28.768  26.486  1.00  0.00     0.049 A 
ATOM     62  H   UNL A   1      43.554  28.882  27.647  1.00  0.00     0.167 HD
ATOM     63  C   UNL A   1      44.196  26.584  26.097  1.00  0.00     0.074 A 
ATOM     64  C   UNL A   1      44.108  25.273  25.486  1.00  0.00     0.031 C 
ATOM     65  C   UNL A   1      45.210  27.460  25.885  1.00  0.00     0.031 A 
BRANCH  52  66
ATOM     66  C   UNL A   1      44.556  32.859  28.837  1.00  0.00    -0.014 A 
ATOM     67  C   UNL A   1      45.303  33.200  29.977  1.00  0.00     0.009 A 
ATOM     68  C   UNL A   1      44.263  33.862  27.900  1.00  0.00     0.009 A 
ATOM     69  C   UNL A   1      45.690  34.523  30.202  1.00  0.00     0.001 A 
ATOM     70  C   UNL A   1      44.687  35.175  28.105  1.00  0.00     0.001 A 
ATOM     71  C   UNL A   1      45.384  35.509  29.264  1.00  0.00     0.000 A 
ENDBRANCH  52  66
BRANCH  53  72
ATOM     72  C   UNL A   1      40.458  23.900  27.140  1.00  0.00    -0.014 A 
ATOM     73  C   UNL A   1      39.306  23.858  26.342  1.00  0.00     0.009 A 
ATOM     74  C   UNL A   1      41.000  22.693  27.611  1.00  0.00     0.009 A 
ATOM     75  C   UNL A   1      38.705  22.635  26.032  1.00  0.00     0.001 A 
ATOM     76  C   UNL A   1      40.418  21.470  27.271  1.00  0.00     0.001 A 
ATOM     77  C   UNL A   1      39.267  21.442  26.487  1.00  0.00     0.000 A 
ENDBRANCH  53  72
BRANCH  65  78
ATOM     78  C   UNL A   1      46.347  27.021  25.002  1.00  0.00    -0.014 A 
ATOM     79  C   UNL A   1      46.821  27.820  23.951  1.00  0.00     0.009 A 
ATOM     80  C   UNL A   1      47.014  25.818  25.294  1.00  0.00     0.009 A 
ATOM     81  C   UNL A   1      47.927  27.412  23.199  1.00  0.00     0.001 A 
ATOM     82  C   UNL A   1      48.139  25.432  24.566  1.00  0.00     0.001 A 
ATOM     83  C   UNL A   1      48.591  26.226  23.513  1.00  0.00     0.000 A 
ENDBRANCH  65  78
ENDBRANCH  39  40
ENDBRANCH  32  34
ENDBRANCH  31  32
ENDBRANCH  30  31
ENDBRANCH  29  30
ENDBRANCH  28  29
ENDBRANCH  27  28
ENDBRANCH   1  27
TORSDOF 21
ENDMDL
MODEL 2
REMARK VINA RESULT:     -10.9      4.966     10.440
REMARK SMILES O=C(OCCOCCOCCOCCOC(=O)c1ccc(-c2c3nc(c(-c4ccccc4)c4ccc([nH]4)c(-c4ccccc4)c4nc(c(-c5ccccc5)c5ccc2[nH]5)C=C4)C=C3)cc1)C1=Cc2c(Cl)ccc(Cl)c2O[C@@H]1C(F)(F)F
REMARK SMILES IDX 10 1 9 2 8 3 7 4 6 5 5 6 4 7 3 8 2 9 1 10 66 11 67 12 77 13
REMARK SMILES IDX 68 14 76 15 69 16 75 17 70 18 71 19 73 20 72 21 74 22 78 23
REMARK SMILES IDX 79 24 80 25 81 26 11 27 12 28 13 29 14 30 15 31 16 32 17 33
REMARK SMILES IDX 18 34 19 35 65 36 20 37 64 38 21 39 22 40 23 41 58 42 24 43
REMARK SMILES IDX 63 44 57 45 59 46 25 47 62 48 56 49 55 50 26 52 48 53 33 54
REMARK SMILES IDX 47 55 34 56 37 57 46 58 60 59 35 60 36 61 45 63 61 64 38 65
REMARK SMILES IDX 27 66 28 67 32 68 29 69 31 70 30 71 49 72 50 73 54 74 51 75
REMARK SMILES IDX 53 76 52 77 39 78 40 79 44 80 41 81 43 82 42 83
REMARK H PARENT 59 51 37 62
REMARK Flexibility Score: inf
ROOT
ATOM      1  C   UNL A   1      44.190  19.406  25.142  1.00  0.00     0.188 C 
ENDROOT
BRANCH   1   2
ATOM      2  O   UNL A   1      42.839  19.065  24.944  1.00  0.00    -0.377 OA
BRANCH   2   3
ATOM      3  C   UNL A   1      42.048  19.336  26.078  1.00  0.00     0.188 C 
BRANCH   3   4
ATOM      4  C   UNL A   1      41.415  20.733  26.103  1.00  0.00     0.188 C 
BRANCH   4   5
ATOM      5  O   UNL A   1      40.185  21.090  25.381  1.00  0.00    -0.376 OA
BRANCH   5   6
ATOM      6  C   UNL A   1      38.579  21.028  25.777  1.00  0.00     0.202 C 
BRANCH   6   7
ATOM      7  C   UNL A   1      36.914  21.936  24.724  1.00  0.00     0.261 C 
BRANCH   7   8
ATOM      8  O   UNL A   1      36.594  23.411  24.629  1.00  0.00    -0.460 OA
BRANCH   8   9
ATOM      9  C   UNL A   1      35.393  23.629  24.082  1.00  0.00     0.338 C 
ATOM     10  O   UNL A   1      35.141  23.953  22.947  1.00  0.00    -0.246 OA
BRANCH   9  11
ATOM     11  C   UNL A   1      34.659  23.834  25.322  1.00  0.00     0.087 C 
ATOM     12  C   UNL A   1      34.546  25.245  25.722  1.00  0.00     0.029 C 
ATOM     13  C   UNL A   1      33.185  22.749  24.744  1.00  0.00     0.316 C 
ATOM     14  C   UNL A   1      33.060  26.263  25.518  1.00  0.00     0.037 A 
ATOM     15  O   UNL A   1      31.607  23.827  24.384  1.00  0.00    -0.474 OA
ATOM     16  C   UNL A   1      33.071  27.606  25.820  1.00  0.00     0.052 A 
ATOM     17  C   UNL A   1      31.626  25.625  24.770  1.00  0.00     0.148 A 
ATOM     18  Cl  UNL A   1      34.428  28.416  26.481  1.00  0.00    -0.084 Cl
ATOM     19  C   UNL A   1      31.901  28.326  25.506  1.00  0.00     0.023 A 
ATOM     20  C   UNL A   1      30.554  26.425  24.447  1.00  0.00     0.083 A 
ATOM     21  C   UNL A   1      30.720  27.771  24.857  1.00  0.00     0.026 A 
ATOM     22  Cl  UNL A   1      29.191  25.957  23.545  1.00  0.00    -0.080 Cl
BRANCH  13  23
ATOM     23  C   UNL A   1      33.494  21.559  25.865  1.00  0.00     0.430 C 
ATOM     24  F   UNL A   1      33.822  21.936  27.113  1.00  0.00    -0.167 F 
ATOM     25  F   UNL A   1      32.325  20.865  26.025  1.00  0.00    -0.167 F 
ATOM     26  F   UNL A   1      34.386  20.618  25.468  1.00  0.00    -0.167 F 
ENDBRANCH  13  23
ENDBRANCH   9  11
ENDBRANCH   8   9
ENDBRANCH   7   8
ENDBRANCH   6   7
ENDBRANCH   5   6
ENDBRANCH   4   5
ENDBRANCH   3   4
ENDBRANCH   2   3
ENDBRANCH   1   2
BRANCH   1  27
ATOM     27  C   UNL A   1      44.886  20.134  23.987  1.00  0.00     0.188 C 
BRANCH  27  28
ATOM     28  O   UNL A   1      44.524  21.439  23.571  1.00  0.00    -0.376 OA
BRANCH  28  29
ATOM     29  C   UNL A   1      45.365  22.552  23.809  1.00  0.00     0.202 C 
BRANCH  29  30
ATOM     30  C   UNL A   1      45.835  22.931  25.224  1.00  0.00     0.261 C 
BRANCH  30  31
ATOM     31  O   UNL A   1      45.067  23.930  25.910  1.00  0.00    -0.460 OA
BRANCH  31  32
ATOM     32  C   UNL A   1      44.160  23.475  26.800  1.00  0.00     0.338 C 
ATOM     33  O   UNL A   1      44.001  22.324  27.167  1.00  0.00    -0.246 OA
BRANCH  32  34
ATOM     34  C   UNL A   1      43.474  24.626  27.428  1.00  0.00     0.060 A 
ATOM     35  C   UNL A   1      44.105  25.882  27.411  1.00  0.00     0.016 A 
ATOM     36  C   UNL A   1      42.230  24.475  28.044  1.00  0.00     0.016 A 
ATOM     37  C   UNL A   1      43.515  26.982  28.030  1.00  0.00     0.010 A 
ATOM     38  C   UNL A   1      41.664  25.562  28.710  1.00  0.00     0.010 A 
ATOM     39  C   UNL A   1      42.324  26.806  28.738  1.00  0.00    -0.014 A 
BRANCH  39  40
ATOM     40  C   UNL A   1      41.897  27.819  29.728  1.00  0.00     0.031 A 
ATOM     41  C   UNL A   1      42.598  27.829  31.055  1.00  0.00     0.074 A 
ATOM     42  C   UNL A   1      40.895  28.677  29.483  1.00  0.00     0.049 A 
ATOM     43  N   UNL A   1      42.304  28.483  32.148  1.00  0.00    -0.248 NA
ATOM     44  C   UNL A   1      43.785  26.963  31.167  1.00  0.00     0.031 C 
ATOM     45  C   UNL A   1      40.182  28.801  28.215  1.00  0.00     0.029 A 
ATOM     46  N   UNL A   1      40.282  29.582  30.311  1.00  0.00    -0.354 N 
ATOM     47  C   UNL A   1      43.241  28.075  33.087  1.00  0.00     0.074 A 
ATOM     48  C   UNL A   1      44.101  27.108  32.443  1.00  0.00     0.031 C 
ATOM     49  C   UNL A   1      39.199  29.706  28.360  1.00  0.00     0.029 A 
ATOM     50  C   UNL A   1      39.183  30.178  29.744  1.00  0.00     0.049 A 
ATOM     51  H   UNL A   1      40.599  29.785  31.221  1.00  0.00     0.167 HD
ATOM     52  C   UNL A   1      43.363  28.463  34.379  1.00  0.00     0.031 A 
ATOM     53  C   UNL A   1      38.240  30.967  30.295  1.00  0.00     0.031 A 
ATOM     54  C   UNL A   1      42.479  29.400  35.015  1.00  0.00     0.049 A 
ATOM     55  C   UNL A   1      38.339  31.326  31.756  1.00  0.00     0.074 A 
ATOM     56  C   UNL A   1      42.526  29.884  36.309  1.00  0.00     0.029 A 
ATOM     57  N   UNL A   1      41.372  29.976  34.409  1.00  0.00    -0.354 N 
ATOM     58  N   UNL A   1      39.240  30.961  32.636  1.00  0.00    -0.248 NA
ATOM     59  C   UNL A   1      37.295  32.207  32.298  1.00  0.00     0.031 C 
ATOM     60  C   UNL A   1      41.397  30.683  36.514  1.00  0.00     0.029 A 
ATOM     61  C   UNL A   1      40.702  30.778  35.317  1.00  0.00     0.049 A 
ATOM     62  H   UNL A   1      41.103  29.836  33.473  1.00  0.00     0.167 HD
ATOM     63  C   UNL A   1      38.894  31.593  33.825  1.00  0.00     0.074 A 
ATOM     64  C   UNL A   1      37.700  32.368  33.551  1.00  0.00     0.031 C 
ATOM     65  C   UNL A   1      39.515  31.545  35.030  1.00  0.00     0.031 A 
BRANCH  52  66
ATOM     66  C   UNL A   1      44.441  27.804  35.196  1.00  0.00    -0.014 A 
ATOM     67  C   UNL A   1      45.652  28.452  35.492  1.00  0.00     0.009 A 
ATOM     68  C   UNL A   1      44.244  26.497  35.668  1.00  0.00     0.009 A 
ATOM     69  C   UNL A   1      46.662  27.784  36.187  1.00  0.00     0.001 A 
ATOM     70  C   UNL A   1      45.238  25.846  36.400  1.00  0.00     0.001 A 
ATOM     71  C   UNL A   1      46.453  26.482  36.643  1.00  0.00     0.000 A 
ENDBRANCH  52  66
BRANCH  53  72
ATOM     72  C   UNL A   1      37.096  31.429  29.465  1.00  0.00    -0.014 A 
ATOM     73  C   UNL A   1      37.135  32.668  28.810  1.00  0.00     0.009 A 
ATOM     74  C   UNL A   1      35.964  30.613  29.303  1.00  0.00     0.009 A 
ATOM     75  C   UNL A   1      36.060  33.084  28.019  1.00  0.00     0.001 A 
ATOM     76  C   UNL A   1      34.906  31.016  28.485  1.00  0.00     0.001 A 
ATOM     77  C   UNL A   1      34.952  32.253  27.848  1.00  0.00     0.000 A 
ENDBRANCH  53  72
BRANCH  65  78
ATOM     78  C   UNL A   1      38.961  32.395  36.143  1.00  0.00    -0.014 A 
ATOM     79  C   UNL A   1      38.016  31.901  37.053  1.00  0.00     0.009 A 
ATOM     80  C   UNL A   1      39.473  33.690  36.331  1.00  0.00     0.009 A 
ATOM     81  C   UNL A   1      37.580  32.695  38.117  1.00  0.00     0.001 A 
ATOM     82  C   UNL A   1      39.063  34.467  37.415  1.00  0.00     0.001 A 
ATOM     83  C   UNL A   1      38.111  33.971  38.304  1.00  0.00     0.000 A 
ENDBRANCH  65  78
ENDBRANCH  39  40
ENDBRANCH  32  34
ENDBRANCH  31  32
ENDBRANCH  30  31
ENDBRANCH  29  30
ENDBRANCH  28  29
ENDBRANCH  27  28
ENDBRANCH   1  27
TORSDOF 21
ENDMDL
MODEL 3
REMARK VINA RESULT:     -10.8      3.726      8.962
REMARK SMILES O=C(OCCOCCOCCOCCOC(=O)c1ccc(-c2c3nc(c(-c4ccccc4)c4ccc([nH]4)c(-c4ccccc4)c4nc(c(-c5ccccc5)c5ccc2[nH]5)C=C4)C=C3)cc1)C1=Cc2c(Cl)ccc(Cl)c2O[C@@H]1C(F)(F)F
REMARK SMILES IDX 10 1 9 2 8 3 7 4 6 5 5 6 4 7 3 8 2 9 1 10 66 11 67 12 77 13
REMARK SMILES IDX 68 14 76 15 69 16 75 17 70 18 71 19 73 20 72 21 74 22 78 23
REMARK SMILES IDX 79 24 80 25 81 26 11 27 12 28 13 29 14 30 15 31 16 32 17 33
REMARK SMILES IDX 18 34 19 35 65 36 20 37 64 38 21 39 22 40 23 41 58 42 24 43
REMARK SMILES IDX 63 44 57 45 59 46 25 47 62 48 56 49 55 50 26 52 48 53 33 54
REMARK SMILES IDX 47 55 34 56 37 57 46 58 60 59 35 60 36 61 45 63 61 64 38 65
REMARK SMILES IDX 27 66 28 67 32 68 29 69 31 70 30 71 49 72 50 73 54 74 51 75
REMARK SMILES IDX 53 76 52 77 39 78 40 79 44 80 41 81 43 82 42 83
REMARK H PARENT 59 51 37 62
REMARK Flexibility Score: inf
ROOT
ATOM      1  C   UNL A   1      37.845  20.320  24.655  1.00  0.00     0.188 C 
ENDROOT
BRANCH   1   2
ATOM      2  O   UNL A   1      37.238  21.529  24.269  1.00  0.00    -0.377 OA
BRANCH   2   3
ATOM      3  C   UNL A   1      37.216  22.473  25.315  1.00  0.00     0.188 C 
BRANCH   3   4
ATOM      4  C   UNL A   1      35.815  22.860  25.804  1.00  0.00     0.188 C 
BRANCH   4   5
ATOM      5  O   UNL A   1      34.916  21.948  26.528  1.00  0.00    -0.376 OA
BRANCH   5   6
ATOM      6  C   UNL A   1      33.770  22.179  27.700  1.00  0.00     0.202 C 
BRANCH   6   7
ATOM      7  C   UNL A   1      31.620  22.319  27.447  1.00  0.00     0.261 C 
BRANCH   7   8
ATOM      8  O   UNL A   1      30.880  22.891  26.259  1.00  0.00    -0.460 OA
BRANCH   8   9
ATOM      9  C   UNL A   1      31.172  24.181  26.060  1.00  0.00     0.338 C 
ATOM     10  O   UNL A   1      31.223  25.066  26.878  1.00  0.00    -0.246 OA
BRANCH   9  11
ATOM     11  C   UNL A   1      30.905  24.213  24.630  1.00  0.00     0.087 C 
ATOM     12  C   UNL A   1      29.963  25.267  24.222  1.00  0.00     0.029 C 
ATOM     13  C   UNL A   1      32.771  24.193  24.181  1.00  0.00     0.316 C 
ATOM     14  C   UNL A   1      30.436  26.831  23.437  1.00  0.00     0.037 A 
ATOM     15  O   UNL A   1      33.347  25.905  23.460  1.00  0.00    -0.474 OA
ATOM     16  C   UNL A   1      29.503  27.811  23.185  1.00  0.00     0.052 A 
ATOM     17  C   UNL A   1      32.103  27.222  23.139  1.00  0.00     0.148 A 
ATOM     18  Cl  UNL A   1      27.829  27.626  23.501  1.00  0.00    -0.084 Cl
ATOM     19  C   UNL A   1      29.999  29.033  22.688  1.00  0.00     0.023 A 
ATOM     20  C   UNL A   1      32.495  28.469  22.709  1.00  0.00     0.083 A 
ATOM     21  C   UNL A   1      31.405  29.343  22.469  1.00  0.00     0.026 A 
ATOM     22  Cl  UNL A   1      34.096  29.024  22.573  1.00  0.00    -0.080 Cl
BRANCH  13  23
ATOM     23  C   UNL A   1      32.696  22.669  23.518  1.00  0.00     0.430 C 
ATOM     24  F   UNL A   1      31.693  22.399  22.665  1.00  0.00    -0.167 F 
ATOM     25  F   UNL A   1      33.825  22.522  22.758  1.00  0.00    -0.167 F 
ATOM     26  F   UNL A   1      32.765  21.653  24.413  1.00  0.00    -0.167 F 
ENDBRANCH  13  23
ENDBRANCH   9  11
ENDBRANCH   8   9
ENDBRANCH   7   8
ENDBRANCH   6   7
ENDBRANCH   5   6
ENDBRANCH   4   5
ENDBRANCH   3   4
ENDBRANCH   2   3
ENDBRANCH   1   2
BRANCH   1  27
ATOM     27  C   UNL A   1      39.168  20.432  25.419  1.00  0.00     0.188 C 
BRANCH  27  28
ATOM     28  O   UNL A   1      39.963  19.307  25.750  1.00  0.00    -0.376 OA
BRANCH  28  29
ATOM     29  C   UNL A   1      41.155  19.439  26.502  1.00  0.00     0.202 C 
BRANCH  29  30
ATOM     30  C   UNL A   1      42.495  18.865  26.012  1.00  0.00     0.261 C 
BRANCH  30  31
ATOM     31  O   UNL A   1      43.091  19.505  24.874  1.00  0.00    -0.460 OA
BRANCH  31  32
ATOM     32  C   UNL A   1      44.240  20.175  25.103  1.00  0.00     0.338 C 
ATOM     33  O   UNL A   1      45.372  19.806  24.843  1.00  0.00    -0.246 OA
BRANCH  32  34
ATOM     34  C   UNL A   1      43.923  21.544  25.568  1.00  0.00     0.060 A 
ATOM     35  C   UNL A   1      43.651  22.537  24.612  1.00  0.00     0.016 A 
ATOM     36  C   UNL A   1      43.907  21.857  26.928  1.00  0.00     0.016 A 
ATOM     37  C   UNL A   1      43.391  23.849  25.004  1.00  0.00     0.010 A 
ATOM     38  C   UNL A   1      43.700  23.180  27.320  1.00  0.00     0.010 A 
ATOM     39  C   UNL A   1      43.482  24.185  26.357  1.00  0.00    -0.014 A 
BRANCH  39  40
ATOM     40  C   UNL A   1      43.624  25.601  26.758  1.00  0.00     0.031 A 
ATOM     41  C   UNL A   1      45.013  26.166  26.828  1.00  0.00     0.074 A 
ATOM     42  C   UNL A   1      42.565  26.356  27.092  1.00  0.00     0.049 A 
ATOM     43  N   UNL A   1      45.424  27.307  27.316  1.00  0.00    -0.248 NA
ATOM     44  C   UNL A   1      46.086  25.313  26.290  1.00  0.00     0.031 C 
ATOM     45  C   UNL A   1      41.170  25.938  27.006  1.00  0.00     0.029 A 
ATOM     46  N   UNL A   1      42.512  27.627  27.606  1.00  0.00    -0.354 N 
ATOM     47  C   UNL A   1      46.806  27.289  27.182  1.00  0.00     0.074 A 
ATOM     48  C   UNL A   1      47.163  26.022  26.584  1.00  0.00     0.031 C 
ATOM     49  C   UNL A   1      40.394  26.923  27.490  1.00  0.00     0.029 A 
ATOM     50  C   UNL A   1      41.245  28.012  27.969  1.00  0.00     0.049 A 
ATOM     51  H   UNL A   1      43.303  28.205  27.705  1.00  0.00     0.167 HD
ATOM     52  C   UNL A   1      47.699  28.241  27.541  1.00  0.00     0.031 A 
ATOM     53  C   UNL A   1      40.828  29.091  28.659  1.00  0.00     0.031 A 
ATOM     54  C   UNL A   1      47.332  29.482  28.166  1.00  0.00     0.049 A 
ATOM     55  C   UNL A   1      41.840  30.105  29.126  1.00  0.00     0.074 A 
ATOM     56  C   UNL A   1      48.151  30.528  28.547  1.00  0.00     0.029 A 
ATOM     57  N   UNL A   1      46.038  29.832  28.524  1.00  0.00    -0.354 N 
ATOM     58  N   UNL A   1      43.143  30.100  28.976  1.00  0.00    -0.248 NA
ATOM     59  C   UNL A   1      41.326  31.273  29.855  1.00  0.00     0.031 C 
ATOM     60  C   UNL A   1      47.365  31.472  29.215  1.00  0.00     0.029 A 
ATOM     61  C   UNL A   1      46.042  31.060  29.161  1.00  0.00     0.049 A 
ATOM     62  H   UNL A   1      45.236  29.287  28.350  1.00  0.00     0.167 HD
ATOM     63  C   UNL A   1      43.601  31.276  29.559  1.00  0.00     0.074 A 
ATOM     64  C   UNL A   1      42.434  31.972  30.063  1.00  0.00     0.031 C 
ATOM     65  C   UNL A   1      44.871  31.742  29.657  1.00  0.00     0.031 A 
BRANCH  52  66
ATOM     66  C   UNL A   1      49.157  27.928  27.338  1.00  0.00    -0.014 A 
ATOM     67  C   UNL A   1      49.932  27.311  28.334  1.00  0.00     0.009 A 
ATOM     68  C   UNL A   1      49.772  28.275  26.124  1.00  0.00     0.009 A 
ATOM     69  C   UNL A   1      51.300  27.106  28.142  1.00  0.00     0.001 A 
ATOM     70  C   UNL A   1      51.129  28.029  25.917  1.00  0.00     0.001 A 
ATOM     71  C   UNL A   1      51.896  27.462  26.932  1.00  0.00     0.000 A 
ENDBRANCH  52  66
BRANCH  53  72
ATOM     72  C   UNL A   1      39.384  29.238  28.985  1.00  0.00    -0.014 A 
ATOM     73  C   UNL A   1      38.476  29.723  28.034  1.00  0.00     0.009 A 
ATOM     74  C   UNL A   1      38.904  28.863  30.251  1.00  0.00     0.009 A 
ATOM     75  C   UNL A   1      37.119  29.841  28.347  1.00  0.00     0.001 A 
ATOM     76  C   UNL A   1      37.542  28.950  30.550  1.00  0.00     0.001 A 
ATOM     77  C   UNL A   1      36.652  29.444  29.600  1.00  0.00     0.000 A 
ENDBRANCH  53  72
BRANCH  65  78
ATOM     78  C   UNL A   1      45.079  33.097  30.281  1.00  0.00    -0.014 A 
ATOM     79  C   UNL A   1      45.386  33.248  31.640  1.00  0.00     0.009 A 
ATOM     80  C   UNL A   1      45.054  34.237  29.459  1.00  0.00     0.009 A 
ATOM     81  C   UNL A   1      45.645  34.516  32.168  1.00  0.00     0.001 A 
ATOM     82  C   UNL A   1      45.349  35.497  29.981  1.00  0.00     0.001 A 
ATOM     83  C   UNL A   1      45.637  35.636  31.337  1.00  0.00     0.000 A 
ENDBRANCH  65  78
ENDBRANCH  39  40
ENDBRANCH  32  34
ENDBRANCH  31  32
ENDBRANCH  30  31
ENDBRANCH  29  30
ENDBRANCH  28  29
ENDBRANCH  27  28
ENDBRANCH   1  27
TORSDOF 21
ENDMDL
