MODEL 1
REMARK VINA RESULT:      -9.7      0.000      0.000
REMARK SMILES O=C(Cc1ccc(=O)n(C(F)F)c1)OCCOCCOCCOCCOC(=O)c1ccc(-c2c3nc(c(-c4ccccc4)c4ccc([nH]4)c(-c4ccccc4)c4nc(c(-c5ccccc5)c5ccc2[nH]5)C=C4)C=C3)cc1
REMARK SMILES IDX 20 1 19 2 18 3 17 4 16 5 15 6 14 7 2 8 1 9 3 10 4 11 5 12
REMARK SMILES IDX 13 13 6 14 9 15 7 16 8 17 10 18 11 19 12 20 21 21 22 22
REMARK SMILES IDX 23 23 24 24 25 25 26 26 27 27 28 28 29 29 30 30 76 31 31 32
REMARK SMILES IDX 75 33 32 34 33 35 34 36 69 37 35 38 74 39 68 40 70 41 36 42
REMARK SMILES IDX 73 43 67 44 66 45 37 47 59 48 44 49 58 50 45 51 48 52 57 53
REMARK SMILES IDX 71 54 46 55 47 56 56 58 72 59 49 60 38 61 39 62 43 63 40 64
REMARK SMILES IDX 42 65 41 66 60 67 61 68 65 69 62 70 64 71 63 72 50 73 51 74
REMARK SMILES IDX 55 75 52 76 54 77 53 78
REMARK H PARENT 70 46 48 57
REMARK Flexibility Score: inf
ROOT
ATOM      1  O   UNL A   1      32.568  34.591  28.990  1.00  0.00    -0.377 OA
ENDROOT
BRANCH   1   2
ATOM      2  C   UNL A   1      33.415  33.922  28.068  1.00  0.00     0.188 C 
BRANCH   2   3
ATOM      3  C   UNL A   1      34.276  32.819  28.676  1.00  0.00     0.188 C 
BRANCH   3   4
ATOM      4  O   UNL A   1      34.160  31.526  28.109  1.00  0.00    -0.376 OA
BRANCH   4   5
ATOM      5  C   UNL A   1      35.241  30.660  27.833  1.00  0.00     0.202 C 
BRANCH   5   6
ATOM      6  C   UNL A   1      35.037  29.237  27.326  1.00  0.00     0.261 C 
BRANCH   6   7
ATOM      7  O   UNL A   1      33.717  28.661  27.329  1.00  0.00    -0.463 OA
BRANCH   7   8
ATOM      8  C   UNL A   1      32.605  28.950  26.625  1.00  0.00     0.310 C 
ATOM      9  O   UNL A   1      31.557  29.163  27.233  1.00  0.00    -0.252 OA
BRANCH   8  10
ATOM     10  C   UNL A   1      32.618  28.906  25.114  1.00  0.00     0.159 C 
BRANCH  10  11
ATOM     11  C   UNL A   1      31.272  28.963  24.460  1.00  0.00    -0.020 A 
ATOM     12  C   UNL A   1      30.778  27.770  23.808  1.00  0.00     0.011 A 
ATOM     13  C   UNL A   1      30.552  30.088  24.346  1.00  0.00     0.099 A 
ATOM     14  C   UNL A   1      29.628  27.793  23.122  1.00  0.00     0.072 A 
ATOM     15  N   UNL A   1      29.382  30.156  23.625  1.00  0.00    -0.258 N 
ATOM     16  C   UNL A   1      28.834  29.050  23.004  1.00  0.00     0.254 A 
ATOM     17  O   UNL A   1      27.782  29.034  22.377  1.00  0.00    -0.269 OA
BRANCH  15  18
ATOM     18  C   UNL A   1      28.695  31.419  23.505  1.00  0.00     0.451 C 
ATOM     19  F   UNL A   1      27.453  31.363  24.040  1.00  0.00    -0.185 F 
ATOM     20  F   UNL A   1      29.385  32.409  24.116  1.00  0.00    -0.185 F 
ENDBRANCH  15  18
ENDBRANCH  10  11
ENDBRANCH   8  10
ENDBRANCH   7   8
ENDBRANCH   6   7
ENDBRANCH   5   6
ENDBRANCH   4   5
ENDBRANCH   3   4
ENDBRANCH   2   3
ENDBRANCH   1   2
BRANCH   1  21
ATOM     21  C   UNL A   1      33.021  35.873  29.386  1.00  0.00     0.188 C 
BRANCH  21  22
ATOM     22  C   UNL A   1      33.049  36.140  30.910  1.00  0.00     0.188 C 
BRANCH  22  23
ATOM     23  O   UNL A   1      32.980  35.087  31.856  1.00  0.00    -0.376 OA
BRANCH  23  24
ATOM     24  C   UNL A   1      34.159  34.516  32.393  1.00  0.00     0.202 C 
BRANCH  24  25
ATOM     25  C   UNL A   1      34.468  33.012  32.262  1.00  0.00     0.261 C 
BRANCH  25  26
ATOM     26  O   UNL A   1      35.567  32.512  33.034  1.00  0.00    -0.460 OA
BRANCH  26  27
ATOM     27  C   UNL A   1      36.754  33.145  32.877  1.00  0.00     0.338 C 
ATOM     28  O   UNL A   1      37.143  34.140  33.466  1.00  0.00    -0.246 OA
BRANCH  27  29
ATOM     29  C   UNL A   1      37.633  32.285  32.045  1.00  0.00     0.060 A 
ATOM     30  C   UNL A   1      37.678  32.421  30.655  1.00  0.00     0.016 A 
ATOM     31  C   UNL A   1      38.349  31.252  32.673  1.00  0.00     0.016 A 
ATOM     32  C   UNL A   1      38.482  31.557  29.905  1.00  0.00     0.010 A 
ATOM     33  C   UNL A   1      39.138  30.377  31.923  1.00  0.00     0.010 A 
ATOM     34  C   UNL A   1      39.249  30.557  30.538  1.00  0.00    -0.014 A 
BRANCH  34  35
ATOM     35  C   UNL A   1      40.391  29.954  29.808  1.00  0.00     0.031 A 
ATOM     36  C   UNL A   1      40.352  28.611  29.152  1.00  0.00     0.074 A 
ATOM     37  C   UNL A   1      41.521  30.689  29.770  1.00  0.00     0.049 A 
ATOM     38  N   UNL A   1      41.242  28.070  28.356  1.00  0.00    -0.248 NA
ATOM     39  C   UNL A   1      39.190  27.757  29.428  1.00  0.00     0.031 C 
ATOM     40  C   UNL A   1      41.692  31.980  30.441  1.00  0.00     0.029 A 
ATOM     41  N   UNL A   1      42.716  30.479  29.134  1.00  0.00    -0.354 N 
ATOM     42  C   UNL A   1      40.738  26.826  28.006  1.00  0.00     0.074 A 
ATOM     43  C   UNL A   1      39.490  26.667  28.726  1.00  0.00     0.031 C 
ATOM     44  C   UNL A   1      42.896  32.475  30.132  1.00  0.00     0.029 A 
ATOM     45  C   UNL A   1      43.593  31.525  29.274  1.00  0.00     0.049 A 
ATOM     46  H   UNL A   1      42.924  29.660  28.628  1.00  0.00     0.167 HD
ATOM     47  C   UNL A   1      41.266  25.917  27.149  1.00  0.00     0.031 A 
ATOM     48  C   UNL A   1      44.818  31.722  28.752  1.00  0.00     0.031 A 
ATOM     49  C   UNL A   1      42.536  26.077  26.475  1.00  0.00     0.049 A 
ATOM     50  C   UNL A   1      45.380  30.702  27.811  1.00  0.00     0.074 A 
ATOM     51  C   UNL A   1      43.128  25.234  25.549  1.00  0.00     0.029 A 
ATOM     52  N   UNL A   1      43.416  27.134  26.663  1.00  0.00    -0.354 N 
ATOM     53  N   UNL A   1      44.840  29.583  27.392  1.00  0.00    -0.248 NA
ATOM     54  C   UNL A   1      46.708  30.979  27.250  1.00  0.00     0.031 C 
ATOM     55  C   UNL A   1      44.395  25.736  25.240  1.00  0.00     0.029 A 
ATOM     56  C   UNL A   1      44.560  26.942  25.903  1.00  0.00     0.049 A 
ATOM     57  H   UNL A   1      43.251  27.907  27.251  1.00  0.00     0.167 HD
ATOM     58  C   UNL A   1      45.756  29.026  26.513  1.00  0.00     0.074 A 
ATOM     59  C   UNL A   1      46.869  29.951  26.428  1.00  0.00     0.031 C 
ATOM     60  C   UNL A   1      45.683  27.849  25.844  1.00  0.00     0.031 A 
BRANCH  47  61
ATOM     61  C   UNL A   1      40.474  24.668  26.854  1.00  0.00    -0.014 A 
ATOM     62  C   UNL A   1      39.176  24.760  26.325  1.00  0.00     0.009 A 
ATOM     63  C   UNL A   1      40.960  23.405  27.227  1.00  0.00     0.009 A 
ATOM     64  C   UNL A   1      38.377  23.621  26.194  1.00  0.00     0.001 A 
ATOM     65  C   UNL A   1      40.172  22.262  27.065  1.00  0.00     0.001 A 
ATOM     66  C   UNL A   1      38.877  22.373  26.561  1.00  0.00     0.000 A 
ENDBRANCH  47  61
BRANCH  48  67
ATOM     67  C   UNL A   1      45.538  32.981  29.077  1.00  0.00    -0.014 A 
ATOM     68  C   UNL A   1      45.349  34.132  28.293  1.00  0.00     0.009 A 
ATOM     69  C   UNL A   1      46.491  33.012  30.106  1.00  0.00     0.009 A 
ATOM     70  C   UNL A   1      46.123  35.273  28.508  1.00  0.00     0.001 A 
ATOM     71  C   UNL A   1      47.236  34.169  30.344  1.00  0.00     0.001 A 
ATOM     72  C   UNL A   1      47.062  35.292  29.536  1.00  0.00     0.000 A 
ENDBRANCH  48  67
BRANCH  60  73
ATOM     73  C   UNL A   1      46.852  27.470  24.971  1.00  0.00    -0.014 A 
ATOM     74  C   UNL A   1      47.904  26.700  25.495  1.00  0.00     0.009 A 
ATOM     75  C   UNL A   1      46.947  27.929  23.647  1.00  0.00     0.009 A 
ATOM     76  C   UNL A   1      49.028  26.411  24.718  1.00  0.00     0.001 A 
ATOM     77  C   UNL A   1      48.054  27.604  22.860  1.00  0.00     0.001 A 
ATOM     78  C   UNL A   1      49.099  26.854  23.399  1.00  0.00     0.000 A 
ENDBRANCH  60  73
ENDBRANCH  34  35
ENDBRANCH  27  29
ENDBRANCH  26  27
ENDBRANCH  25  26
ENDBRANCH  24  25
ENDBRANCH  23  24
ENDBRANCH  22  23
ENDBRANCH  21  22
ENDBRANCH   1  21
TORSDOF 22
ENDMDL
MODEL 2
REMARK VINA RESULT:      -9.4      1.732      2.134
REMARK SMILES O=C(Cc1ccc(=O)n(C(F)F)c1)OCCOCCOCCOCCOC(=O)c1ccc(-c2c3nc(c(-c4ccccc4)c4ccc([nH]4)c(-c4ccccc4)c4nc(c(-c5ccccc5)c5ccc2[nH]5)C=C4)C=C3)cc1
REMARK SMILES IDX 20 1 19 2 18 3 17 4 16 5 15 6 14 7 2 8 1 9 3 10 4 11 5 12
REMARK SMILES IDX 13 13 6 14 9 15 7 16 8 17 10 18 11 19 12 20 21 21 22 22
REMARK SMILES IDX 23 23 24 24 25 25 26 26 27 27 28 28 29 29 30 30 76 31 31 32
REMARK SMILES IDX 75 33 32 34 33 35 34 36 69 37 35 38 74 39 68 40 70 41 36 42
REMARK SMILES IDX 73 43 67 44 66 45 37 47 59 48 44 49 58 50 45 51 48 52 57 53
REMARK SMILES IDX 71 54 46 55 47 56 56 58 72 59 49 60 38 61 39 62 43 63 40 64
REMARK SMILES IDX 42 65 41 66 60 67 61 68 65 69 62 70 64 71 63 72 50 73 51 74
REMARK SMILES IDX 55 75 52 76 54 77 53 78
REMARK H PARENT 70 46 48 57
REMARK Flexibility Score: inf
ROOT
ATOM      1  O   UNL A   1      32.726  34.650  28.900  1.00  0.00    -0.377 OA
ENDROOT
BRANCH   1   2
ATOM      2  C   UNL A   1      33.626  34.011  28.007  1.00  0.00     0.188 C 
BRANCH   2   3
ATOM      3  C   UNL A   1      34.499  32.933  28.643  1.00  0.00     0.188 C 
BRANCH   3   4
ATOM      4  O   UNL A   1      34.092  31.588  28.466  1.00  0.00    -0.376 OA
BRANCH   4   5
ATOM      5  C   UNL A   1      34.904  30.555  27.950  1.00  0.00     0.202 C 
BRANCH   5   6
ATOM      6  C   UNL A   1      34.486  29.709  26.752  1.00  0.00     0.261 C 
BRANCH   6   7
ATOM      7  O   UNL A   1      33.106  29.331  26.593  1.00  0.00    -0.463 OA
BRANCH   7   8
ATOM      8  C   UNL A   1      32.048  29.978  26.067  1.00  0.00     0.310 C 
ATOM      9  O   UNL A   1      31.403  30.741  26.785  1.00  0.00    -0.252 OA
BRANCH   8  10
ATOM     10  C   UNL A   1      31.595  29.691  24.654  1.00  0.00     0.159 C 
BRANCH  10  11
ATOM     11  C   UNL A   1      32.187  28.464  24.029  1.00  0.00    -0.020 A 
ATOM     12  C   UNL A   1      33.218  28.637  23.030  1.00  0.00     0.011 A 
ATOM     13  C   UNL A   1      31.734  27.224  24.262  1.00  0.00     0.099 A 
ATOM     14  C   UNL A   1      33.710  27.582  22.367  1.00  0.00     0.072 A 
ATOM     15  N   UNL A   1      32.195  26.122  23.580  1.00  0.00    -0.258 N 
ATOM     16  C   UNL A   1      33.200  26.206  22.636  1.00  0.00     0.254 A 
ATOM     17  O   UNL A   1      33.679  25.262  22.018  1.00  0.00    -0.269 OA
BRANCH  15  18
ATOM     18  C   UNL A   1      31.617  24.828  23.850  1.00  0.00     0.451 C 
ATOM     19  F   UNL A   1      30.887  24.837  24.990  1.00  0.00    -0.185 F 
ATOM     20  F   UNL A   1      30.822  24.428  22.831  1.00  0.00    -0.185 F 
ENDBRANCH  15  18
ENDBRANCH  10  11
ENDBRANCH   8  10
ENDBRANCH   7   8
ENDBRANCH   6   7
ENDBRANCH   5   6
ENDBRANCH   4   5
ENDBRANCH   3   4
ENDBRANCH   2   3
ENDBRANCH   1   2
BRANCH   1  21
ATOM     21  C   UNL A   1      33.180  35.891  29.410  1.00  0.00     0.188 C 
BRANCH  21  22
ATOM     22  C   UNL A   1      32.993  36.108  30.930  1.00  0.00     0.188 C 
BRANCH  22  23
ATOM     23  O   UNL A   1      32.874  35.021  31.833  1.00  0.00    -0.376 OA
BRANCH  23  24
ATOM     24  C   UNL A   1      34.012  34.502  32.496  1.00  0.00     0.202 C 
BRANCH  24  25
ATOM     25  C   UNL A   1      34.383  33.009  32.427  1.00  0.00     0.261 C 
BRANCH  25  26
ATOM     26  O   UNL A   1      35.488  32.584  33.235  1.00  0.00    -0.460 OA
BRANCH  26  27
ATOM     27  C   UNL A   1      36.661  33.235  33.047  1.00  0.00     0.338 C 
ATOM     28  O   UNL A   1      37.045  34.242  33.620  1.00  0.00    -0.246 OA
BRANCH  27  29
ATOM     29  C   UNL A   1      37.536  32.384  32.203  1.00  0.00     0.060 A 
ATOM     30  C   UNL A   1      37.650  32.597  30.827  1.00  0.00     0.016 A 
ATOM     31  C   UNL A   1      38.176  31.283  32.798  1.00  0.00     0.016 A 
ATOM     32  C   UNL A   1      38.447  31.741  30.062  1.00  0.00     0.010 A 
ATOM     33  C   UNL A   1      38.957  30.417  32.031  1.00  0.00     0.010 A 
ATOM     34  C   UNL A   1      39.139  30.670  30.666  1.00  0.00    -0.014 A 
BRANCH  34  35
ATOM     35  C   UNL A   1      40.284  30.057  29.949  1.00  0.00     0.031 A 
ATOM     36  C   UNL A   1      40.263  28.687  29.351  1.00  0.00     0.074 A 
ATOM     37  C   UNL A   1      41.401  30.808  29.869  1.00  0.00     0.049 A 
ATOM     38  N   UNL A   1      41.154  28.129  28.569  1.00  0.00    -0.248 NA
ATOM     39  C   UNL A   1      39.118  27.826  29.674  1.00  0.00     0.031 C 
ATOM     40  C   UNL A   1      41.555  32.129  30.484  1.00  0.00     0.029 A 
ATOM     41  N   UNL A   1      42.593  30.592  29.231  1.00  0.00    -0.354 N 
ATOM     42  C   UNL A   1      40.669  26.862  28.276  1.00  0.00     0.074 A 
ATOM     43  C   UNL A   1      39.430  26.713  29.014  1.00  0.00     0.031 C 
ATOM     44  C   UNL A   1      42.748  32.632  30.143  1.00  0.00     0.029 A 
ATOM     45  C   UNL A   1      43.453  31.659  29.317  1.00  0.00     0.049 A 
ATOM     46  H   UNL A   1      42.811  29.757  28.757  1.00  0.00     0.167 HD
ATOM     47  C   UNL A   1      41.205  25.928  27.452  1.00  0.00     0.031 A 
ATOM     48  C   UNL A   1      44.669  31.855  28.776  1.00  0.00     0.031 A 
ATOM     49  C   UNL A   1      42.464  26.080  26.759  1.00  0.00     0.049 A 
ATOM     50  C   UNL A   1      45.240  30.805  27.872  1.00  0.00     0.074 A 
ATOM     51  C   UNL A   1      43.063  25.210  25.863  1.00  0.00     0.029 A 
ATOM     52  N   UNL A   1      43.328  27.159  26.894  1.00  0.00    -0.354 N 
ATOM     53  N   UNL A   1      44.715  29.661  27.506  1.00  0.00    -0.248 NA
ATOM     54  C   UNL A   1      46.557  31.081  27.286  1.00  0.00     0.031 C 
ATOM     55  C   UNL A   1      44.318  25.720  25.521  1.00  0.00     0.029 A 
ATOM     56  C   UNL A   1      44.468  26.955  26.131  1.00  0.00     0.049 A 
ATOM     57  H   UNL A   1      43.155  27.953  27.451  1.00  0.00     0.167 HD
ATOM     58  C   UNL A   1      45.633  29.083  26.641  1.00  0.00     0.074 A 
ATOM     59  C   UNL A   1      46.729  30.023  26.507  1.00  0.00     0.031 C 
ATOM     60  C   UNL A   1      45.574  27.878  26.023  1.00  0.00     0.031 A 
BRANCH  47  61
ATOM     61  C   UNL A   1      40.432  24.654  27.218  1.00  0.00    -0.014 A 
ATOM     62  C   UNL A   1      40.954  23.420  27.642  1.00  0.00     0.009 A 
ATOM     63  C   UNL A   1      39.251  24.659  26.458  1.00  0.00     0.009 A 
ATOM     64  C   UNL A   1      40.322  22.222  27.294  1.00  0.00     0.001 A 
ATOM     65  C   UNL A   1      38.604  23.463  26.139  1.00  0.00     0.001 A 
ATOM     66  C   UNL A   1      39.147  22.245  26.547  1.00  0.00     0.000 A 
ENDBRANCH  47  61
BRANCH  48  67
ATOM     67  C   UNL A   1      45.371  33.138  29.041  1.00  0.00    -0.014 A 
ATOM     68  C   UNL A   1      45.137  34.258  28.224  1.00  0.00     0.009 A 
ATOM     69  C   UNL A   1      46.347  33.223  30.043  1.00  0.00     0.009 A 
ATOM     70  C   UNL A   1      45.892  35.421  28.381  1.00  0.00     0.001 A 
ATOM     71  C   UNL A   1      47.074  34.402  30.224  1.00  0.00     0.001 A 
ATOM     72  C   UNL A   1      46.856  35.494  29.383  1.00  0.00     0.000 A 
ENDBRANCH  48  67
BRANCH  60  73
ATOM     73  C   UNL A   1      46.741  27.482  25.154  1.00  0.00    -0.014 A 
ATOM     74  C   UNL A   1      47.811  26.753  25.699  1.00  0.00     0.009 A 
ATOM     75  C   UNL A   1      46.816  27.888  23.811  1.00  0.00     0.009 A 
ATOM     76  C   UNL A   1      48.933  26.450  24.924  1.00  0.00     0.001 A 
ATOM     77  C   UNL A   1      47.922  27.549  23.028  1.00  0.00     0.001 A 
ATOM     78  C   UNL A   1      48.983  26.840  23.587  1.00  0.00     0.000 A 
ENDBRANCH  60  73
ENDBRANCH  34  35
ENDBRANCH  27  29
ENDBRANCH  26  27
ENDBRANCH  25  26
ENDBRANCH  24  25
ENDBRANCH  23  24
ENDBRANCH  22  23
ENDBRANCH  21  22
ENDBRANCH   1  21
TORSDOF 22
ENDMDL
MODEL 3
REMARK VINA RESULT:      -9.2      4.046      9.411
REMARK SMILES O=C(Cc1ccc(=O)n(C(F)F)c1)OCCOCCOCCOCCOC(=O)c1ccc(-c2c3nc(c(-c4ccccc4)c4ccc([nH]4)c(-c4ccccc4)c4nc(c(-c5ccccc5)c5ccc2[nH]5)C=C4)C=C3)cc1
REMARK SMILES IDX 20 1 19 2 18 3 17 4 16 5 15 6 14 7 2 8 1 9 3 10 4 11 5 12
REMARK SMILES IDX 13 13 6 14 9 15 7 16 8 17 10 18 11 19 12 20 21 21 22 22
REMARK SMILES IDX 23 23 24 24 25 25 26 26 27 27 28 28 29 29 30 30 76 31 31 32
REMARK SMILES IDX 75 33 32 34 33 35 34 36 69 37 35 38 74 39 68 40 70 41 36 42
REMARK SMILES IDX 73 43 67 44 66 45 37 47 59 48 44 49 58 50 45 51 48 52 57 53
REMARK SMILES IDX 71 54 46 55 47 56 56 58 72 59 49 60 38 61 39 62 43 63 40 64
REMARK SMILES IDX 42 65 41 66 60 67 61 68 65 69 62 70 64 71 63 72 50 73 51 74
REMARK SMILES IDX 55 75 52 76 54 77 53 78
REMARK H PARENT 70 46 48 57
REMARK Flexibility Score: inf
ROOT
ATOM      1  O   UNL A   1      35.995  22.742  26.285  1.00  0.00    -0.377 OA
ENDROOT
BRANCH   1   2
ATOM      2  C   UNL A   1      34.592  22.662  26.490  1.00  0.00     0.188 C 
BRANCH   2   3
ATOM      3  C   UNL A   1      33.868  21.682  25.571  1.00  0.00     0.188 C 
BRANCH   3   4
ATOM      4  O   UNL A   1      32.613  22.090  25.056  1.00  0.00    -0.376 OA
BRANCH   4   5
ATOM      5  C   UNL A   1      32.371  22.483  23.722  1.00  0.00     0.202 C 
BRANCH   5   6
ATOM      6  C   UNL A   1      33.473  23.023  22.817  1.00  0.00     0.261 C 
BRANCH   6   7
ATOM      7  O   UNL A   1      33.549  24.436  22.552  1.00  0.00    -0.463 OA
BRANCH   7   8
ATOM      8  C   UNL A   1      32.799  25.253  21.787  1.00  0.00     0.310 C 
ATOM      9  O   UNL A   1      33.309  25.766  20.792  1.00  0.00    -0.252 OA
BRANCH   8  10
ATOM     10  C   UNL A   1      31.392  25.618  22.202  1.00  0.00     0.159 C 
BRANCH  10  11
ATOM     11  C   UNL A   1      31.276  26.825  23.081  1.00  0.00    -0.020 A 
ATOM     12  C   UNL A   1      30.759  28.045  22.501  1.00  0.00     0.011 A 
ATOM     13  C   UNL A   1      31.732  26.869  24.341  1.00  0.00     0.099 A 
ATOM     14  C   UNL A   1      30.729  29.180  23.213  1.00  0.00     0.072 A 
ATOM     15  N   UNL A   1      31.743  28.022  25.091  1.00  0.00    -0.258 N 
ATOM     16  C   UNL A   1      31.236  29.215  24.615  1.00  0.00     0.254 A 
ATOM     17  O   UNL A   1      31.185  30.268  25.241  1.00  0.00    -0.269 OA
BRANCH  15  18
ATOM     18  C   UNL A   1      32.302  27.998  26.421  1.00  0.00     0.451 C 
ATOM     19  F   UNL A   1      31.340  28.111  27.367  1.00  0.00    -0.185 F 
ATOM     20  F   UNL A   1      32.991  26.854  26.639  1.00  0.00    -0.185 F 
ENDBRANCH  15  18
ENDBRANCH  10  11
ENDBRANCH   8  10
ENDBRANCH   7   8
ENDBRANCH   6   7
ENDBRANCH   5   6
ENDBRANCH   4   5
ENDBRANCH   3   4
ENDBRANCH   2   3
ENDBRANCH   1   2
BRANCH   1  21
ATOM     21  C   UNL A   1      36.397  22.712  24.927  1.00  0.00     0.188 C 
BRANCH  21  22
ATOM     22  C   UNL A   1      37.501  21.689  24.570  1.00  0.00     0.188 C 
BRANCH  22  23
ATOM     23  O   UNL A   1      37.325  20.297  24.768  1.00  0.00    -0.376 OA
BRANCH  23  24
ATOM     24  C   UNL A   1      38.408  19.478  25.169  1.00  0.00     0.202 C 
BRANCH  24  25
ATOM     25  C   UNL A   1      39.733  20.075  25.680  1.00  0.00     0.261 C 
BRANCH  25  26
ATOM     26  O   UNL A   1      40.808  19.154  25.904  1.00  0.00    -0.460 OA
BRANCH  26  27
ATOM     27  C   UNL A   1      42.063  19.648  25.782  1.00  0.00     0.338 C 
ATOM     28  O   UNL A   1      42.969  19.200  25.098  1.00  0.00    -0.246 OA
BRANCH  27  29
ATOM     29  C   UNL A   1      42.100  20.988  26.421  1.00  0.00     0.060 A 
ATOM     30  C   UNL A   1      41.777  21.158  27.769  1.00  0.00     0.016 A 
ATOM     31  C   UNL A   1      42.369  22.107  25.616  1.00  0.00     0.016 A 
ATOM     32  C   UNL A   1      41.777  22.444  28.319  1.00  0.00     0.010 A 
ATOM     33  C   UNL A   1      42.351  23.393  26.160  1.00  0.00     0.010 A 
ATOM     34  C   UNL A   1      42.104  23.565  27.528  1.00  0.00    -0.014 A 
BRANCH  34  35
ATOM     35  C   UNL A   1      42.514  24.825  28.197  1.00  0.00     0.031 A 
ATOM     36  C   UNL A   1      43.907  25.116  28.656  1.00  0.00     0.074 A 
ATOM     37  C   UNL A   1      41.535  25.729  28.400  1.00  0.00     0.049 A 
ATOM     38  N   UNL A   1      44.393  26.248  29.102  1.00  0.00    -0.248 NA
ATOM     39  C   UNL A   1      44.872  24.011  28.630  1.00  0.00     0.031 C 
ATOM     40  C   UNL A   1      40.126  25.516  28.060  1.00  0.00     0.029 A 
ATOM     41  N   UNL A   1      41.569  27.000  28.910  1.00  0.00    -0.354 N 
ATOM     42  C   UNL A   1      45.731  26.006  29.382  1.00  0.00     0.074 A 
ATOM     43  C   UNL A   1      45.964  24.602  29.110  1.00  0.00     0.031 C 
ATOM     44  C   UNL A   1      39.442  26.637  28.314  1.00  0.00     0.029 A 
ATOM     45  C   UNL A   1      40.352  27.634  28.864  1.00  0.00     0.049 A 
ATOM     46  H   UNL A   1      42.384  27.417  29.272  1.00  0.00     0.167 HD
ATOM     47  C   UNL A   1      46.671  26.886  29.807  1.00  0.00     0.031 A 
ATOM     48  C   UNL A   1      40.000  28.887  29.202  1.00  0.00     0.031 A 
ATOM     49  C   UNL A   1      46.407  28.274  30.115  1.00  0.00     0.049 A 
ATOM     50  C   UNL A   1      41.057  29.838  29.672  1.00  0.00     0.074 A 
ATOM     51  C   UNL A   1      47.307  29.254  30.503  1.00  0.00     0.029 A 
ATOM     52  N   UNL A   1      45.157  28.876  30.090  1.00  0.00    -0.354 N 
ATOM     53  N   UNL A   1      42.344  29.631  29.817  1.00  0.00    -0.248 NA
ATOM     54  C   UNL A   1      40.623  31.201  30.001  1.00  0.00     0.031 C 
ATOM     55  C   UNL A   1      46.593  30.421  30.789  1.00  0.00     0.029 A 
ATOM     56  C   UNL A   1      45.258  30.200  30.494  1.00  0.00     0.049 A 
ATOM     57  H   UNL A   1      44.321  28.429  29.824  1.00  0.00     0.167 HD
ATOM     58  C   UNL A   1      42.876  30.838  30.247  1.00  0.00     0.074 A 
ATOM     59  C   UNL A   1      41.777  31.783  30.299  1.00  0.00     0.031 C 
ATOM     60  C   UNL A   1      44.158  31.132  30.577  1.00  0.00     0.031 A 
BRANCH  47  61
ATOM     61  C   UNL A   1      48.092  26.400  29.947  1.00  0.00    -0.014 A 
ATOM     62  C   UNL A   1      48.951  26.390  28.835  1.00  0.00     0.009 A 
ATOM     63  C   UNL A   1      48.541  25.827  31.148  1.00  0.00     0.009 A 
ATOM     64  C   UNL A   1      50.215  25.799  28.916  1.00  0.00     0.001 A 
ATOM     65  C   UNL A   1      49.818  25.266  31.236  1.00  0.00     0.001 A 
ATOM     66  C   UNL A   1      50.649  25.242  30.117  1.00  0.00     0.000 A 
ENDBRANCH  47  61
BRANCH  48  67
ATOM     67  C   UNL A   1      38.583  29.302  29.029  1.00  0.00    -0.014 A 
ATOM     68  C   UNL A   1      37.672  29.180  30.092  1.00  0.00     0.009 A 
ATOM     69  C   UNL A   1      38.111  29.726  27.779  1.00  0.00     0.009 A 
ATOM     70  C   UNL A   1      36.314  29.437  29.897  1.00  0.00     0.001 A 
ATOM     71  C   UNL A   1      36.758  30.020  27.596  1.00  0.00     0.001 A 
ATOM     72  C   UNL A   1      35.860  29.861  28.651  1.00  0.00     0.000 A 
ENDBRANCH  48  67
BRANCH  60  73
ATOM     73  C   UNL A   1      44.452  32.532  31.051  1.00  0.00    -0.014 A 
ATOM     74  C   UNL A   1      44.755  33.543  30.123  1.00  0.00     0.009 A 
ATOM     75  C   UNL A   1      44.496  32.840  32.420  1.00  0.00     0.009 A 
ATOM     76  C   UNL A   1      45.107  34.823  30.555  1.00  0.00     0.001 A 
ATOM     77  C   UNL A   1      44.809  34.132  32.849  1.00  0.00     0.001 A 
ATOM     78  C   UNL A   1      45.124  35.120  31.916  1.00  0.00     0.000 A 
ENDBRANCH  60  73
ENDBRANCH  34  35
ENDBRANCH  27  29
ENDBRANCH  26  27
ENDBRANCH  25  26
ENDBRANCH  24  25
ENDBRANCH  23  24
ENDBRANCH  22  23
ENDBRANCH  21  22
ENDBRANCH   1  21
TORSDOF 22
ENDMDL
