MODEL 1
REMARK VINA RESULT:     -10.6      0.000      0.000
REMARK SMILES NS(=O)(=O)c1ccc(-n2nc(C(F)(F)F)cc2-c2ccc(C(=O)OCCOCCOCCOCCOC(=O)c3ccc(-c4c5nc(c(-c6ccccc6)c6ccc([nH]6)c(-c6ccccc6)c6nc(c(-c7ccccc7)c7ccc4[nH]7)C=C6)C=C5)cc3)cc2)cc1
REMARK SMILES IDX 29 1 28 2 27 3 26 4 25 5 24 6 22 7 23 8 21 9 18 10 19 11
REMARK SMILES IDX 88 12 20 13 87 14 17 15 9 16 10 17 11 18 16 19 8 20 5 21
REMARK SMILES IDX 6 22 90 23 7 24 89 25 2 26 3 27 4 28 1 29 12 32 13 33 14 34
REMARK SMILES IDX 15 35 30 36 31 37 32 38 33 39 34 40 35 41 36 42 37 43 38 44
REMARK SMILES IDX 39 45 40 46 86 47 41 48 85 49 42 50 43 51 44 52 79 53 45 54
REMARK SMILES IDX 84 55 78 56 80 57 46 58 83 59 77 60 76 61 47 63 69 64 54 65
REMARK SMILES IDX 68 66 55 67 58 68 67 69 81 70 56 71 57 72 66 74 82 75 59 76
REMARK SMILES IDX 48 77 49 78 53 79 50 80 52 81 51 82 70 83 71 84 75 85 72 86
REMARK SMILES IDX 74 87 73 88 60 89 61 90 65 91 62 92 64 93 63 94
REMARK H PARENT 1 30 1 31 80 62 58 73
REMARK Flexibility Score: inf
ROOT
ATOM      1  C   UNL A   1      36.708  21.463  25.108  1.00  0.00     0.188 C 
ENDROOT
BRANCH   1   2
ATOM      2  C   UNL A   1      35.184  21.690  25.244  1.00  0.00     0.188 C 
BRANCH   2   3
ATOM      3  O   UNL A   1      34.792  22.227  26.490  1.00  0.00    -0.376 OA
BRANCH   3   4
ATOM      4  C   UNL A   1      33.442  22.233  26.884  1.00  0.00     0.202 C 
BRANCH   4   5
ATOM      5  C   UNL A   1      32.355  22.063  25.816  1.00  0.00     0.261 C 
BRANCH   5   6
ATOM      6  O   UNL A   1      31.523  23.203  25.576  1.00  0.00    -0.460 OA
BRANCH   6   7
ATOM      7  C   UNL A   1      31.963  24.071  24.639  1.00  0.00     0.338 C 
ATOM      8  O   UNL A   1      31.901  23.931  23.431  1.00  0.00    -0.246 OA
BRANCH   7   9
ATOM      9  C   UNL A   1      32.357  25.331  25.313  1.00  0.00     0.060 A 
ATOM     10  C   UNL A   1      32.958  27.779  26.529  1.00  0.00     0.000 A 
ATOM     11  C   UNL A   1      31.781  27.093  26.865  1.00  0.00     0.011 A 
ATOM     12  C   UNL A   1      33.868  27.190  25.643  1.00  0.00     0.011 A 
ATOM     13  C   UNL A   1      31.475  25.879  26.250  1.00  0.00     0.016 A 
ATOM     14  C   UNL A   1      33.577  25.961  25.044  1.00  0.00     0.016 A 
BRANCH  10  15
ATOM     15  C   UNL A   1      33.129  29.169  26.949  1.00  0.00     0.075 A 
ATOM     16  N   UNL A   1      32.592  30.297  26.341  1.00  0.00    -0.233 N 
ATOM     17  N   UNL A   1      33.271  31.424  26.682  1.00  0.00    -0.163 NA
ATOM     18  C   UNL A   1      34.108  31.044  27.667  1.00  0.00     0.167 A 
ATOM     19  C   UNL A   1      34.052  29.644  27.860  1.00  0.00     0.064 A 
BRANCH  16  20
ATOM     20  C   UNL A   1      31.481  30.361  25.463  1.00  0.00     0.065 A 
ATOM     21  C   UNL A   1      29.401  30.552  23.625  1.00  0.00     0.082 A 
ATOM     22  C   UNL A   1      30.204  29.409  23.640  1.00  0.00     0.024 A 
ATOM     23  C   UNL A   1      29.598  31.580  24.554  1.00  0.00     0.024 A 
ATOM     24  C   UNL A   1      31.254  29.319  24.553  1.00  0.00     0.030 A 
ATOM     25  C   UNL A   1      30.626  31.472  25.496  1.00  0.00     0.030 A 
BRANCH  21  26
ATOM     26  S   UNL A   1      28.166  30.702  22.369  1.00  0.00     0.238 S 
ATOM     27  O   UNL A   1      26.970  30.046  22.832  1.00  0.00    -0.207 OA
ATOM     28  O   UNL A   1      28.762  30.437  21.076  1.00  0.00    -0.207 OA
BRANCH  26  29
ATOM     29  N   UNL A   1      27.823  32.348  22.371  1.00  0.00    -0.225 NA
ATOM     30  H   UNL A   1      27.548  32.640  21.433  1.00  0.00     0.137 HD
ATOM     31  H   UNL A   1      28.653  32.868  22.658  1.00  0.00     0.137 HD
ENDBRANCH  26  29
ENDBRANCH  21  26
ENDBRANCH  16  20
BRANCH  18  32
ATOM     32  C   UNL A   1      35.010  31.990  28.414  1.00  0.00     0.435 C 
ATOM     33  F   UNL A   1      36.173  32.247  27.763  1.00  0.00    -0.164 F 
ATOM     34  F   UNL A   1      34.407  33.184  28.656  1.00  0.00    -0.164 F 
ATOM     35  F   UNL A   1      35.355  31.486  29.634  1.00  0.00    -0.164 F 
ENDBRANCH  18  32
ENDBRANCH  10  15
ENDBRANCH   7   9
ENDBRANCH   6   7
ENDBRANCH   5   6
ENDBRANCH   4   5
ENDBRANCH   3   4
ENDBRANCH   2   3
ENDBRANCH   1   2
BRANCH   1  36
ATOM     36  O   UNL A   1      37.269  20.165  24.945  1.00  0.00    -0.377 OA
BRANCH  36  37
ATOM     37  C   UNL A   1      38.667  19.952  25.090  1.00  0.00     0.188 C 
BRANCH  37  38
ATOM     38  C   UNL A   1      39.554  20.891  25.953  1.00  0.00     0.188 C 
BRANCH  38  39
ATOM     39  O   UNL A   1      40.705  20.310  26.531  1.00  0.00    -0.376 OA
BRANCH  39  40
ATOM     40  C   UNL A   1      42.038  20.606  26.170  1.00  0.00     0.202 C 
BRANCH  40  41
ATOM     41  C   UNL A   1      42.985  19.542  25.632  1.00  0.00     0.261 C 
BRANCH  41  42
ATOM     42  O   UNL A   1      44.324  19.963  25.532  1.00  0.00    -0.460 OA
BRANCH  42  43
ATOM     43  C   UNL A   1      44.720  20.237  24.276  1.00  0.00     0.338 C 
ATOM     44  O   UNL A   1      44.768  19.472  23.330  1.00  0.00    -0.246 OA
BRANCH  43  45
ATOM     45  C   UNL A   1      45.205  21.618  24.261  1.00  0.00     0.060 A 
ATOM     46  C   UNL A   1      46.248  21.882  25.147  1.00  0.00     0.016 A 
ATOM     47  C   UNL A   1      44.303  22.597  23.825  1.00  0.00     0.016 A 
ATOM     48  C   UNL A   1      46.154  23.033  25.884  1.00  0.00     0.010 A 
ATOM     49  C   UNL A   1      44.181  23.719  24.592  1.00  0.00     0.010 A 
ATOM     50  C   UNL A   1      45.040  23.853  25.678  1.00  0.00    -0.014 A 
BRANCH  50  51
ATOM     51  C   UNL A   1      44.825  24.939  26.595  1.00  0.00     0.031 A 
ATOM     52  C   UNL A   1      45.958  25.878  26.571  1.00  0.00     0.074 A 
ATOM     53  C   UNL A   1      43.677  25.081  27.279  1.00  0.00     0.049 A 
ATOM     54  N   UNL A   1      46.891  25.995  27.453  1.00  0.00    -0.248 NA
ATOM     55  C   UNL A   1      46.228  26.574  25.300  1.00  0.00     0.031 C 
ATOM     56  C   UNL A   1      42.418  24.345  27.118  1.00  0.00     0.029 A 
ATOM     57  N   UNL A   1      43.363  26.016  28.209  1.00  0.00    -0.354 N 
ATOM     58  C   UNL A   1      47.738  26.967  26.941  1.00  0.00     0.074 A 
ATOM     59  C   UNL A   1      47.441  27.066  25.537  1.00  0.00     0.031 C 
ATOM     60  C   UNL A   1      41.425  25.026  27.739  1.00  0.00     0.029 A 
ATOM     61  C   UNL A   1      42.003  26.159  28.444  1.00  0.00     0.049 A 
ATOM     62  H   UNL A   1      44.043  26.549  28.678  1.00  0.00     0.167 HD
ATOM     63  C   UNL A   1      48.335  27.867  27.767  1.00  0.00     0.031 A 
ATOM     64  C   UNL A   1      41.415  27.186  29.106  1.00  0.00     0.031 A 
ATOM     65  C   UNL A   1      48.308  27.414  29.137  1.00  0.00     0.049 A 
ATOM     66  C   UNL A   1      42.474  27.885  29.874  1.00  0.00     0.074 A 
ATOM     67  C   UNL A   1      48.809  26.324  29.816  1.00  0.00     0.029 A 
ATOM     68  N   UNL A   1      47.320  27.946  29.931  1.00  0.00    -0.354 N 
ATOM     69  N   UNL A   1      43.092  27.354  30.890  1.00  0.00    -0.248 NA
ATOM     70  C   UNL A   1      43.177  28.981  29.223  1.00  0.00     0.031 C 
ATOM     71  C   UNL A   1      47.821  26.005  30.793  1.00  0.00     0.029 A 
ATOM     72  C   UNL A   1      46.796  26.952  30.712  1.00  0.00     0.049 A 
ATOM     73  H   UNL A   1      47.035  28.889  29.939  1.00  0.00     0.167 HD
ATOM     74  C   UNL A   1      44.420  27.732  30.736  1.00  0.00     0.074 A 
ATOM     75  C   UNL A   1      44.392  28.817  29.756  1.00  0.00     0.031 C 
ATOM     76  C   UNL A   1      45.431  26.934  31.192  1.00  0.00     0.031 A 
BRANCH  63  77
ATOM     77  C   UNL A   1      48.449  29.333  27.411  1.00  0.00    -0.014 A 
ATOM     78  C   UNL A   1      49.708  29.820  27.023  1.00  0.00     0.009 A 
ATOM     79  C   UNL A   1      47.469  30.299  27.715  1.00  0.00     0.009 A 
ATOM     80  C   UNL A   1      49.993  31.190  27.039  1.00  0.00     0.001 A 
ATOM     81  C   UNL A   1      47.735  31.668  27.692  1.00  0.00     0.001 A 
ATOM     82  C   UNL A   1      49.011  32.113  27.385  1.00  0.00     0.000 A 
ENDBRANCH  63  77
BRANCH  64  83
ATOM     83  C   UNL A   1      40.089  27.800  28.866  1.00  0.00    -0.014 A 
ATOM     84  C   UNL A   1      39.050  27.668  29.802  1.00  0.00     0.009 A 
ATOM     85  C   UNL A   1      39.928  28.750  27.840  1.00  0.00     0.009 A 
ATOM     86  C   UNL A   1      37.905  28.475  29.726  1.00  0.00     0.001 A 
ATOM     87  C   UNL A   1      38.786  29.556  27.765  1.00  0.00     0.001 A 
ATOM     88  C   UNL A   1      37.780  29.427  28.715  1.00  0.00     0.000 A 
ENDBRANCH  64  83
BRANCH  76  89
ATOM     89  C   UNL A   1      45.066  25.793  32.109  1.00  0.00    -0.014 A 
ATOM     90  C   UNL A   1      44.603  24.545  31.654  1.00  0.00     0.009 A 
ATOM     91  C   UNL A   1      45.356  25.938  33.474  1.00  0.00     0.009 A 
ATOM     92  C   UNL A   1      44.421  23.483  32.548  1.00  0.00     0.001 A 
ATOM     93  C   UNL A   1      45.195  24.874  34.361  1.00  0.00     0.001 A 
ATOM     94  C   UNL A   1      44.724  23.647  33.898  1.00  0.00     0.000 A 
ENDBRANCH  76  89
ENDBRANCH  50  51
ENDBRANCH  43  45
ENDBRANCH  42  43
ENDBRANCH  41  42
ENDBRANCH  40  41
ENDBRANCH  39  40
ENDBRANCH  38  39
ENDBRANCH  37  38
ENDBRANCH  36  37
ENDBRANCH   1  36
TORSDOF 25
ENDMDL
MODEL 2
REMARK VINA RESULT:     -10.4      2.738      4.266
REMARK SMILES NS(=O)(=O)c1ccc(-n2nc(C(F)(F)F)cc2-c2ccc(C(=O)OCCOCCOCCOCCOC(=O)c3ccc(-c4c5nc(c(-c6ccccc6)c6ccc([nH]6)c(-c6ccccc6)c6nc(c(-c7ccccc7)c7ccc4[nH]7)C=C6)C=C5)cc3)cc2)cc1
REMARK SMILES IDX 29 1 28 2 27 3 26 4 25 5 24 6 22 7 23 8 21 9 18 10 19 11
REMARK SMILES IDX 88 12 20 13 87 14 17 15 9 16 10 17 11 18 16 19 8 20 5 21
REMARK SMILES IDX 6 22 90 23 7 24 89 25 2 26 3 27 4 28 1 29 12 32 13 33 14 34
REMARK SMILES IDX 15 35 30 36 31 37 32 38 33 39 34 40 35 41 36 42 37 43 38 44
REMARK SMILES IDX 39 45 40 46 86 47 41 48 85 49 42 50 43 51 44 52 79 53 45 54
REMARK SMILES IDX 84 55 78 56 80 57 46 58 83 59 77 60 76 61 47 63 69 64 54 65
REMARK SMILES IDX 68 66 55 67 58 68 67 69 81 70 56 71 57 72 66 74 82 75 59 76
REMARK SMILES IDX 48 77 49 78 53 79 50 80 52 81 51 82 70 83 71 84 75 85 72 86
REMARK SMILES IDX 74 87 73 88 60 89 61 90 65 91 62 92 64 93 63 94
REMARK H PARENT 1 30 1 31 80 62 58 73
REMARK Flexibility Score: inf
ROOT
ATOM      1  C   UNL A   1      37.375  22.288  24.913  1.00  0.00     0.188 C 
ENDROOT
BRANCH   1   2
ATOM      2  C   UNL A   1      35.993  21.874  24.356  1.00  0.00     0.188 C 
BRANCH   2   3
ATOM      3  O   UNL A   1      35.392  20.800  25.048  1.00  0.00    -0.376 OA
BRANCH   3   4
ATOM      4  C   UNL A   1      34.613  21.023  26.198  1.00  0.00     0.202 C 
BRANCH   4   5
ATOM      5  C   UNL A   1      33.377  21.924  26.095  1.00  0.00     0.261 C 
BRANCH   5   6
ATOM      6  O   UNL A   1      32.405  21.551  25.114  1.00  0.00    -0.460 OA
BRANCH   6   7
ATOM      7  C   UNL A   1      32.356  22.320  24.004  1.00  0.00     0.338 C 
ATOM      8  O   UNL A   1      32.123  21.946  22.869  1.00  0.00    -0.246 OA
BRANCH   7   9
ATOM      9  C   UNL A   1      32.434  23.742  24.413  1.00  0.00     0.060 A 
ATOM     10  C   UNL A   1      32.744  26.402  25.228  1.00  0.00     0.000 A 
ATOM     11  C   UNL A   1      33.556  25.874  24.213  1.00  0.00     0.011 A 
ATOM     12  C   UNL A   1      31.724  25.612  25.773  1.00  0.00     0.011 A 
ATOM     13  C   UNL A   1      33.410  24.546  23.815  1.00  0.00     0.016 A 
ATOM     14  C   UNL A   1      31.558  24.287  25.359  1.00  0.00     0.016 A 
BRANCH  10  15
ATOM     15  C   UNL A   1      33.091  27.685  25.837  1.00  0.00     0.075 A 
ATOM     16  N   UNL A   1      32.661  28.943  25.434  1.00  0.00    -0.233 N 
ATOM     17  N   UNL A   1      33.478  29.927  25.896  1.00  0.00    -0.163 NA
ATOM     18  C   UNL A   1      34.309  29.313  26.761  1.00  0.00     0.167 A 
ATOM     19  C   UNL A   1      34.102  27.915  26.749  1.00  0.00     0.064 A 
BRANCH  16  20
ATOM     20  C   UNL A   1      31.526  29.258  24.644  1.00  0.00     0.065 A 
ATOM     21  C   UNL A   1      29.204  29.830  23.224  1.00  0.00     0.082 A 
ATOM     22  C   UNL A   1      29.773  30.812  24.038  1.00  0.00     0.024 A 
ATOM     23  C   UNL A   1      29.814  28.579  23.075  1.00  0.00     0.024 A 
ATOM     24  C   UNL A   1      30.929  30.521  24.760  1.00  0.00     0.030 A 
ATOM     25  C   UNL A   1      30.996  28.301  23.767  1.00  0.00     0.030 A 
BRANCH  21  26
ATOM     26  S   UNL A   1      27.664  30.178  22.428  1.00  0.00     0.238 S 
ATOM     27  O   UNL A   1      27.865  30.105  21.004  1.00  0.00    -0.207 OA
ATOM     28  O   UNL A   1      27.032  31.306  23.079  1.00  0.00    -0.207 OA
BRANCH  26  29
ATOM     29  N   UNL A   1      26.721  28.846  22.832  1.00  0.00    -0.225 NA
ATOM     30  H   UNL A   1      26.516  28.864  23.831  1.00  0.00     0.137 HD
ATOM     31  H   UNL A   1      27.227  27.990  22.604  1.00  0.00     0.137 HD
ENDBRANCH  26  29
ENDBRANCH  21  26
ENDBRANCH  16  20
BRANCH  18  32
ATOM     32  C   UNL A   1      35.345  30.033  27.584  1.00  0.00     0.435 C 
ATOM     33  F   UNL A   1      36.612  29.842  27.134  1.00  0.00    -0.164 F 
ATOM     34  F   UNL A   1      35.124  31.373  27.621  1.00  0.00    -0.164 F 
ATOM     35  F   UNL A   1      35.329  29.610  28.880  1.00  0.00    -0.164 F 
ENDBRANCH  18  32
ENDBRANCH  10  15
ENDBRANCH   7   9
ENDBRANCH   6   7
ENDBRANCH   5   6
ENDBRANCH   4   5
ENDBRANCH   3   4
ENDBRANCH   2   3
ENDBRANCH   1   2
BRANCH   1  36
ATOM     36  O   UNL A   1      38.280  21.344  25.473  1.00  0.00    -0.377 OA
BRANCH  36  37
ATOM     37  C   UNL A   1      39.451  21.773  26.156  1.00  0.00     0.188 C 
BRANCH  37  38
ATOM     38  C   UNL A   1      40.596  20.788  26.516  1.00  0.00     0.188 C 
BRANCH  38  39
ATOM     39  O   UNL A   1      41.759  20.858  25.715  1.00  0.00    -0.376 OA
BRANCH  39  40
ATOM     40  C   UNL A   1      42.947  21.540  26.056  1.00  0.00     0.202 C 
BRANCH  40  41
ATOM     41  C   UNL A   1      43.628  22.508  25.099  1.00  0.00     0.261 C 
BRANCH  41  42
ATOM     42  O   UNL A   1      42.874  23.662  24.817  1.00  0.00    -0.460 OA
BRANCH  42  43
ATOM     43  C   UNL A   1      43.344  24.778  25.401  1.00  0.00     0.338 C 
ATOM     44  O   UNL A   1      44.446  25.279  25.269  1.00  0.00    -0.246 OA
BRANCH  43  45
ATOM     45  C   UNL A   1      42.321  25.246  26.338  1.00  0.00     0.060 A 
ATOM     46  C   UNL A   1      41.413  26.160  25.808  1.00  0.00     0.016 A 
ATOM     47  C   UNL A   1      42.642  25.187  27.701  1.00  0.00     0.016 A 
ATOM     48  C   UNL A   1      41.120  27.254  26.576  1.00  0.00     0.010 A 
ATOM     49  C   UNL A   1      42.390  26.300  28.449  1.00  0.00     0.010 A 
ATOM     50  C   UNL A   1      41.733  27.358  27.829  1.00  0.00    -0.014 A 
BRANCH  50  51
ATOM     51  C   UNL A   1      41.602  28.600  28.542  1.00  0.00     0.031 A 
ATOM     52  C   UNL A   1      42.763  29.471  28.294  1.00  0.00     0.074 A 
ATOM     53  C   UNL A   1      40.498  28.910  29.242  1.00  0.00     0.049 A 
ATOM     54  N   UNL A   1      43.745  29.707  29.096  1.00  0.00    -0.248 NA
ATOM     55  C   UNL A   1      42.986  29.915  26.907  1.00  0.00     0.031 C 
ATOM     56  C   UNL A   1      39.210  28.210  29.278  1.00  0.00     0.029 A 
ATOM     57  N   UNL A   1      40.265  30.009  30.000  1.00  0.00    -0.354 N 
ATOM     58  C   UNL A   1      44.594  30.534  28.376  1.00  0.00     0.074 A 
ATOM     59  C   UNL A   1      44.225  30.390  26.993  1.00  0.00     0.031 C 
ATOM     60  C   UNL A   1      38.273  29.032  29.810  1.00  0.00     0.029 A 
ATOM     61  C   UNL A   1      38.925  30.249  30.268  1.00  0.00     0.049 A 
ATOM     62  H   UNL A   1      40.986  30.590  30.332  1.00  0.00     0.167 HD
ATOM     63  C   UNL A   1      45.263  31.543  28.996  1.00  0.00     0.031 A 
ATOM     64  C   UNL A   1      38.406  31.402  30.759  1.00  0.00     0.031 A 
ATOM     65  C   UNL A   1      45.295  31.346  30.425  1.00  0.00     0.049 A 
ATOM     66  C   UNL A   1      39.528  32.184  31.337  1.00  0.00     0.074 A 
ATOM     67  C   UNL A   1      45.797  30.376  31.267  1.00  0.00     0.029 A 
ATOM     68  N   UNL A   1      44.369  32.053  31.154  1.00  0.00    -0.354 N 
ATOM     69  N   UNL A   1      40.182  31.819  32.402  1.00  0.00    -0.248 NA
ATOM     70  C   UNL A   1      40.230  33.115  30.465  1.00  0.00     0.031 C 
ATOM     71  C   UNL A   1      44.852  30.280  32.331  1.00  0.00     0.029 A 
ATOM     72  C   UNL A   1      43.856  31.238  32.127  1.00  0.00     0.049 A 
ATOM     73  H   UNL A   1      44.115  32.993  31.003  1.00  0.00     0.167 HD
ATOM     74  C   UNL A   1      41.511  32.108  32.120  1.00  0.00     0.074 A 
ATOM     75  C   UNL A   1      41.465  32.998  30.961  1.00  0.00     0.031 C 
ATOM     76  C   UNL A   1      42.518  31.364  32.666  1.00  0.00     0.031 A 
BRANCH  63  77
ATOM     77  C   UNL A   1      45.405  32.914  28.373  1.00  0.00    -0.014 A 
ATOM     78  C   UNL A   1      46.695  33.353  28.034  1.00  0.00     0.009 A 
ATOM     79  C   UNL A   1      44.391  33.892  28.377  1.00  0.00     0.009 A 
ATOM     80  C   UNL A   1      46.967  34.707  27.810  1.00  0.00     0.001 A 
ATOM     81  C   UNL A   1      44.648  35.238  28.114  1.00  0.00     0.001 A 
ATOM     82  C   UNL A   1      45.947  35.651  27.863  1.00  0.00     0.000 A 
ENDBRANCH  63  77
BRANCH  64  83
ATOM     83  C   UNL A   1      37.090  32.018  30.473  1.00  0.00    -0.014 A 
ATOM     84  C   UNL A   1      35.966  31.721  31.262  1.00  0.00     0.009 A 
ATOM     85  C   UNL A   1      37.000  33.110  29.591  1.00  0.00     0.009 A 
ATOM     86  C   UNL A   1      34.806  32.506  31.186  1.00  0.00     0.001 A 
ATOM     87  C   UNL A   1      35.843  33.893  29.516  1.00  0.00     0.001 A 
ATOM     88  C   UNL A   1      34.750  33.598  30.323  1.00  0.00     0.000 A 
ENDBRANCH  64  83
BRANCH  76  89
ATOM     89  C   UNL A   1      42.166  30.424  33.792  1.00  0.00    -0.014 A 
ATOM     90  C   UNL A   1      41.518  29.190  33.602  1.00  0.00     0.009 A 
ATOM     91  C   UNL A   1      42.656  30.729  35.070  1.00  0.00     0.009 A 
ATOM     92  C   UNL A   1      41.351  28.300  34.670  1.00  0.00     0.001 A 
ATOM     93  C   UNL A   1      42.508  29.833  36.129  1.00  0.00     0.001 A 
ATOM     94  C   UNL A   1      41.853  28.620  35.930  1.00  0.00     0.000 A 
ENDBRANCH  76  89
ENDBRANCH  50  51
ENDBRANCH  43  45
ENDBRANCH  42  43
ENDBRANCH  41  42
ENDBRANCH  40  41
ENDBRANCH  39  40
ENDBRANCH  38  39
ENDBRANCH  37  38
ENDBRANCH  36  37
ENDBRANCH   1  36
TORSDOF 25
ENDMDL
MODEL 3
REMARK VINA RESULT:      -9.7      3.278      5.284
REMARK SMILES NS(=O)(=O)c1ccc(-n2nc(C(F)(F)F)cc2-c2ccc(C(=O)OCCOCCOCCOCCOC(=O)c3ccc(-c4c5nc(c(-c6ccccc6)c6ccc([nH]6)c(-c6ccccc6)c6nc(c(-c7ccccc7)c7ccc4[nH]7)C=C6)C=C5)cc3)cc2)cc1
REMARK SMILES IDX 29 1 28 2 27 3 26 4 25 5 24 6 22 7 23 8 21 9 18 10 19 11
REMARK SMILES IDX 88 12 20 13 87 14 17 15 9 16 10 17 11 18 16 19 8 20 5 21
REMARK SMILES IDX 6 22 90 23 7 24 89 25 2 26 3 27 4 28 1 29 12 32 13 33 14 34
REMARK SMILES IDX 15 35 30 36 31 37 32 38 33 39 34 40 35 41 36 42 37 43 38 44
REMARK SMILES IDX 39 45 40 46 86 47 41 48 85 49 42 50 43 51 44 52 79 53 45 54
REMARK SMILES IDX 84 55 78 56 80 57 46 58 83 59 77 60 76 61 47 63 69 64 54 65
REMARK SMILES IDX 68 66 55 67 58 68 67 69 81 70 56 71 57 72 66 74 82 75 59 76
REMARK SMILES IDX 48 77 49 78 53 79 50 80 52 81 51 82 70 83 71 84 75 85 72 86
REMARK SMILES IDX 74 87 73 88 60 89 61 90 65 91 62 92 64 93 63 94
REMARK H PARENT 1 30 1 31 80 62 58 73
REMARK Flexibility Score: inf
ROOT
ATOM      1  C   UNL A   1      37.858  21.686  25.382  1.00  0.00     0.188 C 
ENDROOT
BRANCH   1   2
ATOM      2  C   UNL A   1      36.626  22.474  24.878  1.00  0.00     0.188 C 
BRANCH   2   3
ATOM      3  O   UNL A   1      35.932  23.168  25.893  1.00  0.00    -0.376 OA
BRANCH   3   4
ATOM      4  C   UNL A   1      34.743  22.653  26.440  1.00  0.00     0.202 C 
BRANCH   4   5
ATOM      5  C   UNL A   1      34.012  21.525  25.702  1.00  0.00     0.261 C 
BRANCH   5   6
ATOM      6  O   UNL A   1      33.072  21.932  24.702  1.00  0.00    -0.460 OA
BRANCH   6   7
ATOM      7  C   UNL A   1      31.857  22.315  25.151  1.00  0.00     0.338 C 
ATOM      8  O   UNL A   1      31.080  21.647  25.810  1.00  0.00    -0.246 OA
BRANCH   7   9
ATOM      9  C   UNL A   1      31.693  23.764  24.887  1.00  0.00     0.060 A 
ATOM     10  C   UNL A   1      31.215  26.474  24.374  1.00  0.00     0.000 A 
ATOM     11  C   UNL A   1      30.614  25.846  25.475  1.00  0.00     0.011 A 
ATOM     12  C   UNL A   1      32.120  25.755  23.582  1.00  0.00     0.011 A 
ATOM     13  C   UNL A   1      30.842  24.493  25.724  1.00  0.00     0.016 A 
ATOM     14  C   UNL A   1      32.370  24.405  23.844  1.00  0.00     0.016 A 
BRANCH  10  15
ATOM     15  C   UNL A   1      30.750  27.795  23.953  1.00  0.00     0.075 A 
ATOM     16  N   UNL A   1      31.058  29.014  24.542  1.00  0.00    -0.233 N 
ATOM     17  N   UNL A   1      30.153  29.974  24.214  1.00  0.00    -0.163 NA
ATOM     18  C   UNL A   1      29.387  29.420  23.254  1.00  0.00     0.167 A 
ATOM     19  C   UNL A   1      29.726  28.060  23.066  1.00  0.00     0.064 A 
BRANCH  16  20
ATOM     20  C   UNL A   1      32.154  29.315  25.389  1.00  0.00     0.065 A 
ATOM     21  C   UNL A   1      34.357  30.015  26.937  1.00  0.00     0.082 A 
ATOM     22  C   UNL A   1      33.171  30.742  27.059  1.00  0.00     0.024 A 
ATOM     23  C   UNL A   1      34.437  28.908  26.084  1.00  0.00     0.024 A 
ATOM     24  C   UNL A   1      32.071  30.400  26.273  1.00  0.00     0.030 A 
ATOM     25  C   UNL A   1      33.321  28.539  25.326  1.00  0.00     0.030 A 
BRANCH  21  26
ATOM     26  S   UNL A   1      35.778  30.554  27.840  1.00  0.00     0.238 S 
ATOM     27  O   UNL A   1      35.708  31.987  27.977  1.00  0.00    -0.207 OA
ATOM     28  O   UNL A   1      36.951  29.865  27.345  1.00  0.00    -0.207 OA
BRANCH  26  29
ATOM     29  N   UNL A   1      35.510  29.928  29.377  1.00  0.00    -0.225 NA
ATOM     30  H   UNL A   1      36.215  29.221  29.584  1.00  0.00     0.137 HD
ATOM     31  H   UNL A   1      34.582  29.504  29.414  1.00  0.00     0.137 HD
ENDBRANCH  26  29
ENDBRANCH  21  26
ENDBRANCH  16  20
BRANCH  18  32
ATOM     32  C   UNL A   1      28.290  30.152  22.527  1.00  0.00     0.435 C 
ATOM     33  F   UNL A   1      27.046  29.755  22.895  1.00  0.00    -0.164 F 
ATOM     34  F   UNL A   1      28.362  31.496  22.719  1.00  0.00    -0.164 F 
ATOM     35  F   UNL A   1      28.373  29.957  21.180  1.00  0.00    -0.164 F 
ENDBRANCH  18  32
ENDBRANCH  10  15
ENDBRANCH   7   9
ENDBRANCH   6   7
ENDBRANCH   5   6
ENDBRANCH   4   5
ENDBRANCH   3   4
ENDBRANCH   2   3
ENDBRANCH   1   2
BRANCH   1  36
ATOM     36  O   UNL A   1      38.938  22.320  26.057  1.00  0.00    -0.377 OA
BRANCH  36  37
ATOM     37  C   UNL A   1      39.851  21.563  26.844  1.00  0.00     0.188 C 
BRANCH  37  38
ATOM     38  C   UNL A   1      40.338  20.156  26.406  1.00  0.00     0.188 C 
BRANCH  38  39
ATOM     39  O   UNL A   1      41.688  20.058  25.999  1.00  0.00    -0.376 OA
BRANCH  39  40
ATOM     40  C   UNL A   1      42.729  20.921  26.406  1.00  0.00     0.202 C 
BRANCH  40  41
ATOM     41  C   UNL A   1      44.066  20.975  25.679  1.00  0.00     0.261 C 
BRANCH  41  42
ATOM     42  O   UNL A   1      44.631  22.262  25.612  1.00  0.00    -0.460 OA
BRANCH  42  43
ATOM     43  C   UNL A   1      44.385  22.908  24.459  1.00  0.00     0.338 C 
ATOM     44  O   UNL A   1      44.440  22.458  23.329  1.00  0.00    -0.246 OA
BRANCH  43  45
ATOM     45  C   UNL A   1      44.142  24.314  24.789  1.00  0.00     0.060 A 
ATOM     46  C   UNL A   1      45.289  25.099  24.890  1.00  0.00     0.016 A 
ATOM     47  C   UNL A   1      42.952  24.604  25.469  1.00  0.00     0.016 A 
ATOM     48  C   UNL A   1      45.361  25.950  25.960  1.00  0.00     0.010 A 
ATOM     49  C   UNL A   1      43.041  25.415  26.563  1.00  0.00     0.010 A 
ATOM     50  C   UNL A   1      44.280  25.979  26.848  1.00  0.00    -0.014 A 
BRANCH  50  51
ATOM     51  C   UNL A   1      44.440  26.700  28.081  1.00  0.00     0.031 A 
ATOM     52  C   UNL A   1      44.202  28.139  27.882  1.00  0.00     0.074 A 
ATOM     53  C   UNL A   1      44.674  26.077  29.249  1.00  0.00     0.049 A 
ATOM     54  N   UNL A   1      45.089  29.073  27.817  1.00  0.00    -0.248 NA
ATOM     55  C   UNL A   1      42.855  28.543  27.442  1.00  0.00     0.031 C 
ATOM     56  C   UNL A   1      44.627  24.643  29.547  1.00  0.00     0.029 A 
ATOM     57  N   UNL A   1      44.899  26.631  30.466  1.00  0.00    -0.354 N 
ATOM     58  C   UNL A   1      44.363  30.228  27.562  1.00  0.00     0.074 A 
ATOM     59  C   UNL A   1      43.079  29.802  27.074  1.00  0.00     0.031 C 
ATOM     60  C   UNL A   1      44.569  24.470  30.890  1.00  0.00     0.029 A 
ATOM     61  C   UNL A   1      44.711  25.766  31.534  1.00  0.00     0.049 A 
ATOM     62  H   UNL A   1      45.173  27.569  30.582  1.00  0.00     0.167 HD
ATOM     63  C   UNL A   1      44.728  31.410  28.126  1.00  0.00     0.031 A 
ATOM     64  C   UNL A   1      44.604  26.125  32.838  1.00  0.00     0.031 A 
ATOM     65  C   UNL A   1      46.090  31.361  28.602  1.00  0.00     0.049 A 
ATOM     66  C   UNL A   1      45.129  27.507  32.963  1.00  0.00     0.074 A 
ATOM     67  C   UNL A   1      47.323  31.157  28.019  1.00  0.00     0.029 A 
ATOM     68  N   UNL A   1      46.253  31.131  29.948  1.00  0.00    -0.354 N 
ATOM     69  N   UNL A   1      46.384  27.815  32.799  1.00  0.00    -0.248 NA
ATOM     70  C   UNL A   1      44.192  28.609  32.799  1.00  0.00     0.031 C 
ATOM     71  C   UNL A   1      48.070  30.410  28.977  1.00  0.00     0.029 A 
ATOM     72  C   UNL A   1      47.287  30.252  30.123  1.00  0.00     0.049 A 
ATOM     73  H   UNL A   1      45.715  31.533  30.668  1.00  0.00     0.167 HD
ATOM     74  C   UNL A   1      46.367  29.009  32.090  1.00  0.00     0.074 A 
ATOM     75  C   UNL A   1      44.996  29.501  32.212  1.00  0.00     0.031 C 
ATOM     76  C   UNL A   1      47.383  29.326  31.232  1.00  0.00     0.031 A 
BRANCH  63  77
ATOM     77  C   UNL A   1      43.714  32.374  28.700  1.00  0.00    -0.014 A 
ATOM     78  C   UNL A   1      43.846  33.736  28.383  1.00  0.00     0.009 A 
ATOM     79  C   UNL A   1      42.831  32.058  29.753  1.00  0.00     0.009 A 
ATOM     80  C   UNL A   1      43.208  34.724  29.141  1.00  0.00     0.001 A 
ATOM     81  C   UNL A   1      42.160  33.038  30.485  1.00  0.00     0.001 A 
ATOM     82  C   UNL A   1      42.375  34.376  30.199  1.00  0.00     0.000 A 
ENDBRANCH  63  77
BRANCH  64  83
ATOM     83  C   UNL A   1      43.790  25.499  33.904  1.00  0.00    -0.014 A 
ATOM     84  C   UNL A   1      42.709  26.183  34.485  1.00  0.00     0.009 A 
ATOM     85  C   UNL A   1      43.905  24.120  34.161  1.00  0.00     0.009 A 
ATOM     86  C   UNL A   1      41.767  25.505  35.273  1.00  0.00     0.001 A 
ATOM     87  C   UNL A   1      42.964  23.444  34.946  1.00  0.00     0.001 A 
ATOM     88  C   UNL A   1      41.888  24.134  35.492  1.00  0.00     0.000 A 
ENDBRANCH  64  83
BRANCH  76  89
ATOM     89  C   UNL A   1      48.641  28.496  31.296  1.00  0.00    -0.014 A 
ATOM     90  C   UNL A   1      48.827  27.307  30.567  1.00  0.00     0.009 A 
ATOM     91  C   UNL A   1      49.735  29.027  31.995  1.00  0.00     0.009 A 
ATOM     92  C   UNL A   1      50.070  26.663  30.558  1.00  0.00     0.001 A 
ATOM     93  C   UNL A   1      50.979  28.396  31.968  1.00  0.00     0.001 A 
ATOM     94  C   UNL A   1      51.146  27.212  31.253  1.00  0.00     0.000 A 
ENDBRANCH  76  89
ENDBRANCH  50  51
ENDBRANCH  43  45
ENDBRANCH  42  43
ENDBRANCH  41  42
ENDBRANCH  40  41
ENDBRANCH  39  40
ENDBRANCH  38  39
ENDBRANCH  37  38
ENDBRANCH  36  37
ENDBRANCH   1  36
TORSDOF 25
ENDMDL
