MODEL 1
REMARK VINA RESULT:     -10.0      0.000      0.000
REMARK SMILES COc1ccc(-c2ccc(C#N)c(S[C@@H](C)C(=O)OCCOCCOCCOCCOC(=O)c3ccc(-c4c5nc(c(-c6ccccc6)c6ccc([nH]6)c(-c6ccccc6)c6nc(c(-c7ccccc7)c7ccc4[nH]7)C=C6)C=C5)cc3)n2)cc1
REMARK SMILES IDX 24 1 23 2 22 3 21 4 20 5 19 6 17 7 18 8 15 9 16 10 14 11
REMARK SMILES IDX 13 12 7 13 8 14 82 15 9 16 10 17 6 18 3 19 4 20 84 21 5 22
REMARK SMILES IDX 83 23 2 24 1 25 11 26 12 27 25 28 26 29 27 30 28 31 29 32
REMARK SMILES IDX 30 33 31 34 32 35 33 36 34 37 35 38 81 39 36 40 80 41 37 42
REMARK SMILES IDX 38 43 39 44 74 45 40 46 79 47 73 48 75 49 41 50 78 51 72 52
REMARK SMILES IDX 71 53 42 55 64 56 49 57 63 58 50 59 53 60 62 61 76 62 51 63
REMARK SMILES IDX 52 64 61 66 77 67 54 68 43 69 44 70 48 71 45 72 47 73 46 74
REMARK SMILES IDX 65 75 66 76 70 77 67 78 69 79 68 80 55 81 56 82 60 83 57 84
REMARK SMILES IDX 59 85 58 86
REMARK H PARENT 75 54 53 65
REMARK Flexibility Score: inf
ROOT
ATOM      1  C   UNL A   1      42.508  19.039  26.120  1.00  0.00     0.188 C 
ENDROOT
BRANCH   1   2
ATOM      2  C   UNL A   1      41.252  19.902  26.334  1.00  0.00     0.188 C 
BRANCH   2   3
ATOM      3  O   UNL A   1      41.363  21.249  26.769  1.00  0.00    -0.376 OA
BRANCH   3   4
ATOM      4  C   UNL A   1      40.232  22.099  26.878  1.00  0.00     0.202 C 
BRANCH   4   5
ATOM      5  C   UNL A   1      38.979  21.966  25.996  1.00  0.00     0.261 C 
BRANCH   5   6
ATOM      6  O   UNL A   1      37.970  22.978  26.149  1.00  0.00    -0.462 OA
BRANCH   6   7
ATOM      7  C   UNL A   1      36.751  22.665  25.666  1.00  0.00     0.319 C 
ATOM      8  O   UNL A   1      36.573  21.779  24.832  1.00  0.00    -0.251 OA
BRANCH   7   9
ATOM      9  C   UNL A   1      35.574  23.395  26.283  1.00  0.00     0.160 C 
ATOM     10  C   UNL A   1      34.864  22.529  27.316  1.00  0.00     0.032 C 
BRANCH   9  11
ATOM     11  S   UNL A   1      34.328  24.392  25.384  1.00  0.00    -0.090 SA
BRANCH  11  12
ATOM     12  C   UNL A   1      33.509  23.562  24.045  1.00  0.00     0.115 A 
ATOM     13  C   UNL A   1      32.838  21.376  23.432  1.00  0.00     0.072 A 
ATOM     14  C   UNL A   1      32.355  21.829  22.215  1.00  0.00     0.030 A 
ATOM     15  N   UNL A   1      33.359  22.228  24.349  1.00  0.00    -0.240 NA
ATOM     16  C   UNL A   1      32.519  23.171  21.893  1.00  0.00     0.024 A 
ATOM     17  C   UNL A   1      33.157  24.039  22.790  1.00  0.00     0.084 A 
BRANCH  13  18
ATOM     18  C   UNL A   1      32.935  19.931  23.703  1.00  0.00     0.000 A 
ATOM     19  C   UNL A   1      33.331  17.166  24.197  1.00  0.00     0.118 A 
ATOM     20  C   UNL A   1      32.563  17.598  23.112  1.00  0.00     0.047 A 
ATOM     21  C   UNL A   1      33.895  18.112  25.045  1.00  0.00     0.047 A 
ATOM     22  C   UNL A   1      32.348  18.966  22.878  1.00  0.00     0.014 A 
ATOM     23  C   UNL A   1      33.696  19.476  24.799  1.00  0.00     0.014 A 
BRANCH  19  24
ATOM     24  O   UNL A   1      33.513  15.814  24.297  1.00  0.00    -0.497 OA
ATOM     25  C   UNL A   1      32.842  15.174  25.380  1.00  0.00     0.278 C 
ENDBRANCH  19  24
ENDBRANCH  13  18
BRANCH  17  26
ATOM     26  C   UNL A   1      33.493  25.338  22.304  1.00  0.00     0.102 C 
ATOM     27  N   UNL A   1      33.739  26.387  21.882  1.00  0.00    -0.192 NA
ENDBRANCH  17  26
ENDBRANCH  11  12
ENDBRANCH   9  11
ENDBRANCH   7   9
ENDBRANCH   6   7
ENDBRANCH   5   6
ENDBRANCH   4   5
ENDBRANCH   3   4
ENDBRANCH   2   3
ENDBRANCH   1   2
BRANCH   1  28
ATOM     28  O   UNL A   1      43.090  19.163  24.836  1.00  0.00    -0.377 OA
BRANCH  28  29
ATOM     29  C   UNL A   1      44.466  18.831  24.705  1.00  0.00     0.188 C 
BRANCH  29  30
ATOM     30  C   UNL A   1      45.526  19.733  25.378  1.00  0.00     0.188 C 
BRANCH  30  31
ATOM     31  O   UNL A   1      46.346  20.448  24.473  1.00  0.00    -0.376 OA
BRANCH  31  32
ATOM     32  C   UNL A   1      46.181  21.846  24.306  1.00  0.00     0.202 C 
BRANCH  32  33
ATOM     33  C   UNL A   1      44.778  22.475  24.380  1.00  0.00     0.261 C 
BRANCH  33  34
ATOM     34  O   UNL A   1      44.505  23.354  25.480  1.00  0.00    -0.460 OA
BRANCH  34  35
ATOM     35  C   UNL A   1      44.879  24.644  25.356  1.00  0.00     0.338 C 
ATOM     36  O   UNL A   1      45.740  25.092  24.622  1.00  0.00    -0.246 OA
BRANCH  35  37
ATOM     37  C   UNL A   1      43.926  25.466  26.134  1.00  0.00     0.060 A 
ATOM     38  C   UNL A   1      44.143  26.847  26.234  1.00  0.00     0.016 A 
ATOM     39  C   UNL A   1      42.842  24.873  26.783  1.00  0.00     0.016 A 
ATOM     40  C   UNL A   1      43.317  27.628  27.042  1.00  0.00     0.010 A 
ATOM     41  C   UNL A   1      42.021  25.653  27.602  1.00  0.00     0.010 A 
ATOM     42  C   UNL A   1      42.294  27.021  27.781  1.00  0.00    -0.014 A 
BRANCH  42  43
ATOM     43  C   UNL A   1      41.696  27.752  28.925  1.00  0.00     0.031 A 
ATOM     44  C   UNL A   1      42.395  27.669  30.258  1.00  0.00     0.074 A 
ATOM     45  C   UNL A   1      40.592  28.506  28.788  1.00  0.00     0.049 A 
ATOM     46  N   UNL A   1      42.052  28.184  31.412  1.00  0.00    -0.248 NA
ATOM     47  C   UNL A   1      43.650  26.898  30.293  1.00  0.00     0.031 C 
ATOM     48  C   UNL A   1      39.861  28.723  27.542  1.00  0.00     0.029 A 
ATOM     49  N   UNL A   1      39.895  29.230  29.722  1.00  0.00    -0.354 N 
ATOM     50  C   UNL A   1      43.037  27.781  32.308  1.00  0.00     0.074 A 
ATOM     51  C   UNL A   1      43.968  26.953  31.575  1.00  0.00     0.031 C 
ATOM     52  C   UNL A   1      38.810  29.525  27.790  1.00  0.00     0.029 A 
ATOM     53  C   UNL A   1      38.775  29.843  29.218  1.00  0.00     0.049 A 
ATOM     54  H   UNL A   1      40.172  29.304  30.663  1.00  0.00     0.167 HD
ATOM     55  C   UNL A   1      43.161  28.078  33.623  1.00  0.00     0.031 A 
ATOM     56  C   UNL A   1      37.821  30.559  29.843  1.00  0.00     0.031 A 
ATOM     57  C   UNL A   1      42.226  28.888  34.356  1.00  0.00     0.049 A 
ATOM     58  C   UNL A   1      37.932  30.803  31.328  1.00  0.00     0.074 A 
ATOM     59  C   UNL A   1      42.265  29.255  35.690  1.00  0.00     0.029 A 
ATOM     60  N   UNL A   1      41.080  29.451  33.818  1.00  0.00    -0.354 N 
ATOM     61  N   UNL A   1      38.870  30.428  32.163  1.00  0.00    -0.248 NA
ATOM     62  C   UNL A   1      36.853  31.585  31.950  1.00  0.00     0.031 C 
ATOM     63  C   UNL A   1      41.103  29.977  35.976  1.00  0.00     0.029 A 
ATOM     64  C   UNL A   1      40.387  30.140  34.801  1.00  0.00     0.049 A 
ATOM     65  H   UNL A   1      40.799  29.373  32.878  1.00  0.00     0.167 HD
ATOM     66  C   UNL A   1      38.521  30.967  33.397  1.00  0.00     0.074 A 
ATOM     67  C   UNL A   1      37.290  31.704  33.196  1.00  0.00     0.031 C 
ATOM     68  C   UNL A   1      39.166  30.872  34.587  1.00  0.00     0.031 A 
BRANCH  55  69
ATOM     69  C   UNL A   1      44.327  27.478  34.362  1.00  0.00    -0.014 A 
ATOM     70  C   UNL A   1      44.252  26.204  34.949  1.00  0.00     0.009 A 
ATOM     71  C   UNL A   1      45.532  28.193  34.451  1.00  0.00     0.009 A 
ATOM     72  C   UNL A   1      45.344  25.679  35.644  1.00  0.00     0.001 A 
ATOM     73  C   UNL A   1      46.633  27.651  35.114  1.00  0.00     0.001 A 
ATOM     74  C   UNL A   1      46.535  26.400  35.720  1.00  0.00     0.000 A 
ENDBRANCH  55  69
BRANCH  56  75
ATOM     75  C   UNL A   1      36.660  31.090  29.079  1.00  0.00    -0.014 A 
ATOM     76  C   UNL A   1      35.610  30.245  28.683  1.00  0.00     0.009 A 
ATOM     77  C   UNL A   1      36.612  32.444  28.708  1.00  0.00     0.009 A 
ATOM     78  C   UNL A   1      34.560  30.737  27.904  1.00  0.00     0.001 A 
ATOM     79  C   UNL A   1      35.543  32.940  27.961  1.00  0.00     0.001 A 
ATOM     80  C   UNL A   1      34.524  32.083  27.548  1.00  0.00     0.000 A 
ENDBRANCH  56  75
BRANCH  68  81
ATOM     81  C   UNL A   1      38.596  31.643  35.750  1.00  0.00    -0.014 A 
ATOM     82  C   UNL A   1      38.596  33.046  35.787  1.00  0.00     0.009 A 
ATOM     83  C   UNL A   1      38.018  30.939  36.820  1.00  0.00     0.009 A 
ATOM     84  C   UNL A   1      38.078  33.724  36.894  1.00  0.00     0.001 A 
ATOM     85  C   UNL A   1      37.465  31.619  37.906  1.00  0.00     0.001 A 
ATOM     86  C   UNL A   1      37.509  33.011  37.948  1.00  0.00     0.000 A 
ENDBRANCH  68  81
ENDBRANCH  42  43
ENDBRANCH  35  37
ENDBRANCH  34  35
ENDBRANCH  33  34
ENDBRANCH  32  33
ENDBRANCH  31  32
ENDBRANCH  30  31
ENDBRANCH  29  30
ENDBRANCH  28  29
ENDBRANCH   1  28
TORSDOF 25
ENDMDL
MODEL 2
REMARK VINA RESULT:      -9.8      2.315      4.041
REMARK SMILES COc1ccc(-c2ccc(C#N)c(S[C@@H](C)C(=O)OCCOCCOCCOCCOC(=O)c3ccc(-c4c5nc(c(-c6ccccc6)c6ccc([nH]6)c(-c6ccccc6)c6nc(c(-c7ccccc7)c7ccc4[nH]7)C=C6)C=C5)cc3)n2)cc1
REMARK SMILES IDX 24 1 23 2 22 3 21 4 20 5 19 6 17 7 18 8 15 9 16 10 14 11
REMARK SMILES IDX 13 12 7 13 8 14 82 15 9 16 10 17 6 18 3 19 4 20 84 21 5 22
REMARK SMILES IDX 83 23 2 24 1 25 11 26 12 27 25 28 26 29 27 30 28 31 29 32
REMARK SMILES IDX 30 33 31 34 32 35 33 36 34 37 35 38 81 39 36 40 80 41 37 42
REMARK SMILES IDX 38 43 39 44 74 45 40 46 79 47 73 48 75 49 41 50 78 51 72 52
REMARK SMILES IDX 71 53 42 55 64 56 49 57 63 58 50 59 53 60 62 61 76 62 51 63
REMARK SMILES IDX 52 64 61 66 77 67 54 68 43 69 44 70 48 71 45 72 47 73 46 74
REMARK SMILES IDX 65 75 66 76 70 77 67 78 69 79 68 80 55 81 56 82 60 83 57 84
REMARK SMILES IDX 59 85 58 86
REMARK H PARENT 75 54 53 65
REMARK Flexibility Score: inf
ROOT
ATOM      1  C   UNL A   1      42.202  19.121  26.305  1.00  0.00     0.188 C 
ENDROOT
BRANCH   1   2
ATOM      2  C   UNL A   1      40.809  19.775  26.239  1.00  0.00     0.188 C 
BRANCH   2   3
ATOM      3  O   UNL A   1      40.674  21.183  26.119  1.00  0.00    -0.376 OA
BRANCH   3   4
ATOM      4  C   UNL A   1      39.418  21.830  26.249  1.00  0.00     0.202 C 
BRANCH   4   5
ATOM      5  C   UNL A   1      38.206  21.525  25.352  1.00  0.00     0.261 C 
BRANCH   5   6
ATOM      6  O   UNL A   1      36.924  21.973  25.823  1.00  0.00    -0.462 OA
BRANCH   6   7
ATOM      7  C   UNL A   1      35.881  21.722  25.007  1.00  0.00     0.319 C 
ATOM      8  O   UNL A   1      35.420  20.593  24.845  1.00  0.00    -0.251 OA
BRANCH   7   9
ATOM      9  C   UNL A   1      35.222  22.926  24.363  1.00  0.00     0.160 C 
ATOM     10  C   UNL A   1      35.453  24.188  25.184  1.00  0.00     0.032 C 
BRANCH   9  11
ATOM     11  S   UNL A   1      33.539  22.982  23.645  1.00  0.00    -0.090 SA
BRANCH  11  12
ATOM     12  C   UNL A   1      32.280  23.650  24.703  1.00  0.00     0.115 A 
ATOM     13  C   UNL A   1      30.719  25.430  24.732  1.00  0.00     0.072 A 
ATOM     14  C   UNL A   1      30.290  25.079  26.002  1.00  0.00     0.030 A 
ATOM     15  N   UNL A   1      31.658  24.706  24.075  1.00  0.00    -0.240 NA
ATOM     16  C   UNL A   1      30.925  24.027  26.649  1.00  0.00     0.024 A 
ATOM     17  C   UNL A   1      31.973  23.340  26.021  1.00  0.00     0.084 A 
BRANCH  13  18
ATOM     18  C   UNL A   1      30.274  26.694  24.119  1.00  0.00     0.000 A 
ATOM     19  C   UNL A   1      29.467  29.223  23.118  1.00  0.00     0.118 A 
ATOM     20  C   UNL A   1      28.547  28.180  23.256  1.00  0.00     0.047 A 
ATOM     21  C   UNL A   1      30.794  29.005  23.469  1.00  0.00     0.047 A 
ATOM     22  C   UNL A   1      28.949  26.920  23.731  1.00  0.00     0.014 A 
ATOM     23  C   UNL A   1      31.188  27.755  23.962  1.00  0.00     0.014 A 
BRANCH  19  24
ATOM     24  O   UNL A   1      28.953  30.417  22.693  1.00  0.00    -0.497 OA
ATOM     25  C   UNL A   1      28.643  30.503  21.304  1.00  0.00     0.278 C 
ENDBRANCH  19  24
ENDBRANCH  13  18
BRANCH  17  26
ATOM     26  C   UNL A   1      32.725  22.431  26.825  1.00  0.00     0.102 C 
ATOM     27  N   UNL A   1      33.315  21.708  27.508  1.00  0.00    -0.192 NA
ENDBRANCH  17  26
ENDBRANCH  11  12
ENDBRANCH   9  11
ENDBRANCH   7   9
ENDBRANCH   6   7
ENDBRANCH   5   6
ENDBRANCH   4   5
ENDBRANCH   3   4
ENDBRANCH   2   3
ENDBRANCH   1   2
BRANCH   1  28
ATOM     28  O   UNL A   1      42.846  18.993  25.051  1.00  0.00    -0.377 OA
BRANCH  28  29
ATOM     29  C   UNL A   1      44.262  18.874  25.052  1.00  0.00     0.188 C 
BRANCH  29  30
ATOM     30  C   UNL A   1      45.127  20.154  25.092  1.00  0.00     0.188 C 
BRANCH  30  31
ATOM     31  O   UNL A   1      45.220  20.837  23.855  1.00  0.00    -0.376 OA
BRANCH  31  32
ATOM     32  C   UNL A   1      44.537  22.063  23.660  1.00  0.00     0.202 C 
BRANCH  32  33
ATOM     33  C   UNL A   1      43.544  22.575  24.720  1.00  0.00     0.261 C 
BRANCH  33  34
ATOM     34  O   UNL A   1      44.078  23.324  25.818  1.00  0.00    -0.460 OA
BRANCH  34  35
ATOM     35  C   UNL A   1      44.427  24.607  25.589  1.00  0.00     0.338 C 
ATOM     36  O   UNL A   1      45.215  25.017  24.757  1.00  0.00    -0.246 OA
BRANCH  35  37
ATOM     37  C   UNL A   1      43.539  25.468  26.401  1.00  0.00     0.060 A 
ATOM     38  C   UNL A   1      43.700  26.859  26.340  1.00  0.00     0.016 A 
ATOM     39  C   UNL A   1      42.574  24.905  27.237  1.00  0.00     0.016 A 
ATOM     40  C   UNL A   1      42.943  27.687  27.170  1.00  0.00     0.010 A 
ATOM     41  C   UNL A   1      41.825  25.733  28.077  1.00  0.00     0.010 A 
ATOM     42  C   UNL A   1      42.051  27.121  28.089  1.00  0.00    -0.014 A 
BRANCH  42  43
ATOM     43  C   UNL A   1      41.565  27.941  29.225  1.00  0.00     0.031 A 
ATOM     44  C   UNL A   1      42.305  27.840  30.535  1.00  0.00     0.074 A 
ATOM     45  C   UNL A   1      40.528  28.786  29.099  1.00  0.00     0.049 A 
ATOM     46  N   UNL A   1      42.054  28.422  31.680  1.00  0.00    -0.248 NA
ATOM     47  C   UNL A   1      43.487  26.960  30.554  1.00  0.00     0.031 C 
ATOM     48  C   UNL A   1      39.771  29.027  27.873  1.00  0.00     0.029 A 
ATOM     49  N   UNL A   1      39.935  29.601  30.030  1.00  0.00    -0.354 N 
ATOM     50  C   UNL A   1      43.033  27.963  32.556  1.00  0.00     0.074 A 
ATOM     51  C   UNL A   1      43.858  27.030  31.821  1.00  0.00     0.031 C 
ATOM     52  C   UNL A   1      38.806  29.928  28.129  1.00  0.00     0.029 A 
ATOM     53  C   UNL A   1      38.855  30.296  29.544  1.00  0.00     0.049 A 
ATOM     54  H   UNL A   1      40.253  29.682  30.958  1.00  0.00     0.167 HD
ATOM     55  C   UNL A   1      43.234  28.292  33.854  1.00  0.00     0.031 A 
ATOM     56  C   UNL A   1      37.993  31.116  30.176  1.00  0.00     0.031 A 
ATOM     57  C   UNL A   1      42.404  29.207  34.589  1.00  0.00     0.049 A 
ATOM     58  C   UNL A   1      38.183  31.398  31.646  1.00  0.00     0.074 A 
ATOM     59  C   UNL A   1      42.526  29.613  35.906  1.00  0.00     0.029 A 
ATOM     60  N   UNL A   1      41.292  29.852  34.071  1.00  0.00    -0.354 N 
ATOM     61  N   UNL A   1      39.115  30.968  32.460  1.00  0.00    -0.248 NA
ATOM     62  C   UNL A   1      37.203  32.295  32.276  1.00  0.00     0.031 C 
ATOM     63  C   UNL A   1      41.445  30.446  36.206  1.00  0.00     0.029 A 
ATOM     64  C   UNL A   1      40.702  30.633  35.051  1.00  0.00     0.049 A 
ATOM     65  H   UNL A   1      40.969  29.768  33.145  1.00  0.00     0.167 HD
ATOM     66  C   UNL A   1      38.863  31.579  33.685  1.00  0.00     0.074 A 
ATOM     67  C   UNL A   1      37.696  32.416  33.501  1.00  0.00     0.031 C 
ATOM     68  C   UNL A   1      39.543  31.466  34.854  1.00  0.00     0.031 A 
BRANCH  55  69
ATOM     69  C   UNL A   1      44.369  27.614  34.572  1.00  0.00    -0.014 A 
ATOM     70  C   UNL A   1      44.191  26.398  35.253  1.00  0.00     0.009 A 
ATOM     71  C   UNL A   1      45.648  28.193  34.547  1.00  0.00     0.009 A 
ATOM     72  C   UNL A   1      45.259  25.800  35.927  1.00  0.00     0.001 A 
ATOM     73  C   UNL A   1      46.721  27.575  35.190  1.00  0.00     0.001 A 
ATOM     74  C   UNL A   1      46.524  26.386  35.888  1.00  0.00     0.000 A 
ENDBRANCH  55  69
BRANCH  56  75
ATOM     75  C   UNL A   1      36.855  31.723  29.434  1.00  0.00    -0.014 A 
ATOM     76  C   UNL A   1      35.718  30.965  29.112  1.00  0.00     0.009 A 
ATOM     77  C   UNL A   1      36.916  33.061  29.011  1.00  0.00     0.009 A 
ATOM     78  C   UNL A   1      34.686  31.522  28.353  1.00  0.00     0.001 A 
ATOM     79  C   UNL A   1      35.867  33.626  28.284  1.00  0.00     0.001 A 
ATOM     80  C   UNL A   1      34.758  32.853  27.944  1.00  0.00     0.000 A 
ENDBRANCH  56  75
BRANCH  68  81
ATOM     81  C   UNL A   1      39.089  32.324  36.007  1.00  0.00    -0.014 A 
ATOM     82  C   UNL A   1      39.671  33.570  36.284  1.00  0.00     0.009 A 
ATOM     83  C   UNL A   1      38.029  31.879  36.815  1.00  0.00     0.009 A 
ATOM     84  C   UNL A   1      39.237  34.326  37.377  1.00  0.00     0.001 A 
ATOM     85  C   UNL A   1      37.570  32.654  37.881  1.00  0.00     0.001 A 
ATOM     86  C   UNL A   1      38.185  33.870  38.170  1.00  0.00     0.000 A 
ENDBRANCH  68  81
ENDBRANCH  42  43
ENDBRANCH  35  37
ENDBRANCH  34  35
ENDBRANCH  33  34
ENDBRANCH  32  33
ENDBRANCH  31  32
ENDBRANCH  30  31
ENDBRANCH  29  30
ENDBRANCH  28  29
ENDBRANCH   1  28
TORSDOF 25
ENDMDL
MODEL 3
REMARK VINA RESULT:      -9.7      0.788      5.627
REMARK SMILES COc1ccc(-c2ccc(C#N)c(S[C@@H](C)C(=O)OCCOCCOCCOCCOC(=O)c3ccc(-c4c5nc(c(-c6ccccc6)c6ccc([nH]6)c(-c6ccccc6)c6nc(c(-c7ccccc7)c7ccc4[nH]7)C=C6)C=C5)cc3)n2)cc1
REMARK SMILES IDX 24 1 23 2 22 3 21 4 20 5 19 6 17 7 18 8 15 9 16 10 14 11
REMARK SMILES IDX 13 12 7 13 8 14 82 15 9 16 10 17 6 18 3 19 4 20 84 21 5 22
REMARK SMILES IDX 83 23 2 24 1 25 11 26 12 27 25 28 26 29 27 30 28 31 29 32
REMARK SMILES IDX 30 33 31 34 32 35 33 36 34 37 35 38 81 39 36 40 80 41 37 42
REMARK SMILES IDX 38 43 39 44 74 45 40 46 79 47 73 48 75 49 41 50 78 51 72 52
REMARK SMILES IDX 71 53 42 55 64 56 49 57 63 58 50 59 53 60 62 61 76 62 51 63
REMARK SMILES IDX 52 64 61 66 77 67 54 68 43 69 44 70 48 71 45 72 47 73 46 74
REMARK SMILES IDX 65 75 66 76 70 77 67 78 69 79 68 80 55 81 56 82 60 83 57 84
REMARK SMILES IDX 59 85 58 86
REMARK H PARENT 75 54 53 65
REMARK Flexibility Score: inf
ROOT
ATOM      1  C   UNL A   1      41.066  19.924  26.454  1.00  0.00     0.188 C 
ENDROOT
BRANCH   1   2
ATOM      2  C   UNL A   1      41.056  21.463  26.475  1.00  0.00     0.188 C 
BRANCH   2   3
ATOM      3  O   UNL A   1      39.871  22.185  26.178  1.00  0.00    -0.376 OA
BRANCH   3   4
ATOM      4  C   UNL A   1      39.593  23.447  26.764  1.00  0.00     0.202 C 
BRANCH   4   5
ATOM      5  C   UNL A   1      38.241  24.167  26.635  1.00  0.00     0.261 C 
BRANCH   5   6
ATOM      6  O   UNL A   1      37.384  23.747  25.560  1.00  0.00    -0.462 OA
BRANCH   6   7
ATOM      7  C   UNL A   1      36.346  22.963  25.911  1.00  0.00     0.319 C 
ATOM      8  O   UNL A   1      36.411  21.734  25.917  1.00  0.00    -0.251 OA
BRANCH   7   9
ATOM      9  C   UNL A   1      35.102  23.673  26.408  1.00  0.00     0.160 C 
ATOM     10  C   UNL A   1      34.334  22.814  27.405  1.00  0.00     0.032 C 
BRANCH   9  11
ATOM     11  S   UNL A   1      33.907  24.608  25.383  1.00  0.00    -0.090 SA
BRANCH  11  12
ATOM     12  C   UNL A   1      33.251  23.730  23.986  1.00  0.00     0.115 A 
ATOM     13  C   UNL A   1      32.693  21.516  23.359  1.00  0.00     0.072 A 
ATOM     14  C   UNL A   1      32.331  21.931  22.088  1.00  0.00     0.030 A 
ATOM     15  N   UNL A   1      33.098  22.399  24.305  1.00  0.00    -0.240 NA
ATOM     16  C   UNL A   1      32.499  23.268  21.753  1.00  0.00     0.024 A 
ATOM     17  C   UNL A   1      33.022  24.171  22.690  1.00  0.00     0.084 A 
BRANCH  13  18
ATOM     18  C   UNL A   1      32.793  20.080  23.674  1.00  0.00     0.000 A 
ATOM     19  C   UNL A   1      32.776  17.304  24.262  1.00  0.00     0.118 A 
ATOM     20  C   UNL A   1      33.235  18.233  25.200  1.00  0.00     0.047 A 
ATOM     21  C   UNL A   1      32.334  17.756  23.023  1.00  0.00     0.047 A 
ATOM     22  C   UNL A   1      33.265  19.606  24.903  1.00  0.00     0.014 A 
ATOM     23  C   UNL A   1      32.346  19.127  22.737  1.00  0.00     0.014 A 
BRANCH  19  24
ATOM     24  O   UNL A   1      32.747  16.002  24.678  1.00  0.00    -0.497 OA
ATOM     25  C   UNL A   1      33.832  15.588  25.506  1.00  0.00     0.278 C 
ENDBRANCH  19  24
ENDBRANCH  13  18
BRANCH  17  26
ATOM     26  C   UNL A   1      33.379  25.467  22.210  1.00  0.00     0.102 C 
ATOM     27  N   UNL A   1      33.657  26.506  21.786  1.00  0.00    -0.192 NA
ENDBRANCH  17  26
ENDBRANCH  11  12
ENDBRANCH   9  11
ENDBRANCH   7   9
ENDBRANCH   6   7
ENDBRANCH   5   6
ENDBRANCH   4   5
ENDBRANCH   3   4
ENDBRANCH   2   3
ENDBRANCH   1   2
BRANCH   1  28
ATOM     28  O   UNL A   1      41.857  19.358  25.425  1.00  0.00    -0.377 OA
BRANCH  28  29
ATOM     29  C   UNL A   1      42.950  18.537  25.815  1.00  0.00     0.188 C 
BRANCH  29  30
ATOM     30  C   UNL A   1      44.388  19.091  25.699  1.00  0.00     0.188 C 
BRANCH  30  31
ATOM     31  O   UNL A   1      44.683  19.699  24.454  1.00  0.00    -0.376 OA
BRANCH  31  32
ATOM     32  C   UNL A   1      45.088  21.056  24.398  1.00  0.00     0.202 C 
BRANCH  32  33
ATOM     33  C   UNL A   1      44.100  22.177  24.770  1.00  0.00     0.261 C 
BRANCH  33  34
ATOM     34  O   UNL A   1      44.454  23.032  25.864  1.00  0.00    -0.460 OA
BRANCH  34  35
ATOM     35  C   UNL A   1      44.715  24.326  25.586  1.00  0.00     0.338 C 
ATOM     36  O   UNL A   1      45.409  24.759  24.684  1.00  0.00    -0.246 OA
BRANCH  35  37
ATOM     37  C   UNL A   1      43.855  25.157  26.457  1.00  0.00     0.060 A 
ATOM     38  C   UNL A   1      44.037  26.547  26.465  1.00  0.00     0.016 A 
ATOM     39  C   UNL A   1      42.896  24.566  27.280  1.00  0.00     0.016 A 
ATOM     40  C   UNL A   1      43.308  27.342  27.350  1.00  0.00     0.010 A 
ATOM     41  C   UNL A   1      42.174  25.360  28.175  1.00  0.00     0.010 A 
ATOM     42  C   UNL A   1      42.423  26.742  28.254  1.00  0.00    -0.014 A 
BRANCH  42  43
ATOM     43  C   UNL A   1      41.969  27.509  29.440  1.00  0.00     0.031 A 
ATOM     44  C   UNL A   1      40.673  28.273  29.332  1.00  0.00     0.074 A 
ATOM     45  C   UNL A   1      42.654  27.501  30.596  1.00  0.00     0.049 A 
ATOM     46  N   UNL A   1      40.087  29.046  30.211  1.00  0.00    -0.248 NA
ATOM     47  C   UNL A   1      39.943  28.148  28.059  1.00  0.00     0.031 C 
ATOM     48  C   UNL A   1      43.882  26.752  30.852  1.00  0.00     0.029 A 
ATOM     49  N   UNL A   1      42.401  28.154  31.777  1.00  0.00    -0.354 N 
ATOM     50  C   UNL A   1      38.933  29.512  29.588  1.00  0.00     0.074 A 
ATOM     51  C   UNL A   1      38.922  28.965  28.249  1.00  0.00     0.031 C 
ATOM     52  C   UNL A   1      44.281  26.993  32.114  1.00  0.00     0.029 A 
ATOM     53  C   UNL A   1      43.359  27.941  32.738  1.00  0.00     0.049 A 
ATOM     54  H   UNL A   1      41.609  28.719  31.922  1.00  0.00     0.167 HD
ATOM     55  C   UNL A   1      37.966  30.317  30.085  1.00  0.00     0.031 A 
ATOM     56  C   UNL A   1      43.485  28.470  33.970  1.00  0.00     0.031 A 
ATOM     57  C   UNL A   1      37.986  30.875  31.410  1.00  0.00     0.049 A 
ATOM     58  C   UNL A   1      42.441  29.437  34.471  1.00  0.00     0.074 A 
ATOM     59  C   UNL A   1      37.051  31.697  32.014  1.00  0.00     0.029 A 
ATOM     60  N   UNL A   1      38.998  30.672  32.335  1.00  0.00    -0.354 N 
ATOM     61  N   UNL A   1      41.351  29.862  33.880  1.00  0.00    -0.248 NA
ATOM     62  C   UNL A   1      42.643  29.984  35.821  1.00  0.00     0.031 C 
ATOM     63  C   UNL A   1      37.534  32.052  33.276  1.00  0.00     0.029 A 
ATOM     64  C   UNL A   1      38.724  31.376  33.496  1.00  0.00     0.049 A 
ATOM     65  H   UNL A   1      39.794  30.111  32.189  1.00  0.00     0.167 HD
ATOM     66  C   UNL A   1      40.714  30.687  34.802  1.00  0.00     0.074 A 
ATOM     67  C   UNL A   1      41.535  30.692  35.994  1.00  0.00     0.031 C 
ATOM     68  C   UNL A   1      39.548  31.370  34.677  1.00  0.00     0.031 A 
BRANCH  55  69
ATOM     69  C   UNL A   1      36.830  30.683  29.168  1.00  0.00    -0.014 A 
ATOM     70  C   UNL A   1      35.879  29.734  28.756  1.00  0.00     0.009 A 
ATOM     71  C   UNL A   1      36.696  32.009  28.727  1.00  0.00     0.009 A 
ATOM     72  C   UNL A   1      34.845  30.098  27.890  1.00  0.00     0.001 A 
ATOM     73  C   UNL A   1      35.641  32.378  27.892  1.00  0.00     0.001 A 
ATOM     74  C   UNL A   1      34.723  31.420  27.465  1.00  0.00     0.000 A 
ENDBRANCH  55  69
BRANCH  56  75
ATOM     75  C   UNL A   1      44.653  28.117  34.821  1.00  0.00    -0.014 A 
ATOM     76  C   UNL A   1      44.579  27.061  35.744  1.00  0.00     0.009 A 
ATOM     77  C   UNL A   1      45.842  28.860  34.741  1.00  0.00     0.009 A 
ATOM     78  C   UNL A   1      45.655  26.783  36.590  1.00  0.00     0.001 A 
ATOM     79  C   UNL A   1      46.928  28.556  35.562  1.00  0.00     0.001 A 
ATOM     80  C   UNL A   1      46.830  27.526  36.496  1.00  0.00     0.000 A 
ENDBRANCH  56  75
BRANCH  68  81
ATOM     81  C   UNL A   1      39.049  32.120  35.886  1.00  0.00    -0.014 A 
ATOM     82  C   UNL A   1      39.416  33.450  36.141  1.00  0.00     0.009 A 
ATOM     83  C   UNL A   1      38.165  31.481  36.771  1.00  0.00     0.009 A 
ATOM     84  C   UNL A   1      38.950  34.104  37.286  1.00  0.00     0.001 A 
ATOM     85  C   UNL A   1      37.669  32.149  37.891  1.00  0.00     0.001 A 
ATOM     86  C   UNL A   1      38.074  33.455  38.155  1.00  0.00     0.000 A 
ENDBRANCH  68  81
ENDBRANCH  42  43
ENDBRANCH  35  37
ENDBRANCH  34  35
ENDBRANCH  33  34
ENDBRANCH  32  33
ENDBRANCH  31  32
ENDBRANCH  30  31
ENDBRANCH  29  30
ENDBRANCH  28  29
ENDBRANCH   1  28
TORSDOF 25
ENDMDL
