MODEL 1
REMARK VINA RESULT:     -11.0      0.000      0.000
REMARK SMILES CC(=O)Nc1ccc(/C=C2/CCc3oc(C(=O)OCCOCCOCCOCCOC(=O)c4ccc(-c5c6nc(c(-c7ccccc7)c7ccc([nH]7)c(-c7ccccc7)c7nc(c(-c8ccccc8)c8ccc5[nH]8)C=C7)C=C6)cc4)c(C)c3C2=O)cc1
REMARK SMILES IDX 24 1 23 2 22 3 21 4 20 5 19 6 18 7 16 8 17 9 15 10 9 11
REMARK SMILES IDX 10 12 11 13 84 14 12 15 83 16 85 17 13 18 81 19 14 20 82 21
REMARK SMILES IDX 8 22 5 23 6 24 87 25 7 26 86 27 4 28 1 29 2 30 3 31 25 33
REMARK SMILES IDX 26 34 27 35 28 36 29 37 30 38 31 39 32 40 33 41 34 42 80 43
REMARK SMILES IDX 35 44 79 45 36 46 37 47 38 48 73 49 39 50 78 51 72 52 74 53
REMARK SMILES IDX 40 54 77 55 71 56 70 57 41 59 63 60 48 61 62 62 49 63 52 64
REMARK SMILES IDX 61 65 75 66 50 67 51 68 60 70 76 71 53 72 42 73 43 74 47 75
REMARK SMILES IDX 44 76 46 77 45 78 64 79 65 80 69 81 66 82 68 83 67 84 54 85
REMARK SMILES IDX 55 86 59 87 56 88 58 89 57 90
REMARK H PARENT 4 32 74 58 52 69
REMARK Flexibility Score: inf
ROOT
ATOM      1  O   UNL A   1      36.167  30.324  31.336  1.00  0.00    -0.377 OA
ENDROOT
BRANCH   1   2
ATOM      2  C   UNL A   1      36.252  31.135  30.165  1.00  0.00     0.188 C 
BRANCH   2   3
ATOM      3  C   UNL A   1      35.295  32.321  29.899  1.00  0.00     0.188 C 
BRANCH   3   4
ATOM      4  O   UNL A   1      34.347  32.077  28.876  1.00  0.00    -0.376 OA
BRANCH   4   5
ATOM      5  C   UNL A   1      34.595  31.089  27.903  1.00  0.00     0.202 C 
BRANCH   5   6
ATOM      6  C   UNL A   1      33.368  30.548  27.161  1.00  0.00     0.261 C 
BRANCH   6   7
ATOM      7  O   UNL A   1      33.417  29.163  26.799  1.00  0.00    -0.457 OA
BRANCH   7   8
ATOM      8  C   UNL A   1      32.255  28.463  26.843  1.00  0.00     0.374 C 
ATOM      9  O   UNL A   1      31.356  28.653  27.660  1.00  0.00    -0.242 OA
BRANCH   8  10
ATOM     10  C   UNL A   1      32.179  27.608  25.681  1.00  0.00     0.215 A 
ATOM     11  C   UNL A   1      33.258  23.444  22.301  1.00  0.00     0.016 C 
ATOM     12  C   UNL A   1      32.555  24.594  22.338  1.00  0.00     0.001 C 
ATOM     13  C   UNL A   1      32.911  25.808  21.487  1.00  0.00     0.048 C 
ATOM     14  C   UNL A   1      31.460  24.890  23.319  1.00  0.00     0.192 C 
ATOM     15  C   UNL A   1      33.410  26.994  22.353  1.00  0.00     0.081 C 
ATOM     16  C   UNL A   1      31.809  26.040  24.120  1.00  0.00     0.067 A 
ATOM     17  O   UNL A   1      30.412  24.268  23.402  1.00  0.00    -0.289 OA
ATOM     18  C   UNL A   1      32.697  26.980  23.653  1.00  0.00     0.116 A 
ATOM     19  C   UNL A   1      31.420  26.466  25.420  1.00  0.00     0.014 A 
ATOM     20  O   UNL A   1      32.926  27.941  24.573  1.00  0.00    -0.453 OA
ATOM     21  C   UNL A   1      30.420  25.803  26.294  1.00  0.00     0.049 C 
BRANCH  11  22
ATOM     22  C   UNL A   1      33.248  22.239  23.165  1.00  0.00    -0.025 A 
ATOM     23  C   UNL A   1      33.194  19.781  24.596  1.00  0.00     0.041 A 
ATOM     24  C   UNL A   1      34.066  20.800  24.963  1.00  0.00     0.027 A 
ATOM     25  C   UNL A   1      32.304  20.008  23.552  1.00  0.00     0.027 A 
ATOM     26  C   UNL A   1      34.111  21.998  24.238  1.00  0.00     0.010 A 
ATOM     27  C   UNL A   1      32.326  21.225  22.853  1.00  0.00     0.010 A 
BRANCH  23  28
ATOM     28  N   UNL A   1      33.245  18.594  25.339  1.00  0.00    -0.326 N 
ATOM     29  C   UNL A   1      33.938  17.022  23.546  1.00  0.00     0.114 C 
ATOM     30  C   UNL A   1      33.441  17.303  24.938  1.00  0.00     0.221 C 
ATOM     31  O   UNL A   1      33.288  16.391  25.751  1.00  0.00    -0.275 OA
ATOM     32  H   UNL A   1      33.119  18.710  26.309  1.00  0.00     0.169 HD
ENDBRANCH  23  28
ENDBRANCH  11  22
ENDBRANCH   8  10
ENDBRANCH   7   8
ENDBRANCH   6   7
ENDBRANCH   5   6
ENDBRANCH   4   5
ENDBRANCH   3   4
ENDBRANCH   2   3
ENDBRANCH   1   2
BRANCH   1  33
ATOM     33  C   UNL A   1      37.021  30.602  32.433  1.00  0.00     0.188 C 
BRANCH  33  34
ATOM     34  C   UNL A   1      36.662  31.863  33.258  1.00  0.00     0.188 C 
BRANCH  34  35
ATOM     35  O   UNL A   1      37.426  33.028  33.007  1.00  0.00    -0.376 OA
BRANCH  35  36
ATOM     36  C   UNL A   1      38.555  33.474  33.738  1.00  0.00     0.202 C 
BRANCH  36  37
ATOM     37  C   UNL A   1      39.948  32.851  33.718  1.00  0.00     0.261 C 
BRANCH  37  38
ATOM     38  O   UNL A   1      40.279  32.179  32.535  1.00  0.00    -0.460 OA
BRANCH  38  39
ATOM     39  C   UNL A   1      41.192  32.793  31.775  1.00  0.00     0.338 C 
ATOM     40  O   UNL A   1      41.887  33.756  32.079  1.00  0.00    -0.246 OA
BRANCH  39  41
ATOM     41  C   UNL A   1      41.168  32.150  30.454  1.00  0.00     0.060 A 
ATOM     42  C   UNL A   1      40.056  31.343  30.232  1.00  0.00     0.016 A 
ATOM     43  C   UNL A   1      42.413  31.915  29.856  1.00  0.00     0.016 A 
ATOM     44  C   UNL A   1      40.304  30.068  29.801  1.00  0.00     0.010 A 
ATOM     45  C   UNL A   1      42.674  30.632  29.481  1.00  0.00     0.010 A 
ATOM     46  C   UNL A   1      41.637  29.707  29.586  1.00  0.00    -0.014 A 
BRANCH  46  47
ATOM     47  C   UNL A   1      41.949  28.307  29.500  1.00  0.00     0.031 A 
ATOM     48  C   UNL A   1      42.591  27.806  30.721  1.00  0.00     0.074 A 
ATOM     49  C   UNL A   1      41.561  27.557  28.457  1.00  0.00     0.049 A 
ATOM     50  N   UNL A   1      43.846  27.574  30.913  1.00  0.00    -0.248 NA
ATOM     51  C   UNL A   1      41.767  27.799  31.940  1.00  0.00     0.031 C 
ATOM     52  C   UNL A   1      40.615  27.882  27.385  1.00  0.00     0.029 A 
ATOM     53  N   UNL A   1      41.869  26.262  28.211  1.00  0.00    -0.354 N 
ATOM     54  C   UNL A   1      43.929  27.207  32.248  1.00  0.00     0.074 A 
ATOM     55  C   UNL A   1      42.707  27.642  32.868  1.00  0.00     0.031 C 
ATOM     56  C   UNL A   1      40.254  26.737  26.754  1.00  0.00     0.029 A 
ATOM     57  C   UNL A   1      41.046  25.640  27.287  1.00  0.00     0.049 A 
ATOM     58  H   UNL A   1      42.617  25.799  28.653  1.00  0.00     0.167 HD
ATOM     59  C   UNL A   1      44.830  26.285  32.680  1.00  0.00     0.031 A 
ATOM     60  C   UNL A   1      40.980  24.302  27.079  1.00  0.00     0.031 A 
ATOM     61  C   UNL A   1      45.842  26.028  31.689  1.00  0.00     0.049 A 
ATOM     62  C   UNL A   1      42.197  23.700  27.686  1.00  0.00     0.074 A 
ATOM     63  C   UNL A   1      46.845  26.768  31.098  1.00  0.00     0.029 A 
ATOM     64  N   UNL A   1      45.630  24.939  30.875  1.00  0.00    -0.354 N 
ATOM     65  N   UNL A   1      43.405  23.908  27.249  1.00  0.00    -0.248 NA
ATOM     66  C   UNL A   1      42.109  23.218  29.057  1.00  0.00     0.031 C 
ATOM     67  C   UNL A   1      46.906  26.308  29.750  1.00  0.00     0.029 A 
ATOM     68  C   UNL A   1      45.972  25.279  29.592  1.00  0.00     0.049 A 
ATOM     69  H   UNL A   1      45.290  24.063  31.166  1.00  0.00     0.167 HD
ATOM     70  C   UNL A   1      44.195  23.985  28.390  1.00  0.00     0.074 A 
ATOM     71  C   UNL A   1      43.363  23.444  29.461  1.00  0.00     0.031 C 
ATOM     72  C   UNL A   1      45.334  24.740  28.406  1.00  0.00     0.031 A 
BRANCH  59  73
ATOM     73  C   UNL A   1      44.529  25.318  33.797  1.00  0.00    -0.014 A 
ATOM     74  C   UNL A   1      43.762  24.180  33.508  1.00  0.00     0.009 A 
ATOM     75  C   UNL A   1      44.755  25.595  35.162  1.00  0.00     0.009 A 
ATOM     76  C   UNL A   1      43.215  23.396  34.531  1.00  0.00     0.001 A 
ATOM     77  C   UNL A   1      44.252  24.790  36.184  1.00  0.00     0.001 A 
ATOM     78  C   UNL A   1      43.458  23.701  35.867  1.00  0.00     0.000 A 
ENDBRANCH  59  73
BRANCH  60  79
ATOM     79  C   UNL A   1      39.787  23.491  26.752  1.00  0.00    -0.014 A 
ATOM     80  C   UNL A   1      38.540  24.102  26.548  1.00  0.00     0.009 A 
ATOM     81  C   UNL A   1      39.932  22.148  26.359  1.00  0.00     0.009 A 
ATOM     82  C   UNL A   1      37.490  23.404  25.936  1.00  0.00     0.001 A 
ATOM     83  C   UNL A   1      38.883  21.450  25.751  1.00  0.00     0.001 A 
ATOM     84  C   UNL A   1      37.666  22.084  25.525  1.00  0.00     0.000 A 
ENDBRANCH  60  79
BRANCH  72  85
ATOM     85  C   UNL A   1      45.845  25.258  27.083  1.00  0.00    -0.014 A 
ATOM     86  C   UNL A   1      45.601  26.565  26.623  1.00  0.00     0.009 A 
ATOM     87  C   UNL A   1      46.733  24.452  26.357  1.00  0.00     0.009 A 
ATOM     88  C   UNL A   1      46.219  27.040  25.460  1.00  0.00     0.001 A 
ATOM     89  C   UNL A   1      47.364  24.934  25.209  1.00  0.00     0.001 A 
ATOM     90  C   UNL A   1      47.106  26.226  24.758  1.00  0.00     0.000 A 
ENDBRANCH  72  85
ENDBRANCH  46  47
ENDBRANCH  39  41
ENDBRANCH  38  39
ENDBRANCH  37  38
ENDBRANCH  36  37
ENDBRANCH  35  36
ENDBRANCH  34  35
ENDBRANCH  33  34
ENDBRANCH   1  33
TORSDOF 22
ENDMDL
MODEL 2
REMARK VINA RESULT:     -10.5      2.489      4.943
REMARK SMILES CC(=O)Nc1ccc(/C=C2/CCc3oc(C(=O)OCCOCCOCCOCCOC(=O)c4ccc(-c5c6nc(c(-c7ccccc7)c7ccc([nH]7)c(-c7ccccc7)c7nc(c(-c8ccccc8)c8ccc5[nH]8)C=C7)C=C6)cc4)c(C)c3C2=O)cc1
REMARK SMILES IDX 24 1 23 2 22 3 21 4 20 5 19 6 18 7 16 8 17 9 15 10 9 11
REMARK SMILES IDX 10 12 11 13 84 14 12 15 83 16 85 17 13 18 81 19 14 20 82 21
REMARK SMILES IDX 8 22 5 23 6 24 87 25 7 26 86 27 4 28 1 29 2 30 3 31 25 33
REMARK SMILES IDX 26 34 27 35 28 36 29 37 30 38 31 39 32 40 33 41 34 42 80 43
REMARK SMILES IDX 35 44 79 45 36 46 37 47 38 48 73 49 39 50 78 51 72 52 74 53
REMARK SMILES IDX 40 54 77 55 71 56 70 57 41 59 63 60 48 61 62 62 49 63 52 64
REMARK SMILES IDX 61 65 75 66 50 67 51 68 60 70 76 71 53 72 42 73 43 74 47 75
REMARK SMILES IDX 44 76 46 77 45 78 64 79 65 80 69 81 66 82 68 83 67 84 54 85
REMARK SMILES IDX 55 86 59 87 56 88 58 89 57 90
REMARK H PARENT 4 32 74 58 52 69
REMARK Flexibility Score: inf
ROOT
ATOM      1  O   UNL A   1      34.672  32.295  27.434  1.00  0.00    -0.377 OA
ENDROOT
BRANCH   1   2
ATOM      2  C   UNL A   1      33.474  31.550  27.650  1.00  0.00     0.188 C 
BRANCH   2   3
ATOM      3  C   UNL A   1      33.124  30.278  26.839  1.00  0.00     0.188 C 
BRANCH   3   4
ATOM      4  O   UNL A   1      33.079  29.096  27.616  1.00  0.00    -0.376 OA
BRANCH   4   5
ATOM      5  C   UNL A   1      31.958  28.247  27.548  1.00  0.00     0.202 C 
BRANCH   5   6
ATOM      6  C   UNL A   1      31.821  27.409  26.271  1.00  0.00     0.261 C 
BRANCH   6   7
ATOM      7  O   UNL A   1      30.492  26.986  25.941  1.00  0.00    -0.457 OA
BRANCH   7   8
ATOM      8  C   UNL A   1      30.169  25.691  26.186  1.00  0.00     0.374 C 
ATOM      9  O   UNL A   1      29.193  25.327  26.839  1.00  0.00    -0.242 OA
BRANCH   8  10
ATOM     10  C   UNL A   1      31.038  24.837  25.410  1.00  0.00     0.215 A 
ATOM     11  C   UNL A   1      35.623  22.881  23.154  1.00  0.00     0.016 C 
ATOM     12  C   UNL A   1      34.288  22.692  23.121  1.00  0.00     0.001 C 
ATOM     13  C   UNL A   1      33.437  23.023  21.900  1.00  0.00     0.048 C 
ATOM     14  C   UNL A   1      33.455  22.302  24.305  1.00  0.00     0.192 C 
ATOM     15  C   UNL A   1      32.478  24.212  22.169  1.00  0.00     0.081 C 
ATOM     16  C   UNL A   1      32.473  23.326  24.580  1.00  0.00     0.067 A 
ATOM     17  O   UNL A   1      33.569  21.255  24.924  1.00  0.00    -0.289 OA
ATOM     18  C   UNL A   1      32.047  24.177  23.588  1.00  0.00     0.116 A 
ATOM     19  C   UNL A   1      31.781  23.709  25.762  1.00  0.00     0.014 A 
ATOM     20  O   UNL A   1      31.174  25.089  24.064  1.00  0.00    -0.453 OA
ATOM     21  C   UNL A   1      31.864  23.032  27.081  1.00  0.00     0.049 C 
BRANCH  11  22
ATOM     22  C   UNL A   1      36.609  22.850  24.262  1.00  0.00    -0.025 A 
ATOM     23  C   UNL A   1      38.661  22.641  26.221  1.00  0.00     0.041 A 
ATOM     24  C   UNL A   1      37.937  23.819  26.069  1.00  0.00     0.027 A 
ATOM     25  C   UNL A   1      38.322  21.544  25.437  1.00  0.00     0.027 A 
ATOM     26  C   UNL A   1      36.947  23.928  25.084  1.00  0.00     0.010 A 
ATOM     27  C   UNL A   1      37.302  21.646  24.477  1.00  0.00     0.010 A 
BRANCH  23  28
ATOM     28  N   UNL A   1      39.669  22.628  27.194  1.00  0.00    -0.326 N 
ATOM     29  C   UNL A   1      39.659  25.031  27.821  1.00  0.00     0.114 C 
ATOM     30  C   UNL A   1      40.268  23.656  27.867  1.00  0.00     0.221 C 
ATOM     31  O   UNL A   1      41.251  23.421  28.571  1.00  0.00    -0.275 OA
ATOM     32  H   UNL A   1      39.999  21.732  27.432  1.00  0.00     0.169 HD
ENDBRANCH  23  28
ENDBRANCH  11  22
ENDBRANCH   8  10
ENDBRANCH   7   8
ENDBRANCH   6   7
ENDBRANCH   5   6
ENDBRANCH   4   5
ENDBRANCH   3   4
ENDBRANCH   2   3
ENDBRANCH   1   2
BRANCH   1  33
ATOM     33  C   UNL A   1      34.797  33.584  28.012  1.00  0.00     0.188 C 
BRANCH  33  34
ATOM     34  C   UNL A   1      33.477  34.224  28.509  1.00  0.00     0.188 C 
BRANCH  34  35
ATOM     35  O   UNL A   1      33.346  34.409  29.907  1.00  0.00    -0.376 OA
BRANCH  35  36
ATOM     36  C   UNL A   1      34.389  34.390  30.866  1.00  0.00     0.202 C 
BRANCH  36  37
ATOM     37  C   UNL A   1      34.831  33.187  31.695  1.00  0.00     0.261 C 
BRANCH  37  38
ATOM     38  O   UNL A   1      34.874  31.972  30.999  1.00  0.00    -0.460 OA
BRANCH  38  39
ATOM     39  C   UNL A   1      35.932  31.202  31.275  1.00  0.00     0.338 C 
ATOM     40  O   UNL A   1      36.349  30.879  32.382  1.00  0.00    -0.246 OA
BRANCH  39  41
ATOM     41  C   UNL A   1      36.571  30.860  29.997  1.00  0.00     0.060 A 
ATOM     42  C   UNL A   1      36.634  29.494  29.738  1.00  0.00     0.016 A 
ATOM     43  C   UNL A   1      37.518  31.773  29.514  1.00  0.00     0.016 A 
ATOM     44  C   UNL A   1      37.864  28.994  29.405  1.00  0.00     0.010 A 
ATOM     45  C   UNL A   1      38.755  31.276  29.238  1.00  0.00     0.010 A 
ATOM     46  C   UNL A   1      38.927  29.897  29.317  1.00  0.00    -0.014 A 
BRANCH  46  47
ATOM     47  C   UNL A   1      40.262  29.367  29.340  1.00  0.00     0.031 A 
ATOM     48  C   UNL A   1      40.731  29.102  30.705  1.00  0.00     0.074 A 
ATOM     49  C   UNL A   1      40.917  29.044  28.213  1.00  0.00     0.049 A 
ATOM     50  N   UNL A   1      41.529  29.823  31.418  1.00  0.00    -0.248 NA
ATOM     51  C   UNL A   1      40.032  28.038  31.444  1.00  0.00     0.031 C 
ATOM     52  C   UNL A   1      40.403  28.930  26.845  1.00  0.00     0.029 A 
ATOM     53  N   UNL A   1      42.201  28.630  28.093  1.00  0.00    -0.354 N 
ATOM     54  C   UNL A   1      41.571  29.181  32.647  1.00  0.00     0.074 A 
ATOM     55  C   UNL A   1      40.438  28.296  32.684  1.00  0.00     0.031 C 
ATOM     56  C   UNL A   1      41.303  28.252  26.091  1.00  0.00     0.029 A 
ATOM     57  C   UNL A   1      42.496  28.017  26.888  1.00  0.00     0.049 A 
ATOM     58  H   UNL A   1      42.869  28.755  28.805  1.00  0.00     0.167 HD
ATOM     59  C   UNL A   1      42.700  29.162  33.404  1.00  0.00     0.031 A 
ATOM     60  C   UNL A   1      43.613  27.289  26.638  1.00  0.00     0.031 A 
ATOM     61  C   UNL A   1      43.661  30.130  32.946  1.00  0.00     0.049 A 
ATOM     62  C   UNL A   1      44.602  27.618  27.699  1.00  0.00     0.074 A 
ATOM     63  C   UNL A   1      43.705  31.507  32.869  1.00  0.00     0.029 A 
ATOM     64  N   UNL A   1      44.634  29.661  32.094  1.00  0.00    -0.354 N 
ATOM     65  N   UNL A   1      45.156  28.789  27.836  1.00  0.00    -0.248 NA
ATOM     66  C   UNL A   1      44.642  26.772  28.882  1.00  0.00     0.031 C 
ATOM     67  C   UNL A   1      44.423  31.792  31.671  1.00  0.00     0.029 A 
ATOM     68  C   UNL A   1      44.822  30.582  31.096  1.00  0.00     0.049 A 
ATOM     69  H   UNL A   1      45.114  28.807  32.185  1.00  0.00     0.167 HD
ATOM     70  C   UNL A   1      45.242  28.989  29.209  1.00  0.00     0.074 A 
ATOM     71  C   UNL A   1      45.014  27.673  29.797  1.00  0.00     0.031 C 
ATOM     72  C   UNL A   1      45.206  30.249  29.738  1.00  0.00     0.031 A 
BRANCH  59  73
ATOM     73  C   UNL A   1      43.087  27.978  34.254  1.00  0.00    -0.014 A 
ATOM     74  C   UNL A   1      43.654  26.860  33.625  1.00  0.00     0.009 A 
ATOM     75  C   UNL A   1      42.698  27.814  35.601  1.00  0.00     0.009 A 
ATOM     76  C   UNL A   1      43.779  25.637  34.295  1.00  0.00     0.001 A 
ATOM     77  C   UNL A   1      42.864  26.611  36.288  1.00  0.00     0.001 A 
ATOM     78  C   UNL A   1      43.383  25.512  35.624  1.00  0.00     0.000 A 
ENDBRANCH  59  73
BRANCH  60  79
ATOM     79  C   UNL A   1      43.738  26.074  25.804  1.00  0.00    -0.014 A 
ATOM     80  C   UNL A   1      45.000  25.596  25.419  1.00  0.00     0.009 A 
ATOM     81  C   UNL A   1      42.632  25.222  25.628  1.00  0.00     0.009 A 
ATOM     82  C   UNL A   1      45.153  24.299  24.911  1.00  0.00     0.001 A 
ATOM     83  C   UNL A   1      42.785  23.927  25.120  1.00  0.00     0.001 A 
ATOM     84  C   UNL A   1      44.049  23.460  24.776  1.00  0.00     0.000 A 
ENDBRANCH  60  79
BRANCH  72  85
ATOM     85  C   UNL A   1      45.345  31.410  28.782  1.00  0.00    -0.014 A 
ATOM     86  C   UNL A   1      44.249  32.002  28.127  1.00  0.00     0.009 A 
ATOM     87  C   UNL A   1      46.600  32.025  28.668  1.00  0.00     0.009 A 
ATOM     88  C   UNL A   1      44.415  33.166  27.368  1.00  0.00     0.001 A 
ATOM     89  C   UNL A   1      46.760  33.196  27.927  1.00  0.00     0.001 A 
ATOM     90  C   UNL A   1      45.669  33.766  27.274  1.00  0.00     0.000 A 
ENDBRANCH  72  85
ENDBRANCH  46  47
ENDBRANCH  39  41
ENDBRANCH  38  39
ENDBRANCH  37  38
ENDBRANCH  36  37
ENDBRANCH  35  36
ENDBRANCH  34  35
ENDBRANCH  33  34
ENDBRANCH   1  33
TORSDOF 22
ENDMDL
MODEL 3
REMARK VINA RESULT:      -9.8      3.587      9.453
REMARK SMILES CC(=O)Nc1ccc(/C=C2/CCc3oc(C(=O)OCCOCCOCCOCCOC(=O)c4ccc(-c5c6nc(c(-c7ccccc7)c7ccc([nH]7)c(-c7ccccc7)c7nc(c(-c8ccccc8)c8ccc5[nH]8)C=C7)C=C6)cc4)c(C)c3C2=O)cc1
REMARK SMILES IDX 24 1 23 2 22 3 21 4 20 5 19 6 18 7 16 8 17 9 15 10 9 11
REMARK SMILES IDX 10 12 11 13 84 14 12 15 83 16 85 17 13 18 81 19 14 20 82 21
REMARK SMILES IDX 8 22 5 23 6 24 87 25 7 26 86 27 4 28 1 29 2 30 3 31 25 33
REMARK SMILES IDX 26 34 27 35 28 36 29 37 30 38 31 39 32 40 33 41 34 42 80 43
REMARK SMILES IDX 35 44 79 45 36 46 37 47 38 48 73 49 39 50 78 51 72 52 74 53
REMARK SMILES IDX 40 54 77 55 71 56 70 57 41 59 63 60 48 61 62 62 49 63 52 64
REMARK SMILES IDX 61 65 75 66 50 67 51 68 60 70 76 71 53 72 42 73 43 74 47 75
REMARK SMILES IDX 44 76 46 77 45 78 64 79 65 80 69 81 66 82 68 83 67 84 54 85
REMARK SMILES IDX 55 86 59 87 56 88 58 89 57 90
REMARK H PARENT 4 32 74 58 52 69
REMARK Flexibility Score: inf
ROOT
ATOM      1  O   UNL A   1      42.975  22.056  26.430  1.00  0.00    -0.377 OA
ENDROOT
BRANCH   1   2
ATOM      2  C   UNL A   1      41.904  21.112  26.453  1.00  0.00     0.188 C 
BRANCH   2   3
ATOM      3  C   UNL A   1      40.480  21.477  26.935  1.00  0.00     0.188 C 
BRANCH   3   4
ATOM      4  O   UNL A   1      39.575  21.768  25.887  1.00  0.00    -0.376 OA
BRANCH   4   5
ATOM      5  C   UNL A   1      38.445  22.573  26.130  1.00  0.00     0.202 C 
BRANCH   5   6
ATOM      6  C   UNL A   1      37.187  22.233  25.323  1.00  0.00     0.261 C 
BRANCH   6   7
ATOM      7  O   UNL A   1      35.938  22.482  25.978  1.00  0.00    -0.457 OA
BRANCH   7   8
ATOM      8  C   UNL A   1      34.818  21.967  25.408  1.00  0.00     0.374 C 
ATOM      9  O   UNL A   1      34.665  20.783  25.117  1.00  0.00    -0.242 OA
BRANCH   8  10
ATOM     10  C   UNL A   1      33.797  22.988  25.378  1.00  0.00     0.215 A 
ATOM     11  C   UNL A   1      30.976  27.461  26.783  1.00  0.00     0.016 C 
ATOM     12  C   UNL A   1      30.898  26.405  25.947  1.00  0.00     0.001 C 
ATOM     13  C   UNL A   1      29.861  25.300  26.108  1.00  0.00     0.048 C 
ATOM     14  C   UNL A   1      31.900  26.093  24.877  1.00  0.00     0.192 C 
ATOM     15  C   UNL A   1      30.513  23.949  26.501  1.00  0.00     0.081 C 
ATOM     16  C   UNL A   1      32.504  24.804  25.123  1.00  0.00     0.067 A 
ATOM     17  O   UNL A   1      32.143  26.810  23.917  1.00  0.00    -0.289 OA
ATOM     18  C   UNL A   1      31.848  23.849  25.863  1.00  0.00     0.116 A 
ATOM     19  C   UNL A   1      33.754  24.235  24.752  1.00  0.00     0.014 A 
ATOM     20  O   UNL A   1      32.605  22.742  26.020  1.00  0.00    -0.453 OA
ATOM     21  C   UNL A   1      34.780  24.870  23.886  1.00  0.00     0.049 C 
BRANCH  11  22
ATOM     22  C   UNL A   1      32.002  28.517  26.965  1.00  0.00    -0.025 A 
ATOM     23  C   UNL A   1      34.144  30.377  27.183  1.00  0.00     0.041 A 
ATOM     24  C   UNL A   1      32.844  30.811  26.943  1.00  0.00     0.027 A 
ATOM     25  C   UNL A   1      34.369  29.018  27.376  1.00  0.00     0.027 A 
ATOM     26  C   UNL A   1      31.797  29.890  26.807  1.00  0.00     0.010 A 
ATOM     27  C   UNL A   1      33.309  28.102  27.277  1.00  0.00     0.010 A 
BRANCH  23  28
ATOM     28  N   UNL A   1      35.144  31.355  27.255  1.00  0.00    -0.326 N 
ATOM     29  C   UNL A   1      34.637  32.287  29.500  1.00  0.00     0.114 C 
ATOM     30  C   UNL A   1      35.364  32.333  28.184  1.00  0.00     0.221 C 
ATOM     31  O   UNL A   1      36.220  33.190  27.962  1.00  0.00    -0.275 OA
ATOM     32  H   UNL A   1      35.794  31.334  26.516  1.00  0.00     0.169 HD
ENDBRANCH  23  28
ENDBRANCH  11  22
ENDBRANCH   8  10
ENDBRANCH   7   8
ENDBRANCH   6   7
ENDBRANCH   5   6
ENDBRANCH   4   5
ENDBRANCH   3   4
ENDBRANCH   2   3
ENDBRANCH   1   2
BRANCH   1  33
ATOM     33  C   UNL A   1      44.203  21.692  25.824  1.00  0.00     0.188 C 
BRANCH  33  34
ATOM     34  C   UNL A   1      44.526  22.402  24.485  1.00  0.00     0.188 C 
BRANCH  34  35
ATOM     35  O   UNL A   1      44.853  23.778  24.557  1.00  0.00    -0.376 OA
BRANCH  35  36
ATOM     36  C   UNL A   1      44.009  24.828  24.998  1.00  0.00     0.202 C 
BRANCH  36  37
ATOM     37  C   UNL A   1      44.460  26.159  25.593  1.00  0.00     0.261 C 
BRANCH  37  38
ATOM     38  O   UNL A   1      43.461  26.877  26.262  1.00  0.00    -0.460 OA
BRANCH  38  39
ATOM     39  C   UNL A   1      42.529  27.418  25.470  1.00  0.00     0.338 C 
ATOM     40  O   UNL A   1      42.656  27.763  24.301  1.00  0.00    -0.246 OA
BRANCH  39  41
ATOM     41  C   UNL A   1      41.318  27.603  26.281  1.00  0.00     0.060 A 
ATOM     42  C   UNL A   1      40.881  28.922  26.361  1.00  0.00     0.016 A 
ATOM     43  C   UNL A   1      41.104  26.664  27.299  1.00  0.00     0.016 A 
ATOM     44  C   UNL A   1      40.655  29.413  27.619  1.00  0.00     0.010 A 
ATOM     45  C   UNL A   1      40.935  27.160  28.556  1.00  0.00     0.010 A 
ATOM     46  C   UNL A   1      40.844  28.542  28.696  1.00  0.00    -0.014 A 
BRANCH  46  47
ATOM     47  C   UNL A   1      40.977  29.115  30.007  1.00  0.00     0.031 A 
ATOM     48  C   UNL A   1      39.936  30.111  30.285  1.00  0.00     0.074 A 
ATOM     49  C   UNL A   1      41.885  28.665  30.889  1.00  0.00     0.049 A 
ATOM     50  N   UNL A   1      40.045  31.396  30.247  1.00  0.00    -0.248 NA
ATOM     51  C   UNL A   1      38.556  29.609  30.376  1.00  0.00     0.031 C 
ATOM     52  C   UNL A   1      42.705  27.452  30.834  1.00  0.00     0.029 A 
ATOM     53  N   UNL A   1      42.174  29.176  32.109  1.00  0.00    -0.354 N 
ATOM     54  C   UNL A   1      38.762  31.860  30.498  1.00  0.00     0.074 A 
ATOM     55  C   UNL A   1      37.876  30.749  30.277  1.00  0.00     0.031 C 
ATOM     56  C   UNL A   1      43.212  27.207  32.068  1.00  0.00     0.029 A 
ATOM     57  C   UNL A   1      42.863  28.313  32.944  1.00  0.00     0.049 A 
ATOM     58  H   UNL A   1      41.915  30.086  32.380  1.00  0.00     0.167 HD
ATOM     59  C   UNL A   1      38.541  33.010  31.188  1.00  0.00     0.031 A 
ATOM     60  C   UNL A   1      43.026  28.487  34.279  1.00  0.00     0.031 A 
ATOM     61  C   UNL A   1      39.740  33.798  31.302  1.00  0.00     0.049 A 
ATOM     62  C   UNL A   1      42.716  29.909  34.582  1.00  0.00     0.074 A 
ATOM     63  C   UNL A   1      40.566  34.458  30.417  1.00  0.00     0.029 A 
ATOM     64  N   UNL A   1      40.460  33.640  32.464  1.00  0.00    -0.354 N 
ATOM     65  N   UNL A   1      43.432  30.913  34.164  1.00  0.00    -0.248 NA
ATOM     66  C   UNL A   1      41.355  30.243  34.978  1.00  0.00     0.031 C 
ATOM     67  C   UNL A   1      41.881  34.304  30.946  1.00  0.00     0.029 A 
ATOM     68  C   UNL A   1      41.794  33.598  32.149  1.00  0.00     0.049 A 
ATOM     69  H   UNL A   1      40.082  33.570  33.369  1.00  0.00     0.167 HD
ATOM     70  C   UNL A   1      42.514  31.909  33.853  1.00  0.00     0.074 A 
ATOM     71  C   UNL A   1      41.267  31.479  34.477  1.00  0.00     0.031 C 
ATOM     72  C   UNL A   1      42.783  32.835  32.885  1.00  0.00     0.031 A 
BRANCH  59  73
ATOM     73  C   UNL A   1      37.367  33.185  32.119  1.00  0.00    -0.014 A 
ATOM     74  C   UNL A   1      36.500  34.265  31.905  1.00  0.00     0.009 A 
ATOM     75  C   UNL A   1      37.213  32.483  33.333  1.00  0.00     0.009 A 
ATOM     76  C   UNL A   1      35.566  34.648  32.876  1.00  0.00     0.001 A 
ATOM     77  C   UNL A   1      36.252  32.831  34.283  1.00  0.00     0.001 A 
ATOM     78  C   UNL A   1      35.444  33.933  34.064  1.00  0.00     0.000 A 
ENDBRANCH  59  73
BRANCH  60  79
ATOM     79  C   UNL A   1      43.044  27.450  35.334  1.00  0.00    -0.014 A 
ATOM     80  C   UNL A   1      44.253  27.052  35.925  1.00  0.00     0.009 A 
ATOM     81  C   UNL A   1      41.847  27.059  35.961  1.00  0.00     0.009 A 
ATOM     82  C   UNL A   1      44.262  26.321  37.122  1.00  0.00     0.001 A 
ATOM     83  C   UNL A   1      41.855  26.328  37.154  1.00  0.00     0.001 A 
ATOM     84  C   UNL A   1      43.064  25.973  37.744  1.00  0.00     0.000 A 
ENDBRANCH  60  79
BRANCH  72  85
ATOM     85  C   UNL A   1      44.200  32.906  32.364  1.00  0.00    -0.014 A 
ATOM     86  C   UNL A   1      44.633  32.219  31.216  1.00  0.00     0.009 A 
ATOM     87  C   UNL A   1      45.077  33.823  32.962  1.00  0.00     0.009 A 
ATOM     88  C   UNL A   1      45.914  32.436  30.694  1.00  0.00     0.001 A 
ATOM     89  C   UNL A   1      46.346  34.053  32.429  1.00  0.00     0.001 A 
ATOM     90  C   UNL A   1      46.767  33.358  31.297  1.00  0.00     0.000 A 
ENDBRANCH  72  85
ENDBRANCH  46  47
ENDBRANCH  39  41
ENDBRANCH  38  39
ENDBRANCH  37  38
ENDBRANCH  36  37
ENDBRANCH  35  36
ENDBRANCH  34  35
ENDBRANCH  33  34
ENDBRANCH   1  33
TORSDOF 22
ENDMDL
