MODEL 1
REMARK VINA RESULT:      -8.1      0.000      0.000
REMARK SMILES O=C(C[C@H](C(=O)OC[C@H]1CCCO1)[NH+]1CCOCC1)OCCOCCOCCOCCOC(=O)c1ccc(-c2c3nc(c(-c4ccccc4)c4ccc([nH]4)c(-c4ccccc4)c4nc(c(-c5ccccc5)c5ccc2[nH]5)C=C4)C=C3)cc1
REMARK SMILES IDX 24 1 23 2 22 3 21 4 20 5 2 6 1 7 3 8 4 9 14 10 15 11 19 12
REMARK SMILES IDX 16 14 18 15 17 16 5 17 6 18 7 19 8 20 9 21 10 22 13 23 11 24
REMARK SMILES IDX 12 25 25 26 26 27 27 28 28 29 29 30 30 31 31 32 32 33 33 34
REMARK SMILES IDX 34 35 35 36 36 37 82 38 37 39 81 40 38 41 39 42 40 43 75 44
REMARK SMILES IDX 41 45 80 46 74 47 76 48 42 49 79 50 73 51 72 52 43 54 65 55
REMARK SMILES IDX 50 56 64 57 51 58 54 59 63 60 77 61 52 62 53 63 62 65 78 66
REMARK SMILES IDX 55 67 44 68 45 69 49 70 46 71 48 72 47 73 66 74 67 75 71 76
REMARK SMILES IDX 68 77 70 78 69 79 56 80 57 81 61 82 58 83 60 84 59 85
REMARK H PARENT 14 13 76 53 54 64
REMARK Flexibility Score: inf
ROOT
ATOM      1  C   UNL A   1      36.737  30.792  29.017  1.00  0.00     0.188 C 
ENDROOT
BRANCH   1   2
ATOM      2  O   UNL A   1      36.420  30.392  27.695  1.00  0.00    -0.376 OA
BRANCH   2   3
ATOM      3  C   UNL A   1      35.341  29.493  27.474  1.00  0.00     0.202 C 
BRANCH   3   4
ATOM      4  C   UNL A   1      34.288  29.747  26.390  1.00  0.00     0.261 C 
BRANCH   4   5
ATOM      5  O   UNL A   1      33.407  28.667  26.062  1.00  0.00    -0.463 OA
BRANCH   5   6
ATOM      6  C   UNL A   1      32.177  28.523  26.588  1.00  0.00     0.312 C 
ATOM      7  O   UNL A   1      31.578  29.502  27.027  1.00  0.00    -0.252 OA
BRANCH   6   8
ATOM      8  C   UNL A   1      31.616  27.144  26.710  1.00  0.00     0.200 C 
BRANCH   8   9
ATOM      9  C   UNL A   1      31.437  26.266  25.448  1.00  0.00     0.306 C 
BRANCH   9  10
ATOM     10  N   UNL A   1      32.386  25.185  25.002  1.00  0.00    -0.319 N 
ATOM     11  C   UNL A   1      33.080  25.466  23.731  1.00  0.00     0.291 C 
ATOM     12  C   UNL A   1      33.136  24.373  25.967  1.00  0.00     0.291 C 
ATOM     13  H   UNL A   1      31.680  24.473  24.815  1.00  0.00     0.348 HD
ATOM     14  C   UNL A   1      34.274  24.568  23.340  1.00  0.00     0.221 C 
ATOM     15  C   UNL A   1      34.197  23.439  25.361  1.00  0.00     0.221 C 
ATOM     16  O   UNL A   1      35.046  24.156  24.470  1.00  0.00    -0.370 OA
ENDBRANCH   9  10
BRANCH   9  17
ATOM     17  C   UNL A   1      29.928  25.893  25.480  1.00  0.00     0.365 C 
ATOM     18  O   UNL A   1      29.390  25.415  26.476  1.00  0.00    -0.245 OA
BRANCH  17  19
ATOM     19  O   UNL A   1      29.284  26.067  24.306  1.00  0.00    -0.459 OA
BRANCH  19  20
ATOM     20  C   UNL A   1      29.767  27.095  23.428  1.00  0.00     0.265 C 
BRANCH  20  21
ATOM     21  C   UNL A   1      29.095  28.460  23.675  1.00  0.00     0.156 C 
ATOM     22  C   UNL A   1      30.048  29.626  23.416  1.00  0.00     0.038 C 
ATOM     23  O   UNL A   1      27.973  28.653  22.791  1.00  0.00    -0.375 OA
ATOM     24  C   UNL A   1      29.725  29.996  21.986  1.00  0.00     0.031 C 
ATOM     25  C   UNL A   1      28.228  29.787  21.953  1.00  0.00     0.161 C 
ENDBRANCH  20  21
ENDBRANCH  19  20
ENDBRANCH  17  19
ENDBRANCH   9  17
ENDBRANCH   8   9
ENDBRANCH   6   8
ENDBRANCH   5   6
ENDBRANCH   4   5
ENDBRANCH   3   4
ENDBRANCH   2   3
ENDBRANCH   1   2
BRANCH   1  26
ATOM     26  C   UNL A   1      37.511  32.102  29.160  1.00  0.00     0.188 C 
BRANCH  26  27
ATOM     27  O   UNL A   1      36.955  33.130  28.367  1.00  0.00    -0.377 OA
BRANCH  27  28
ATOM     28  C   UNL A   1      36.097  34.046  29.017  1.00  0.00     0.188 C 
BRANCH  28  29
ATOM     29  C   UNL A   1      34.700  34.358  28.428  1.00  0.00     0.188 C 
BRANCH  29  30
ATOM     30  O   UNL A   1      33.897  35.382  28.964  1.00  0.00    -0.376 OA
BRANCH  30  31
ATOM     31  C   UNL A   1      33.207  35.291  30.192  1.00  0.00     0.202 C 
BRANCH  31  32
ATOM     32  C   UNL A   1      33.861  35.274  31.587  1.00  0.00     0.261 C 
BRANCH  32  33
ATOM     33  O   UNL A   1      33.567  34.169  32.442  1.00  0.00    -0.460 OA
BRANCH  33  34
ATOM     34  C   UNL A   1      34.371  33.080  32.307  1.00  0.00     0.338 C 
ATOM     35  O   UNL A   1      34.424  32.329  31.360  1.00  0.00    -0.246 OA
BRANCH  34  36
ATOM     36  C   UNL A   1      35.376  33.084  33.406  1.00  0.00     0.060 A 
ATOM     37  C   UNL A   1      35.221  34.033  34.428  1.00  0.00     0.016 A 
ATOM     38  C   UNL A   1      36.428  32.165  33.457  1.00  0.00     0.016 A 
ATOM     39  C   UNL A   1      36.142  34.102  35.475  1.00  0.00     0.010 A 
ATOM     40  C   UNL A   1      37.371  32.256  34.489  1.00  0.00     0.010 A 
ATOM     41  C   UNL A   1      37.256  33.254  35.475  1.00  0.00    -0.014 A 
BRANCH  41  42
ATOM     42  C   UNL A   1      38.435  33.615  36.302  1.00  0.00     0.031 A 
ATOM     43  C   UNL A   1      38.425  33.173  37.744  1.00  0.00     0.074 A 
ATOM     44  C   UNL A   1      39.497  34.276  35.811  1.00  0.00     0.049 A 
ATOM     45  N   UNL A   1      39.306  33.386  38.688  1.00  0.00    -0.248 NA
ATOM     46  C   UNL A   1      37.259  32.383  38.174  1.00  0.00     0.031 C 
ATOM     47  C   UNL A   1      39.670  34.705  34.425  1.00  0.00     0.029 A 
ATOM     48  N   UNL A   1      40.639  34.708  36.443  1.00  0.00    -0.354 N 
ATOM     49  C   UNL A   1      38.795  32.761  39.820  1.00  0.00     0.074 A 
ATOM     50  C   UNL A   1      37.521  32.186  39.455  1.00  0.00     0.031 C 
ATOM     51  C   UNL A   1      40.847  35.351  34.315  1.00  0.00     0.029 A 
ATOM     52  C   UNL A   1      41.492  35.409  35.626  1.00  0.00     0.049 A 
ATOM     53  H   UNL A   1      40.827  34.530  37.392  1.00  0.00     0.167 HD
ATOM     54  C   UNL A   1      39.335  32.671  41.057  1.00  0.00     0.031 A 
ATOM     55  C   UNL A   1      42.647  36.041  35.914  1.00  0.00     0.031 A 
ATOM     56  C   UNL A   1      40.586  33.264  41.438  1.00  0.00     0.049 A 
ATOM     57  C   UNL A   1      43.180  36.015  37.326  1.00  0.00     0.074 A 
ATOM     58  C   UNL A   1      41.215  33.229  42.669  1.00  0.00     0.029 A 
ATOM     59  N   UNL A   1      41.390  34.010  40.593  1.00  0.00    -0.354 N 
ATOM     60  N   UNL A   1      42.700  35.405  38.383  1.00  0.00    -0.248 NA
ATOM     61  C   UNL A   1      44.419  36.767  37.581  1.00  0.00     0.031 C 
ATOM     62  C   UNL A   1      42.375  34.006  42.585  1.00  0.00     0.029 A 
ATOM     63  C   UNL A   1      42.498  34.469  41.284  1.00  0.00     0.049 A 
ATOM     64  H   UNL A   1      41.202  34.187  39.643  1.00  0.00     0.167 HD
ATOM     65  C   UNL A   1      43.592  35.674  39.417  1.00  0.00     0.074 A 
ATOM     66  C   UNL A   1      44.648  36.490  38.857  1.00  0.00     0.031 C 
ATOM     67  C   UNL A   1      43.542  35.279  40.713  1.00  0.00     0.031 A 
BRANCH  54  68
ATOM     68  C   UNL A   1      38.538  31.937  42.097  1.00  0.00    -0.014 A 
ATOM     69  C   UNL A   1      38.753  30.574  42.357  1.00  0.00     0.009 A 
ATOM     70  C   UNL A   1      37.556  32.622  42.829  1.00  0.00     0.009 A 
ATOM     71  C   UNL A   1      37.976  29.904  43.303  1.00  0.00     0.001 A 
ATOM     72  C   UNL A   1      36.801  31.957  43.796  1.00  0.00     0.001 A 
ATOM     73  C   UNL A   1      37.004  30.597  44.025  1.00  0.00     0.000 A 
ENDBRANCH  54  68
BRANCH  55  74
ATOM     74  C   UNL A   1      43.379  36.790  34.856  1.00  0.00    -0.014 A 
ATOM     75  C   UNL A   1      42.902  38.025  34.389  1.00  0.00     0.009 A 
ATOM     76  C   UNL A   1      44.536  36.248  34.272  1.00  0.00     0.009 A 
ATOM     77  C   UNL A   1      43.552  38.687  33.343  1.00  0.00     0.001 A 
ATOM     78  C   UNL A   1      45.200  36.926  33.248  1.00  0.00     0.001 A 
ATOM     79  C   UNL A   1      44.702  38.140  32.777  1.00  0.00     0.000 A 
ENDBRANCH  55  74
BRANCH  67  80
ATOM     80  C   UNL A   1      44.678  35.686  41.609  1.00  0.00    -0.014 A 
ATOM     81  C   UNL A   1      44.631  36.873  42.356  1.00  0.00     0.009 A 
ATOM     82  C   UNL A   1      45.787  34.837  41.752  1.00  0.00     0.009 A 
ATOM     83  C   UNL A   1      45.688  37.215  43.204  1.00  0.00     0.001 A 
ATOM     84  C   UNL A   1      46.827  35.166  42.622  1.00  0.00     0.001 A 
ATOM     85  C   UNL A   1      46.781  36.360  43.340  1.00  0.00     0.000 A 
ENDBRANCH  67  80
ENDBRANCH  41  42
ENDBRANCH  34  36
ENDBRANCH  33  34
ENDBRANCH  32  33
ENDBRANCH  31  32
ENDBRANCH  30  31
ENDBRANCH  29  30
ENDBRANCH  28  29
ENDBRANCH  27  28
ENDBRANCH  26  27
ENDBRANCH   1  26
TORSDOF 26
ENDMDL
MODEL 2
REMARK VINA RESULT:      -7.9      1.156      6.386
REMARK SMILES O=C(C[C@H](C(=O)OC[C@H]1CCCO1)[NH+]1CCOCC1)OCCOCCOCCOCCOC(=O)c1ccc(-c2c3nc(c(-c4ccccc4)c4ccc([nH]4)c(-c4ccccc4)c4nc(c(-c5ccccc5)c5ccc2[nH]5)C=C4)C=C3)cc1
REMARK SMILES IDX 24 1 23 2 22 3 21 4 20 5 2 6 1 7 3 8 4 9 14 10 15 11 19 12
REMARK SMILES IDX 16 14 18 15 17 16 5 17 6 18 7 19 8 20 9 21 10 22 13 23 11 24
REMARK SMILES IDX 12 25 25 26 26 27 27 28 28 29 29 30 30 31 31 32 32 33 33 34
REMARK SMILES IDX 34 35 35 36 36 37 82 38 37 39 81 40 38 41 39 42 40 43 75 44
REMARK SMILES IDX 41 45 80 46 74 47 76 48 42 49 79 50 73 51 72 52 43 54 65 55
REMARK SMILES IDX 50 56 64 57 51 58 54 59 63 60 77 61 52 62 53 63 62 65 78 66
REMARK SMILES IDX 55 67 44 68 45 69 49 70 46 71 48 72 47 73 66 74 67 75 71 76
REMARK SMILES IDX 68 77 70 78 69 79 56 80 57 81 61 82 58 83 60 84 59 85
REMARK H PARENT 14 13 76 53 54 64
REMARK Flexibility Score: inf
ROOT
ATOM      1  C   UNL A   1      38.360  31.558  29.945  1.00  0.00     0.188 C 
ENDROOT
BRANCH   1   2
ATOM      2  O   UNL A   1      37.983  30.874  28.763  1.00  0.00    -0.376 OA
BRANCH   2   3
ATOM      3  C   UNL A   1      36.830  30.042  28.771  1.00  0.00     0.202 C 
BRANCH   3   4
ATOM      4  C   UNL A   1      36.110  29.645  27.478  1.00  0.00     0.261 C 
BRANCH   4   5
ATOM      5  O   UNL A   1      34.714  29.343  27.567  1.00  0.00    -0.463 OA
BRANCH   5   6
ATOM      6  C   UNL A   1      33.764  29.994  26.870  1.00  0.00     0.312 C 
ATOM      7  O   UNL A   1      33.193  30.962  27.366  1.00  0.00    -0.252 OA
BRANCH   6   8
ATOM      8  C   UNL A   1      33.365  29.448  25.538  1.00  0.00     0.200 C 
BRANCH   8   9
ATOM      9  C   UNL A   1      32.348  28.285  25.451  1.00  0.00     0.306 C 
BRANCH   9  10
ATOM     10  N   UNL A   1      31.020  28.346  24.742  1.00  0.00    -0.319 N 
ATOM     11  C   UNL A   1      30.669  29.677  24.214  1.00  0.00     0.291 C 
ATOM     12  C   UNL A   1      30.503  27.205  23.978  1.00  0.00     0.291 C 
ATOM     13  H   UNL A   1      30.437  28.177  25.561  1.00  0.00     0.348 HD
ATOM     14  C   UNL A   1      29.481  29.779  23.231  1.00  0.00     0.221 C 
ATOM     15  C   UNL A   1      29.228  27.479  23.163  1.00  0.00     0.221 C 
ATOM     16  O   UNL A   1      29.386  28.647  22.364  1.00  0.00    -0.370 OA
ENDBRANCH   9  10
BRANCH   9  17
ATOM     17  C   UNL A   1      33.240  27.049  25.146  1.00  0.00     0.365 C 
ATOM     18  O   UNL A   1      33.770  26.876  24.051  1.00  0.00    -0.245 OA
BRANCH  17  19
ATOM     19  O   UNL A   1      33.318  26.154  26.153  1.00  0.00    -0.459 OA
BRANCH  19  20
ATOM     20  C   UNL A   1      32.482  24.990  26.075  1.00  0.00     0.265 C 
BRANCH  20  21
ATOM     21  C   UNL A   1      33.279  23.672  26.127  1.00  0.00     0.156 C 
ATOM     22  C   UNL A   1      32.474  22.491  25.586  1.00  0.00     0.038 C 
ATOM     23  O   UNL A   1      34.468  23.754  25.316  1.00  0.00    -0.375 OA
ATOM     24  C   UNL A   1      32.924  22.427  24.145  1.00  0.00     0.031 C 
ATOM     25  C   UNL A   1      34.388  22.778  24.271  1.00  0.00     0.161 C 
ENDBRANCH  20  21
ENDBRANCH  19  20
ENDBRANCH  17  19
ENDBRANCH   9  17
ENDBRANCH   8   9
ENDBRANCH   6   8
ENDBRANCH   5   6
ENDBRANCH   4   5
ENDBRANCH   3   4
ENDBRANCH   2   3
ENDBRANCH   1   2
BRANCH   1  26
ATOM     26  C   UNL A   1      38.979  32.943  29.756  1.00  0.00     0.188 C 
BRANCH  26  27
ATOM     27  O   UNL A   1      38.228  33.737  28.862  1.00  0.00    -0.377 OA
BRANCH  27  28
ATOM     28  C   UNL A   1      36.912  34.072  29.255  1.00  0.00     0.188 C 
BRANCH  28  29
ATOM     29  C   UNL A   1      35.719  33.773  28.315  1.00  0.00     0.188 C 
BRANCH  29  30
ATOM     30  O   UNL A   1      34.569  34.585  28.319  1.00  0.00    -0.376 OA
BRANCH  30  31
ATOM     31  C   UNL A   1      33.655  34.662  29.391  1.00  0.00     0.202 C 
BRANCH  31  32
ATOM     32  C   UNL A   1      34.008  35.032  30.844  1.00  0.00     0.261 C 
BRANCH  32  33
ATOM     33  O   UNL A   1      33.775  34.046  31.852  1.00  0.00    -0.460 OA
BRANCH  33  34
ATOM     34  C   UNL A   1      34.586  32.954  31.816  1.00  0.00     0.338 C 
ATOM     35  O   UNL A   1      34.769  32.217  30.875  1.00  0.00    -0.246 OA
BRANCH  34  36
ATOM     36  C   UNL A   1      35.423  32.935  33.046  1.00  0.00     0.060 A 
ATOM     37  C   UNL A   1      35.143  33.885  34.042  1.00  0.00     0.016 A 
ATOM     38  C   UNL A   1      36.440  31.996  33.241  1.00  0.00     0.016 A 
ATOM     39  C   UNL A   1      35.908  33.933  35.209  1.00  0.00     0.010 A 
ATOM     40  C   UNL A   1      37.229  32.066  34.397  1.00  0.00     0.010 A 
ATOM     41  C   UNL A   1      36.994  33.064  35.362  1.00  0.00    -0.014 A 
BRANCH  41  42
ATOM     42  C   UNL A   1      38.050  33.399  36.350  1.00  0.00     0.031 A 
ATOM     43  C   UNL A   1      39.230  34.195  35.854  1.00  0.00     0.074 A 
ATOM     44  C   UNL A   1      37.973  33.052  37.647  1.00  0.00     0.049 A 
ATOM     45  N   UNL A   1      40.302  34.588  36.494  1.00  0.00    -0.248 NA
ATOM     46  C   UNL A   1      39.190  34.602  34.439  1.00  0.00     0.031 C 
ATOM     47  C   UNL A   1      36.863  32.341  38.277  1.00  0.00     0.029 A 
ATOM     48  N   UNL A   1      38.869  33.255  38.670  1.00  0.00    -0.354 N 
ATOM     49  C   UNL A   1      41.061  35.280  35.558  1.00  0.00     0.074 A 
ATOM     50  C   UNL A   1      40.345  35.232  34.304  1.00  0.00     0.031 C 
ATOM     51  C   UNL A   1      37.151  32.157  39.580  1.00  0.00     0.029 A 
ATOM     52  C   UNL A   1      38.475  32.707  39.866  1.00  0.00     0.049 A 
ATOM     53  H   UNL A   1      39.712  33.749  38.556  1.00  0.00     0.167 HD
ATOM     54  C   UNL A   1      42.251  35.903  35.722  1.00  0.00     0.031 A 
ATOM     55  C   UNL A   1      39.123  32.639  41.047  1.00  0.00     0.031 A 
ATOM     56  C   UNL A   1      42.985  35.931  36.956  1.00  0.00     0.049 A 
ATOM     57  C   UNL A   1      40.496  33.251  41.180  1.00  0.00     0.074 A 
ATOM     58  C   UNL A   1      44.201  36.534  37.221  1.00  0.00     0.029 A 
ATOM     59  N   UNL A   1      42.574  35.316  38.127  1.00  0.00    -0.354 N 
ATOM     60  N   UNL A   1      41.196  33.920  40.295  1.00  0.00    -0.248 NA
ATOM     61  C   UNL A   1      41.167  33.098  42.480  1.00  0.00     0.031 C 
ATOM     62  C   UNL A   1      44.555  36.235  38.540  1.00  0.00     0.029 A 
ATOM     63  C   UNL A   1      43.528  35.500  39.113  1.00  0.00     0.049 A 
ATOM     64  H   UNL A   1      41.730  34.824  38.242  1.00  0.00     0.167 HD
ATOM     65  C   UNL A   1      42.372  34.292  40.940  1.00  0.00     0.074 A 
ATOM     66  C   UNL A   1      42.285  33.786  42.293  1.00  0.00     0.031 C 
ATOM     67  C   UNL A   1      43.427  34.992  40.456  1.00  0.00     0.031 A 
BRANCH  54  68
ATOM     68  C   UNL A   1      42.847  36.563  34.513  1.00  0.00    -0.014 A 
ATOM     69  C   UNL A   1      42.878  37.962  34.384  1.00  0.00     0.009 A 
ATOM     70  C   UNL A   1      43.389  35.773  33.488  1.00  0.00     0.009 A 
ATOM     71  C   UNL A   1      43.406  38.553  33.234  1.00  0.00     0.001 A 
ATOM     72  C   UNL A   1      43.943  36.368  32.353  1.00  0.00     0.001 A 
ATOM     73  C   UNL A   1      43.941  37.756  32.223  1.00  0.00     0.000 A 
ENDBRANCH  54  68
BRANCH  55  74
ATOM     74  C   UNL A   1      38.506  31.936  42.205  1.00  0.00    -0.014 A 
ATOM     75  C   UNL A   1      38.725  30.565  42.413  1.00  0.00     0.009 A 
ATOM     76  C   UNL A   1      37.654  32.626  43.083  1.00  0.00     0.009 A 
ATOM     77  C   UNL A   1      38.082  29.895  43.458  1.00  0.00     0.001 A 
ATOM     78  C   UNL A   1      37.037  31.960  44.144  1.00  0.00     0.001 A 
ATOM     79  C   UNL A   1      37.243  30.593  44.325  1.00  0.00     0.000 A 
ENDBRANCH  55  74
BRANCH  67  80
ATOM     80  C   UNL A   1      44.558  35.289  41.400  1.00  0.00    -0.014 A 
ATOM     81  C   UNL A   1      45.665  34.434  41.508  1.00  0.00     0.009 A 
ATOM     82  C   UNL A   1      44.539  36.475  42.153  1.00  0.00     0.009 A 
ATOM     83  C   UNL A   1      46.717  34.748  42.373  1.00  0.00     0.001 A 
ATOM     84  C   UNL A   1      45.605  36.800  42.993  1.00  0.00     0.001 A 
ATOM     85  C   UNL A   1      46.688  35.932  43.110  1.00  0.00     0.000 A 
ENDBRANCH  67  80
ENDBRANCH  41  42
ENDBRANCH  34  36
ENDBRANCH  33  34
ENDBRANCH  32  33
ENDBRANCH  31  32
ENDBRANCH  30  31
ENDBRANCH  29  30
ENDBRANCH  28  29
ENDBRANCH  27  28
ENDBRANCH  26  27
ENDBRANCH   1  26
TORSDOF 26
ENDMDL
MODEL 3
REMARK VINA RESULT:      -7.8      8.442     12.758
REMARK SMILES O=C(C[C@H](C(=O)OC[C@H]1CCCO1)[NH+]1CCOCC1)OCCOCCOCCOCCOC(=O)c1ccc(-c2c3nc(c(-c4ccccc4)c4ccc([nH]4)c(-c4ccccc4)c4nc(c(-c5ccccc5)c5ccc2[nH]5)C=C4)C=C3)cc1
REMARK SMILES IDX 24 1 23 2 22 3 21 4 20 5 2 6 1 7 3 8 4 9 14 10 15 11 19 12
REMARK SMILES IDX 16 14 18 15 17 16 5 17 6 18 7 19 8 20 9 21 10 22 13 23 11 24
REMARK SMILES IDX 12 25 25 26 26 27 27 28 28 29 29 30 30 31 31 32 32 33 33 34
REMARK SMILES IDX 34 35 35 36 36 37 82 38 37 39 81 40 38 41 39 42 40 43 75 44
REMARK SMILES IDX 41 45 80 46 74 47 76 48 42 49 79 50 73 51 72 52 43 54 65 55
REMARK SMILES IDX 50 56 64 57 51 58 54 59 63 60 77 61 52 62 53 63 62 65 78 66
REMARK SMILES IDX 55 67 44 68 45 69 49 70 46 71 48 72 47 73 66 74 67 75 71 76
REMARK SMILES IDX 68 77 70 78 69 79 56 80 57 81 61 82 58 83 60 84 59 85
REMARK H PARENT 14 13 76 53 54 64
REMARK Flexibility Score: inf
ROOT
ATOM      1  C   UNL A   1      36.463  30.332  28.209  1.00  0.00     0.188 C 
ENDROOT
BRANCH   1   2
ATOM      2  O   UNL A   1      35.611  29.931  27.150  1.00  0.00    -0.376 OA
BRANCH   2   3
ATOM      3  C   UNL A   1      34.374  29.296  27.448  1.00  0.00     0.202 C 
BRANCH   3   4
ATOM      4  C   UNL A   1      33.029  29.970  27.157  1.00  0.00     0.261 C 
BRANCH   4   5
ATOM      5  O   UNL A   1      32.753  30.332  25.800  1.00  0.00    -0.463 OA
BRANCH   5   6
ATOM      6  C   UNL A   1      32.488  29.438  24.830  1.00  0.00     0.312 C 
ATOM      7  O   UNL A   1      33.233  29.349  23.856  1.00  0.00    -0.252 OA
BRANCH   6   8
ATOM      8  C   UNL A   1      31.228  28.640  24.926  1.00  0.00     0.200 C 
BRANCH   8   9
ATOM      9  C   UNL A   1      30.148  28.764  23.826  1.00  0.00     0.306 C 
BRANCH   9  10
ATOM     10  N   UNL A   1      29.691  30.057  23.201  1.00  0.00    -0.319 N 
ATOM     11  C   UNL A   1      28.766  29.893  22.064  1.00  0.00     0.291 C 
ATOM     12  C   UNL A   1      29.504  31.274  23.999  1.00  0.00     0.291 C 
ATOM     13  H   UNL A   1      30.596  30.336  22.823  1.00  0.00     0.348 HD
ATOM     14  C   UNL A   1      28.021  31.143  21.546  1.00  0.00     0.221 C 
ATOM     15  C   UNL A   1      28.861  32.458  23.257  1.00  0.00     0.221 C 
ATOM     16  O   UNL A   1      27.669  32.047  22.596  1.00  0.00    -0.370 OA
ENDBRANCH   9  10
BRANCH   9  17
ATOM     17  C   UNL A   1      30.495  27.608  22.848  1.00  0.00     0.365 C 
ATOM     18  O   UNL A   1      30.878  27.812  21.698  1.00  0.00    -0.245 OA
BRANCH  17  19
ATOM     19  O   UNL A   1      30.270  26.372  23.341  1.00  0.00    -0.459 OA
BRANCH  19  20
ATOM     20  C   UNL A   1      31.239  25.352  23.053  1.00  0.00     0.265 C 
BRANCH  20  21
ATOM     21  C   UNL A   1      31.581  24.484  24.279  1.00  0.00     0.156 C 
ATOM     22  C   UNL A   1      33.083  24.449  24.558  1.00  0.00     0.038 C 
ATOM     23  O   UNL A   1      30.963  25.005  25.473  1.00  0.00    -0.375 OA
ATOM     24  C   UNL A   1      33.246  25.543  25.588  1.00  0.00     0.031 C 
ATOM     25  C   UNL A   1      31.985  25.378  26.404  1.00  0.00     0.161 C 
ENDBRANCH  20  21
ENDBRANCH  19  20
ENDBRANCH  17  19
ENDBRANCH   9  17
ENDBRANCH   8   9
ENDBRANCH   6   8
ENDBRANCH   5   6
ENDBRANCH   4   5
ENDBRANCH   3   4
ENDBRANCH   2   3
ENDBRANCH   1   2
BRANCH   1  26
ATOM     26  C   UNL A   1      35.777  30.897  29.452  1.00  0.00     0.188 C 
BRANCH  26  27
ATOM     27  O   UNL A   1      36.529  30.655  30.623  1.00  0.00    -0.377 OA
BRANCH  27  28
ATOM     28  C   UNL A   1      37.010  29.340  30.813  1.00  0.00     0.188 C 
BRANCH  28  29
ATOM     29  C   UNL A   1      38.527  29.082  30.974  1.00  0.00     0.188 C 
BRANCH  29  30
ATOM     30  O   UNL A   1      39.093  27.839  30.631  1.00  0.00    -0.376 OA
BRANCH  30  31
ATOM     31  C   UNL A   1      38.876  27.179  29.403  1.00  0.00     0.202 C 
BRANCH  31  32
ATOM     32  C   UNL A   1      39.754  27.316  28.144  1.00  0.00     0.261 C 
BRANCH  32  33
ATOM     33  O   UNL A   1      39.872  26.175  27.292  1.00  0.00    -0.460 OA
BRANCH  33  34
ATOM     34  C   UNL A   1      40.823  25.267  27.642  1.00  0.00     0.338 C 
ATOM     35  O   UNL A   1      40.646  24.109  27.940  1.00  0.00    -0.246 OA
BRANCH  34  36
ATOM     36  C   UNL A   1      42.166  25.845  27.362  1.00  0.00     0.060 A 
ATOM     37  C   UNL A   1      43.047  26.006  28.443  1.00  0.00     0.016 A 
ATOM     38  C   UNL A   1      42.572  26.195  26.071  1.00  0.00     0.016 A 
ATOM     39  C   UNL A   1      44.312  26.562  28.249  1.00  0.00     0.010 A 
ATOM     40  C   UNL A   1      43.829  26.785  25.881  1.00  0.00     0.010 A 
ATOM     41  C   UNL A   1      44.683  27.012  26.976  1.00  0.00    -0.014 A 
BRANCH  41  42
ATOM     42  C   UNL A   1      45.799  27.984  26.853  1.00  0.00     0.031 A 
ATOM     43  C   UNL A   1      45.443  29.448  26.882  1.00  0.00     0.074 A 
ATOM     44  C   UNL A   1      47.086  27.609  26.753  1.00  0.00     0.049 A 
ATOM     45  N   UNL A   1      46.214  30.498  26.759  1.00  0.00    -0.248 NA
ATOM     46  C   UNL A   1      44.019  29.767  27.078  1.00  0.00     0.031 C 
ATOM     47  C   UNL A   1      47.580  26.234  26.778  1.00  0.00     0.029 A 
ATOM     48  N   UNL A   1      48.219  28.372  26.602  1.00  0.00    -0.354 N 
ATOM     49  C   UNL A   1      45.368  31.596  26.857  1.00  0.00     0.074 A 
ATOM     50  C   UNL A   1      44.025  31.088  27.022  1.00  0.00     0.031 C 
ATOM     51  C   UNL A   1      48.919  26.252  26.635  1.00  0.00     0.029 A 
ATOM     52  C   UNL A   1      49.371  27.633  26.476  1.00  0.00     0.049 A 
ATOM     53  H   UNL A   1      48.207  29.356  26.588  1.00  0.00     0.167 HD
ATOM     54  C   UNL A   1      45.675  32.913  26.813  1.00  0.00     0.031 A 
ATOM     55  C   UNL A   1      50.636  28.031  26.236  1.00  0.00     0.031 A 
ATOM     56  C   UNL A   1      47.001  33.427  26.619  1.00  0.00     0.049 A 
ATOM     57  C   UNL A   1      50.941  29.502  26.087  1.00  0.00     0.074 A 
ATOM     58  C   UNL A   1      47.412  34.746  26.557  1.00  0.00     0.029 A 
ATOM     59  N   UNL A   1      48.128  32.642  26.441  1.00  0.00    -0.354 N 
ATOM     60  N   UNL A   1      50.137  30.532  26.201  1.00  0.00    -0.248 NA
ATOM     61  C   UNL A   1      52.333  29.863  25.778  1.00  0.00     0.031 C 
ATOM     62  C   UNL A   1      48.784  34.760  26.284  1.00  0.00     0.029 A 
ATOM     63  C   UNL A   1      49.234  33.450  26.239  1.00  0.00     0.049 A 
ATOM     64  H   UNL A   1      48.141  31.659  26.457  1.00  0.00     0.167 HD
ATOM     65  C   UNL A   1      50.929  31.658  26.008  1.00  0.00     0.074 A 
ATOM     66  C   UNL A   1      52.279  31.187  25.784  1.00  0.00     0.031 C 
ATOM     67  C   UNL A   1      50.572  32.966  26.018  1.00  0.00     0.031 A 
BRANCH  54  68
ATOM     68  C   UNL A   1      44.535  33.883  26.932  1.00  0.00    -0.014 A 
ATOM     69  C   UNL A   1      43.876  34.379  25.795  1.00  0.00     0.009 A 
ATOM     70  C   UNL A   1      44.113  34.305  28.202  1.00  0.00     0.009 A 
ATOM     71  C   UNL A   1      42.841  35.307  25.929  1.00  0.00     0.001 A 
ATOM     72  C   UNL A   1      43.059  35.211  28.333  1.00  0.00     0.001 A 
ATOM     73  C   UNL A   1      42.431  35.719  27.197  1.00  0.00     0.000 A 
ENDBRANCH  54  68
BRANCH  55  74
ATOM     74  C   UNL A   1      51.725  27.026  26.085  1.00  0.00    -0.014 A 
ATOM     75  C   UNL A   1      52.448  26.577  27.201  1.00  0.00     0.009 A 
ATOM     76  C   UNL A   1      52.078  26.547  24.813  1.00  0.00     0.009 A 
ATOM     77  C   UNL A   1      53.518  25.692  27.043  1.00  0.00     0.001 A 
ATOM     78  C   UNL A   1      53.128  25.639  24.662  1.00  0.00     0.001 A 
ATOM     79  C   UNL A   1      53.854  25.220  25.775  1.00  0.00     0.000 A 
ENDBRANCH  55  74
BRANCH  67  80
ATOM     80  C   UNL A   1      51.658  33.986  25.821  1.00  0.00    -0.014 A 
ATOM     81  C   UNL A   1      52.388  34.497  26.904  1.00  0.00     0.009 A 
ATOM     82  C   UNL A   1      51.992  34.400  24.521  1.00  0.00     0.009 A 
ATOM     83  C   UNL A   1      53.412  35.424  26.691  1.00  0.00     0.001 A 
ATOM     84  C   UNL A   1      53.035  35.303  24.308  1.00  0.00     0.001 A 
ATOM     85  C   UNL A   1      53.738  35.821  25.395  1.00  0.00     0.000 A 
ENDBRANCH  67  80
ENDBRANCH  41  42
ENDBRANCH  34  36
ENDBRANCH  33  34
ENDBRANCH  32  33
ENDBRANCH  31  32
ENDBRANCH  30  31
ENDBRANCH  29  30
ENDBRANCH  28  29
ENDBRANCH  27  28
ENDBRANCH  26  27
ENDBRANCH   1  26
TORSDOF 26
ENDMDL
