MODEL 1
REMARK VINA RESULT:      -7.0      0.000      0.000
REMARK SMILES O=C(OCCOCCOCCOCCOC(=O)c1cccc2c1cc(Br)c1ccccc12)c1ccc(-c2c3nc(c(-c4ccccc4)c4ccc([nH]4)c(-c4ccccc4)c4nc(c(-c5ccccc5)c5ccc2[nH]5)C=C4)C=C3)cc1
REMARK SMILES IDX 8 1 7 2 6 3 5 4 4 5 3 6 2 7 1 8 33 9 34 10 80 11 35 12 79 13
REMARK SMILES IDX 36 14 37 15 38 16 73 17 39 18 78 19 72 20 74 21 40 22 77 23
REMARK SMILES IDX 71 24 70 25 41 27 63 28 48 29 62 30 49 31 52 32 61 33 75 34
REMARK SMILES IDX 50 35 51 36 60 38 76 39 53 40 42 41 43 42 47 43 44 44 46 45
REMARK SMILES IDX 45 46 64 47 65 48 69 49 66 50 68 51 67 52 54 53 55 54 59 55
REMARK SMILES IDX 56 56 58 57 57 58 9 59 10 60 11 61 12 62 13 63 14 64 15 65
REMARK SMILES IDX 16 66 17 67 18 68 19 69 23 70 20 71 22 72 24 73 21 74 32 75
REMARK SMILES IDX 25 76 27 77 31 78 26 79 28 80 30 81 29 82
REMARK H PARENT 74 26 52 37
REMARK Flexibility Score: inf
ROOT
ATOM      1  C   UNL A   1      34.283  34.600  31.090  1.00  0.00     0.188 C 
ENDROOT
BRANCH   1   2
ATOM      2  C   UNL A   1      33.671  34.568  29.693  1.00  0.00     0.188 C 
BRANCH   2   3
ATOM      3  O   UNL A   1      34.655  34.625  28.657  1.00  0.00    -0.376 OA
BRANCH   3   4
ATOM      4  C   UNL A   1      34.886  33.384  27.994  1.00  0.00     0.202 C 
BRANCH   4   5
ATOM      5  C   UNL A   1      33.815  32.316  28.192  1.00  0.00     0.261 C 
BRANCH   5   6
ATOM      6  O   UNL A   1      33.957  31.160  27.358  1.00  0.00    -0.460 OA
BRANCH   6   7
ATOM      7  C   UNL A   1      34.588  29.992  27.624  1.00  0.00     0.338 C 
ATOM      8  O   UNL A   1      33.901  28.974  27.703  1.00  0.00    -0.246 OA
BRANCH   7   9
ATOM      9  C   UNL A   1      36.048  29.870  27.955  1.00  0.00     0.060 A 
ATOM     10  C   UNL A   1      36.349  29.501  29.282  1.00  0.00     0.016 A 
ATOM     11  C   UNL A   1      37.116  30.067  27.075  1.00  0.00     0.016 A 
ATOM     12  C   UNL A   1      37.668  29.317  29.705  1.00  0.00     0.010 A 
ATOM     13  C   UNL A   1      38.439  29.921  27.497  1.00  0.00     0.010 A 
ATOM     14  C   UNL A   1      38.717  29.506  28.801  1.00  0.00    -0.014 A 
BRANCH  14  15
ATOM     15  C   UNL A   1      40.069  29.003  29.105  1.00  0.00     0.031 A 
ATOM     16  C   UNL A   1      40.490  27.610  28.778  1.00  0.00     0.074 A 
ATOM     17  C   UNL A   1      40.884  29.852  29.759  1.00  0.00     0.049 A 
ATOM     18  N   UNL A   1      41.676  27.073  28.906  1.00  0.00    -0.248 NA
ATOM     19  C   UNL A   1      39.466  26.698  28.249  1.00  0.00     0.031 C 
ATOM     20  C   UNL A   1      40.517  31.214  30.163  1.00  0.00     0.029 A 
ATOM     21  N   UNL A   1      42.170  29.709  30.202  1.00  0.00    -0.354 N 
ATOM     22  C   UNL A   1      41.552  25.769  28.449  1.00  0.00     0.074 A 
ATOM     23  C   UNL A   1      40.165  25.580  28.080  1.00  0.00     0.031 C 
ATOM     24  C   UNL A   1      41.558  31.785  30.783  1.00  0.00     0.029 A 
ATOM     25  C   UNL A   1      42.661  30.832  30.822  1.00  0.00     0.049 A 
ATOM     26  H   UNL A   1      42.693  28.882  30.088  1.00  0.00     0.167 HD
ATOM     27  C   UNL A   1      42.526  24.835  28.343  1.00  0.00     0.031 A 
ATOM     28  C   UNL A   1      43.875  31.080  31.342  1.00  0.00     0.031 A 
ATOM     29  C   UNL A   1      43.890  25.052  28.762  1.00  0.00     0.049 A 
ATOM     30  C   UNL A   1      44.932  30.026  31.205  1.00  0.00     0.074 A 
ATOM     31  C   UNL A   1      44.968  24.191  28.659  1.00  0.00     0.029 A 
ATOM     32  N   UNL A   1      44.356  26.206  29.375  1.00  0.00    -0.354 N 
ATOM     33  N   UNL A   1      44.835  28.834  30.664  1.00  0.00    -0.248 NA
ATOM     34  C   UNL A   1      46.271  30.357  31.705  1.00  0.00     0.031 C 
ATOM     35  C   UNL A   1      46.068  24.796  29.268  1.00  0.00     0.029 A 
ATOM     36  C   UNL A   1      45.700  26.068  29.678  1.00  0.00     0.049 A 
ATOM     37  H   UNL A   1      43.812  27.004  29.567  1.00  0.00     0.167 HD
ATOM     38  C   UNL A   1      46.107  28.287  30.724  1.00  0.00     0.074 A 
ATOM     39  C   UNL A   1      46.960  29.281  31.345  1.00  0.00     0.031 C 
ATOM     40  C   UNL A   1      46.530  27.073  30.294  1.00  0.00     0.031 A 
BRANCH  27  41
ATOM     41  C   UNL A   1      42.187  23.499  27.739  1.00  0.00    -0.014 A 
ATOM     42  C   UNL A   1      42.286  23.305  26.351  1.00  0.00     0.009 A 
ATOM     43  C   UNL A   1      41.620  22.482  28.524  1.00  0.00     0.009 A 
ATOM     44  C   UNL A   1      41.799  22.137  25.759  1.00  0.00     0.001 A 
ATOM     45  C   UNL A   1      41.157  21.303  27.931  1.00  0.00     0.001 A 
ATOM     46  C   UNL A   1      41.235  21.138  26.549  1.00  0.00     0.000 A 
ENDBRANCH  27  41
BRANCH  28  47
ATOM     47  C   UNL A   1      44.153  32.414  31.933  1.00  0.00    -0.014 A 
ATOM     48  C   UNL A   1      44.787  33.416  31.180  1.00  0.00     0.009 A 
ATOM     49  C   UNL A   1      43.872  32.661  33.286  1.00  0.00     0.009 A 
ATOM     50  C   UNL A   1      45.152  34.627  31.773  1.00  0.00     0.001 A 
ATOM     51  C   UNL A   1      44.210  33.885  33.868  1.00  0.00     0.001 A 
ATOM     52  C   UNL A   1      44.859  34.862  33.115  1.00  0.00     0.000 A 
ENDBRANCH  28  47
BRANCH  40  53
ATOM     53  C   UNL A   1      47.989  26.750  30.455  1.00  0.00    -0.014 A 
ATOM     54  C   UNL A   1      48.882  27.058  29.415  1.00  0.00     0.009 A 
ATOM     55  C   UNL A   1      48.460  26.055  31.578  1.00  0.00     0.009 A 
ATOM     56  C   UNL A   1      50.217  26.661  29.490  1.00  0.00     0.001 A 
ATOM     57  C   UNL A   1      49.805  25.688  31.664  1.00  0.00     0.001 A 
ATOM     58  C   UNL A   1      50.678  25.981  30.616  1.00  0.00     0.000 A 
ENDBRANCH  40  53
ENDBRANCH  14  15
ENDBRANCH   7   9
ENDBRANCH   6   7
ENDBRANCH   5   6
ENDBRANCH   4   5
ENDBRANCH   3   4
ENDBRANCH   2   3
ENDBRANCH   1   2
BRANCH   1  59
ATOM     59  O   UNL A   1      34.058  33.465  31.906  1.00  0.00    -0.377 OA
BRANCH  59  60
ATOM     60  C   UNL A   1      34.925  32.355  31.762  1.00  0.00     0.188 C 
BRANCH  60  61
ATOM     61  C   UNL A   1      36.410  32.557  31.387  1.00  0.00     0.188 C 
BRANCH  61  62
ATOM     62  O   UNL A   1      37.431  32.480  32.363  1.00  0.00    -0.376 OA
BRANCH  62  63
ATOM     63  C   UNL A   1      37.909  33.679  32.948  1.00  0.00     0.202 C 
BRANCH  63  64
ATOM     64  C   UNL A   1      39.001  33.616  34.030  1.00  0.00     0.261 C 
BRANCH  64  65
ATOM     65  O   UNL A   1      39.982  32.581  33.835  1.00  0.00    -0.460 OA
BRANCH  65  66
ATOM     66  C   UNL A   1      40.022  31.572  34.747  1.00  0.00     0.338 C 
ATOM     67  O   UNL A   1      39.731  31.642  35.929  1.00  0.00    -0.246 OA
BRANCH  66  68
ATOM     68  C   UNL A   1      40.367  30.303  34.044  1.00  0.00     0.067 A 
ATOM     69  C   UNL A   1      39.325  29.670  33.360  1.00  0.00     0.016 A 
ATOM     70  C   UNL A   1      41.667  29.706  34.139  1.00  0.00    -0.002 A 
ATOM     71  C   UNL A   1      39.556  28.453  32.745  1.00  0.00     0.002 A 
ATOM     72  C   UNL A   1      41.905  28.446  33.526  1.00  0.00    -0.010 A 
ATOM     73  C   UNL A   1      42.727  30.279  34.865  1.00  0.00     0.026 A 
ATOM     74  C   UNL A   1      40.819  27.862  32.824  1.00  0.00     0.009 A 
ATOM     75  C   UNL A   1      43.194  27.796  33.657  1.00  0.00    -0.009 A 
ATOM     76  C   UNL A   1      43.930  29.605  35.093  1.00  0.00     0.026 A 
ATOM     77  C   UNL A   1      44.194  28.359  34.495  1.00  0.00    -0.004 A 
ATOM     78  C   UNL A   1      43.529  26.586  32.989  1.00  0.00     0.009 A 
ATOM     79  Br  UNL A   1      45.155  30.465  36.278  1.00  0.00    -0.050 Br
ATOM     80  C   UNL A   1      45.416  27.657  34.681  1.00  0.00     0.010 A 
ATOM     81  C   UNL A   1      44.754  25.936  33.158  1.00  0.00     0.001 A 
ATOM     82  C   UNL A   1      45.693  26.462  34.022  1.00  0.00     0.001 A 
ENDBRANCH  66  68
ENDBRANCH  65  66
ENDBRANCH  64  65
ENDBRANCH  63  64
ENDBRANCH  62  63
ENDBRANCH  61  62
ENDBRANCH  60  61
ENDBRANCH  59  60
ENDBRANCH   1  59
TORSDOF 20
ENDMDL
MODEL 2
REMARK VINA RESULT:      -6.8      4.769     11.635
REMARK SMILES O=C(OCCOCCOCCOCCOC(=O)c1cccc2c1cc(Br)c1ccccc12)c1ccc(-c2c3nc(c(-c4ccccc4)c4ccc([nH]4)c(-c4ccccc4)c4nc(c(-c5ccccc5)c5ccc2[nH]5)C=C4)C=C3)cc1
REMARK SMILES IDX 8 1 7 2 6 3 5 4 4 5 3 6 2 7 1 8 33 9 34 10 80 11 35 12 79 13
REMARK SMILES IDX 36 14 37 15 38 16 73 17 39 18 78 19 72 20 74 21 40 22 77 23
REMARK SMILES IDX 71 24 70 25 41 27 63 28 48 29 62 30 49 31 52 32 61 33 75 34
REMARK SMILES IDX 50 35 51 36 60 38 76 39 53 40 42 41 43 42 47 43 44 44 46 45
REMARK SMILES IDX 45 46 64 47 65 48 69 49 66 50 68 51 67 52 54 53 55 54 59 55
REMARK SMILES IDX 56 56 58 57 57 58 9 59 10 60 11 61 12 62 13 63 14 64 15 65
REMARK SMILES IDX 16 66 17 67 18 68 19 69 23 70 20 71 22 72 24 73 21 74 32 75
REMARK SMILES IDX 25 76 27 77 31 78 26 79 28 80 30 81 29 82
REMARK H PARENT 74 26 52 37
REMARK Flexibility Score: inf
ROOT
ATOM      1  C   UNL A   1      41.477  20.519  26.469  1.00  0.00     0.188 C 
ENDROOT
BRANCH   1   2
ATOM      2  C   UNL A   1      42.939  20.132  26.264  1.00  0.00     0.188 C 
BRANCH   2   3
ATOM      3  O   UNL A   1      43.462  20.589  25.014  1.00  0.00    -0.376 OA
BRANCH   3   4
ATOM      4  C   UNL A   1      44.631  21.398  25.125  1.00  0.00     0.202 C 
BRANCH   4   5
ATOM      5  C   UNL A   1      44.714  22.279  26.366  1.00  0.00     0.261 C 
BRANCH   5   6
ATOM      6  O   UNL A   1      44.772  23.686  26.103  1.00  0.00    -0.460 OA
BRANCH   6   7
ATOM      7  C   UNL A   1      43.765  24.532  25.782  1.00  0.00     0.338 C 
ATOM      8  O   UNL A   1      43.372  24.542  24.616  1.00  0.00    -0.246 OA
BRANCH   7   9
ATOM      9  C   UNL A   1      43.177  25.549  26.719  1.00  0.00     0.060 A 
ATOM     10  C   UNL A   1      42.084  25.112  27.494  1.00  0.00     0.016 A 
ATOM     11  C   UNL A   1      43.621  26.862  26.900  1.00  0.00     0.016 A 
ATOM     12  C   UNL A   1      41.474  25.951  28.430  1.00  0.00     0.010 A 
ATOM     13  C   UNL A   1      42.995  27.720  27.806  1.00  0.00     0.010 A 
ATOM     14  C   UNL A   1      41.947  27.254  28.603  1.00  0.00    -0.014 A 
BRANCH  14  15
ATOM     15  C   UNL A   1      41.562  28.041  29.789  1.00  0.00     0.031 A 
ATOM     16  C   UNL A   1      42.279  27.915  31.091  1.00  0.00     0.074 A 
ATOM     17  C   UNL A   1      40.481  28.831  29.652  1.00  0.00     0.049 A 
ATOM     18  N   UNL A   1      42.103  28.616  32.182  1.00  0.00    -0.248 NA
ATOM     19  C   UNL A   1      43.317  26.879  31.198  1.00  0.00     0.031 C 
ATOM     20  C   UNL A   1      39.694  28.960  28.420  1.00  0.00     0.029 A 
ATOM     21  N   UNL A   1      39.853  29.665  30.535  1.00  0.00    -0.354 N 
ATOM     22  C   UNL A   1      43.023  28.128  33.098  1.00  0.00     0.074 A 
ATOM     23  C   UNL A   1      43.728  27.041  32.451  1.00  0.00     0.031 C 
ATOM     24  C   UNL A   1      38.696  29.830  28.623  1.00  0.00     0.029 A 
ATOM     25  C   UNL A   1      38.772  30.318  29.995  1.00  0.00     0.049 A 
ATOM     26  H   UNL A   1      40.147  29.786  31.468  1.00  0.00     0.167 HD
ATOM     27  C   UNL A   1      43.251  28.571  34.356  1.00  0.00     0.031 A 
ATOM     28  C   UNL A   1      37.946  31.231  30.535  1.00  0.00     0.031 A 
ATOM     29  C   UNL A   1      42.495  29.631  34.978  1.00  0.00     0.049 A 
ATOM     30  C   UNL A   1      38.228  31.703  31.929  1.00  0.00     0.074 A 
ATOM     31  C   UNL A   1      42.670  30.190  36.231  1.00  0.00     0.029 A 
ATOM     32  N   UNL A   1      41.414  30.280  34.398  1.00  0.00    -0.354 N 
ATOM     33  N   UNL A   1      39.177  31.316  32.749  1.00  0.00    -0.248 NA
ATOM     34  C   UNL A   1      37.362  32.761  32.461  1.00  0.00     0.031 C 
ATOM     35  C   UNL A   1      41.657  31.129  36.435  1.00  0.00     0.029 A 
ATOM     36  C   UNL A   1      40.899  31.215  35.278  1.00  0.00     0.049 A 
ATOM     37  H   UNL A   1      41.065  30.101  33.495  1.00  0.00     0.167 HD
ATOM     38  C   UNL A   1      39.048  32.108  33.878  1.00  0.00     0.074 A 
ATOM     39  C   UNL A   1      37.934  33.004  33.634  1.00  0.00     0.031 C 
ATOM     40  C   UNL A   1      39.791  32.099  35.012  1.00  0.00     0.031 A 
BRANCH  27  41
ATOM     41  C   UNL A   1      44.363  27.946  35.155  1.00  0.00    -0.014 A 
ATOM     42  C   UNL A   1      44.087  26.895  36.046  1.00  0.00     0.009 A 
ATOM     43  C   UNL A   1      45.653  28.501  35.143  1.00  0.00     0.009 A 
ATOM     44  C   UNL A   1      45.069  26.433  36.926  1.00  0.00     0.001 A 
ATOM     45  C   UNL A   1      46.640  28.018  36.008  1.00  0.00     0.001 A 
ATOM     46  C   UNL A   1      46.343  26.995  36.907  1.00  0.00     0.000 A 
ENDBRANCH  27  41
BRANCH  28  47
ATOM     47  C   UNL A   1      36.860  31.808  29.702  1.00  0.00    -0.014 A 
ATOM     48  C   UNL A   1      35.636  31.136  29.550  1.00  0.00     0.009 A 
ATOM     49  C   UNL A   1      37.078  32.989  28.975  1.00  0.00     0.009 A 
ATOM     50  C   UNL A   1      34.663  31.623  28.674  1.00  0.00     0.001 A 
ATOM     51  C   UNL A   1      36.091  33.489  28.124  1.00  0.00     0.001 A 
ATOM     52  C   UNL A   1      34.889  32.801  27.965  1.00  0.00     0.000 A 
ENDBRANCH  28  47
BRANCH  40  53
ATOM     53  C   UNL A   1      39.446  33.104  36.075  1.00  0.00    -0.014 A 
ATOM     54  C   UNL A   1      40.068  34.363  36.061  1.00  0.00     0.009 A 
ATOM     55  C   UNL A   1      38.595  32.773  37.139  1.00  0.00     0.009 A 
ATOM     56  C   UNL A   1      39.857  35.267  37.102  1.00  0.00     0.001 A 
ATOM     57  C   UNL A   1      38.361  33.693  38.163  1.00  0.00     0.001 A 
ATOM     58  C   UNL A   1      39.000  34.933  38.149  1.00  0.00     0.000 A 
ENDBRANCH  40  53
ENDBRANCH  14  15
ENDBRANCH   7   9
ENDBRANCH   6   7
ENDBRANCH   5   6
ENDBRANCH   4   5
ENDBRANCH   3   4
ENDBRANCH   2   3
ENDBRANCH   1   2
BRANCH   1  59
ATOM     59  O   UNL A   1      41.122  21.849  26.137  1.00  0.00    -0.377 OA
BRANCH  59  60
ATOM     60  C   UNL A   1      39.779  22.252  26.332  1.00  0.00     0.188 C 
BRANCH  60  61
ATOM     61  C   UNL A   1      38.616  21.446  25.713  1.00  0.00     0.188 C 
BRANCH  61  62
ATOM     62  O   UNL A   1      37.314  21.991  25.615  1.00  0.00    -0.376 OA
BRANCH  62  63
ATOM     63  C   UNL A   1      37.160  23.399  25.642  1.00  0.00     0.202 C 
BRANCH  63  64
ATOM     64  C   UNL A   1      35.878  24.035  25.078  1.00  0.00     0.261 C 
BRANCH  64  65
ATOM     65  O   UNL A   1      34.755  23.141  24.979  1.00  0.00    -0.460 OA
BRANCH  65  66
ATOM     66  C   UNL A   1      33.720  23.333  25.841  1.00  0.00     0.338 C 
ATOM     67  O   UNL A   1      33.745  23.209  27.054  1.00  0.00    -0.246 OA
BRANCH  66  68
ATOM     68  C   UNL A   1      32.548  23.850  25.077  1.00  0.00     0.067 A 
ATOM     69  C   UNL A   1      31.857  22.919  24.296  1.00  0.00     0.016 A 
ATOM     70  C   UNL A   1      32.202  25.241  25.060  1.00  0.00    -0.002 A 
ATOM     71  C   UNL A   1      30.804  23.343  23.507  1.00  0.00     0.002 A 
ATOM     72  C   UNL A   1      31.133  25.686  24.235  1.00  0.00    -0.010 A 
ATOM     73  C   UNL A   1      32.906  26.220  25.785  1.00  0.00     0.026 A 
ATOM     74  C   UNL A   1      30.450  24.694  23.484  1.00  0.00     0.009 A 
ATOM     75  C   UNL A   1      30.800  27.095  24.158  1.00  0.00    -0.009 A 
ATOM     76  C   UNL A   1      32.667  27.588  25.623  1.00  0.00     0.026 A 
ATOM     77  C   UNL A   1      31.613  28.056  24.818  1.00  0.00    -0.004 A 
ATOM     78  C   UNL A   1      29.686  27.594  23.431  1.00  0.00     0.009 A 
ATOM     79  Br  UNL A   1      33.871  28.756  26.535  1.00  0.00    -0.050 Br
ATOM     80  C   UNL A   1      31.323  29.437  24.652  1.00  0.00     0.010 A 
ATOM     81  C   UNL A   1      29.398  28.957  23.316  1.00  0.00     0.001 A 
ATOM     82  C   UNL A   1      30.231  29.882  23.912  1.00  0.00     0.001 A 
ENDBRANCH  66  68
ENDBRANCH  65  66
ENDBRANCH  64  65
ENDBRANCH  63  64
ENDBRANCH  62  63
ENDBRANCH  61  62
ENDBRANCH  60  61
ENDBRANCH  59  60
ENDBRANCH   1  59
TORSDOF 20
ENDMDL
MODEL 3
REMARK VINA RESULT:      -6.8      2.577      7.195
REMARK SMILES O=C(OCCOCCOCCOCCOC(=O)c1cccc2c1cc(Br)c1ccccc12)c1ccc(-c2c3nc(c(-c4ccccc4)c4ccc([nH]4)c(-c4ccccc4)c4nc(c(-c5ccccc5)c5ccc2[nH]5)C=C4)C=C3)cc1
REMARK SMILES IDX 8 1 7 2 6 3 5 4 4 5 3 6 2 7 1 8 33 9 34 10 80 11 35 12 79 13
REMARK SMILES IDX 36 14 37 15 38 16 73 17 39 18 78 19 72 20 74 21 40 22 77 23
REMARK SMILES IDX 71 24 70 25 41 27 63 28 48 29 62 30 49 31 52 32 61 33 75 34
REMARK SMILES IDX 50 35 51 36 60 38 76 39 53 40 42 41 43 42 47 43 44 44 46 45
REMARK SMILES IDX 45 46 64 47 65 48 69 49 66 50 68 51 67 52 54 53 55 54 59 55
REMARK SMILES IDX 56 56 58 57 57 58 9 59 10 60 11 61 12 62 13 63 14 64 15 65
REMARK SMILES IDX 16 66 17 67 18 68 19 69 23 70 20 71 22 72 24 73 21 74 32 75
REMARK SMILES IDX 25 76 27 77 31 78 26 79 28 80 30 81 29 82
REMARK H PARENT 74 26 52 37
REMARK Flexibility Score: inf
ROOT
ATOM      1  C   UNL A   1      33.256  35.750  29.747  1.00  0.00     0.188 C 
ENDROOT
BRANCH   1   2
ATOM      2  C   UNL A   1      33.189  35.082  28.377  1.00  0.00     0.188 C 
BRANCH   2   3
ATOM      3  O   UNL A   1      34.482  34.826  27.823  1.00  0.00    -0.376 OA
BRANCH   3   4
ATOM      4  C   UNL A   1      34.945  33.489  28.000  1.00  0.00     0.202 C 
BRANCH   4   5
ATOM      5  C   UNL A   1      33.865  32.415  28.066  1.00  0.00     0.261 C 
BRANCH   5   6
ATOM      6  O   UNL A   1      34.106  31.269  27.241  1.00  0.00    -0.460 OA
BRANCH   6   7
ATOM      7  C   UNL A   1      34.668  30.083  27.576  1.00  0.00     0.338 C 
ATOM      8  O   UNL A   1      33.974  29.071  27.476  1.00  0.00    -0.246 OA
BRANCH   7   9
ATOM      9  C   UNL A   1      36.034  29.930  28.179  1.00  0.00     0.060 A 
ATOM     10  C   UNL A   1      36.073  29.434  29.498  1.00  0.00     0.016 A 
ATOM     11  C   UNL A   1      37.252  30.213  27.553  1.00  0.00     0.016 A 
ATOM     12  C   UNL A   1      37.284  29.209  30.156  1.00  0.00     0.010 A 
ATOM     13  C   UNL A   1      38.467  30.027  28.216  1.00  0.00     0.010 A 
ATOM     14  C   UNL A   1      38.488  29.487  29.503  1.00  0.00    -0.014 A 
BRANCH  14  15
ATOM     15  C   UNL A   1      39.762  28.957  30.023  1.00  0.00     0.031 A 
ATOM     16  C   UNL A   1      40.504  29.621  31.135  1.00  0.00     0.074 A 
ATOM     17  C   UNL A   1      40.257  27.876  29.391  1.00  0.00     0.049 A 
ATOM     18  N   UNL A   1      41.583  29.207  31.746  1.00  0.00    -0.248 NA
ATOM     19  C   UNL A   1      39.985  30.908  31.622  1.00  0.00     0.031 C 
ATOM     20  C   UNL A   1      39.613  27.207  28.255  1.00  0.00     0.029 A 
ATOM     21  N   UNL A   1      41.400  27.153  29.598  1.00  0.00    -0.354 N 
ATOM     22  C   UNL A   1      41.861  30.165  32.711  1.00  0.00     0.074 A 
ATOM     23  C   UNL A   1      40.862  31.205  32.575  1.00  0.00     0.031 C 
ATOM     24  C   UNL A   1      40.363  26.166  27.874  1.00  0.00     0.029 A 
ATOM     25  C   UNL A   1      41.538  26.094  28.733  1.00  0.00     0.049 A 
ATOM     26  H   UNL A   1      42.059  27.370  30.296  1.00  0.00     0.167 HD
ATOM     27  C   UNL A   1      42.858  30.150  33.626  1.00  0.00     0.031 A 
ATOM     28  C   UNL A   1      42.493  25.151  28.657  1.00  0.00     0.031 A 
ATOM     29  C   UNL A   1      43.859  29.113  33.699  1.00  0.00     0.049 A 
ATOM     30  C   UNL A   1      43.581  25.161  29.687  1.00  0.00     0.074 A 
ATOM     31  C   UNL A   1      44.888  28.975  34.614  1.00  0.00     0.029 A 
ATOM     32  N   UNL A   1      43.964  28.048  32.816  1.00  0.00    -0.354 N 
ATOM     33  N   UNL A   1      43.771  26.009  30.671  1.00  0.00    -0.248 NA
ATOM     34  C   UNL A   1      44.561  24.071  29.631  1.00  0.00     0.031 C 
ATOM     35  C   UNL A   1      45.652  27.866  34.246  1.00  0.00     0.029 A 
ATOM     36  C   UNL A   1      45.054  27.264  33.151  1.00  0.00     0.049 A 
ATOM     37  H   UNL A   1      43.353  27.876  32.063  1.00  0.00     0.167 HD
ATOM     38  C   UNL A   1      44.866  25.534  31.374  1.00  0.00     0.074 A 
ATOM     39  C   UNL A   1      45.295  24.319  30.709  1.00  0.00     0.031 C 
ATOM     40  C   UNL A   1      45.459  26.056  32.476  1.00  0.00     0.031 A 
BRANCH  27  41
ATOM     41  C   UNL A   1      42.928  31.259  34.641  1.00  0.00    -0.014 A 
ATOM     42  C   UNL A   1      42.312  31.109  35.895  1.00  0.00     0.009 A 
ATOM     43  C   UNL A   1      43.467  32.510  34.299  1.00  0.00     0.009 A 
ATOM     44  C   UNL A   1      42.208  32.193  36.771  1.00  0.00     0.001 A 
ATOM     45  C   UNL A   1      43.385  33.586  35.188  1.00  0.00     0.001 A 
ATOM     46  C   UNL A   1      42.744  33.429  36.416  1.00  0.00     0.000 A 
ENDBRANCH  27  41
BRANCH  28  47
ATOM     47  C   UNL A   1      42.377  24.084  27.630  1.00  0.00    -0.014 A 
ATOM     48  C   UNL A   1      41.752  22.863  27.930  1.00  0.00     0.009 A 
ATOM     49  C   UNL A   1      42.978  24.245  26.372  1.00  0.00     0.009 A 
ATOM     50  C   UNL A   1      41.750  21.819  27.001  1.00  0.00     0.001 A 
ATOM     51  C   UNL A   1      42.946  23.211  25.434  1.00  0.00     0.001 A 
ATOM     52  C   UNL A   1      42.343  21.996  25.753  1.00  0.00     0.000 A 
ENDBRANCH  28  47
BRANCH  40  53
ATOM     53  C   UNL A   1      46.624  25.306  33.057  1.00  0.00    -0.014 A 
ATOM     54  C   UNL A   1      46.397  24.347  34.058  1.00  0.00     0.009 A 
ATOM     55  C   UNL A   1      47.943  25.617  32.695  1.00  0.00     0.009 A 
ATOM     56  C   UNL A   1      47.469  23.724  34.697  1.00  0.00     0.001 A 
ATOM     57  C   UNL A   1      49.013  24.968  33.314  1.00  0.00     0.001 A 
ATOM     58  C   UNL A   1      48.776  24.032  34.321  1.00  0.00     0.000 A 
ENDBRANCH  40  53
ENDBRANCH  14  15
ENDBRANCH   7   9
ENDBRANCH   6   7
ENDBRANCH   5   6
ENDBRANCH   4   5
ENDBRANCH   3   4
ENDBRANCH   2   3
ENDBRANCH   1   2
BRANCH   1  59
ATOM     59  O   UNL A   1      33.155  34.898  30.873  1.00  0.00    -0.377 OA
BRANCH  59  60
ATOM     60  C   UNL A   1      33.887  35.236  32.036  1.00  0.00     0.188 C 
BRANCH  60  61
ATOM     61  C   UNL A   1      34.309  34.147  33.047  1.00  0.00     0.188 C 
BRANCH  61  62
ATOM     62  O   UNL A   1      35.668  33.799  33.229  1.00  0.00    -0.376 OA
BRANCH  62  63
ATOM     63  C   UNL A   1      36.200  32.714  32.488  1.00  0.00     0.202 C 
BRANCH  63  64
ATOM     64  C   UNL A   1      36.914  31.568  33.225  1.00  0.00     0.261 C 
BRANCH  64  65
ATOM     65  O   UNL A   1      37.026  31.745  34.648  1.00  0.00    -0.460 OA
BRANCH  65  66
ATOM     66  C   UNL A   1      38.271  31.675  35.195  1.00  0.00     0.338 C 
ATOM     67  O   UNL A   1      38.945  30.672  35.352  1.00  0.00    -0.246 OA
BRANCH  66  68
ATOM     68  C   UNL A   1      38.754  33.059  35.468  1.00  0.00     0.067 A 
ATOM     69  C   UNL A   1      39.360  33.727  34.401  1.00  0.00     0.016 A 
ATOM     70  C   UNL A   1      38.694  33.644  36.776  1.00  0.00    -0.002 A 
ATOM     71  C   UNL A   1      39.895  34.986  34.603  1.00  0.00     0.002 A 
ATOM     72  C   UNL A   1      39.259  34.930  36.995  1.00  0.00    -0.010 A 
ATOM     73  C   UNL A   1      38.146  32.985  37.891  1.00  0.00     0.026 A 
ATOM     74  C   UNL A   1      39.838  35.572  35.869  1.00  0.00     0.009 A 
ATOM     75  C   UNL A   1      39.261  35.518  38.319  1.00  0.00    -0.009 A 
ATOM     76  C   UNL A   1      38.250  33.494  39.189  1.00  0.00     0.026 A 
ATOM     77  C   UNL A   1      38.800  34.765  39.433  1.00  0.00    -0.004 A 
ATOM     78  C   UNL A   1      39.720  36.836  38.587  1.00  0.00     0.009 A 
ATOM     79  Br  UNL A   1      37.631  32.347  40.585  1.00  0.00    -0.050 Br
ATOM     80  C   UNL A   1      38.897  35.327  40.735  1.00  0.00     0.010 A 
ATOM     81  C   UNL A   1      39.768  37.381  39.873  1.00  0.00     0.001 A 
ATOM     82  C   UNL A   1      39.375  36.617  40.953  1.00  0.00     0.001 A 
ENDBRANCH  66  68
ENDBRANCH  65  66
ENDBRANCH  64  65
ENDBRANCH  63  64
ENDBRANCH  62  63
ENDBRANCH  61  62
ENDBRANCH  60  61
ENDBRANCH  59  60
ENDBRANCH   1  59
TORSDOF 20
ENDMDL
