MODEL 1
REMARK VINA RESULT:      -9.0      0.000      0.000
REMARK SMILES Nc1cccc(CC(=O)N2CC(C(=O)OCCOCCOCCOCCOC(=O)c3ccc(-c4c5nc(c(-c6ccccc6)c6ccc([nH]6)c(-c6ccccc6)c6nc(c(-c7ccccc7)c7ccc4[nH]7)C=C6)C=C5)cc3)C2)c1
REMARK SMILES IDX 20 1 19 2 18 3 17 4 16 5 15 6 13 7 14 8 12 9 8 10 9 11 10 12
REMARK SMILES IDX 11 13 78 14 7 15 6 16 2 17 3 18 79 19 4 20 5 21 1 22 21 25
REMARK SMILES IDX 22 26 23 27 24 28 25 29 26 30 27 31 28 32 29 33 30 34 31 35
REMARK SMILES IDX 77 36 32 37 76 38 33 39 34 40 35 41 70 42 36 43 75 44 69 45
REMARK SMILES IDX 71 46 37 47 74 48 68 49 67 50 38 52 60 53 45 54 59 55 46 56
REMARK SMILES IDX 49 57 58 58 72 59 47 60 48 61 57 63 73 64 50 65 39 66 40 67
REMARK SMILES IDX 44 68 41 69 43 70 42 71 61 72 62 73 66 74 63 75 65 76 64 77
REMARK SMILES IDX 51 78 52 79 56 80 53 81 55 82 54 83
REMARK H PARENT 1 23 1 24 71 51 49 62
REMARK Flexibility Score: inf
ROOT
ATOM      1  C   UNL A   1      34.404  25.072  24.670  1.00  0.00     0.188 C 
ENDROOT
BRANCH   1   2
ATOM      2  C   UNL A   1      34.102  24.710  23.206  1.00  0.00     0.188 C 
BRANCH   2   3
ATOM      3  O   UNL A   1      33.818  25.722  22.254  1.00  0.00    -0.376 OA
BRANCH   3   4
ATOM      4  C   UNL A   1      32.983  25.495  21.128  1.00  0.00     0.202 C 
BRANCH   4   5
ATOM      5  C   UNL A   1      31.503  25.915  21.041  1.00  0.00     0.261 C 
BRANCH   5   6
ATOM      6  O   UNL A   1      31.082  26.962  21.922  1.00  0.00    -0.463 OA
BRANCH   6   7
ATOM      7  C   UNL A   1      30.622  26.579  23.143  1.00  0.00     0.312 C 
ATOM      8  O   UNL A   1      30.234  25.436  23.385  1.00  0.00    -0.252 OA
BRANCH   7   9
ATOM      9  C   UNL A   1      30.707  27.681  24.204  1.00  0.00     0.138 C 
ATOM     10  C   UNL A   1      31.856  30.045  26.058  1.00  0.00     0.227 C 
ATOM     11  O   UNL A   1      31.386  31.110  25.656  1.00  0.00    -0.275 OA
ATOM     12  N   UNL A   1      31.944  28.939  25.249  1.00  0.00    -0.341 N 
ATOM     13  C   UNL A   1      31.617  28.854  23.834  1.00  0.00     0.136 C 
ATOM     14  C   UNL A   1      31.534  27.563  25.506  1.00  0.00     0.136 C 
BRANCH  10  15
ATOM     15  C   UNL A   1      32.522  29.941  27.414  1.00  0.00     0.135 C 
BRANCH  15  16
ATOM     16  C   UNL A   1      33.987  30.284  27.495  1.00  0.00    -0.037 A 
ATOM     17  C   UNL A   1      35.713  31.967  27.909  1.00  0.00     0.032 A 
ATOM     18  C   UNL A   1      36.681  30.965  27.846  1.00  0.00     0.025 A 
ATOM     19  C   UNL A   1      34.377  31.620  27.698  1.00  0.00     0.029 A 
ATOM     20  C   UNL A   1      36.314  29.632  27.642  1.00  0.00     0.002 A 
ATOM     21  C   UNL A   1      34.971  29.289  27.474  1.00  0.00     0.004 A 
BRANCH  17  22
ATOM     22  N   UNL A   1      36.078  33.297  28.054  1.00  0.00    -0.399 N 
ATOM     23  H   UNL A   1      36.958  33.528  28.430  1.00  0.00     0.156 HD
ATOM     24  H   UNL A   1      35.456  34.010  27.782  1.00  0.00     0.156 HD
ENDBRANCH  17  22
ENDBRANCH  15  16
ENDBRANCH  10  15
ENDBRANCH   7   9
ENDBRANCH   6   7
ENDBRANCH   5   6
ENDBRANCH   4   5
ENDBRANCH   3   4
ENDBRANCH   2   3
ENDBRANCH   1   2
BRANCH   1  25
ATOM     25  O   UNL A   1      35.079  24.065  25.395  1.00  0.00    -0.377 OA
BRANCH  25  26
ATOM     26  C   UNL A   1      34.300  23.250  26.262  1.00  0.00     0.188 C 
BRANCH  26  27
ATOM     27  C   UNL A   1      34.360  21.714  26.114  1.00  0.00     0.188 C 
BRANCH  27  28
ATOM     28  O   UNL A   1      35.013  21.265  24.935  1.00  0.00    -0.376 OA
BRANCH  28  29
ATOM     29  C   UNL A   1      36.090  20.348  25.062  1.00  0.00     0.202 C 
BRANCH  29  30
ATOM     30  C   UNL A   1      37.506  20.872  24.773  1.00  0.00     0.261 C 
BRANCH  30  31
ATOM     31  O   UNL A   1      38.000  21.892  25.658  1.00  0.00    -0.460 OA
BRANCH  31  32
ATOM     32  C   UNL A   1      39.209  21.709  26.223  1.00  0.00     0.338 C 
ATOM     33  O   UNL A   1      39.928  20.728  26.128  1.00  0.00    -0.246 OA
BRANCH  32  34
ATOM     34  C   UNL A   1      39.619  22.990  26.834  1.00  0.00     0.060 A 
ATOM     35  C   UNL A   1      38.889  24.149  26.536  1.00  0.00     0.016 A 
ATOM     36  C   UNL A   1      40.716  23.050  27.696  1.00  0.00     0.016 A 
ATOM     37  C   UNL A   1      39.281  25.379  27.066  1.00  0.00     0.010 A 
ATOM     38  C   UNL A   1      41.121  24.285  28.209  1.00  0.00     0.010 A 
ATOM     39  C   UNL A   1      40.429  25.460  27.866  1.00  0.00    -0.014 A 
BRANCH  39  40
ATOM     40  C   UNL A   1      41.021  26.785  28.175  1.00  0.00     0.031 A 
ATOM     41  C   UNL A   1      42.375  27.111  27.606  1.00  0.00     0.074 A 
ATOM     42  C   UNL A   1      40.370  27.690  28.926  1.00  0.00     0.049 A 
ATOM     43  N   UNL A   1      43.116  28.176  27.778  1.00  0.00    -0.248 NA
ATOM     44  C   UNL A   1      42.976  26.094  26.726  1.00  0.00     0.031 C 
ATOM     45  C   UNL A   1      39.034  27.522  29.492  1.00  0.00     0.029 A 
ATOM     46  N   UNL A   1      40.761  28.938  29.347  1.00  0.00    -0.354 N 
ATOM     47  C   UNL A   1      44.272  27.951  27.041  1.00  0.00     0.074 A 
ATOM     48  C   UNL A   1      44.149  26.639  26.445  1.00  0.00     0.031 C 
ATOM     49  C   UNL A   1      38.718  28.625  30.194  1.00  0.00     0.029 A 
ATOM     50  C   UNL A   1      39.843  29.557  30.160  1.00  0.00     0.049 A 
ATOM     51  H   UNL A   1      41.618  29.350  29.089  1.00  0.00     0.167 HD
ATOM     52  C   UNL A   1      45.340  28.766  26.869  1.00  0.00     0.031 A 
ATOM     53  C   UNL A   1      39.917  30.729  30.821  1.00  0.00     0.031 A 
ATOM     54  C   UNL A   1      45.471  30.063  27.474  1.00  0.00     0.049 A 
ATOM     55  C   UNL A   1      41.156  31.578  30.688  1.00  0.00     0.074 A 
ATOM     56  C   UNL A   1      46.509  30.971  27.350  1.00  0.00     0.029 A 
ATOM     57  N   UNL A   1      44.539  30.634  28.326  1.00  0.00    -0.354 N 
ATOM     58  N   UNL A   1      42.232  31.368  29.969  1.00  0.00    -0.248 NA
ATOM     59  C   UNL A   1      41.184  32.833  31.456  1.00  0.00     0.031 C 
ATOM     60  C   UNL A   1      46.237  32.060  28.183  1.00  0.00     0.029 A 
ATOM     61  C   UNL A   1      44.994  31.867  28.764  1.00  0.00     0.049 A 
ATOM     62  H   UNL A   1      43.682  30.225  28.582  1.00  0.00     0.167 HD
ATOM     63  C   UNL A   1      43.048  32.477  30.170  1.00  0.00     0.074 A 
ATOM     64  C   UNL A   1      42.336  33.362  31.067  1.00  0.00     0.031 C 
ATOM     65  C   UNL A   1      44.275  32.740  29.656  1.00  0.00     0.031 A 
BRANCH  52  66
ATOM     66  C   UNL A   1      46.475  28.251  26.025  1.00  0.00    -0.014 A 
ATOM     67  C   UNL A   1      46.355  28.120  24.632  1.00  0.00     0.009 A 
ATOM     68  C   UNL A   1      47.695  27.919  26.634  1.00  0.00     0.009 A 
ATOM     69  C   UNL A   1      47.421  27.632  23.873  1.00  0.00     0.001 A 
ATOM     70  C   UNL A   1      48.770  27.463  25.869  1.00  0.00     0.001 A 
ATOM     71  C   UNL A   1      48.629  27.310  24.491  1.00  0.00     0.000 A 
ENDBRANCH  52  66
BRANCH  53  72
ATOM     72  C   UNL A   1      38.795  31.168  31.694  1.00  0.00    -0.014 A 
ATOM     73  C   UNL A   1      37.678  31.826  31.155  1.00  0.00     0.009 A 
ATOM     74  C   UNL A   1      38.850  30.958  33.082  1.00  0.00     0.009 A 
ATOM     75  C   UNL A   1      36.657  32.291  31.989  1.00  0.00     0.001 A 
ATOM     76  C   UNL A   1      37.812  31.393  33.909  1.00  0.00     0.001 A 
ATOM     77  C   UNL A   1      36.723  32.069  33.364  1.00  0.00     0.000 A 
ENDBRANCH  53  72
BRANCH  65  78
ATOM     78  C   UNL A   1      44.911  34.057  30.011  1.00  0.00    -0.014 A 
ATOM     79  C   UNL A   1      45.771  34.187  31.112  1.00  0.00     0.009 A 
ATOM     80  C   UNL A   1      44.678  35.178  29.198  1.00  0.00     0.009 A 
ATOM     81  C   UNL A   1      46.355  35.420  31.412  1.00  0.00     0.001 A 
ATOM     82  C   UNL A   1      45.290  36.400  29.479  1.00  0.00     0.001 A 
ATOM     83  C   UNL A   1      46.119  36.523  30.591  1.00  0.00     0.000 A 
ENDBRANCH  65  78
ENDBRANCH  39  40
ENDBRANCH  32  34
ENDBRANCH  31  32
ENDBRANCH  30  31
ENDBRANCH  29  30
ENDBRANCH  28  29
ENDBRANCH  27  28
ENDBRANCH  26  27
ENDBRANCH  25  26
ENDBRANCH   1  25
TORSDOF 23
ENDMDL
MODEL 2
REMARK VINA RESULT:      -8.7      1.446      6.082
REMARK SMILES Nc1cccc(CC(=O)N2CC(C(=O)OCCOCCOCCOCCOC(=O)c3ccc(-c4c5nc(c(-c6ccccc6)c6ccc([nH]6)c(-c6ccccc6)c6nc(c(-c7ccccc7)c7ccc4[nH]7)C=C6)C=C5)cc3)C2)c1
REMARK SMILES IDX 20 1 19 2 18 3 17 4 16 5 15 6 13 7 14 8 12 9 8 10 9 11 10 12
REMARK SMILES IDX 11 13 78 14 7 15 6 16 2 17 3 18 79 19 4 20 5 21 1 22 21 25
REMARK SMILES IDX 22 26 23 27 24 28 25 29 26 30 27 31 28 32 29 33 30 34 31 35
REMARK SMILES IDX 77 36 32 37 76 38 33 39 34 40 35 41 70 42 36 43 75 44 69 45
REMARK SMILES IDX 71 46 37 47 74 48 68 49 67 50 38 52 60 53 45 54 59 55 46 56
REMARK SMILES IDX 49 57 58 58 72 59 47 60 48 61 57 63 73 64 50 65 39 66 40 67
REMARK SMILES IDX 44 68 41 69 43 70 42 71 61 72 62 73 66 74 63 75 65 76 64 77
REMARK SMILES IDX 51 78 52 79 56 80 53 81 55 82 54 83
REMARK H PARENT 1 23 1 24 71 51 49 62
REMARK Flexibility Score: inf
ROOT
ATOM      1  C   UNL A   1      32.699  23.461  23.970  1.00  0.00     0.188 C 
ENDROOT
BRANCH   1   2
ATOM      2  C   UNL A   1      33.694  24.617  24.166  1.00  0.00     0.188 C 
BRANCH   2   3
ATOM      3  O   UNL A   1      33.358  25.937  23.770  1.00  0.00    -0.376 OA
BRANCH   3   4
ATOM      4  C   UNL A   1      32.141  26.245  23.106  1.00  0.00     0.202 C 
BRANCH   4   5
ATOM      5  C   UNL A   1      30.802  26.510  23.820  1.00  0.00     0.261 C 
BRANCH   5   6
ATOM      6  O   UNL A   1      30.731  27.686  24.634  1.00  0.00    -0.463 OA
BRANCH   6   7
ATOM      7  C   UNL A   1      31.263  27.592  25.882  1.00  0.00     0.312 C 
ATOM      8  O   UNL A   1      30.878  26.773  26.716  1.00  0.00    -0.252 OA
BRANCH   7   9
ATOM      9  C   UNL A   1      32.438  28.547  26.121  1.00  0.00     0.138 C 
ATOM     10  C   UNL A   1      34.441  30.616  27.553  1.00  0.00     0.227 C 
ATOM     11  O   UNL A   1      35.476  30.012  27.839  1.00  0.00    -0.275 OA
ATOM     12  N   UNL A   1      33.249  29.963  27.364  1.00  0.00    -0.341 N 
ATOM     13  C   UNL A   1      32.981  28.546  27.552  1.00  0.00     0.136 C 
ATOM     14  C   UNL A   1      32.288  30.079  26.272  1.00  0.00     0.136 C 
BRANCH  10  15
ATOM     15  C   UNL A   1      34.386  32.129  27.563  1.00  0.00     0.135 C 
BRANCH  15  16
ATOM     16  C   UNL A   1      35.233  32.847  28.582  1.00  0.00    -0.037 A 
ATOM     17  C   UNL A   1      35.432  33.802  30.825  1.00  0.00     0.032 A 
ATOM     18  C   UNL A   1      36.792  34.013  30.596  1.00  0.00     0.025 A 
ATOM     19  C   UNL A   1      34.659  33.252  29.801  1.00  0.00     0.029 A 
ATOM     20  C   UNL A   1      37.380  33.621  29.390  1.00  0.00     0.002 A 
ATOM     21  C   UNL A   1      36.606  33.034  28.388  1.00  0.00     0.004 A 
BRANCH  17  22
ATOM     22  N   UNL A   1      34.835  34.242  31.997  1.00  0.00    -0.399 N 
ATOM     23  H   UNL A   1      34.427  35.137  32.036  1.00  0.00     0.156 HD
ATOM     24  H   UNL A   1      34.818  33.658  32.790  1.00  0.00     0.156 HD
ENDBRANCH  17  22
ENDBRANCH  15  16
ENDBRANCH  10  15
ENDBRANCH   7   9
ENDBRANCH   6   7
ENDBRANCH   5   6
ENDBRANCH   4   5
ENDBRANCH   3   4
ENDBRANCH   2   3
ENDBRANCH   1   2
BRANCH   1  25
ATOM     25  O   UNL A   1      32.553  22.617  25.094  1.00  0.00    -0.377 OA
BRANCH  25  26
ATOM     26  C   UNL A   1      32.327  21.234  24.848  1.00  0.00     0.188 C 
BRANCH  26  27
ATOM     27  C   UNL A   1      33.468  20.225  25.097  1.00  0.00     0.188 C 
BRANCH  27  28
ATOM     28  O   UNL A   1      34.738  20.647  24.620  1.00  0.00    -0.376 OA
BRANCH  28  29
ATOM     29  C   UNL A   1      35.892  19.926  25.026  1.00  0.00     0.202 C 
BRANCH  29  30
ATOM     30  C   UNL A   1      37.258  20.605  24.832  1.00  0.00     0.261 C 
BRANCH  30  31
ATOM     31  O   UNL A   1      37.863  21.164  26.009  1.00  0.00    -0.460 OA
BRANCH  31  32
ATOM     32  C   UNL A   1      39.199  21.051  26.149  1.00  0.00     0.338 C 
ATOM     33  O   UNL A   1      39.907  20.135  25.762  1.00  0.00    -0.246 OA
BRANCH  32  34
ATOM     34  C   UNL A   1      39.705  22.329  26.689  1.00  0.00     0.060 A 
ATOM     35  C   UNL A   1      39.076  23.523  26.309  1.00  0.00     0.016 A 
ATOM     36  C   UNL A   1      40.791  22.352  27.566  1.00  0.00     0.016 A 
ATOM     37  C   UNL A   1      39.562  24.747  26.772  1.00  0.00     0.010 A 
ATOM     38  C   UNL A   1      41.290  23.579  28.012  1.00  0.00     0.010 A 
ATOM     39  C   UNL A   1      40.702  24.783  27.587  1.00  0.00    -0.014 A 
BRANCH  39  40
ATOM     40  C   UNL A   1      41.397  26.072  27.826  1.00  0.00     0.031 A 
ATOM     41  C   UNL A   1      40.717  27.099  28.692  1.00  0.00     0.074 A 
ATOM     42  C   UNL A   1      42.610  26.326  27.306  1.00  0.00     0.049 A 
ATOM     43  N   UNL A   1      41.100  28.311  29.000  1.00  0.00    -0.248 NA
ATOM     44  C   UNL A   1      39.430  26.702  29.286  1.00  0.00     0.031 C 
ATOM     45  C   UNL A   1      43.399  25.400  26.498  1.00  0.00     0.029 A 
ATOM     46  N   UNL A   1      43.388  27.455  27.382  1.00  0.00    -0.354 N 
ATOM     47  C   UNL A   1      40.096  28.826  29.811  1.00  0.00     0.074 A 
ATOM     48  C   UNL A   1      39.075  27.808  29.923  1.00  0.00     0.031 C 
ATOM     49  C   UNL A   1      44.548  26.002  26.144  1.00  0.00     0.029 A 
ATOM     50  C   UNL A   1      44.558  27.366  26.668  1.00  0.00     0.049 A 
ATOM     51  H   UNL A   1      43.132  28.252  27.900  1.00  0.00     0.167 HD
ATOM     52  C   UNL A   1      40.030  30.036  30.415  1.00  0.00     0.031 A 
ATOM     53  C   UNL A   1      45.512  28.291  26.441  1.00  0.00     0.031 A 
ATOM     54  C   UNL A   1      41.036  31.056  30.290  1.00  0.00     0.049 A 
ATOM     55  C   UNL A   1      45.372  29.665  27.049  1.00  0.00     0.074 A 
ATOM     56  C   UNL A   1      41.068  32.311  30.875  1.00  0.00     0.029 A 
ATOM     57  N   UNL A   1      42.184  30.943  29.522  1.00  0.00    -0.354 N 
ATOM     58  N   UNL A   1      44.432  30.132  27.835  1.00  0.00    -0.248 NA
ATOM     59  C   UNL A   1      46.434  30.636  26.741  1.00  0.00     0.031 C 
ATOM     60  C   UNL A   1      42.199  32.982  30.403  1.00  0.00     0.029 A 
ATOM     61  C   UNL A   1      42.913  32.118  29.588  1.00  0.00     0.049 A 
ATOM     62  H   UNL A   1      42.442  30.146  29.005  1.00  0.00     0.167 HD
ATOM     63  C   UNL A   1      44.805  31.436  28.142  1.00  0.00     0.074 A 
ATOM     64  C   UNL A   1      46.064  31.679  27.471  1.00  0.00     0.031 C 
ATOM     65  C   UNL A   1      44.165  32.348  28.915  1.00  0.00     0.031 A 
BRANCH  52  66
ATOM     66  C   UNL A   1      38.801  30.338  31.229  1.00  0.00    -0.014 A 
ATOM     67  C   UNL A   1      38.890  30.798  32.553  1.00  0.00     0.009 A 
ATOM     68  C   UNL A   1      37.532  30.187  30.648  1.00  0.00     0.009 A 
ATOM     69  C   UNL A   1      37.733  31.063  33.289  1.00  0.00     0.001 A 
ATOM     70  C   UNL A   1      36.378  30.484  31.375  1.00  0.00     0.001 A 
ATOM     71  C   UNL A   1      36.479  30.912  32.698  1.00  0.00     0.000 A 
ENDBRANCH  52  66
BRANCH  53  72
ATOM     72  C   UNL A   1      46.679  27.966  25.578  1.00  0.00    -0.014 A 
ATOM     73  C   UNL A   1      46.569  27.991  24.179  1.00  0.00     0.009 A 
ATOM     74  C   UNL A   1      47.907  27.595  26.152  1.00  0.00     0.009 A 
ATOM     75  C   UNL A   1      47.653  27.624  23.375  1.00  0.00     0.001 A 
ATOM     76  C   UNL A   1      48.998  27.261  25.347  1.00  0.00     0.001 A 
ATOM     77  C   UNL A   1      48.866  27.265  23.960  1.00  0.00     0.000 A 
ENDBRANCH  53  72
BRANCH  65  78
ATOM     78  C   UNL A   1      44.835  33.682  29.116  1.00  0.00    -0.014 A 
ATOM     79  C   UNL A   1      44.585  34.767  28.262  1.00  0.00     0.009 A 
ATOM     80  C   UNL A   1      45.696  33.864  30.210  1.00  0.00     0.009 A 
ATOM     81  C   UNL A   1      45.213  35.997  28.479  1.00  0.00     0.001 A 
ATOM     82  C   UNL A   1      46.294  35.103  30.444  1.00  0.00     0.001 A 
ATOM     83  C   UNL A   1      46.062  36.164  29.573  1.00  0.00     0.000 A 
ENDBRANCH  65  78
ENDBRANCH  39  40
ENDBRANCH  32  34
ENDBRANCH  31  32
ENDBRANCH  30  31
ENDBRANCH  29  30
ENDBRANCH  28  29
ENDBRANCH  27  28
ENDBRANCH  26  27
ENDBRANCH  25  26
ENDBRANCH   1  25
TORSDOF 23
ENDMDL
MODEL 3
REMARK VINA RESULT:      -8.6      2.822      5.173
REMARK SMILES Nc1cccc(CC(=O)N2CC(C(=O)OCCOCCOCCOCCOC(=O)c3ccc(-c4c5nc(c(-c6ccccc6)c6ccc([nH]6)c(-c6ccccc6)c6nc(c(-c7ccccc7)c7ccc4[nH]7)C=C6)C=C5)cc3)C2)c1
REMARK SMILES IDX 20 1 19 2 18 3 17 4 16 5 15 6 13 7 14 8 12 9 8 10 9 11 10 12
REMARK SMILES IDX 11 13 78 14 7 15 6 16 2 17 3 18 79 19 4 20 5 21 1 22 21 25
REMARK SMILES IDX 22 26 23 27 24 28 25 29 26 30 27 31 28 32 29 33 30 34 31 35
REMARK SMILES IDX 77 36 32 37 76 38 33 39 34 40 35 41 70 42 36 43 75 44 69 45
REMARK SMILES IDX 71 46 37 47 74 48 68 49 67 50 38 52 60 53 45 54 59 55 46 56
REMARK SMILES IDX 49 57 58 58 72 59 47 60 48 61 57 63 73 64 50 65 39 66 40 67
REMARK SMILES IDX 44 68 41 69 43 70 42 71 61 72 62 73 66 74 63 75 65 76 64 77
REMARK SMILES IDX 51 78 52 79 56 80 53 81 55 82 54 83
REMARK H PARENT 1 23 1 24 71 51 49 62
REMARK Flexibility Score: inf
ROOT
ATOM      1  C   UNL A   1      39.079  23.025  26.532  1.00  0.00     0.188 C 
ENDROOT
BRANCH   1   2
ATOM      2  C   UNL A   1      38.162  22.132  25.678  1.00  0.00     0.188 C 
BRANCH   2   3
ATOM      3  O   UNL A   1      37.142  22.701  24.874  1.00  0.00    -0.376 OA
BRANCH   3   4
ATOM      4  C   UNL A   1      36.054  21.939  24.373  1.00  0.00     0.202 C 
BRANCH   4   5
ATOM      5  C   UNL A   1      35.359  20.801  25.144  1.00  0.00     0.261 C 
BRANCH   5   6
ATOM      6  O   UNL A   1      34.380  21.189  26.115  1.00  0.00    -0.463 OA
BRANCH   6   7
ATOM      7  C   UNL A   1      33.090  21.238  25.689  1.00  0.00     0.312 C 
ATOM      8  O   UNL A   1      32.470  20.244  25.310  1.00  0.00    -0.252 OA
BRANCH   7   9
ATOM      9  C   UNL A   1      32.459  22.631  25.802  1.00  0.00     0.138 C 
ATOM     10  C   UNL A   1      30.351  25.049  25.575  1.00  0.00     0.227 C 
ATOM     11  O   UNL A   1      29.879  25.252  26.694  1.00  0.00    -0.275 OA
ATOM     12  N   UNL A   1      30.906  23.842  25.230  1.00  0.00    -0.341 N 
ATOM     13  C   UNL A   1      30.946  22.629  26.032  1.00  0.00     0.136 C 
ATOM     14  C   UNL A   1      32.186  23.555  24.592  1.00  0.00     0.136 C 
BRANCH  10  15
ATOM     15  C   UNL A   1      30.191  26.060  24.458  1.00  0.00     0.135 C 
BRANCH  15  16
ATOM     16  C   UNL A   1      31.264  27.108  24.314  1.00  0.00    -0.037 A 
ATOM     17  C   UNL A   1      32.962  28.172  22.909  1.00  0.00     0.032 A 
ATOM     18  C   UNL A   1      33.144  29.142  23.895  1.00  0.00     0.025 A 
ATOM     19  C   UNL A   1      32.046  27.144  23.145  1.00  0.00     0.029 A 
ATOM     20  C   UNL A   1      32.380  29.121  25.065  1.00  0.00     0.002 A 
ATOM     21  C   UNL A   1      31.438  28.112  25.273  1.00  0.00     0.004 A 
BRANCH  17  22
ATOM     22  N   UNL A   1      33.757  28.157  21.774  1.00  0.00    -0.399 N 
ATOM     23  H   UNL A   1      34.141  28.996  21.430  1.00  0.00     0.156 HD
ATOM     24  H   UNL A   1      33.938  27.307  21.311  1.00  0.00     0.156 HD
ENDBRANCH  17  22
ENDBRANCH  15  16
ENDBRANCH  10  15
ENDBRANCH   7   9
ENDBRANCH   6   7
ENDBRANCH   5   6
ENDBRANCH   4   5
ENDBRANCH   3   4
ENDBRANCH   2   3
ENDBRANCH   1   2
BRANCH   1  25
ATOM     25  O   UNL A   1      40.368  22.494  26.757  1.00  0.00    -0.377 OA
BRANCH  25  26
ATOM     26  C   UNL A   1      40.638  21.194  26.246  1.00  0.00     0.188 C 
BRANCH  26  27
ATOM     27  C   UNL A   1      42.086  20.657  26.270  1.00  0.00     0.188 C 
BRANCH  27  28
ATOM     28  O   UNL A   1      42.359  19.667  25.288  1.00  0.00    -0.376 OA
BRANCH  28  29
ATOM     29  C   UNL A   1      43.485  18.821  25.470  1.00  0.00     0.202 C 
BRANCH  29  30
ATOM     30  C   UNL A   1      44.499  18.732  24.317  1.00  0.00     0.261 C 
BRANCH  30  31
ATOM     31  O   UNL A   1      45.071  19.974  23.876  1.00  0.00    -0.460 OA
BRANCH  31  32
ATOM     32  C   UNL A   1      46.140  20.452  24.542  1.00  0.00     0.338 C 
ATOM     33  O   UNL A   1      47.259  19.968  24.588  1.00  0.00    -0.246 OA
BRANCH  32  34
ATOM     34  C   UNL A   1      45.784  21.787  25.065  1.00  0.00     0.060 A 
ATOM     35  C   UNL A   1      45.821  22.888  24.198  1.00  0.00     0.016 A 
ATOM     36  C   UNL A   1      45.417  21.954  26.402  1.00  0.00     0.016 A 
ATOM     37  C   UNL A   1      45.532  24.167  24.678  1.00  0.00     0.010 A 
ATOM     38  C   UNL A   1      45.147  23.237  26.887  1.00  0.00     0.010 A 
ATOM     39  C   UNL A   1      45.241  24.354  26.036  1.00  0.00    -0.014 A 
BRANCH  39  40
ATOM     40  C   UNL A   1      45.236  25.723  26.608  1.00  0.00     0.031 A 
ATOM     41  C   UNL A   1      46.554  26.432  26.771  1.00  0.00     0.074 A 
ATOM     42  C   UNL A   1      44.093  26.336  26.960  1.00  0.00     0.049 A 
ATOM     43  N   UNL A   1      46.808  27.604  27.292  1.00  0.00    -0.248 NA
ATOM     44  C   UNL A   1      47.745  25.717  26.281  1.00  0.00     0.031 C 
ATOM     45  C   UNL A   1      42.750  25.783  26.805  1.00  0.00     0.029 A 
ATOM     46  N   UNL A   1      43.888  27.568  27.531  1.00  0.00    -0.354 N 
ATOM     47  C   UNL A   1      48.187  27.761  27.206  1.00  0.00     0.074 A 
ATOM     48  C   UNL A   1      48.716  26.554  26.610  1.00  0.00     0.031 C 
ATOM     49  C   UNL A   1      41.858  26.672  27.278  1.00  0.00     0.029 A 
ATOM     50  C   UNL A   1      42.569  27.835  27.804  1.00  0.00     0.049 A 
ATOM     51  H   UNL A   1      44.618  28.200  27.726  1.00  0.00     0.167 HD
ATOM     52  C   UNL A   1      48.946  28.818  27.582  1.00  0.00     0.031 A 
ATOM     53  C   UNL A   1      42.005  28.887  28.431  1.00  0.00     0.031 A 
ATOM     54  C   UNL A   1      48.422  30.011  28.190  1.00  0.00     0.049 A 
ATOM     55  C   UNL A   1      42.881  30.011  28.925  1.00  0.00     0.074 A 
ATOM     56  C   UNL A   1      49.108  31.144  28.595  1.00  0.00     0.029 A 
ATOM     57  N   UNL A   1      47.086  30.223  28.489  1.00  0.00    -0.354 N 
ATOM     58  N   UNL A   1      44.179  30.161  28.816  1.00  0.00    -0.248 NA
ATOM     59  C   UNL A   1      42.207  31.116  29.625  1.00  0.00     0.031 C 
ATOM     60  C   UNL A   1      48.195  32.010  29.203  1.00  0.00     0.029 A 
ATOM     61  C   UNL A   1      46.931  31.453  29.107  1.00  0.00     0.049 A 
ATOM     62  H   UNL A   1      46.355  29.594  28.293  1.00  0.00     0.167 HD
ATOM     63  C   UNL A   1      44.472  31.389  29.400  1.00  0.00     0.074 A 
ATOM     64  C   UNL A   1      43.214  31.948  29.848  1.00  0.00     0.031 C 
ATOM     65  C   UNL A   1      45.673  32.000  29.548  1.00  0.00     0.031 A 
BRANCH  52  66
ATOM     66  C   UNL A   1      50.433  28.706  27.389  1.00  0.00    -0.014 A 
ATOM     67  C   UNL A   1      51.055  29.136  26.205  1.00  0.00     0.009 A 
ATOM     68  C   UNL A   1      51.229  28.187  28.422  1.00  0.00     0.009 A 
ATOM     69  C   UNL A   1      52.438  29.013  26.049  1.00  0.00     0.001 A 
ATOM     70  C   UNL A   1      52.614  28.096  28.276  1.00  0.00     0.001 A 
ATOM     71  C   UNL A   1      53.216  28.500  27.085  1.00  0.00     0.000 A 
ENDBRANCH  52  66
BRANCH  53  72
ATOM     72  C   UNL A   1      40.535  28.924  28.655  1.00  0.00    -0.014 A 
ATOM     73  C   UNL A   1      39.974  28.418  29.838  1.00  0.00     0.009 A 
ATOM     74  C   UNL A   1      39.678  29.439  27.667  1.00  0.00     0.009 A 
ATOM     75  C   UNL A   1      38.587  28.400  30.014  1.00  0.00     0.001 A 
ATOM     76  C   UNL A   1      38.295  29.450  27.861  1.00  0.00     0.001 A 
ATOM     77  C   UNL A   1      37.751  28.921  29.028  1.00  0.00     0.000 A 
ENDBRANCH  53  72
BRANCH  65  78
ATOM     78  C   UNL A   1      45.686  33.365  30.182  1.00  0.00    -0.014 A 
ATOM     79  C   UNL A   1      45.522  34.532  29.420  1.00  0.00     0.009 A 
ATOM     80  C   UNL A   1      45.818  33.479  31.575  1.00  0.00     0.009 A 
ATOM     81  C   UNL A   1      45.528  35.787  30.037  1.00  0.00     0.001 A 
ATOM     82  C   UNL A   1      45.788  34.730  32.192  1.00  0.00     0.001 A 
ATOM     83  C   UNL A   1      45.655  35.883  31.422  1.00  0.00     0.000 A 
ENDBRANCH  65  78
ENDBRANCH  39  40
ENDBRANCH  32  34
ENDBRANCH  31  32
ENDBRANCH  30  31
ENDBRANCH  29  30
ENDBRANCH  28  29
ENDBRANCH  27  28
ENDBRANCH  26  27
ENDBRANCH  25  26
ENDBRANCH   1  25
TORSDOF 23
ENDMDL
