MODEL 1
REMARK VINA RESULT:      -8.9      0.000      0.000
REMARK SMILES CNC(=O)c1ccc(N(CCC(=O)OCCOCCOCCOCCOC(=O)c2ccc(-c3c4nc(c(-c5ccccc5)c5ccc([nH]5)c(-c5ccccc5)c5nc(c(-c6ccccc6)c6ccc3[nH]6)C=C5)C=C4)cc2)C2CC2)nn1
REMARK SMILES IDX 19 1 18 2 17 3 16 4 15 5 14 6 12 7 13 8 11 9 10 10 9 11 8 12
REMARK SMILES IDX 5 13 6 14 81 15 7 16 80 17 3 18 1 19 2 20 4 22 77 23 78 24
REMARK SMILES IDX 79 25 20 26 21 27 22 28 23 29 24 30 25 31 26 32 27 33 28 34
REMARK SMILES IDX 29 35 30 36 76 37 31 38 75 39 32 40 33 41 34 42 69 43 35 44
REMARK SMILES IDX 74 45 68 46 70 47 36 48 73 49 67 50 66 51 37 53 59 54 44 55
REMARK SMILES IDX 58 56 45 57 48 58 57 59 71 60 46 61 47 62 56 64 72 65 49 66
REMARK SMILES IDX 38 67 39 68 43 69 40 70 42 71 41 72 60 73 61 74 65 75 62 76
REMARK SMILES IDX 64 77 63 78 50 79 51 80 55 81 52 82 54 83 53 84
REMARK H PARENT 2 21 70 52 48 63
REMARK Flexibility Score: inf
ROOT
ATOM      1  C   UNL A   1      33.846  20.539  25.588  1.00  0.00     0.188 C 
ENDROOT
BRANCH   1   2
ATOM      2  C   UNL A   1      32.782  21.294  24.791  1.00  0.00     0.188 C 
BRANCH   2   3
ATOM      3  O   UNL A   1      31.487  21.146  25.350  1.00  0.00    -0.376 OA
BRANCH   3   4
ATOM      4  C   UNL A   1      30.701  22.309  25.494  1.00  0.00     0.202 C 
BRANCH   4   5
ATOM      5  C   UNL A   1      30.739  23.003  26.863  1.00  0.00     0.261 C 
BRANCH   5   6
ATOM      6  O   UNL A   1      30.712  24.442  26.849  1.00  0.00    -0.463 OA
BRANCH   6   7
ATOM      7  C   UNL A   1      31.813  25.099  26.446  1.00  0.00     0.307 C 
ATOM      8  O   UNL A   1      32.928  24.586  26.428  1.00  0.00    -0.252 OA
BRANCH   7   9
ATOM      9  C   UNL A   1      31.595  26.545  26.028  1.00  0.00     0.144 C 
BRANCH   9  10
ATOM     10  C   UNL A   1      32.077  27.182  24.715  1.00  0.00     0.130 C 
BRANCH  10  11
ATOM     11  N   UNL A   1      31.255  26.935  23.497  1.00  0.00    -0.352 N 
BRANCH  11  12
ATOM     12  C   UNL A   1      30.544  28.074  23.026  1.00  0.00     0.151 A 
ATOM     13  C   UNL A   1      29.068  30.208  22.027  1.00  0.00     0.150 A 
ATOM     14  C   UNL A   1      30.400  30.107  21.699  1.00  0.00     0.040 A 
ATOM     15  N   UNL A   1      28.494  29.337  22.871  1.00  0.00    -0.143 NA
ATOM     16  C   UNL A   1      31.117  29.012  22.173  1.00  0.00     0.051 A 
ATOM     17  N   UNL A   1      29.249  28.279  23.367  1.00  0.00    -0.132 NA
BRANCH  13  18
ATOM     18  C   UNL A   1      28.189  31.193  21.352  1.00  0.00     0.271 C 
ATOM     19  C   UNL A   1      28.857  33.068  22.944  1.00  0.00     0.143 C 
ATOM     20  N   UNL A   1      28.087  32.469  21.874  1.00  0.00    -0.354 N 
ATOM     21  H   UNL A   1      27.400  33.044  21.466  1.00  0.00     0.163 HD
ATOM     22  O   UNL A   1      27.551  30.892  20.347  1.00  0.00    -0.267 OA
ENDBRANCH  13  18
ENDBRANCH  11  12
BRANCH  11  23
ATOM     23  C   UNL A   1      31.705  25.803  22.643  1.00  0.00     0.084 C 
ATOM     24  C   UNL A   1      32.920  25.822  21.759  1.00  0.00     0.027 C 
ATOM     25  C   UNL A   1      32.830  24.848  22.906  1.00  0.00     0.027 C 
ENDBRANCH  11  23
ENDBRANCH  10  11
ENDBRANCH   9  10
ENDBRANCH   7   9
ENDBRANCH   6   7
ENDBRANCH   5   6
ENDBRANCH   4   5
ENDBRANCH   3   4
ENDBRANCH   2   3
ENDBRANCH   1   2
BRANCH   1  26
ATOM     26  O   UNL A   1      35.169  21.026  25.734  1.00  0.00    -0.377 OA
BRANCH  26  27
ATOM     27  C   UNL A   1      35.915  21.433  24.602  1.00  0.00     0.188 C 
BRANCH  27  28
ATOM     28  C   UNL A   1      37.028  22.465  24.873  1.00  0.00     0.188 C 
BRANCH  28  29
ATOM     29  O   UNL A   1      37.782  22.480  26.083  1.00  0.00    -0.376 OA
BRANCH  29  30
ATOM     30  C   UNL A   1      39.130  22.054  26.100  1.00  0.00     0.202 C 
BRANCH  30  31
ATOM     31  C   UNL A   1      39.408  20.603  25.676  1.00  0.00     0.261 C 
BRANCH  31  32
ATOM     32  O   UNL A   1      40.344  19.870  26.479  1.00  0.00    -0.460 OA
BRANCH  32  33
ATOM     33  C   UNL A   1      41.629  19.917  26.058  1.00  0.00     0.338 C 
ATOM     34  O   UNL A   1      42.203  19.136  25.323  1.00  0.00    -0.246 OA
BRANCH  33  35
ATOM     35  C   UNL A   1      42.269  21.144  26.576  1.00  0.00     0.060 A 
ATOM     36  C   UNL A   1      42.221  21.396  27.953  1.00  0.00     0.016 A 
ATOM     37  C   UNL A   1      42.815  22.089  25.704  1.00  0.00     0.016 A 
ATOM     38  C   UNL A   1      42.674  22.615  28.458  1.00  0.00     0.010 A 
ATOM     39  C   UNL A   1      43.251  23.319  26.209  1.00  0.00     0.010 A 
ATOM     40  C   UNL A   1      43.142  23.603  27.582  1.00  0.00    -0.014 A 
BRANCH  40  41
ATOM     41  C   UNL A   1      43.323  24.989  28.080  1.00  0.00     0.031 A 
ATOM     42  C   UNL A   1      44.714  25.464  28.405  1.00  0.00     0.074 A 
ATOM     43  C   UNL A   1      42.281  25.830  28.200  1.00  0.00     0.049 A 
ATOM     44  N   UNL A   1      45.110  26.623  28.870  1.00  0.00    -0.248 NA
ATOM     45  C   UNL A   1      45.806  24.504  28.174  1.00  0.00     0.031 C 
ATOM     46  C   UNL A   1      40.894  25.515  27.863  1.00  0.00     0.029 A 
ATOM     47  N   UNL A   1      42.235  27.129  28.642  1.00  0.00    -0.354 N 
ATOM     48  C   UNL A   1      46.492  26.526  28.995  1.00  0.00     0.074 A 
ATOM     49  C   UNL A   1      46.862  25.188  28.587  1.00  0.00     0.031 C 
ATOM     50  C   UNL A   1      40.131  26.593  28.114  1.00  0.00     0.029 A 
ATOM     51  C   UNL A   1      40.969  27.659  28.662  1.00  0.00     0.049 A 
ATOM     52  H   UNL A   1      43.035  27.633  28.918  1.00  0.00     0.167 HD
ATOM     53  C   UNL A   1      47.375  27.466  29.407  1.00  0.00     0.031 A 
ATOM     54  C   UNL A   1      40.534  28.858  29.095  1.00  0.00     0.031 A 
ATOM     55  C   UNL A   1      47.008  28.792  29.828  1.00  0.00     0.049 A 
ATOM     56  C   UNL A   1      41.525  29.856  29.637  1.00  0.00     0.074 A 
ATOM     57  C   UNL A   1      47.832  29.819  30.254  1.00  0.00     0.029 A 
ATOM     58  N   UNL A   1      45.709  29.270  29.884  1.00  0.00    -0.354 N 
ATOM     59  N   UNL A   1      42.829  29.760  29.732  1.00  0.00    -0.248 NA
ATOM     60  C   UNL A   1      40.981  31.133  30.124  1.00  0.00     0.031 C 
ATOM     61  C   UNL A   1      47.024  30.897  30.631  1.00  0.00     0.029 A 
ATOM     62  C   UNL A   1      45.704  30.567  30.369  1.00  0.00     0.049 A 
ATOM     63  H   UNL A   1      44.908  28.763  29.618  1.00  0.00     0.167 HD
ATOM     64  C   UNL A   1      43.264  30.972  30.257  1.00  0.00     0.074 A 
ATOM     65  C   UNL A   1      42.085  31.792  30.447  1.00  0.00     0.031 C 
ATOM     66  C   UNL A   1      44.524  31.372  30.553  1.00  0.00     0.031 A 
BRANCH  53  67
ATOM     67  C   UNL A   1      48.826  27.074  29.464  1.00  0.00    -0.014 A 
ATOM     68  C   UNL A   1      49.663  27.189  28.342  1.00  0.00     0.009 A 
ATOM     69  C   UNL A   1      49.372  26.612  30.672  1.00  0.00     0.009 A 
ATOM     70  C   UNL A   1      51.006  26.812  28.421  1.00  0.00     0.001 A 
ATOM     71  C   UNL A   1      50.722  26.268  30.756  1.00  0.00     0.001 A 
ATOM     72  C   UNL A   1      51.536  26.358  29.628  1.00  0.00     0.000 A 
ENDBRANCH  53  67
BRANCH  54  73
ATOM     73  C   UNL A   1      39.082  29.182  29.063  1.00  0.00    -0.014 A 
ATOM     74  C   UNL A   1      38.277  28.990  30.197  1.00  0.00     0.009 A 
ATOM     75  C   UNL A   1      38.487  29.658  27.884  1.00  0.00     0.009 A 
ATOM     76  C   UNL A   1      36.904  29.242  30.142  1.00  0.00     0.001 A 
ATOM     77  C   UNL A   1      37.120  29.938  27.841  1.00  0.00     0.001 A 
ATOM     78  C   UNL A   1      36.327  29.720  28.967  1.00  0.00     0.000 A 
ENDBRANCH  54  73
BRANCH  66  79
ATOM     79  C   UNL A   1      44.705  32.773  31.071  1.00  0.00    -0.014 A 
ATOM     80  C   UNL A   1      44.689  33.056  32.446  1.00  0.00     0.009 A 
ATOM     81  C   UNL A   1      44.943  33.820  30.166  1.00  0.00     0.009 A 
ATOM     82  C   UNL A   1      44.871  34.364  32.901  1.00  0.00     0.001 A 
ATOM     83  C   UNL A   1      45.157  35.121  30.625  1.00  0.00     0.001 A 
ATOM     84  C   UNL A   1      45.111  35.394  31.990  1.00  0.00     0.000 A 
ENDBRANCH  66  79
ENDBRANCH  40  41
ENDBRANCH  33  35
ENDBRANCH  32  33
ENDBRANCH  31  32
ENDBRANCH  30  31
ENDBRANCH  29  30
ENDBRANCH  28  29
ENDBRANCH  27  28
ENDBRANCH  26  27
ENDBRANCH   1  26
TORSDOF 25
ENDMDL
MODEL 2
REMARK VINA RESULT:      -8.0      2.315      7.049
REMARK SMILES CNC(=O)c1ccc(N(CCC(=O)OCCOCCOCCOCCOC(=O)c2ccc(-c3c4nc(c(-c5ccccc5)c5ccc([nH]5)c(-c5ccccc5)c5nc(c(-c6ccccc6)c6ccc3[nH]6)C=C5)C=C4)cc2)C2CC2)nn1
REMARK SMILES IDX 19 1 18 2 17 3 16 4 15 5 14 6 12 7 13 8 11 9 10 10 9 11 8 12
REMARK SMILES IDX 5 13 6 14 81 15 7 16 80 17 3 18 1 19 2 20 4 22 77 23 78 24
REMARK SMILES IDX 79 25 20 26 21 27 22 28 23 29 24 30 25 31 26 32 27 33 28 34
REMARK SMILES IDX 29 35 30 36 76 37 31 38 75 39 32 40 33 41 34 42 69 43 35 44
REMARK SMILES IDX 74 45 68 46 70 47 36 48 73 49 67 50 66 51 37 53 59 54 44 55
REMARK SMILES IDX 58 56 45 57 48 58 57 59 71 60 46 61 47 62 56 64 72 65 49 66
REMARK SMILES IDX 38 67 39 68 43 69 40 70 42 71 41 72 60 73 61 74 65 75 62 76
REMARK SMILES IDX 64 77 63 78 50 79 51 80 55 81 52 82 54 83 53 84
REMARK H PARENT 2 21 70 52 48 63
REMARK Flexibility Score: inf
ROOT
ATOM      1  C   UNL A   1      32.272  20.829  24.840  1.00  0.00     0.188 C 
ENDROOT
BRANCH   1   2
ATOM      2  C   UNL A   1      31.440  21.993  24.302  1.00  0.00     0.188 C 
BRANCH   2   3
ATOM      3  O   UNL A   1      30.780  22.704  25.336  1.00  0.00    -0.376 OA
BRANCH   3   4
ATOM      4  C   UNL A   1      31.173  24.041  25.563  1.00  0.00     0.202 C 
BRANCH   4   5
ATOM      5  C   UNL A   1      31.912  24.329  26.878  1.00  0.00     0.261 C 
BRANCH   5   6
ATOM      6  O   UNL A   1      32.071  25.715  27.229  1.00  0.00    -0.463 OA
BRANCH   6   7
ATOM      7  C   UNL A   1      31.312  26.627  26.595  1.00  0.00     0.307 C 
ATOM      8  O   UNL A   1      30.093  26.528  26.494  1.00  0.00    -0.252 OA
BRANCH   7   9
ATOM      9  C   UNL A   1      32.070  27.795  25.982  1.00  0.00     0.144 C 
BRANCH   9  10
ATOM     10  C   UNL A   1      31.435  29.022  25.309  1.00  0.00     0.130 C 
BRANCH  10  11
ATOM     11  N   UNL A   1      31.183  28.941  23.843  1.00  0.00    -0.352 N 
BRANCH  11  12
ATOM     12  C   UNL A   1      31.758  27.805  23.209  1.00  0.00     0.151 A 
ATOM     13  C   UNL A   1      32.868  25.509  22.100  1.00  0.00     0.150 A 
ATOM     14  C   UNL A   1      33.642  26.641  22.203  1.00  0.00     0.040 A 
ATOM     15  N   UNL A   1      31.576  25.518  22.460  1.00  0.00    -0.143 NA
ATOM     16  C   UNL A   1      33.086  27.771  22.797  1.00  0.00     0.051 A 
ATOM     17  N   UNL A   1      31.034  26.677  23.008  1.00  0.00    -0.132 NA
BRANCH  13  18
ATOM     18  C   UNL A   1      33.468  24.207  21.722  1.00  0.00     0.271 C 
ATOM     19  C   UNL A   1      34.482  23.861  24.036  1.00  0.00     0.143 C 
ATOM     20  N   UNL A   1      34.258  23.541  22.640  1.00  0.00    -0.354 N 
ATOM     21  H   UNL A   1      34.731  22.747  22.302  1.00  0.00     0.163 HD
ATOM     22  O   UNL A   1      33.278  23.718  20.613  1.00  0.00    -0.267 OA
ENDBRANCH  13  18
ENDBRANCH  11  12
BRANCH  11  23
ATOM     23  C   UNL A   1      29.969  29.657  23.365  1.00  0.00     0.084 C 
ATOM     24  C   UNL A   1      29.513  29.712  21.934  1.00  0.00     0.027 C 
ATOM     25  C   UNL A   1      28.647  29.063  22.984  1.00  0.00     0.027 C 
ENDBRANCH  11  23
ENDBRANCH  10  11
ENDBRANCH   9  10
ENDBRANCH   7   9
ENDBRANCH   6   7
ENDBRANCH   5   6
ENDBRANCH   4   5
ENDBRANCH   3   4
ENDBRANCH   2   3
ENDBRANCH   1   2
BRANCH   1  26
ATOM     26  O   UNL A   1      33.000  19.961  23.988  1.00  0.00    -0.377 OA
BRANCH  26  27
ATOM     27  C   UNL A   1      33.674  18.834  24.515  1.00  0.00     0.188 C 
BRANCH  27  28
ATOM     28  C   UNL A   1      35.160  19.050  24.864  1.00  0.00     0.188 C 
BRANCH  28  29
ATOM     29  O   UNL A   1      35.670  20.306  25.305  1.00  0.00    -0.376 OA
BRANCH  29  30
ATOM     30  C   UNL A   1      36.711  20.952  24.599  1.00  0.00     0.202 C 
BRANCH  30  31
ATOM     31  C   UNL A   1      38.025  21.190  25.360  1.00  0.00     0.261 C 
BRANCH  31  32
ATOM     32  O   UNL A   1      38.199  22.488  25.946  1.00  0.00    -0.460 OA
BRANCH  32  33
ATOM     33  C   UNL A   1      39.403  22.705  26.523  1.00  0.00     0.338 C 
ATOM     34  O   UNL A   1      40.325  21.921  26.646  1.00  0.00    -0.246 OA
BRANCH  33  35
ATOM     35  C   UNL A   1      39.493  24.117  26.950  1.00  0.00     0.060 A 
ATOM     36  C   UNL A   1      40.161  25.028  26.121  1.00  0.00     0.016 A 
ATOM     37  C   UNL A   1      39.019  24.517  28.202  1.00  0.00     0.016 A 
ATOM     38  C   UNL A   1      40.401  26.329  26.563  1.00  0.00     0.010 A 
ATOM     39  C   UNL A   1      39.278  25.817  28.651  1.00  0.00     0.010 A 
ATOM     40  C   UNL A   1      40.008  26.714  27.851  1.00  0.00    -0.014 A 
BRANCH  40  41
ATOM     41  C   UNL A   1      40.536  27.976  28.425  1.00  0.00     0.031 A 
ATOM     42  C   UNL A   1      39.577  29.108  28.687  1.00  0.00     0.074 A 
ATOM     43  C   UNL A   1      41.833  28.105  28.754  1.00  0.00     0.049 A 
ATOM     44  N   UNL A   1      39.813  30.304  29.164  1.00  0.00    -0.248 NA
ATOM     45  C   UNL A   1      38.162  28.855  28.369  1.00  0.00     0.031 C 
ATOM     46  C   UNL A   1      42.852  27.068  28.608  1.00  0.00     0.029 A 
ATOM     47  N   UNL A   1      42.512  29.176  29.282  1.00  0.00    -0.354 N 
ATOM     48  C   UNL A   1      38.580  30.947  29.194  1.00  0.00     0.074 A 
ATOM     49  C   UNL A   1      37.606  30.021  28.659  1.00  0.00     0.031 C 
ATOM     50  C   UNL A   1      44.031  27.555  29.034  1.00  0.00     0.029 A 
ATOM     51  C   UNL A   1      43.856  28.946  29.448  1.00  0.00     0.049 A 
ATOM     52  H   UNL A   1      42.077  30.026  29.520  1.00  0.00     0.167 HD
ATOM     53  C   UNL A   1      38.283  32.194  29.631  1.00  0.00     0.031 A 
ATOM     54  C   UNL A   1      44.835  29.773  29.865  1.00  0.00     0.031 A 
ATOM     55  C   UNL A   1      39.253  33.122  30.149  1.00  0.00     0.049 A 
ATOM     56  C   UNL A   1      44.495  31.187  30.259  1.00  0.00     0.074 A 
ATOM     57  C   UNL A   1      39.048  34.405  30.625  1.00  0.00     0.029 A 
ATOM     58  N   UNL A   1      40.611  32.869  30.250  1.00  0.00    -0.354 N 
ATOM     59  N   UNL A   1      43.324  31.777  30.300  1.00  0.00    -0.248 NA
ATOM     60  C   UNL A   1      45.614  32.048  30.672  1.00  0.00     0.031 C 
ATOM     61  C   UNL A   1      40.293  34.952  30.953  1.00  0.00     0.029 A 
ATOM     62  C   UNL A   1      41.263  33.984  30.750  1.00  0.00     0.049 A 
ATOM     63  H   UNL A   1      41.048  32.022  30.003  1.00  0.00     0.167 HD
ATOM     64  C   UNL A   1      43.561  33.063  30.773  1.00  0.00     0.074 A 
ATOM     65  C   UNL A   1      44.986  33.162  31.018  1.00  0.00     0.031 C 
ATOM     66  C   UNL A   1      42.680  34.070  30.989  1.00  0.00     0.031 A 
BRANCH  53  67
ATOM     67  C   UNL A   1      36.852  32.642  29.524  1.00  0.00    -0.014 A 
ATOM     68  C   UNL A   1      36.365  33.276  28.369  1.00  0.00     0.009 A 
ATOM     69  C   UNL A   1      35.968  32.398  30.587  1.00  0.00     0.009 A 
ATOM     70  C   UNL A   1      35.031  33.689  28.298  1.00  0.00     0.001 A 
ATOM     71  C   UNL A   1      34.629  32.783  30.500  1.00  0.00     0.001 A 
ATOM     72  C   UNL A   1      34.164  33.437  29.360  1.00  0.00     0.000 A 
ENDBRANCH  53  67
BRANCH  54  73
ATOM     73  C   UNL A   1      46.244  29.298  29.907  1.00  0.00    -0.014 A 
ATOM     74  C   UNL A   1      47.075  29.409  28.782  1.00  0.00     0.009 A 
ATOM     75  C   UNL A   1      46.757  28.703  31.071  1.00  0.00     0.009 A 
ATOM     76  C   UNL A   1      48.379  28.910  28.812  1.00  0.00     0.001 A 
ATOM     77  C   UNL A   1      48.071  28.232  31.108  1.00  0.00     0.001 A 
ATOM     78  C   UNL A   1      48.878  28.326  29.975  1.00  0.00     0.000 A 
ENDBRANCH  54  73
BRANCH  66  79
ATOM     79  C   UNL A   1      43.219  35.354  31.559  1.00  0.00    -0.014 A 
ATOM     80  C   UNL A   1      43.705  36.378  30.731  1.00  0.00     0.009 A 
ATOM     81  C   UNL A   1      43.195  35.559  32.948  1.00  0.00     0.009 A 
ATOM     82  C   UNL A   1      44.189  37.566  31.286  1.00  0.00     0.001 A 
ATOM     83  C   UNL A   1      43.648  36.759  33.497  1.00  0.00     0.001 A 
ATOM     84  C   UNL A   1      44.154  37.757  32.667  1.00  0.00     0.000 A 
ENDBRANCH  66  79
ENDBRANCH  40  41
ENDBRANCH  33  35
ENDBRANCH  32  33
ENDBRANCH  31  32
ENDBRANCH  30  31
ENDBRANCH  29  30
ENDBRANCH  28  29
ENDBRANCH  27  28
ENDBRANCH  26  27
ENDBRANCH   1  26
TORSDOF 25
ENDMDL
MODEL 3
REMARK VINA RESULT:      -7.7      4.303      9.460
REMARK SMILES CNC(=O)c1ccc(N(CCC(=O)OCCOCCOCCOCCOC(=O)c2ccc(-c3c4nc(c(-c5ccccc5)c5ccc([nH]5)c(-c5ccccc5)c5nc(c(-c6ccccc6)c6ccc3[nH]6)C=C5)C=C4)cc2)C2CC2)nn1
REMARK SMILES IDX 19 1 18 2 17 3 16 4 15 5 14 6 12 7 13 8 11 9 10 10 9 11 8 12
REMARK SMILES IDX 5 13 6 14 81 15 7 16 80 17 3 18 1 19 2 20 4 22 77 23 78 24
REMARK SMILES IDX 79 25 20 26 21 27 22 28 23 29 24 30 25 31 26 32 27 33 28 34
REMARK SMILES IDX 29 35 30 36 76 37 31 38 75 39 32 40 33 41 34 42 69 43 35 44
REMARK SMILES IDX 74 45 68 46 70 47 36 48 73 49 67 50 66 51 37 53 59 54 44 55
REMARK SMILES IDX 58 56 45 57 48 58 57 59 71 60 46 61 47 62 56 64 72 65 49 66
REMARK SMILES IDX 38 67 39 68 43 69 40 70 42 71 41 72 60 73 61 74 65 75 62 76
REMARK SMILES IDX 64 77 63 78 50 79 51 80 55 81 52 82 54 83 53 84
REMARK H PARENT 2 21 70 52 48 63
REMARK Flexibility Score: inf
ROOT
ATOM      1  C   UNL A   1      32.481  30.002  26.483  1.00  0.00     0.188 C 
ENDROOT
BRANCH   1   2
ATOM      2  C   UNL A   1      31.842  28.668  26.096  1.00  0.00     0.188 C 
BRANCH   2   3
ATOM      3  O   UNL A   1      31.975  28.391  24.712  1.00  0.00    -0.376 OA
BRANCH   3   4
ATOM      4  C   UNL A   1      32.232  27.055  24.335  1.00  0.00     0.202 C 
BRANCH   4   5
ATOM      5  C   UNL A   1      33.267  26.289  25.170  1.00  0.00     0.261 C 
BRANCH   5   6
ATOM      6  O   UNL A   1      34.303  25.612  24.436  1.00  0.00    -0.463 OA
BRANCH   6   7
ATOM      7  C   UNL A   1      34.293  24.268  24.408  1.00  0.00     0.307 C 
ATOM      8  O   UNL A   1      34.071  23.623  23.387  1.00  0.00    -0.252 OA
BRANCH   7   9
ATOM      9  C   UNL A   1      34.555  23.584  25.741  1.00  0.00     0.144 C 
BRANCH   9  10
ATOM     10  C   UNL A   1      33.681  22.491  26.375  1.00  0.00     0.130 C 
BRANCH  10  11
ATOM     11  N   UNL A   1      32.623  21.883  25.521  1.00  0.00    -0.352 N 
BRANCH  11  12
ATOM     12  C   UNL A   1      32.946  20.594  25.013  1.00  0.00     0.151 A 
ATOM     13  C   UNL A   1      33.527  18.015  24.149  1.00  0.00     0.150 A 
ATOM     14  C   UNL A   1      34.560  18.904  24.338  1.00  0.00     0.040 A 
ATOM     15  N   UNL A   1      32.250  18.394  24.308  1.00  0.00    -0.143 NA
ATOM     16  C   UNL A   1      34.258  20.179  24.810  1.00  0.00     0.051 A 
ATOM     17  N   UNL A   1      31.976  19.690  24.734  1.00  0.00    -0.132 NA
BRANCH  13  18
ATOM     18  C   UNL A   1      33.793  16.578  23.903  1.00  0.00     0.271 C 
ATOM     19  C   UNL A   1      32.531  15.857  25.997  1.00  0.00     0.143 C 
ATOM     20  N   UNL A   1      33.368  15.648  24.833  1.00  0.00    -0.354 N 
ATOM     21  H   UNL A   1      33.675  14.724  24.687  1.00  0.00     0.163 HD
ATOM     22  O   UNL A   1      34.385  16.205  22.894  1.00  0.00    -0.267 OA
ENDBRANCH  13  18
ENDBRANCH  11  12
BRANCH  11  23
ATOM     23  C   UNL A   1      31.241  22.375  25.769  1.00  0.00     0.084 C 
ATOM     24  C   UNL A   1      30.852  23.326  26.866  1.00  0.00     0.027 C 
ATOM     25  C   UNL A   1      30.670  23.717  25.422  1.00  0.00     0.027 C 
ENDBRANCH  11  23
ENDBRANCH  10  11
ENDBRANCH   9  10
ENDBRANCH   7   9
ENDBRANCH   6   7
ENDBRANCH   5   6
ENDBRANCH   4   5
ENDBRANCH   3   4
ENDBRANCH   2   3
ENDBRANCH   1   2
BRANCH   1  26
ATOM     26  O   UNL A   1      33.613  30.080  27.333  1.00  0.00    -0.377 OA
BRANCH  26  27
ATOM     27  C   UNL A   1      34.319  31.298  27.481  1.00  0.00     0.188 C 
BRANCH  27  28
ATOM     28  C   UNL A   1      34.687  31.684  28.928  1.00  0.00     0.188 C 
BRANCH  28  29
ATOM     29  O   UNL A   1      33.907  32.593  29.701  1.00  0.00    -0.376 OA
BRANCH  29  30
ATOM     30  C   UNL A   1      34.528  33.588  30.490  1.00  0.00     0.202 C 
BRANCH  30  31
ATOM     31  C   UNL A   1      34.613  33.326  32.002  1.00  0.00     0.261 C 
BRANCH  31  32
ATOM     32  O   UNL A   1      35.645  32.429  32.438  1.00  0.00    -0.460 OA
BRANCH  32  33
ATOM     33  C   UNL A   1      36.767  33.023  32.908  1.00  0.00     0.338 C 
ATOM     34  O   UNL A   1      36.869  34.114  33.434  1.00  0.00    -0.246 OA
BRANCH  33  35
ATOM     35  C   UNL A   1      37.910  32.098  32.757  1.00  0.00     0.060 A 
ATOM     36  C   UNL A   1      39.029  32.274  33.580  1.00  0.00     0.016 A 
ATOM     37  C   UNL A   1      37.923  31.137  31.742  1.00  0.00     0.016 A 
ATOM     38  C   UNL A   1      40.184  31.523  33.360  1.00  0.00     0.010 A 
ATOM     39  C   UNL A   1      39.088  30.399  31.510  1.00  0.00     0.010 A 
ATOM     40  C   UNL A   1      40.237  30.620  32.291  1.00  0.00    -0.014 A 
BRANCH  40  41
ATOM     41  C   UNL A   1      41.549  30.066  31.872  1.00  0.00     0.031 A 
ATOM     42  C   UNL A   1      42.300  30.748  30.760  1.00  0.00     0.074 A 
ATOM     43  C   UNL A   1      42.089  29.004  32.495  1.00  0.00     0.049 A 
ATOM     44  N   UNL A   1      43.449  30.433  30.216  1.00  0.00    -0.248 NA
ATOM     45  C   UNL A   1      41.671  31.948  30.185  1.00  0.00     0.031 C 
ATOM     46  C   UNL A   1      41.495  28.289  33.623  1.00  0.00     0.029 A 
ATOM     47  N   UNL A   1      43.269  28.343  32.259  1.00  0.00    -0.354 N 
ATOM     48  C   UNL A   1      43.674  31.388  29.231  1.00  0.00     0.074 A 
ATOM     49  C   UNL A   1      42.531  32.275  29.232  1.00  0.00     0.031 C 
ATOM     50  C   UNL A   1      42.314  27.284  33.980  1.00  0.00     0.029 A 
ATOM     51  C   UNL A   1      43.469  27.264  33.085  1.00  0.00     0.049 A 
ATOM     52  H   UNL A   1      43.911  28.617  31.566  1.00  0.00     0.167 HD
ATOM     53  C   UNL A   1      44.738  31.520  28.404  1.00  0.00     0.031 A 
ATOM     54  C   UNL A   1      44.461  26.351  33.099  1.00  0.00     0.031 A 
ATOM     55  C   UNL A   1      45.869  30.631  28.392  1.00  0.00     0.049 A 
ATOM     56  C   UNL A   1      45.589  26.465  32.107  1.00  0.00     0.074 A 
ATOM     57  C   UNL A   1      47.000  30.687  27.596  1.00  0.00     0.029 A 
ATOM     58  N   UNL A   1      46.007  29.519  29.207  1.00  0.00    -0.354 N 
ATOM     59  N   UNL A   1      45.800  27.382  31.194  1.00  0.00    -0.248 NA
ATOM     60  C   UNL A   1      46.621  25.418  32.154  1.00  0.00     0.031 C 
ATOM     61  C   UNL A   1      47.792  29.571  27.886  1.00  0.00     0.029 A 
ATOM     62  C   UNL A   1      47.189  28.861  28.912  1.00  0.00     0.049 A 
ATOM     63  H   UNL A   1      45.359  29.239  29.895  1.00  0.00     0.167 HD
ATOM     64  C   UNL A   1      47.002  27.042  30.582  1.00  0.00     0.074 A 
ATOM     65  C   UNL A   1      47.480  25.843  31.238  1.00  0.00     0.031 C 
ATOM     66  C   UNL A   1      47.653  27.669  29.572  1.00  0.00     0.031 A 
BRANCH  53  67
ATOM     67  C   UNL A   1      44.705  32.648  27.409  1.00  0.00    -0.014 A 
ATOM     68  C   UNL A   1      45.247  33.908  27.709  1.00  0.00     0.009 A 
ATOM     69  C   UNL A   1      44.150  32.435  26.138  1.00  0.00     0.009 A 
ATOM     70  C   UNL A   1      45.199  34.941  26.769  1.00  0.00     0.001 A 
ATOM     71  C   UNL A   1      44.132  33.459  25.189  1.00  0.00     0.001 A 
ATOM     72  C   UNL A   1      44.647  34.714  25.509  1.00  0.00     0.000 A 
ENDBRANCH  53  67
BRANCH  54  73
ATOM     73  C   UNL A   1      44.424  25.226  34.071  1.00  0.00    -0.014 A 
ATOM     74  C   UNL A   1      45.052  25.333  35.321  1.00  0.00     0.009 A 
ATOM     75  C   UNL A   1      43.781  24.022  33.738  1.00  0.00     0.009 A 
ATOM     76  C   UNL A   1      45.062  24.251  36.204  1.00  0.00     0.001 A 
ATOM     77  C   UNL A   1      43.766  22.953  34.636  1.00  0.00     0.001 A 
ATOM     78  C   UNL A   1      44.415  23.064  35.864  1.00  0.00     0.000 A 
ENDBRANCH  54  73
BRANCH  66  79
ATOM     79  C   UNL A   1      48.976  27.097  29.139  1.00  0.00    -0.014 A 
ATOM     80  C   UNL A   1      50.116  27.183  29.953  1.00  0.00     0.009 A 
ATOM     81  C   UNL A   1      49.067  26.417  27.913  1.00  0.00     0.009 A 
ATOM     82  C   UNL A   1      51.329  26.632  29.531  1.00  0.00     0.001 A 
ATOM     83  C   UNL A   1      50.272  25.840  27.509  1.00  0.00     0.001 A 
ATOM     84  C   UNL A   1      51.404  25.957  28.313  1.00  0.00     0.000 A 
ENDBRANCH  66  79
ENDBRANCH  40  41
ENDBRANCH  33  35
ENDBRANCH  32  33
ENDBRANCH  31  32
ENDBRANCH  30  31
ENDBRANCH  29  30
ENDBRANCH  28  29
ENDBRANCH  27  28
ENDBRANCH  26  27
ENDBRANCH   1  26
TORSDOF 25
ENDMDL
