MODEL 1
REMARK VINA RESULT:     -10.1      0.000      0.000
REMARK SMILES Cc1ccc(S(=O)(=O)n2cc(C(=O)C(=O)NCC(=O)N[C@@H](Cc3c[nH]c4ccccc34)C(=O)OCCOCCOCCOCCOC(=O)c3ccc(-c4c5nc(c(-c6ccccc6)c6ccc([nH]6)c(-c6ccccc6)c6nc(c(-c7ccccc7)c7ccc4[nH]7)C=C6)C=C5)cc3)c3ccccc32)cc1
REMARK SMILES IDX 38 1 37 2 36 3 35 4 34 5 32 6 33 7 21 8 20 9 18 10 19 11
REMARK SMILES IDX 17 13 16 14 14 15 15 16 12 18 13 19 11 20 9 21 10 22 102 23
REMARK SMILES IDX 97 24 101 25 98 26 100 27 99 28 6 29 7 30 8 31 5 32 1 33
REMARK SMILES IDX 2 34 3 35 104 36 4 37 103 38 22 39 23 40 24 41 31 42 25 43
REMARK SMILES IDX 26 44 30 45 27 47 29 48 28 49 39 50 40 51 41 52 42 53 43 54
REMARK SMILES IDX 44 55 45 56 46 57 47 58 48 59 49 60 50 61 96 62 51 63 95 64
REMARK SMILES IDX 52 65 53 66 54 67 89 68 55 69 94 70 88 71 90 72 56 73 93 74
REMARK SMILES IDX 87 75 86 76 57 78 79 79 64 80 78 81 65 82 68 83 77 84 91 85
REMARK SMILES IDX 66 86 67 87 76 89 92 90 69 91 58 92 59 93 63 94 60 95 62 96
REMARK SMILES IDX 61 97 80 98 81 99 85 100 82 101 84 102 83 103 70 104 71 105
REMARK SMILES IDX 75 106 72 107 74 108 73 109
REMARK H PARENT 20 12 16 17 25 46 90 77 68 88
REMARK Flexibility Score: inf
ROOT
ATOM      1  C   UNL A   1      33.922  30.869  27.256  1.00  0.00     0.188 C 
ENDROOT
BRANCH   1   2
ATOM      2  O   UNL A   1      32.735  30.276  26.761  1.00  0.00    -0.376 OA
BRANCH   2   3
ATOM      3  C   UNL A   1      32.659  28.877  26.688  1.00  0.00     0.202 C 
BRANCH   3   4
ATOM      4  C   UNL A   1      33.838  28.323  25.890  1.00  0.00     0.261 C 
BRANCH   4   5
ATOM      5  O   UNL A   1      34.087  26.914  26.140  1.00  0.00    -0.462 OA
BRANCH   5   6
ATOM      6  C   UNL A   1      33.237  26.115  25.485  1.00  0.00     0.329 C 
ATOM      7  O   UNL A   1      32.487  25.336  26.057  1.00  0.00    -0.250 OA
BRANCH   6   8
ATOM      8  C   UNL A   1      33.119  26.275  23.982  1.00  0.00     0.196 C 
BRANCH   8   9
ATOM      9  N   UNL A   1      34.141  25.509  23.276  1.00  0.00    -0.341 N 
ATOM     10  C   UNL A   1      34.467  24.182  23.401  1.00  0.00     0.240 C 
ATOM     11  O   UNL A   1      35.319  23.744  22.617  1.00  0.00    -0.273 OA
ATOM     12  H   UNL A   1      34.670  26.016  22.617  1.00  0.00     0.164 HD
BRANCH  10  13
ATOM     13  C   UNL A   1      33.658  23.180  24.305  1.00  0.00     0.216 C 
BRANCH  13  14
ATOM     14  N   UNL A   1      34.267  21.890  24.617  1.00  0.00    -0.340 N 
ATOM     15  C   UNL A   1      35.471  21.578  25.254  1.00  0.00     0.292 C 
ATOM     16  O   UNL A   1      35.880  20.419  25.189  1.00  0.00    -0.265 OA
ATOM     17  H   UNL A   1      33.741  21.109  24.329  1.00  0.00     0.164 HD
BRANCH  15  18
ATOM     18  C   UNL A   1      36.294  22.631  26.040  1.00  0.00     0.252 C 
ATOM     19  O   UNL A   1      35.644  23.555  26.535  1.00  0.00    -0.283 OA
BRANCH  18  20
ATOM     20  C   UNL A   1      37.786  22.574  26.144  1.00  0.00     0.054 A 
ATOM     21  N   UNL A   1      39.999  22.106  25.875  1.00  0.00    -0.240 N 
ATOM     22  C   UNL A   1      38.710  21.585  25.754  1.00  0.00     0.117 A 
ATOM     23  C   UNL A   1      39.871  23.466  26.206  1.00  0.00     0.065 A 
ATOM     24  C   UNL A   1      38.581  23.640  26.695  1.00  0.00     0.012 A 
ATOM     25  C   UNL A   1      40.846  24.481  26.334  1.00  0.00     0.028 A 
ATOM     26  C   UNL A   1      38.329  24.792  27.479  1.00  0.00     0.011 A 
ATOM     27  C   UNL A   1      40.596  25.568  27.158  1.00  0.00     0.002 A 
ATOM     28  C   UNL A   1      39.355  25.710  27.750  1.00  0.00     0.001 A 
BRANCH  21  29
ATOM     29  S   UNL A   1      41.363  21.415  26.702  1.00  0.00     0.268 S 
ATOM     30  O   UNL A   1      41.748  20.332  25.809  1.00  0.00    -0.201 OA
ATOM     31  O   UNL A   1      40.779  21.132  28.004  1.00  0.00    -0.201 OA
BRANCH  29  32
ATOM     32  C   UNL A   1      42.888  22.065  27.287  1.00  0.00     0.088 A 
ATOM     33  C   UNL A   1      45.367  24.924  29.382  1.00  0.00     0.044 C 
ATOM     34  C   UNL A   1      44.605  23.844  28.666  1.00  0.00    -0.051 A 
ATOM     35  C   UNL A   1      43.521  23.295  29.329  1.00  0.00     0.005 A 
ATOM     36  C   UNL A   1      44.857  23.451  27.329  1.00  0.00     0.005 A 
ATOM     37  C   UNL A   1      42.710  22.400  28.661  1.00  0.00     0.022 A 
ATOM     38  C   UNL A   1      43.988  22.572  26.618  1.00  0.00     0.022 A 
ENDBRANCH  29  32
ENDBRANCH  21  29
ENDBRANCH  18  20
ENDBRANCH  15  18
ENDBRANCH  13  14
ENDBRANCH  10  13
ENDBRANCH   8   9
BRANCH   8  39
ATOM     39  C   UNL A   1      31.733  26.370  23.353  1.00  0.00     0.074 C 
BRANCH  39  40
ATOM     40  C   UNL A   1      31.190  27.692  22.937  1.00  0.00    -0.020 A 
ATOM     41  C   UNL A   1      31.873  28.687  22.283  1.00  0.00     0.087 A 
ATOM     42  C   UNL A   1      29.825  28.125  23.002  1.00  0.00     0.003 A 
ATOM     43  N   UNL A   1      31.012  29.705  21.982  1.00  0.00    -0.361 N 
ATOM     44  C   UNL A   1      29.751  29.391  22.419  1.00  0.00     0.046 A 
ATOM     45  C   UNL A   1      28.636  27.539  23.480  1.00  0.00     0.010 A 
ATOM     46  H   UNL A   1      31.260  30.538  21.521  1.00  0.00     0.166 HD
ATOM     47  C   UNL A   1      28.559  30.117  22.323  1.00  0.00     0.026 A 
ATOM     48  C   UNL A   1      27.430  28.240  23.372  1.00  0.00     0.001 A 
ATOM     49  C   UNL A   1      27.396  29.514  22.811  1.00  0.00     0.002 A 
ENDBRANCH  39  40
ENDBRANCH   8  39
ENDBRANCH   6   8
ENDBRANCH   5   6
ENDBRANCH   4   5
ENDBRANCH   3   4
ENDBRANCH   2   3
ENDBRANCH   1   2
BRANCH   1  50
ATOM     50  C   UNL A   1      33.825  31.968  28.322  1.00  0.00     0.188 C 
BRANCH  50  51
ATOM     51  O   UNL A   1      34.103  33.330  28.063  1.00  0.00    -0.377 OA
BRANCH  51  52
ATOM     52  C   UNL A   1      33.019  34.225  28.109  1.00  0.00     0.188 C 
BRANCH  52  53
ATOM     53  C   UNL A   1      33.232  35.459  28.951  1.00  0.00     0.188 C 
BRANCH  53  54
ATOM     54  O   UNL A   1      32.783  35.168  30.271  1.00  0.00    -0.376 OA
BRANCH  54  55
ATOM     55  C   UNL A   1      32.983  36.217  31.211  1.00  0.00     0.202 C 
BRANCH  55  56
ATOM     56  C   UNL A   1      34.085  35.911  32.237  1.00  0.00     0.261 C 
BRANCH  56  57
ATOM     57  O   UNL A   1      34.805  34.742  31.794  1.00  0.00    -0.460 OA
BRANCH  57  58
ATOM     58  C   UNL A   1      34.872  33.712  32.687  1.00  0.00     0.338 C 
ATOM     59  O   UNL A   1      33.930  33.125  33.162  1.00  0.00    -0.246 OA
BRANCH  58  60
ATOM     60  C   UNL A   1      36.269  33.611  33.222  1.00  0.00     0.060 A 
ATOM     61  C   UNL A   1      37.348  33.961  32.394  1.00  0.00     0.016 A 
ATOM     62  C   UNL A   1      36.504  32.885  34.385  1.00  0.00     0.016 A 
ATOM     63  C   UNL A   1      38.627  33.436  32.638  1.00  0.00     0.010 A 
ATOM     64  C   UNL A   1      37.746  32.308  34.578  1.00  0.00     0.010 A 
ATOM     65  C   UNL A   1      38.803  32.520  33.676  1.00  0.00    -0.014 A 
BRANCH  65  66
ATOM     66  C   UNL A   1      39.926  31.559  33.777  1.00  0.00     0.031 A 
ATOM     67  C   UNL A   1      41.035  31.821  34.744  1.00  0.00     0.074 A 
ATOM     68  C   UNL A   1      39.714  30.315  33.281  1.00  0.00     0.049 A 
ATOM     69  N   UNL A   1      41.988  31.005  35.040  1.00  0.00    -0.248 NA
ATOM     70  C   UNL A   1      41.132  33.067  35.503  1.00  0.00     0.031 C 
ATOM     71  C   UNL A   1      40.324  29.049  33.684  1.00  0.00     0.029 A 
ATOM     72  N   UNL A   1      38.819  29.890  32.322  1.00  0.00    -0.354 N 
ATOM     73  C   UNL A   1      42.685  31.499  36.129  1.00  0.00     0.074 A 
ATOM     74  C   UNL A   1      42.120  32.803  36.362  1.00  0.00     0.031 C 
ATOM     75  C   UNL A   1      39.800  28.038  32.977  1.00  0.00     0.029 A 
ATOM     76  C   UNL A   1      39.173  28.635  31.842  1.00  0.00     0.049 A 
ATOM     77  H   UNL A   1      38.036  30.404  32.018  1.00  0.00     0.167 HD
ATOM     78  C   UNL A   1      43.631  30.726  36.746  1.00  0.00     0.031 A 
ATOM     79  C   UNL A   1      39.706  28.505  30.591  1.00  0.00     0.031 A 
ATOM     80  C   UNL A   1      43.884  29.485  35.995  1.00  0.00     0.049 A 
ATOM     81  C   UNL A   1      41.247  28.324  30.647  1.00  0.00     0.074 A 
ATOM     82  C   UNL A   1      43.871  28.136  36.299  1.00  0.00     0.029 A 
ATOM     83  N   UNL A   1      44.028  29.559  34.606  1.00  0.00    -0.354 N 
ATOM     84  N   UNL A   1      41.982  28.623  31.707  1.00  0.00    -0.248 NA
ATOM     85  C   UNL A   1      42.075  27.661  29.638  1.00  0.00     0.031 C 
ATOM     86  C   UNL A   1      43.821  27.421  35.064  1.00  0.00     0.029 A 
ATOM     87  C   UNL A   1      43.882  28.326  34.005  1.00  0.00     0.049 A 
ATOM     88  H   UNL A   1      44.213  30.393  34.116  1.00  0.00     0.167 HD
ATOM     89  C   UNL A   1      43.260  28.147  31.599  1.00  0.00     0.074 A 
ATOM     90  C   UNL A   1      43.274  27.581  30.256  1.00  0.00     0.031 C 
ATOM     91  C   UNL A   1      44.219  28.175  32.586  1.00  0.00     0.031 A 
BRANCH  78  92
ATOM     92  C   UNL A   1      44.275  31.023  38.099  1.00  0.00    -0.014 A 
ATOM     93  C   UNL A   1      44.004  32.242  38.758  1.00  0.00     0.009 A 
ATOM     94  C   UNL A   1      45.222  30.203  38.744  1.00  0.00     0.009 A 
ATOM     95  C   UNL A   1      44.639  32.616  39.957  1.00  0.00     0.001 A 
ATOM     96  C   UNL A   1      45.845  30.556  39.956  1.00  0.00     0.001 A 
ATOM     97  C   UNL A   1      45.556  31.768  40.562  1.00  0.00     0.000 A 
ENDBRANCH  78  92
BRANCH  79  98
ATOM     98  C   UNL A   1      38.676  28.997  29.599  1.00  0.00    -0.014 A 
ATOM     99  C   UNL A   1      37.348  28.870  30.097  1.00  0.00     0.009 A 
ATOM    100  C   UNL A   1      38.948  30.149  28.830  1.00  0.00     0.009 A 
ATOM    101  C   UNL A   1      36.480  29.976  30.147  1.00  0.00     0.001 A 
ATOM    102  C   UNL A   1      38.046  31.241  28.841  1.00  0.00     0.001 A 
ATOM    103  C   UNL A   1      36.856  31.181  29.568  1.00  0.00     0.000 A 
ENDBRANCH  79  98
BRANCH  91 104
ATOM    104  C   UNL A   1      45.715  28.115  32.322  1.00  0.00    -0.014 A 
ATOM    105  C   UNL A   1      46.479  26.971  32.555  1.00  0.00     0.009 A 
ATOM    106  C   UNL A   1      46.328  29.138  31.550  1.00  0.00     0.009 A 
ATOM    107  C   UNL A   1      47.783  26.862  32.058  1.00  0.00     0.001 A 
ATOM    108  C   UNL A   1      47.601  29.009  31.004  1.00  0.00     0.001 A 
ATOM    109  C   UNL A   1      48.335  27.866  31.268  1.00  0.00     0.000 A 
ENDBRANCH  91 104
ENDBRANCH  65  66
ENDBRANCH  58  60
ENDBRANCH  57  58
ENDBRANCH  56  57
ENDBRANCH  55  56
ENDBRANCH  54  55
ENDBRANCH  53  54
ENDBRANCH  52  53
ENDBRANCH  51  52
ENDBRANCH  50  51
ENDBRANCH   1  50
TORSDOF 29
ENDMDL
MODEL 2
REMARK VINA RESULT:      -9.6      2.925      4.362
REMARK SMILES Cc1ccc(S(=O)(=O)n2cc(C(=O)C(=O)NCC(=O)N[C@@H](Cc3c[nH]c4ccccc34)C(=O)OCCOCCOCCOCCOC(=O)c3ccc(-c4c5nc(c(-c6ccccc6)c6ccc([nH]6)c(-c6ccccc6)c6nc(c(-c7ccccc7)c7ccc4[nH]7)C=C6)C=C5)cc3)c3ccccc32)cc1
REMARK SMILES IDX 38 1 37 2 36 3 35 4 34 5 32 6 33 7 21 8 20 9 18 10 19 11
REMARK SMILES IDX 17 13 16 14 14 15 15 16 12 18 13 19 11 20 9 21 10 22 102 23
REMARK SMILES IDX 97 24 101 25 98 26 100 27 99 28 6 29 7 30 8 31 5 32 1 33
REMARK SMILES IDX 2 34 3 35 104 36 4 37 103 38 22 39 23 40 24 41 31 42 25 43
REMARK SMILES IDX 26 44 30 45 27 47 29 48 28 49 39 50 40 51 41 52 42 53 43 54
REMARK SMILES IDX 44 55 45 56 46 57 47 58 48 59 49 60 50 61 96 62 51 63 95 64
REMARK SMILES IDX 52 65 53 66 54 67 89 68 55 69 94 70 88 71 90 72 56 73 93 74
REMARK SMILES IDX 87 75 86 76 57 78 79 79 64 80 78 81 65 82 68 83 77 84 91 85
REMARK SMILES IDX 66 86 67 87 76 89 92 90 69 91 58 92 59 93 63 94 60 95 62 96
REMARK SMILES IDX 61 97 80 98 81 99 85 100 82 101 84 102 83 103 70 104 71 105
REMARK SMILES IDX 75 106 72 107 74 108 73 109
REMARK H PARENT 20 12 16 17 25 46 90 77 68 88
REMARK Flexibility Score: inf
ROOT
ATOM      1  C   UNL A   1      34.503  30.414  27.426  1.00  0.00     0.188 C 
ENDROOT
BRANCH   1   2
ATOM      2  O   UNL A   1      33.113  30.181  27.285  1.00  0.00    -0.376 OA
BRANCH   2   3
ATOM      3  C   UNL A   1      32.643  28.860  27.323  1.00  0.00     0.202 C 
BRANCH   3   4
ATOM      4  C   UNL A   1      33.203  28.063  26.146  1.00  0.00     0.261 C 
BRANCH   4   5
ATOM      5  O   UNL A   1      33.483  26.676  26.476  1.00  0.00    -0.462 OA
BRANCH   5   6
ATOM      6  C   UNL A   1      32.975  25.820  25.582  1.00  0.00     0.329 C 
ATOM      7  O   UNL A   1      32.238  24.895  25.894  1.00  0.00    -0.250 OA
BRANCH   6   8
ATOM      8  C   UNL A   1      33.232  26.086  24.111  1.00  0.00     0.196 C 
BRANCH   8   9
ATOM      9  N   UNL A   1      34.426  25.393  23.637  1.00  0.00    -0.341 N 
ATOM     10  C   UNL A   1      34.655  24.045  23.526  1.00  0.00     0.240 C 
ATOM     11  O   UNL A   1      35.726  23.706  23.006  1.00  0.00    -0.273 OA
ATOM     12  H   UNL A   1      35.171  25.975  23.360  1.00  0.00     0.164 HD
BRANCH  10  13
ATOM     13  C   UNL A   1      33.550  22.959  23.799  1.00  0.00     0.216 C 
BRANCH  13  14
ATOM     14  N   UNL A   1      33.617  22.208  25.049  1.00  0.00    -0.340 N 
ATOM     15  C   UNL A   1      34.636  22.105  26.000  1.00  0.00     0.292 C 
ATOM     16  O   UNL A   1      34.549  21.222  26.852  1.00  0.00    -0.265 OA
ATOM     17  H   UNL A   1      32.808  21.687  25.257  1.00  0.00     0.164 HD
BRANCH  15  18
ATOM     18  C   UNL A   1      35.856  23.062  26.019  1.00  0.00     0.252 C 
ATOM     19  O   UNL A   1      35.590  24.266  25.995  1.00  0.00    -0.283 OA
BRANCH  18  20
ATOM     20  C   UNL A   1      37.269  22.568  26.006  1.00  0.00     0.054 A 
ATOM     21  N   UNL A   1      39.225  21.495  25.546  1.00  0.00    -0.240 N 
ATOM     22  C   UNL A   1      37.834  21.379  25.504  1.00  0.00     0.117 A 
ATOM     23  C   UNL A   1      39.523  22.811  25.941  1.00  0.00     0.065 A 
ATOM     24  C   UNL A   1      38.374  23.320  26.536  1.00  0.00     0.012 A 
ATOM     25  C   UNL A   1      40.759  23.488  26.035  1.00  0.00     0.028 A 
ATOM     26  C   UNL A   1      38.521  24.445  27.383  1.00  0.00     0.011 A 
ATOM     27  C   UNL A   1      40.892  24.549  26.919  1.00  0.00     0.002 A 
ATOM     28  C   UNL A   1      39.787  25.008  27.611  1.00  0.00     0.001 A 
BRANCH  21  29
ATOM     29  S   UNL A   1      40.374  20.388  26.236  1.00  0.00     0.268 S 
ATOM     30  O   UNL A   1      39.798  19.096  25.896  1.00  0.00    -0.201 OA
ATOM     31  O   UNL A   1      40.404  20.849  27.615  1.00  0.00    -0.201 OA
BRANCH  29  32
ATOM     32  C   UNL A   1      42.107  20.159  26.047  1.00  0.00     0.088 A 
ATOM     33  C   UNL A   1      46.061  21.241  24.668  1.00  0.00     0.044 C 
ATOM     34  C   UNL A   1      44.746  20.788  25.237  1.00  0.00    -0.051 A 
ATOM     35  C   UNL A   1      44.010  21.725  25.941  1.00  0.00     0.005 A 
ATOM     36  C   UNL A   1      44.174  19.515  24.995  1.00  0.00     0.005 A 
ATOM     37  C   UNL A   1      42.737  21.398  26.364  1.00  0.00     0.022 A 
ATOM     38  C   UNL A   1      42.840  19.194  25.379  1.00  0.00     0.022 A 
ENDBRANCH  29  32
ENDBRANCH  21  29
ENDBRANCH  18  20
ENDBRANCH  15  18
ENDBRANCH  13  14
ENDBRANCH  10  13
ENDBRANCH   8   9
BRANCH   8  39
ATOM     39  C   UNL A   1      32.046  26.200  23.160  1.00  0.00     0.074 C 
BRANCH  39  40
ATOM     40  C   UNL A   1      31.412  27.524  22.910  1.00  0.00    -0.020 A 
ATOM     41  C   UNL A   1      32.015  28.627  22.359  1.00  0.00     0.087 A 
ATOM     42  C   UNL A   1      30.027  27.859  23.056  1.00  0.00     0.003 A 
ATOM     43  N   UNL A   1      31.085  29.616  22.196  1.00  0.00    -0.361 N 
ATOM     44  C   UNL A   1      29.859  29.176  22.623  1.00  0.00     0.046 A 
ATOM     45  C   UNL A   1      28.890  27.150  23.491  1.00  0.00     0.010 A 
ATOM     46  H   UNL A   1      31.269  30.510  21.827  1.00  0.00     0.166 HD
ATOM     47  C   UNL A   1      28.623  29.832  22.638  1.00  0.00     0.026 A 
ATOM     48  C   UNL A   1      27.641  27.781  23.492  1.00  0.00     0.001 A 
ATOM     49  C   UNL A   1      27.514  29.106  23.081  1.00  0.00     0.002 A 
ENDBRANCH  39  40
ENDBRANCH   8  39
ENDBRANCH   6   8
ENDBRANCH   5   6
ENDBRANCH   4   5
ENDBRANCH   3   4
ENDBRANCH   2   3
ENDBRANCH   1   2
BRANCH   1  50
ATOM     50  C   UNL A   1      34.983  31.608  28.260  1.00  0.00     0.188 C 
BRANCH  50  51
ATOM     51  O   UNL A   1      34.709  32.954  27.924  1.00  0.00    -0.377 OA
BRANCH  51  52
ATOM     52  C   UNL A   1      33.377  33.388  28.052  1.00  0.00     0.188 C 
BRANCH  52  53
ATOM     53  C   UNL A   1      33.200  34.852  28.372  1.00  0.00     0.188 C 
BRANCH  53  54
ATOM     54  O   UNL A   1      34.105  35.180  29.421  1.00  0.00    -0.376 OA
BRANCH  54  55
ATOM     55  C   UNL A   1      33.484  35.597  30.632  1.00  0.00     0.202 C 
BRANCH  55  56
ATOM     56  C   UNL A   1      33.892  34.751  31.847  1.00  0.00     0.261 C 
BRANCH  56  57
ATOM     57  O   UNL A   1      35.066  33.990  31.496  1.00  0.00    -0.460 OA
BRANCH  57  58
ATOM     58  C   UNL A   1      36.111  34.071  32.370  1.00  0.00     0.338 C 
ATOM     59  O   UNL A   1      36.025  34.244  33.562  1.00  0.00    -0.246 OA
BRANCH  58  60
ATOM     60  C   UNL A   1      37.389  34.217  31.600  1.00  0.00     0.060 A 
ATOM     61  C   UNL A   1      37.461  33.720  30.289  1.00  0.00     0.016 A 
ATOM     62  C   UNL A   1      38.561  34.539  32.277  1.00  0.00     0.016 A 
ATOM     63  C   UNL A   1      38.702  33.382  29.726  1.00  0.00     0.010 A 
ATOM     64  C   UNL A   1      39.774  34.132  31.751  1.00  0.00     0.010 A 
ATOM     65  C   UNL A   1      39.856  33.491  30.503  1.00  0.00    -0.014 A 
BRANCH  65  66
ATOM     66  C   UNL A   1      41.125  32.773  30.240  1.00  0.00     0.031 A 
ATOM     67  C   UNL A   1      42.267  33.502  29.606  1.00  0.00     0.074 A 
ATOM     68  C   UNL A   1      41.330  31.621  30.925  1.00  0.00     0.049 A 
ATOM     69  N   UNL A   1      43.464  33.048  29.459  1.00  0.00    -0.248 NA
ATOM     70  C   UNL A   1      42.136  34.867  29.100  1.00  0.00     0.031 C 
ATOM     71  C   UNL A   1      42.591  31.000  31.323  1.00  0.00     0.029 A 
ATOM     72  N   UNL A   1      40.414  30.760  31.494  1.00  0.00    -0.354 N 
ATOM     73  C   UNL A   1      44.290  34.078  29.044  1.00  0.00     0.074 A 
ATOM     74  C   UNL A   1      43.402  35.187  28.814  1.00  0.00     0.031 C 
ATOM     75  C   UNL A   1      42.356  29.888  32.035  1.00  0.00     0.029 A 
ATOM     76  C   UNL A   1      41.001  29.530  31.766  1.00  0.00     0.049 A 
ATOM     77  H   UNL A   1      39.474  30.985  31.682  1.00  0.00     0.167 HD
ATOM     78  C   UNL A   1      45.644  33.891  28.990  1.00  0.00     0.031 A 
ATOM     79  C   UNL A   1      40.696  28.442  31.000  1.00  0.00     0.031 A 
ATOM     80  C   UNL A   1      46.004  32.484  29.234  1.00  0.00     0.049 A 
ATOM     81  C   UNL A   1      41.819  28.142  29.970  1.00  0.00     0.074 A 
ATOM     82  C   UNL A   1      46.846  31.826  30.111  1.00  0.00     0.029 A 
ATOM     83  N   UNL A   1      45.266  31.483  28.595  1.00  0.00    -0.354 N 
ATOM     84  N   UNL A   1      42.751  29.017  29.627  1.00  0.00    -0.248 NA
ATOM     85  C   UNL A   1      42.113  26.839  29.368  1.00  0.00     0.031 C 
ATOM     86  C   UNL A   1      46.467  30.449  30.115  1.00  0.00     0.029 A 
ATOM     87  C   UNL A   1      45.447  30.250  29.186  1.00  0.00     0.049 A 
ATOM     88  H   UNL A   1      44.686  31.640  27.814  1.00  0.00     0.167 HD
ATOM     89  C   UNL A   1      43.757  28.440  28.901  1.00  0.00     0.074 A 
ATOM     90  C   UNL A   1      43.284  27.072  28.736  1.00  0.00     0.031 C 
ATOM     91  C   UNL A   1      44.931  29.050  28.518  1.00  0.00     0.031 A 
BRANCH  78  92
ATOM     92  C   UNL A   1      46.687  34.995  28.819  1.00  0.00    -0.014 A 
ATOM     93  C   UNL A   1      46.559  35.930  27.770  1.00  0.00     0.009 A 
ATOM     94  C   UNL A   1      47.861  35.128  29.587  1.00  0.00     0.009 A 
ATOM     95  C   UNL A   1      47.534  36.910  27.501  1.00  0.00     0.001 A 
ATOM     96  C   UNL A   1      48.831  36.119  29.343  1.00  0.00     0.001 A 
ATOM     97  C   UNL A   1      48.668  37.009  28.294  1.00  0.00     0.000 A 
ENDBRANCH  78  92
BRANCH  79  98
ATOM     98  C   UNL A   1      39.214  28.178  31.141  1.00  0.00    -0.014 A 
ATOM     99  C   UNL A   1      38.784  28.253  32.496  1.00  0.00     0.009 A 
ATOM    100  C   UNL A   1      38.323  28.688  30.174  1.00  0.00     0.009 A 
ATOM    101  C   UNL A   1      37.732  29.105  32.881  1.00  0.00     0.001 A 
ATOM    102  C   UNL A   1      37.234  29.503  30.567  1.00  0.00     0.001 A 
ATOM    103  C   UNL A   1      36.994  29.777  31.914  1.00  0.00     0.000 A 
ENDBRANCH  79  98
BRANCH  91 104
ATOM    104  C   UNL A   1      45.780  28.600  27.341  1.00  0.00    -0.014 A 
ATOM    105  C   UNL A   1      47.101  28.174  27.481  1.00  0.00     0.009 A 
ATOM    106  C   UNL A   1      45.154  28.322  26.096  1.00  0.00     0.009 A 
ATOM    107  C   UNL A   1      47.763  27.520  26.434  1.00  0.00     0.001 A 
ATOM    108  C   UNL A   1      45.789  27.620  25.075  1.00  0.00     0.001 A 
ATOM    109  C   UNL A   1      47.103  27.225  25.244  1.00  0.00     0.000 A 
ENDBRANCH  91 104
ENDBRANCH  65  66
ENDBRANCH  58  60
ENDBRANCH  57  58
ENDBRANCH  56  57
ENDBRANCH  55  56
ENDBRANCH  54  55
ENDBRANCH  53  54
ENDBRANCH  52  53
ENDBRANCH  51  52
ENDBRANCH  50  51
ENDBRANCH   1  50
TORSDOF 29
ENDMDL
MODEL 3
REMARK VINA RESULT:      -9.5      3.302      8.791
REMARK SMILES Cc1ccc(S(=O)(=O)n2cc(C(=O)C(=O)NCC(=O)N[C@@H](Cc3c[nH]c4ccccc34)C(=O)OCCOCCOCCOCCOC(=O)c3ccc(-c4c5nc(c(-c6ccccc6)c6ccc([nH]6)c(-c6ccccc6)c6nc(c(-c7ccccc7)c7ccc4[nH]7)C=C6)C=C5)cc3)c3ccccc32)cc1
REMARK SMILES IDX 38 1 37 2 36 3 35 4 34 5 32 6 33 7 21 8 20 9 18 10 19 11
REMARK SMILES IDX 17 13 16 14 14 15 15 16 12 18 13 19 11 20 9 21 10 22 102 23
REMARK SMILES IDX 97 24 101 25 98 26 100 27 99 28 6 29 7 30 8 31 5 32 1 33
REMARK SMILES IDX 2 34 3 35 104 36 4 37 103 38 22 39 23 40 24 41 31 42 25 43
REMARK SMILES IDX 26 44 30 45 27 47 29 48 28 49 39 50 40 51 41 52 42 53 43 54
REMARK SMILES IDX 44 55 45 56 46 57 47 58 48 59 49 60 50 61 96 62 51 63 95 64
REMARK SMILES IDX 52 65 53 66 54 67 89 68 55 69 94 70 88 71 90 72 56 73 93 74
REMARK SMILES IDX 87 75 86 76 57 78 79 79 64 80 78 81 65 82 68 83 77 84 91 85
REMARK SMILES IDX 66 86 67 87 76 89 92 90 69 91 58 92 59 93 63 94 60 95 62 96
REMARK SMILES IDX 61 97 80 98 81 99 85 100 82 101 84 102 83 103 70 104 71 105
REMARK SMILES IDX 75 106 72 107 74 108 73 109
REMARK H PARENT 20 12 16 17 25 46 90 77 68 88
REMARK Flexibility Score: inf
ROOT
ATOM      1  C   UNL A   1      39.160  29.636  28.368  1.00  0.00     0.188 C 
ENDROOT
BRANCH   1   2
ATOM      2  O   UNL A   1      39.731  28.494  28.982  1.00  0.00    -0.376 OA
BRANCH   2   3
ATOM      3  C   UNL A   1      39.353  27.223  28.524  1.00  0.00     0.202 C 
BRANCH   3   4
ATOM      4  C   UNL A   1      40.423  26.192  28.879  1.00  0.00     0.261 C 
BRANCH   4   5
ATOM      5  O   UNL A   1      40.954  25.497  27.719  1.00  0.00    -0.462 OA
BRANCH   5   6
ATOM      6  C   UNL A   1      41.716  24.447  28.050  1.00  0.00     0.329 C 
ATOM      7  O   UNL A   1      41.918  24.115  29.210  1.00  0.00    -0.250 OA
BRANCH   6   8
ATOM      8  C   UNL A   1      42.246  23.568  26.934  1.00  0.00     0.196 C 
BRANCH   8   9
ATOM      9  N   UNL A   1      41.696  22.218  27.001  1.00  0.00    -0.341 N 
ATOM     10  C   UNL A   1      40.392  21.809  26.871  1.00  0.00     0.240 C 
ATOM     11  O   UNL A   1      40.190  20.588  26.877  1.00  0.00    -0.273 OA
ATOM     12  H   UNL A   1      42.351  21.501  27.163  1.00  0.00     0.164 HD
BRANCH  10  13
ATOM     13  C   UNL A   1      39.219  22.785  26.486  1.00  0.00     0.216 C 
BRANCH  13  14
ATOM     14  N   UNL A   1      38.604  22.635  25.171  1.00  0.00    -0.340 N 
ATOM     15  C   UNL A   1      37.261  22.626  24.785  1.00  0.00     0.292 C 
ATOM     16  O   UNL A   1      36.983  22.247  23.648  1.00  0.00    -0.265 OA
ATOM     17  H   UNL A   1      39.243  22.521  24.431  1.00  0.00     0.164 HD
BRANCH  15  18
ATOM     18  C   UNL A   1      36.121  23.083  25.732  1.00  0.00     0.252 C 
ATOM     19  O   UNL A   1      36.269  22.795  26.923  1.00  0.00    -0.283 OA
BRANCH  18  20
ATOM     20  C   UNL A   1      34.888  23.772  25.237  1.00  0.00     0.054 A 
ATOM     21  N   UNL A   1      33.359  25.284  24.483  1.00  0.00    -0.240 N 
ATOM     22  C   UNL A   1      34.505  25.128  25.265  1.00  0.00     0.117 A 
ATOM     23  C   UNL A   1      33.111  24.051  23.855  1.00  0.00     0.065 A 
ATOM     24  C   UNL A   1      33.812  23.088  24.571  1.00  0.00     0.012 A 
ATOM     25  C   UNL A   1      32.155  23.688  22.880  1.00  0.00     0.028 A 
ATOM     26  C   UNL A   1      33.410  21.738  24.418  1.00  0.00     0.011 A 
ATOM     27  C   UNL A   1      31.734  22.369  22.794  1.00  0.00     0.002 A 
ATOM     28  C   UNL A   1      32.336  21.404  23.577  1.00  0.00     0.001 A 
BRANCH  21  29
ATOM     29  S   UNL A   1      31.859  26.046  24.918  1.00  0.00     0.268 S 
ATOM     30  O   UNL A   1      32.307  27.168  25.728  1.00  0.00    -0.201 OA
ATOM     31  O   UNL A   1      31.149  24.930  25.523  1.00  0.00    -0.201 OA
BRANCH  29  32
ATOM     32  C   UNL A   1      30.506  26.685  23.994  1.00  0.00     0.088 A 
ATOM     33  C   UNL A   1      27.651  29.723  22.844  1.00  0.00     0.044 C 
ATOM     34  C   UNL A   1      28.619  28.609  23.127  1.00  0.00    -0.051 A 
ATOM     35  C   UNL A   1      29.964  28.935  23.138  1.00  0.00     0.005 A 
ATOM     36  C   UNL A   1      28.232  27.298  23.494  1.00  0.00     0.005 A 
ATOM     37  C   UNL A   1      30.881  27.979  23.528  1.00  0.00     0.022 A 
ATOM     38  C   UNL A   1      29.170  26.327  23.952  1.00  0.00     0.022 A 
ENDBRANCH  29  32
ENDBRANCH  21  29
ENDBRANCH  18  20
ENDBRANCH  15  18
ENDBRANCH  13  14
ENDBRANCH  10  13
ENDBRANCH   8   9
BRANCH   8  39
ATOM     39  C   UNL A   1      42.478  24.178  25.556  1.00  0.00     0.074 C 
BRANCH  39  40
ATOM     40  C   UNL A   1      43.276  25.428  25.417  1.00  0.00    -0.020 A 
ATOM     41  C   UNL A   1      42.817  26.646  24.982  1.00  0.00     0.087 A 
ATOM     42  C   UNL A   1      44.626  25.643  25.847  1.00  0.00     0.003 A 
ATOM     43  N   UNL A   1      43.817  27.571  25.090  1.00  0.00    -0.361 N 
ATOM     44  C   UNL A   1      44.941  26.982  25.610  1.00  0.00     0.046 A 
ATOM     45  C   UNL A   1      45.604  24.823  26.445  1.00  0.00     0.010 A 
ATOM     46  H   UNL A   1      43.741  28.518  24.834  1.00  0.00     0.166 HD
ATOM     47  C   UNL A   1      46.192  27.534  25.904  1.00  0.00     0.026 A 
ATOM     48  C   UNL A   1      46.853  25.363  26.767  1.00  0.00     0.001 A 
ATOM     49  C   UNL A   1      47.145  26.697  26.490  1.00  0.00     0.002 A 
ENDBRANCH  39  40
ENDBRANCH   8  39
ENDBRANCH   6   8
ENDBRANCH   5   6
ENDBRANCH   4   5
ENDBRANCH   3   4
ENDBRANCH   2   3
ENDBRANCH   1   2
BRANCH   1  50
ATOM     50  C   UNL A   1      37.972  30.335  29.040  1.00  0.00     0.188 C 
BRANCH  50  51
ATOM     51  O   UNL A   1      36.963  29.645  29.751  1.00  0.00    -0.377 OA
BRANCH  51  52
ATOM     52  C   UNL A   1      36.729  30.043  31.080  1.00  0.00     0.188 C 
BRANCH  52  53
ATOM     53  C   UNL A   1      36.367  31.496  31.267  1.00  0.00     0.188 C 
BRANCH  53  54
ATOM     54  O   UNL A   1      36.220  31.732  32.663  1.00  0.00    -0.376 OA
BRANCH  54  55
ATOM     55  C   UNL A   1      35.499  32.913  32.993  1.00  0.00     0.202 C 
BRANCH  55  56
ATOM     56  C   UNL A   1      36.368  33.988  33.663  1.00  0.00     0.261 C 
BRANCH  56  57
ATOM     57  O   UNL A   1      37.425  34.350  32.752  1.00  0.00    -0.460 OA
BRANCH  57  58
ATOM     58  C   UNL A   1      38.657  34.532  33.311  1.00  0.00     0.338 C 
ATOM     59  O   UNL A   1      38.896  35.186  34.298  1.00  0.00    -0.246 OA
BRANCH  58  60
ATOM     60  C   UNL A   1      39.710  34.053  32.358  1.00  0.00     0.060 A 
ATOM     61  C   UNL A   1      39.340  33.220  31.289  1.00  0.00     0.016 A 
ATOM     62  C   UNL A   1      41.051  34.162  32.710  1.00  0.00     0.016 A 
ATOM     63  C   UNL A   1      40.285  32.369  30.694  1.00  0.00     0.010 A 
ATOM     64  C   UNL A   1      41.961  33.268  32.175  1.00  0.00     0.010 A 
ATOM     65  C   UNL A   1      41.579  32.318  31.212  1.00  0.00    -0.014 A 
BRANCH  65  66
ATOM     66  C   UNL A   1      42.526  31.195  31.018  1.00  0.00     0.031 A 
ATOM     67  C   UNL A   1      42.680  30.167  32.092  1.00  0.00     0.074 A 
ATOM     68  C   UNL A   1      42.916  30.936  29.746  1.00  0.00     0.049 A 
ATOM     69  N   UNL A   1      43.348  29.069  31.997  1.00  0.00    -0.248 NA
ATOM     70  C   UNL A   1      42.035  30.299  33.398  1.00  0.00     0.031 C 
ATOM     71  C   UNL A   1      43.344  29.668  29.156  1.00  0.00     0.029 A 
ATOM     72  N   UNL A   1      42.946  31.768  28.646  1.00  0.00    -0.354 N 
ATOM     73  C   UNL A   1      43.076  28.276  33.098  1.00  0.00     0.074 A 
ATOM     74  C   UNL A   1      42.266  29.106  33.952  1.00  0.00     0.031 C 
ATOM     75  C   UNL A   1      43.595  29.828  27.849  1.00  0.00     0.029 A 
ATOM     76  C   UNL A   1      43.749  31.232  27.647  1.00  0.00     0.049 A 
ATOM     77  H   UNL A   1      42.464  32.625  28.578  1.00  0.00     0.167 HD
ATOM     78  C   UNL A   1      43.525  26.985  33.142  1.00  0.00     0.031 A 
ATOM     79  C   UNL A   1      44.973  31.778  27.385  1.00  0.00     0.031 A 
ATOM     80  C   UNL A   1      44.424  26.690  32.014  1.00  0.00     0.049 A 
ATOM     81  C   UNL A   1      46.116  30.933  28.010  1.00  0.00     0.074 A 
ATOM     82  C   UNL A   1      44.468  25.729  31.021  1.00  0.00     0.029 A 
ATOM     83  N   UNL A   1      45.411  27.624  31.682  1.00  0.00    -0.354 N 
ATOM     84  N   UNL A   1      45.926  30.034  28.962  1.00  0.00    -0.248 NA
ATOM     85  C   UNL A   1      47.502  30.879  27.542  1.00  0.00     0.031 C 
ATOM     86  C   UNL A   1      45.356  26.203  30.008  1.00  0.00     0.029 A 
ATOM     87  C   UNL A   1      45.915  27.413  30.416  1.00  0.00     0.049 A 
ATOM     88  H   UNL A   1      45.709  28.346  32.281  1.00  0.00     0.167 HD
ATOM     89  C   UNL A   1      47.033  29.257  29.166  1.00  0.00     0.074 A 
ATOM     90  C   UNL A   1      48.011  29.859  28.269  1.00  0.00     0.031 C 
ATOM     91  C   UNL A   1      47.107  28.153  29.985  1.00  0.00     0.031 A 
BRANCH  78  92
ATOM     92  C   UNL A   1      43.079  25.923  34.147  1.00  0.00    -0.014 A 
ATOM     93  C   UNL A   1      43.678  24.645  34.135  1.00  0.00     0.009 A 
ATOM     94  C   UNL A   1      42.023  26.071  35.069  1.00  0.00     0.009 A 
ATOM     95  C   UNL A   1      43.246  23.595  34.968  1.00  0.00     0.001 A 
ATOM     96  C   UNL A   1      41.600  25.036  35.924  1.00  0.00     0.001 A 
ATOM     97  C   UNL A   1      42.210  23.793  35.870  1.00  0.00     0.000 A 
ENDBRANCH  78  92
BRANCH  79  98
ATOM     98  C   UNL A   1      44.755  33.210  26.949  1.00  0.00    -0.014 A 
ATOM     99  C   UNL A   1      45.837  34.055  27.324  1.00  0.00     0.009 A 
ATOM    100  C   UNL A   1      44.162  33.472  25.696  1.00  0.00     0.009 A 
ATOM    101  C   UNL A   1      46.514  34.838  26.370  1.00  0.00     0.001 A 
ATOM    102  C   UNL A   1      44.821  34.303  24.757  1.00  0.00     0.001 A 
ATOM    103  C   UNL A   1      46.035  34.914  25.069  1.00  0.00     0.000 A 
ENDBRANCH  79  98
BRANCH  91 104
ATOM    104  C   UNL A   1      48.399  27.617  30.578  1.00  0.00    -0.014 A 
ATOM    105  C   UNL A   1      48.997  28.168  31.712  1.00  0.00     0.009 A 
ATOM    106  C   UNL A   1      48.883  26.347  30.162  1.00  0.00     0.009 A 
ATOM    107  C   UNL A   1      50.027  27.496  32.383  1.00  0.00     0.001 A 
ATOM    108  C   UNL A   1      49.865  25.650  30.860  1.00  0.00     0.001 A 
ATOM    109  C   UNL A   1      50.444  26.233  31.972  1.00  0.00     0.000 A 
ENDBRANCH  91 104
ENDBRANCH  65  66
ENDBRANCH  58  60
ENDBRANCH  57  58
ENDBRANCH  56  57
ENDBRANCH  55  56
ENDBRANCH  54  55
ENDBRANCH  53  54
ENDBRANCH  52  53
ENDBRANCH  51  52
ENDBRANCH  50  51
ENDBRANCH   1  50
TORSDOF 29
ENDMDL
