MODEL 1
REMARK VINA RESULT:      -9.8      0.000      0.000
REMARK SMILES O=C(OCCOCCOCCOCCOC(=O)c1cc(/C=C/c2cc(O)cc(O)c2)ccc1O)c1ccc(-c2c3nc(c(-c4ccccc4)c4ccc([nH]4)c(-c4ccccc4)c4nc(c(-c5ccccc5)c5ccc2[nH]5)C=C4)C=C3)cc1
REMARK SMILES IDX 10 1 9 2 8 3 7 4 6 5 5 6 4 7 3 8 2 9 1 10 35 11 36 12 82 13
REMARK SMILES IDX 37 14 81 15 38 16 39 17 40 18 75 19 41 20 80 21 74 22 76 23
REMARK SMILES IDX 42 24 79 25 73 26 72 27 43 29 65 30 50 31 64 32 51 33 54 34
REMARK SMILES IDX 63 35 77 36 52 37 53 38 62 40 78 41 55 42 44 43 45 44 49 45
REMARK SMILES IDX 46 46 48 47 47 48 66 49 67 50 71 51 68 52 70 53 69 54 56 55
REMARK SMILES IDX 57 56 61 57 58 58 60 59 59 60 11 61 12 62 13 63 14 64 15 65
REMARK SMILES IDX 16 66 17 67 18 68 19 69 33 70 20 71 32 72 31 73 34 74 21 76
REMARK SMILES IDX 22 77 23 78 24 79 30 80 25 81 28 82 27 83 26 84 29 86
REMARK H PARENT 76 28 54 39 34 75 26 85 29 87
REMARK Flexibility Score: inf
ROOT
ATOM      1  C   UNL A   1      30.604  27.917  24.090  1.00  0.00     0.188 C 
ENDROOT
BRANCH   1   2
ATOM      2  O   UNL A   1      31.353  27.659  25.272  1.00  0.00    -0.377 OA
BRANCH   2   3
ATOM      3  C   UNL A   1      31.515  28.746  26.179  1.00  0.00     0.188 C 
BRANCH   3   4
ATOM      4  C   UNL A   1      31.395  30.131  25.548  1.00  0.00     0.188 C 
BRANCH   4   5
ATOM      5  O   UNL A   1      32.034  31.119  26.363  1.00  0.00    -0.376 OA
BRANCH   5   6
ATOM      6  C   UNL A   1      33.020  30.624  27.268  1.00  0.00     0.202 C 
BRANCH   6   7
ATOM      7  C   UNL A   1      34.065  31.657  27.688  1.00  0.00     0.261 C 
BRANCH   7   8
ATOM      8  O   UNL A   1      34.409  31.552  29.073  1.00  0.00    -0.460 OA
BRANCH   8   9
ATOM      9  C   UNL A   1      35.616  31.776  29.648  1.00  0.00     0.338 C 
ATOM     10  O   UNL A   1      35.756  32.809  30.303  1.00  0.00    -0.246 OA
BRANCH   9  11
ATOM     11  C   UNL A   1      36.794  30.851  29.557  1.00  0.00     0.060 A 
ATOM     12  C   UNL A   1      37.373  30.131  30.607  1.00  0.00     0.016 A 
ATOM     13  C   UNL A   1      37.322  30.656  28.268  1.00  0.00     0.016 A 
ATOM     14  C   UNL A   1      38.466  29.293  30.413  1.00  0.00     0.010 A 
ATOM     15  C   UNL A   1      38.419  29.820  28.058  1.00  0.00     0.010 A 
ATOM     16  C   UNL A   1      39.013  29.168  29.143  1.00  0.00    -0.014 A 
BRANCH  16  17
ATOM     17  C   UNL A   1      40.347  28.567  29.010  1.00  0.00     0.031 A 
ATOM     18  C   UNL A   1      41.519  29.465  29.254  1.00  0.00     0.074 A 
ATOM     19  C   UNL A   1      40.492  27.259  28.756  1.00  0.00     0.049 A 
ATOM     20  N   UNL A   1      42.786  29.254  29.038  1.00  0.00    -0.248 NA
ATOM     21  C   UNL A   1      41.211  30.791  29.820  1.00  0.00     0.031 C 
ATOM     22  C   UNL A   1      39.402  26.288  28.660  1.00  0.00     0.029 A 
ATOM     23  N   UNL A   1      41.624  26.525  28.531  1.00  0.00    -0.354 N 
ATOM     24  C   UNL A   1      43.420  30.439  29.390  1.00  0.00     0.074 A 
ATOM     25  C   UNL A   1      42.404  31.358  29.844  1.00  0.00     0.031 C 
ATOM     26  C   UNL A   1      39.922  25.081  28.376  1.00  0.00     0.029 A 
ATOM     27  C   UNL A   1      41.364  25.219  28.200  1.00  0.00     0.049 A 
ATOM     28  H   UNL A   1      42.534  26.895  28.600  1.00  0.00     0.167 HD
ATOM     29  C   UNL A   1      44.736  30.734  29.307  1.00  0.00     0.031 A 
ATOM     30  C   UNL A   1      42.202  24.269  27.745  1.00  0.00     0.031 A 
ATOM     31  C   UNL A   1      45.708  29.795  28.823  1.00  0.00     0.049 A 
ATOM     32  C   UNL A   1      43.651  24.637  27.567  1.00  0.00     0.074 A 
ATOM     33  C   UNL A   1      47.063  29.969  28.623  1.00  0.00     0.029 A 
ATOM     34  N   UNL A   1      45.406  28.489  28.456  1.00  0.00    -0.354 N 
ATOM     35  N   UNL A   1      44.247  25.781  27.821  1.00  0.00    -0.248 NA
ATOM     36  C   UNL A   1      44.540  23.601  27.028  1.00  0.00     0.031 C 
ATOM     37  C   UNL A   1      47.570  28.781  28.087  1.00  0.00     0.029 A 
ATOM     38  C   UNL A   1      46.544  27.848  28.013  1.00  0.00     0.049 A 
ATOM     39  H   UNL A   1      44.512  28.081  28.505  1.00  0.00     0.167 HD
ATOM     40  C   UNL A   1      45.582  25.599  27.493  1.00  0.00     0.074 A 
ATOM     41  C   UNL A   1      45.709  24.229  27.028  1.00  0.00     0.031 C 
ATOM     42  C   UNL A   1      46.615  26.476  27.570  1.00  0.00     0.031 A 
BRANCH  29  43
ATOM     43  C   UNL A   1      45.133  32.145  29.635  1.00  0.00    -0.014 A 
ATOM     44  C   UNL A   1      45.230  33.140  28.647  1.00  0.00     0.009 A 
ATOM     45  C   UNL A   1      45.507  32.460  30.950  1.00  0.00     0.009 A 
ATOM     46  C   UNL A   1      45.752  34.398  28.960  1.00  0.00     0.001 A 
ATOM     47  C   UNL A   1      45.999  33.728  31.266  1.00  0.00     0.001 A 
ATOM     48  C   UNL A   1      46.138  34.690  30.269  1.00  0.00     0.000 A 
ENDBRANCH  29  43
BRANCH  30  49
ATOM     49  C   UNL A   1      41.669  22.933  27.370  1.00  0.00    -0.014 A 
ATOM     50  C   UNL A   1      40.776  22.783  26.300  1.00  0.00     0.009 A 
ATOM     51  C   UNL A   1      42.098  21.783  28.056  1.00  0.00     0.009 A 
ATOM     52  C   UNL A   1      40.324  21.513  25.927  1.00  0.00     0.001 A 
ATOM     53  C   UNL A   1      41.667  20.514  27.665  1.00  0.00     0.001 A 
ATOM     54  C   UNL A   1      40.776  20.380  26.603  1.00  0.00     0.000 A 
ENDBRANCH  30  49
BRANCH  42  55
ATOM     55  C   UNL A   1      47.974  25.967  27.194  1.00  0.00    -0.014 A 
ATOM     56  C   UNL A   1      48.487  26.153  25.903  1.00  0.00     0.009 A 
ATOM     57  C   UNL A   1      48.786  25.392  28.183  1.00  0.00     0.009 A 
ATOM     58  C   UNL A   1      49.793  25.757  25.608  1.00  0.00     0.001 A 
ATOM     59  C   UNL A   1      50.097  25.023  27.892  1.00  0.00     0.001 A 
ATOM     60  C   UNL A   1      50.599  25.203  26.602  1.00  0.00     0.000 A 
ENDBRANCH  42  55
ENDBRANCH  16  17
ENDBRANCH   9  11
ENDBRANCH   8   9
ENDBRANCH   7   8
ENDBRANCH   6   7
ENDBRANCH   5   6
ENDBRANCH   4   5
ENDBRANCH   3   4
ENDBRANCH   2   3
ENDBRANCH   1   2
BRANCH   1  61
ATOM     61  C   UNL A   1      31.344  27.978  22.735  1.00  0.00     0.188 C 
BRANCH  61  62
ATOM     62  O   UNL A   1      32.746  27.771  22.816  1.00  0.00    -0.376 OA
BRANCH  62  63
ATOM     63  C   UNL A   1      33.330  27.103  21.701  1.00  0.00     0.202 C 
BRANCH  63  64
ATOM     64  C   UNL A   1      32.724  25.742  21.338  1.00  0.00     0.261 C 
BRANCH  64  65
ATOM     65  O   UNL A   1      32.937  24.696  22.302  1.00  0.00    -0.460 OA
BRANCH  65  66
ATOM     66  C   UNL A   1      31.955  24.374  23.176  1.00  0.00     0.342 C 
ATOM     67  O   UNL A   1      30.757  24.354  22.950  1.00  0.00    -0.246 OA
BRANCH  66  68
ATOM     68  C   UNL A   1      32.613  23.763  24.361  1.00  0.00     0.102 A 
ATOM     69  C   UNL A   1      32.540  22.362  24.514  1.00  0.00     0.027 A 
ATOM     70  C   UNL A   1      33.455  24.511  25.190  1.00  0.00     0.130 A 
ATOM     71  C   UNL A   1      33.360  21.707  25.446  1.00  0.00    -0.025 A 
ATOM     72  C   UNL A   1      34.228  23.873  26.159  1.00  0.00     0.048 A 
ATOM     73  C   UNL A   1      34.183  22.481  26.278  1.00  0.00     0.012 A 
BRANCH  70  74
ATOM     74  O   UNL A   1      33.537  25.867  25.052  1.00  0.00    -0.507 OA
ATOM     75  H   UNL A   1      32.903  26.324  24.535  1.00  0.00     0.293 HD
ENDBRANCH  70  74
BRANCH  71  76
ATOM     76  C   UNL A   1      33.388  20.245  25.622  1.00  0.00     0.009 C 
ATOM     77  C   UNL A   1      33.563  19.333  24.649  1.00  0.00     0.009 C 
BRANCH  77  78
ATOM     78  C   UNL A   1      33.599  17.880  24.918  1.00  0.00    -0.018 A 
ATOM     79  C   UNL A   1      32.426  17.168  25.219  1.00  0.00     0.054 A 
ATOM     80  C   UNL A   1      34.810  17.175  24.825  1.00  0.00     0.054 A 
ATOM     81  C   UNL A   1      32.478  15.792  25.450  1.00  0.00     0.119 A 
ATOM     82  C   UNL A   1      34.837  15.797  25.059  1.00  0.00     0.119 A 
ATOM     83  C   UNL A   1      33.677  15.102  25.375  1.00  0.00     0.092 A 
BRANCH  81  84
ATOM     84  O   UNL A   1      31.352  15.083  25.752  1.00  0.00    -0.508 OA
ATOM     85  H   UNL A   1      30.509  15.423  25.526  1.00  0.00     0.293 HD
ENDBRANCH  81  84
BRANCH  82  86
ATOM     86  O   UNL A   1      35.996  15.080  24.988  1.00  0.00    -0.508 OA
ATOM     87  H   UNL A   1      36.360  14.698  25.762  1.00  0.00     0.293 HD
ENDBRANCH  82  86
ENDBRANCH  77  78
ENDBRANCH  71  76
ENDBRANCH  66  68
ENDBRANCH  65  66
ENDBRANCH  64  65
ENDBRANCH  63  64
ENDBRANCH  62  63
ENDBRANCH  61  62
ENDBRANCH   1  61
TORSDOF 25
ENDMDL
MODEL 2
REMARK VINA RESULT:      -9.5      4.390      9.645
REMARK SMILES O=C(OCCOCCOCCOCCOC(=O)c1cc(/C=C/c2cc(O)cc(O)c2)ccc1O)c1ccc(-c2c3nc(c(-c4ccccc4)c4ccc([nH]4)c(-c4ccccc4)c4nc(c(-c5ccccc5)c5ccc2[nH]5)C=C4)C=C3)cc1
REMARK SMILES IDX 10 1 9 2 8 3 7 4 6 5 5 6 4 7 3 8 2 9 1 10 35 11 36 12 82 13
REMARK SMILES IDX 37 14 81 15 38 16 39 17 40 18 75 19 41 20 80 21 74 22 76 23
REMARK SMILES IDX 42 24 79 25 73 26 72 27 43 29 65 30 50 31 64 32 51 33 54 34
REMARK SMILES IDX 63 35 77 36 52 37 53 38 62 40 78 41 55 42 44 43 45 44 49 45
REMARK SMILES IDX 46 46 48 47 47 48 66 49 67 50 71 51 68 52 70 53 69 54 56 55
REMARK SMILES IDX 57 56 61 57 58 58 60 59 59 60 11 61 12 62 13 63 14 64 15 65
REMARK SMILES IDX 16 66 17 67 18 68 19 69 33 70 20 71 32 72 31 73 34 74 21 76
REMARK SMILES IDX 22 77 23 78 24 79 30 80 25 81 28 82 27 83 26 84 29 86
REMARK H PARENT 76 28 54 39 34 75 26 85 29 87
REMARK Flexibility Score: inf
ROOT
ATOM      1  C   UNL A   1      38.403  22.517  26.016  1.00  0.00     0.188 C 
ENDROOT
BRANCH   1   2
ATOM      2  O   UNL A   1      39.484  21.927  26.728  1.00  0.00    -0.377 OA
BRANCH   2   3
ATOM      3  C   UNL A   1      40.079  20.769  26.148  1.00  0.00     0.188 C 
BRANCH   3   4
ATOM      4  C   UNL A   1      41.441  20.389  26.726  1.00  0.00     0.188 C 
BRANCH   4   5
ATOM      5  O   UNL A   1      42.471  20.546  25.745  1.00  0.00    -0.376 OA
BRANCH   5   6
ATOM      6  C   UNL A   1      43.344  21.657  25.944  1.00  0.00     0.202 C 
BRANCH   6   7
ATOM      7  C   UNL A   1      43.157  22.792  24.937  1.00  0.00     0.261 C 
BRANCH   7   8
ATOM      8  O   UNL A   1      42.377  23.868  25.468  1.00  0.00    -0.460 OA
BRANCH   8   9
ATOM      9  C   UNL A   1      42.683  24.682  26.509  1.00  0.00     0.338 C 
ATOM     10  O   UNL A   1      41.930  24.673  27.483  1.00  0.00    -0.246 OA
BRANCH   9  11
ATOM     11  C   UNL A   1      43.879  25.586  26.567  1.00  0.00     0.060 A 
ATOM     12  C   UNL A   1      44.598  25.944  27.713  1.00  0.00     0.016 A 
ATOM     13  C   UNL A   1      44.344  26.068  25.331  1.00  0.00     0.016 A 
ATOM     14  C   UNL A   1      45.700  26.790  27.656  1.00  0.00     0.010 A 
ATOM     15  C   UNL A   1      45.447  26.918  25.259  1.00  0.00     0.010 A 
ATOM     16  C   UNL A   1      46.101  27.308  26.432  1.00  0.00    -0.014 A 
BRANCH  16  17
ATOM     17  C   UNL A   1      47.029  28.447  26.422  1.00  0.00     0.031 A 
ATOM     18  C   UNL A   1      46.428  29.810  26.564  1.00  0.00     0.074 A 
ATOM     19  C   UNL A   1      48.356  28.256  26.365  1.00  0.00     0.049 A 
ATOM     20  N   UNL A   1      46.978  30.981  26.414  1.00  0.00    -0.248 NA
ATOM     21  C   UNL A   1      44.999  29.851  26.923  1.00  0.00     0.031 C 
ATOM     22  C   UNL A   1      49.026  26.956  26.383  1.00  0.00     0.029 A 
ATOM     23  N   UNL A   1      49.374  29.164  26.279  1.00  0.00    -0.354 N 
ATOM     24  C   UNL A   1      45.952  31.896  26.606  1.00  0.00     0.074 A 
ATOM     25  C   UNL A   1      44.751  31.149  26.895  1.00  0.00     0.031 C 
ATOM     26  C   UNL A   1      50.352  27.152  26.291  1.00  0.00     0.029 A 
ATOM     27  C   UNL A   1      50.608  28.581  26.135  1.00  0.00     0.049 A 
ATOM     28  H   UNL A   1      49.237  30.139  26.317  1.00  0.00     0.167 HD
ATOM     29  C   UNL A   1      46.011  33.243  26.516  1.00  0.00     0.031 A 
ATOM     30  C   UNL A   1      51.793  29.147  25.845  1.00  0.00     0.031 A 
ATOM     31  C   UNL A   1      47.224  33.942  26.199  1.00  0.00     0.049 A 
ATOM     32  C   UNL A   1      51.830  30.640  25.653  1.00  0.00     0.074 A 
ATOM     33  C   UNL A   1      47.426  35.295  26.011  1.00  0.00     0.029 A 
ATOM     34  N   UNL A   1      48.453  33.317  26.018  1.00  0.00    -0.354 N 
ATOM     35  N   UNL A   1      50.847  31.507  25.753  1.00  0.00    -0.248 NA
ATOM     36  C   UNL A   1      53.123  31.234  25.294  1.00  0.00     0.031 C 
ATOM     37  C   UNL A   1      48.769  35.481  25.667  1.00  0.00     0.029 A 
ATOM     38  C   UNL A   1      49.416  34.253  25.702  1.00  0.00     0.049 A 
ATOM     39  H   UNL A   1      48.611  32.350  26.103  1.00  0.00     0.167 HD
ATOM     40  C   UNL A   1      51.403  32.751  25.491  1.00  0.00     0.074 A 
ATOM     41  C   UNL A   1      52.815  32.523  25.233  1.00  0.00     0.031 C 
ATOM     42  C   UNL A   1      50.812  33.971  25.466  1.00  0.00     0.031 A 
BRANCH  29  43
ATOM     43  C   UNL A   1      44.712  33.986  26.646  1.00  0.00    -0.014 A 
ATOM     44  C   UNL A   1      43.949  34.352  25.524  1.00  0.00     0.009 A 
ATOM     45  C   UNL A   1      44.291  34.407  27.916  1.00  0.00     0.009 A 
ATOM     46  C   UNL A   1      42.830  35.177  25.670  1.00  0.00     0.001 A 
ATOM     47  C   UNL A   1      43.154  35.204  28.062  1.00  0.00     0.001 A 
ATOM     48  C   UNL A   1      42.435  35.604  26.938  1.00  0.00     0.000 A 
ENDBRANCH  29  43
BRANCH  30  49
ATOM     49  C   UNL A   1      52.994  28.292  25.654  1.00  0.00    -0.014 A 
ATOM     50  C   UNL A   1      53.778  27.889  26.744  1.00  0.00     0.009 A 
ATOM     51  C   UNL A   1      53.332  27.826  24.371  1.00  0.00     0.009 A 
ATOM     52  C   UNL A   1      54.874  27.042  26.552  1.00  0.00     0.001 A 
ATOM     53  C   UNL A   1      54.411  26.958  24.187  1.00  0.00     0.001 A 
ATOM     54  C   UNL A   1      55.184  26.570  25.277  1.00  0.00     0.000 A 
ENDBRANCH  30  49
BRANCH  42  55
ATOM     55  C   UNL A   1      51.694  35.154  25.203  1.00  0.00    -0.014 A 
ATOM     56  C   UNL A   1      51.891  35.639  23.903  1.00  0.00     0.009 A 
ATOM     57  C   UNL A   1      52.244  35.851  26.290  1.00  0.00     0.009 A 
ATOM     58  C   UNL A   1      52.637  36.801  23.697  1.00  0.00     0.001 A 
ATOM     59  C   UNL A   1      52.965  37.025  26.082  1.00  0.00     0.001 A 
ATOM     60  C   UNL A   1      53.164  37.497  24.785  1.00  0.00     0.000 A 
ENDBRANCH  42  55
ENDBRANCH  16  17
ENDBRANCH   9  11
ENDBRANCH   8   9
ENDBRANCH   7   8
ENDBRANCH   6   7
ENDBRANCH   5   6
ENDBRANCH   4   5
ENDBRANCH   3   4
ENDBRANCH   2   3
ENDBRANCH   1   2
BRANCH   1  61
ATOM     61  C   UNL A   1      37.391  21.598  25.297  1.00  0.00     0.188 C 
BRANCH  61  62
ATOM     62  O   UNL A   1      37.392  21.708  23.882  1.00  0.00    -0.376 OA
BRANCH  62  63
ATOM     63  C   UNL A   1      36.668  22.816  23.355  1.00  0.00     0.202 C 
BRANCH  63  64
ATOM     64  C   UNL A   1      35.277  23.059  23.956  1.00  0.00     0.261 C 
BRANCH  64  65
ATOM     65  O   UNL A   1      34.204  22.327  23.340  1.00  0.00    -0.460 OA
BRANCH  65  66
ATOM     66  C   UNL A   1      33.313  21.661  24.111  1.00  0.00     0.342 C 
ATOM     67  O   UNL A   1      33.170  20.451  24.181  1.00  0.00    -0.246 OA
BRANCH  66  68
ATOM     68  C   UNL A   1      32.753  22.645  25.075  1.00  0.00     0.102 A 
ATOM     69  C   UNL A   1      32.157  23.816  24.559  1.00  0.00     0.027 A 
ATOM     70  C   UNL A   1      32.625  22.339  26.434  1.00  0.00     0.130 A 
ATOM     71  C   UNL A   1      31.378  24.639  25.387  1.00  0.00    -0.025 A 
ATOM     72  C   UNL A   1      31.903  23.184  27.275  1.00  0.00     0.048 A 
ATOM     73  C   UNL A   1      31.280  24.320  26.750  1.00  0.00     0.012 A 
BRANCH  70  74
ATOM     74  O   UNL A   1      33.194  21.209  26.945  1.00  0.00    -0.507 OA
ATOM     75  H   UNL A   1      34.102  21.032  26.796  1.00  0.00     0.293 HD
ENDBRANCH  70  74
BRANCH  71  76
ATOM     76  C   UNL A   1      30.674  25.842  24.912  1.00  0.00     0.009 C 
ATOM     77  C   UNL A   1      30.396  26.143  23.631  1.00  0.00     0.009 C 
BRANCH  77  78
ATOM     78  C   UNL A   1      29.663  27.366  23.243  1.00  0.00    -0.018 A 
ATOM     79  C   UNL A   1      30.336  28.474  22.701  1.00  0.00     0.054 A 
ATOM     80  C   UNL A   1      28.265  27.420  23.363  1.00  0.00     0.054 A 
ATOM     81  C   UNL A   1      29.624  29.613  22.321  1.00  0.00     0.119 A 
ATOM     82  C   UNL A   1      27.573  28.571  22.975  1.00  0.00     0.119 A 
ATOM     83  C   UNL A   1      28.246  29.670  22.457  1.00  0.00     0.092 A 
BRANCH  81  84
ATOM     84  O   UNL A   1      30.259  30.703  21.801  1.00  0.00    -0.508 OA
ATOM     85  H   UNL A   1      30.521  31.405  22.362  1.00  0.00     0.293 HD
ENDBRANCH  81  84
BRANCH  82  86
ATOM     86  O   UNL A   1      26.216  28.664  23.086  1.00  0.00    -0.508 OA
ATOM     87  H   UNL A   1      25.716  27.924  23.369  1.00  0.00     0.293 HD
ENDBRANCH  82  86
ENDBRANCH  77  78
ENDBRANCH  71  76
ENDBRANCH  66  68
ENDBRANCH  65  66
ENDBRANCH  64  65
ENDBRANCH  63  64
ENDBRANCH  62  63
ENDBRANCH  61  62
ENDBRANCH   1  61
TORSDOF 25
ENDMDL
MODEL 3
REMARK VINA RESULT:      -9.2      5.331     10.534
REMARK SMILES O=C(OCCOCCOCCOCCOC(=O)c1cc(/C=C/c2cc(O)cc(O)c2)ccc1O)c1ccc(-c2c3nc(c(-c4ccccc4)c4ccc([nH]4)c(-c4ccccc4)c4nc(c(-c5ccccc5)c5ccc2[nH]5)C=C4)C=C3)cc1
REMARK SMILES IDX 10 1 9 2 8 3 7 4 6 5 5 6 4 7 3 8 2 9 1 10 35 11 36 12 82 13
REMARK SMILES IDX 37 14 81 15 38 16 39 17 40 18 75 19 41 20 80 21 74 22 76 23
REMARK SMILES IDX 42 24 79 25 73 26 72 27 43 29 65 30 50 31 64 32 51 33 54 34
REMARK SMILES IDX 63 35 77 36 52 37 53 38 62 40 78 41 55 42 44 43 45 44 49 45
REMARK SMILES IDX 46 46 48 47 47 48 66 49 67 50 71 51 68 52 70 53 69 54 56 55
REMARK SMILES IDX 57 56 61 57 58 58 60 59 59 60 11 61 12 62 13 63 14 64 15 65
REMARK SMILES IDX 16 66 17 67 18 68 19 69 33 70 20 71 32 72 31 73 34 74 21 76
REMARK SMILES IDX 22 77 23 78 24 79 30 80 25 81 28 82 27 83 26 84 29 86
REMARK H PARENT 76 28 54 39 34 75 26 85 29 87
REMARK Flexibility Score: inf
ROOT
ATOM      1  C   UNL A   1      33.160  36.392  32.099  1.00  0.00     0.188 C 
ENDROOT
BRANCH   1   2
ATOM      2  O   UNL A   1      32.580  36.205  30.813  1.00  0.00    -0.377 OA
BRANCH   2   3
ATOM      3  C   UNL A   1      32.904  37.171  29.816  1.00  0.00     0.188 C 
BRANCH   3   4
ATOM      4  C   UNL A   1      33.779  36.650  28.678  1.00  0.00     0.188 C 
BRANCH   4   5
ATOM      5  O   UNL A   1      33.587  35.244  28.491  1.00  0.00    -0.376 OA
BRANCH   5   6
ATOM      6  C   UNL A   1      34.780  34.476  28.339  1.00  0.00     0.202 C 
BRANCH   6   7
ATOM      7  C   UNL A   1      34.957  33.374  29.384  1.00  0.00     0.261 C 
BRANCH   7   8
ATOM      8  O   UNL A   1      34.212  32.195  29.062  1.00  0.00    -0.460 OA
BRANCH   8   9
ATOM      9  C   UNL A   1      34.655  31.077  28.437  1.00  0.00     0.338 C 
ATOM     10  O   UNL A   1      33.946  30.596  27.553  1.00  0.00    -0.246 OA
BRANCH   9  11
ATOM     11  C   UNL A   1      35.953  30.385  28.734  1.00  0.00     0.060 A 
ATOM     12  C   UNL A   1      36.284  29.703  29.910  1.00  0.00     0.016 A 
ATOM     13  C   UNL A   1      36.900  30.384  27.694  1.00  0.00     0.016 A 
ATOM     14  C   UNL A   1      37.520  29.090  30.083  1.00  0.00     0.010 A 
ATOM     15  C   UNL A   1      38.144  29.774  27.854  1.00  0.00     0.010 A 
ATOM     16  C   UNL A   1      38.465  29.159  29.068  1.00  0.00    -0.014 A 
BRANCH  16  17
ATOM     17  C   UNL A   1      39.858  28.817  29.382  1.00  0.00     0.031 A 
ATOM     18  C   UNL A   1      40.368  27.512  28.857  1.00  0.00     0.074 A 
ATOM     19  C   UNL A   1      40.647  29.675  30.046  1.00  0.00     0.049 A 
ATOM     20  N   UNL A   1      41.479  26.885  29.124  1.00  0.00    -0.248 NA
ATOM     21  C   UNL A   1      39.495  26.818  27.893  1.00  0.00     0.031 C 
ATOM     22  C   UNL A   1      40.271  31.028  30.455  1.00  0.00     0.029 A 
ATOM     23  N   UNL A   1      41.931  29.528  30.491  1.00  0.00    -0.354 N 
ATOM     24  C   UNL A   1      41.412  25.699  28.405  1.00  0.00     0.074 A 
ATOM     25  C   UNL A   1      40.163  25.697  27.682  1.00  0.00     0.031 C 
ATOM     26  C   UNL A   1      41.303  31.583  31.112  1.00  0.00     0.029 A 
ATOM     27  C   UNL A   1      42.373  30.598  31.228  1.00  0.00     0.049 A 
ATOM     28  H   UNL A   1      42.484  28.735  30.302  1.00  0.00     0.167 HD
ATOM     29  C   UNL A   1      42.310  24.689  28.383  1.00  0.00     0.031 A 
ATOM     30  C   UNL A   1      43.494  30.726  31.963  1.00  0.00     0.031 A 
ATOM     31  C   UNL A   1      43.528  24.723  29.141  1.00  0.00     0.049 A 
ATOM     32  C   UNL A   1      44.442  29.557  32.007  1.00  0.00     0.074 A 
ATOM     33  C   UNL A   1      44.502  23.753  29.268  1.00  0.00     0.029 A 
ATOM     34  N   UNL A   1      43.930  25.808  29.912  1.00  0.00    -0.354 N 
ATOM     35  N   UNL A   1      44.349  28.398  31.394  1.00  0.00    -0.248 NA
ATOM     36  C   UNL A   1      45.636  29.700  32.848  1.00  0.00     0.031 C 
ATOM     37  C   UNL A   1      45.469  24.234  30.158  1.00  0.00     0.029 A 
ATOM     38  C   UNL A   1      45.128  25.527  30.534  1.00  0.00     0.049 A 
ATOM     39  H   UNL A   1      43.432  26.652  30.001  1.00  0.00     0.167 HD
ATOM     40  C   UNL A   1      45.479  27.680  31.757  1.00  0.00     0.074 A 
ATOM     41  C   UNL A   1      46.247  28.540  32.640  1.00  0.00     0.031 C 
ATOM     42  C   UNL A   1      45.856  26.428  31.396  1.00  0.00     0.031 A 
BRANCH  29  43
ATOM     43  C   UNL A   1      41.922  23.458  27.614  1.00  0.00    -0.014 A 
ATOM     44  C   UNL A   1      42.404  23.208  26.318  1.00  0.00     0.009 A 
ATOM     45  C   UNL A   1      40.980  22.577  28.166  1.00  0.00     0.009 A 
ATOM     46  C   UNL A   1      41.903  22.139  25.571  1.00  0.00     0.001 A 
ATOM     47  C   UNL A   1      40.505  21.491  27.429  1.00  0.00     0.001 A 
ATOM     48  C   UNL A   1      40.952  21.282  26.127  1.00  0.00     0.000 A 
ENDBRANCH  29  43
BRANCH  30  49
ATOM     49  C   UNL A   1      43.721  31.964  32.752  1.00  0.00    -0.014 A 
ATOM     50  C   UNL A   1      43.303  33.214  32.276  1.00  0.00     0.009 A 
ATOM     51  C   UNL A   1      44.317  31.892  34.023  1.00  0.00     0.009 A 
ATOM     52  C   UNL A   1      43.479  34.364  33.054  1.00  0.00     0.001 A 
ATOM     53  C   UNL A   1      44.467  33.037  34.810  1.00  0.00     0.001 A 
ATOM     54  C   UNL A   1      44.051  34.273  34.322  1.00  0.00     0.000 A 
ENDBRANCH  30  49
BRANCH  42  55
ATOM     55  C   UNL A   1      47.174  25.935  31.912  1.00  0.00    -0.014 A 
ATOM     56  C   UNL A   1      48.361  26.150  31.197  1.00  0.00     0.009 A 
ATOM     57  C   UNL A   1      47.233  25.344  33.184  1.00  0.00     0.009 A 
ATOM     58  C   UNL A   1      49.586  25.769  31.746  1.00  0.00     0.001 A 
ATOM     59  C   UNL A   1      48.460  24.990  33.740  1.00  0.00     0.001 A 
ATOM     60  C   UNL A   1      49.636  25.199  33.019  1.00  0.00     0.000 A 
ENDBRANCH  42  55
ENDBRANCH  16  17
ENDBRANCH   9  11
ENDBRANCH   8   9
ENDBRANCH   7   8
ENDBRANCH   6   7
ENDBRANCH   5   6
ENDBRANCH   4   5
ENDBRANCH   3   4
ENDBRANCH   2   3
ENDBRANCH   1   2
BRANCH   1  61
ATOM     61  C   UNL A   1      34.506  35.705  32.419  1.00  0.00     0.188 C 
BRANCH  61  62
ATOM     62  O   UNL A   1      34.873  35.730  33.790  1.00  0.00    -0.376 OA
BRANCH  62  63
ATOM     63  C   UNL A   1      35.088  34.455  34.388  1.00  0.00     0.202 C 
BRANCH  63  64
ATOM     64  C   UNL A   1      35.160  33.263  33.425  1.00  0.00     0.261 C 
BRANCH  64  65
ATOM     65  O   UNL A   1      36.211  32.318  33.693  1.00  0.00    -0.460 OA
BRANCH  65  66
ATOM     66  C   UNL A   1      37.313  32.295  32.908  1.00  0.00     0.342 C 
ATOM     67  O   UNL A   1      37.347  32.426  31.696  1.00  0.00    -0.246 OA
BRANCH  66  68
ATOM     68  C   UNL A   1      38.491  32.382  33.812  1.00  0.00     0.102 A 
ATOM     69  C   UNL A   1      39.186  31.192  34.116  1.00  0.00     0.027 A 
ATOM     70  C   UNL A   1      39.029  33.618  34.185  1.00  0.00     0.130 A 
ATOM     71  C   UNL A   1      40.447  31.245  34.730  1.00  0.00    -0.025 A 
ATOM     72  C   UNL A   1      40.253  33.675  34.848  1.00  0.00     0.048 A 
ATOM     73  C   UNL A   1      40.957  32.495  35.111  1.00  0.00     0.012 A 
BRANCH  70  74
ATOM     74  O   UNL A   1      38.368  34.777  33.894  1.00  0.00    -0.507 OA
ATOM     75  H   UNL A   1      38.343  35.093  33.013  1.00  0.00     0.293 HD
ENDBRANCH  70  74
BRANCH  71  76
ATOM     76  C   UNL A   1      41.261  30.054  35.025  1.00  0.00     0.009 C 
ATOM     77  C   UNL A   1      41.213  28.880  34.370  1.00  0.00     0.009 C 
BRANCH  77  78
ATOM     78  C   UNL A   1      42.084  27.738  34.719  1.00  0.00    -0.018 A 
ATOM     79  C   UNL A   1      43.439  27.930  35.038  1.00  0.00     0.054 A 
ATOM     80  C   UNL A   1      41.553  26.440  34.788  1.00  0.00     0.054 A 
ATOM     81  C   UNL A   1      44.242  26.842  35.384  1.00  0.00     0.119 A 
ATOM     82  C   UNL A   1      42.376  25.366  35.139  1.00  0.00     0.119 A 
ATOM     83  C   UNL A   1      43.719  25.559  35.435  1.00  0.00     0.092 A 
BRANCH  81  84
ATOM     84  O   UNL A   1      45.562  27.005  35.689  1.00  0.00    -0.508 OA
ATOM     85  H   UNL A   1      45.978  27.830  35.540  1.00  0.00     0.293 HD
ENDBRANCH  81  84
BRANCH  82  86
ATOM     86  O   UNL A   1      41.898  24.089  35.208  1.00  0.00    -0.508 OA
ATOM     87  H   UNL A   1      42.170  23.523  35.903  1.00  0.00     0.293 HD
ENDBRANCH  82  86
ENDBRANCH  77  78
ENDBRANCH  71  76
ENDBRANCH  66  68
ENDBRANCH  65  66
ENDBRANCH  64  65
ENDBRANCH  63  64
ENDBRANCH  62  63
ENDBRANCH  61  62
ENDBRANCH   1  61
TORSDOF 25
ENDMDL
