MODEL 1
REMARK VINA RESULT:     -10.5      0.000      0.000
REMARK SMILES Cc1nn([C@@H](C)C(=O)OCCOCCOCCOCCOC(=O)c2ccc(-c3c4nc(c(-c5ccccc5)c5ccc([nH]5)c(-c5ccccc5)c5nc(c(-c6ccccc6)c6ccc3[nH]6)C=C5)C=C4)cc2)c(=O)c2cc3cc(F)ccc3n12
REMARK SMILES IDX 16 1 15 2 14 3 13 4 12 5 11 6 10 7 9 8 7 9 8 10 5 11 6 12
REMARK SMILES IDX 4 13 1 14 2 15 3 16 83 17 74 18 82 19 72 20 75 21 76 22
REMARK SMILES IDX 81 23 73 24 77 25 80 26 78 27 79 28 17 29 18 30 19 31 20 32
REMARK SMILES IDX 21 33 22 34 23 35 24 36 25 37 71 38 26 39 70 40 27 41 28 42
REMARK SMILES IDX 29 43 64 44 30 45 69 46 63 47 65 48 31 49 68 50 62 51 61 52
REMARK SMILES IDX 32 54 54 55 39 56 53 57 40 58 43 59 52 60 66 61 41 62 42 63
REMARK SMILES IDX 51 65 67 66 44 67 33 68 34 69 38 70 35 71 37 72 36 73 55 74
REMARK SMILES IDX 56 75 60 76 57 77 59 78 58 79 45 80 46 81 50 82 47 83 49 84
REMARK SMILES IDX 48 85
REMARK H PARENT 65 53 43 64
REMARK Flexibility Score: inf
ROOT
ATOM      1  C   UNL A   1      34.014  32.497  28.010  1.00  0.00     0.188 C 
ENDROOT
BRANCH   1   2
ATOM      2  O   UNL A   1      35.241  31.833  27.758  1.00  0.00    -0.377 OA
BRANCH   2   3
ATOM      3  C   UNL A   1      35.428  30.518  28.226  1.00  0.00     0.188 C 
BRANCH   3   4
ATOM      4  C   UNL A   1      35.147  29.364  27.257  1.00  0.00     0.188 C 
BRANCH   4   5
ATOM      5  O   UNL A   1      33.821  29.021  26.916  1.00  0.00    -0.376 OA
BRANCH   5   6
ATOM      6  C   UNL A   1      33.295  29.222  25.612  1.00  0.00     0.202 C 
BRANCH   6   7
ATOM      7  C   UNL A   1      31.894  29.760  25.285  1.00  0.00     0.261 C 
BRANCH   7   8
ATOM      8  O   UNL A   1      30.919  28.780  24.917  1.00  0.00    -0.462 OA
BRANCH   8   9
ATOM      9  C   UNL A   1      30.709  28.622  23.589  1.00  0.00     0.330 C 
ATOM     10  O   UNL A   1      30.984  29.482  22.752  1.00  0.00    -0.250 OA
BRANCH   9  11
ATOM     11  C   UNL A   1      30.167  27.245  23.173  1.00  0.00     0.218 C 
ATOM     12  C   UNL A   1      28.682  27.185  23.512  1.00  0.00     0.046 C 
BRANCH  11  13
ATOM     13  N   UNL A   1      30.874  26.009  23.559  1.00  0.00    -0.212 N 
ATOM     14  C   UNL A   1      30.513  23.662  26.415  1.00  0.00     0.090 C 
ATOM     15  C   UNL A   1      31.026  24.344  25.187  1.00  0.00     0.131 A 
ATOM     16  N   UNL A   1      30.442  25.422  24.753  1.00  0.00    -0.155 NA
ATOM     17  N   UNL A   1      32.136  23.780  24.544  1.00  0.00    -0.291 N 
ATOM     18  C   UNL A   1      32.591  24.354  23.377  1.00  0.00     0.115 A 
ATOM     19  C   UNL A   1      32.970  22.705  24.877  1.00  0.00     0.055 A 
ATOM     20  C   UNL A   1      31.973  25.540  22.827  1.00  0.00     0.291 A 
ATOM     21  C   UNL A   1      33.660  23.623  22.911  1.00  0.00     0.043 A 
ATOM     22  C   UNL A   1      33.925  22.599  23.851  1.00  0.00     0.004 A 
ATOM     23  C   UNL A   1      33.018  21.822  25.981  1.00  0.00     0.030 A 
ATOM     24  O   UNL A   1      32.402  26.103  21.824  1.00  0.00    -0.265 OA
ATOM     25  C   UNL A   1      34.920  21.602  23.920  1.00  0.00     0.049 A 
ATOM     26  C   UNL A   1      34.024  20.849  26.034  1.00  0.00     0.041 A 
ATOM     27  C   UNL A   1      34.955  20.747  25.016  1.00  0.00     0.123 A 
ATOM     28  F   UNL A   1      35.913  19.814  25.095  1.00  0.00    -0.207 F 
ENDBRANCH  11  13
ENDBRANCH   9  11
ENDBRANCH   8   9
ENDBRANCH   7   8
ENDBRANCH   6   7
ENDBRANCH   5   6
ENDBRANCH   4   5
ENDBRANCH   3   4
ENDBRANCH   2   3
ENDBRANCH   1   2
BRANCH   1  29
ATOM     29  C   UNL A   1      34.014  33.906  28.627  1.00  0.00     0.188 C 
BRANCH  29  30
ATOM     30  O   UNL A   1      33.735  33.903  30.016  1.00  0.00    -0.376 OA
BRANCH  30  31
ATOM     31  C   UNL A   1      34.733  33.410  30.897  1.00  0.00     0.202 C 
BRANCH  31  32
ATOM     32  C   UNL A   1      36.155  33.977  30.751  1.00  0.00     0.261 C 
BRANCH  32  33
ATOM     33  O   UNL A   1      37.127  33.371  31.622  1.00  0.00    -0.460 OA
BRANCH  33  34
ATOM     34  C   UNL A   1      38.447  33.577  31.389  1.00  0.00     0.338 C 
ATOM     35  O   UNL A   1      39.125  34.483  31.811  1.00  0.00    -0.246 OA
BRANCH  34  36
ATOM     36  C   UNL A   1      38.963  32.280  30.859  1.00  0.00     0.060 A 
ATOM     37  C   UNL A   1      38.254  31.081  31.003  1.00  0.00     0.016 A 
ATOM     38  C   UNL A   1      40.319  32.254  30.498  1.00  0.00     0.016 A 
ATOM     39  C   UNL A   1      38.937  29.868  30.895  1.00  0.00     0.010 A 
ATOM     40  C   UNL A   1      41.004  31.041  30.417  1.00  0.00     0.010 A 
ATOM     41  C   UNL A   1      40.326  29.843  30.647  1.00  0.00    -0.014 A 
BRANCH  41  42
ATOM     42  C   UNL A   1      40.952  28.541  30.358  1.00  0.00     0.031 A 
ATOM     43  C   UNL A   1      41.751  28.051  31.512  1.00  0.00     0.074 A 
ATOM     44  C   UNL A   1      40.750  27.715  29.305  1.00  0.00     0.049 A 
ATOM     45  N   UNL A   1      43.018  27.805  31.562  1.00  0.00    -0.248 NA
ATOM     46  C   UNL A   1      41.061  27.950  32.809  1.00  0.00     0.031 C 
ATOM     47  C   UNL A   1      39.740  27.846  28.254  1.00  0.00     0.029 A 
ATOM     48  N   UNL A   1      41.350  26.513  29.006  1.00  0.00    -0.354 N 
ATOM     49  C   UNL A   1      43.259  27.362  32.860  1.00  0.00     0.074 A 
ATOM     50  C   UNL A   1      42.066  27.623  33.618  1.00  0.00     0.031 C 
ATOM     51  C   UNL A   1      39.666  26.691  27.553  1.00  0.00     0.029 A 
ATOM     52  C   UNL A   1      40.687  25.773  28.031  1.00  0.00     0.049 A 
ATOM     53  H   UNL A   1      42.177  26.205  29.443  1.00  0.00     0.167 HD
ATOM     54  C   UNL A   1      44.333  26.583  33.156  1.00  0.00     0.031 A 
ATOM     55  C   UNL A   1      40.910  24.483  27.668  1.00  0.00     0.031 A 
ATOM     56  C   UNL A   1      45.312  26.603  32.105  1.00  0.00     0.049 A 
ATOM     57  C   UNL A   1      42.270  24.092  28.086  1.00  0.00     0.074 A 
ATOM     58  C   UNL A   1      46.275  27.471  31.647  1.00  0.00     0.029 A 
ATOM     59  N   UNL A   1      45.107  25.660  31.134  1.00  0.00    -0.354 N 
ATOM     60  N   UNL A   1      43.354  24.565  27.546  1.00  0.00    -0.248 NA
ATOM     61  C   UNL A   1      42.460  23.331  29.315  1.00  0.00     0.031 C 
ATOM     62  C   UNL A   1      46.496  27.127  30.281  1.00  0.00     0.029 A 
ATOM     63  C   UNL A   1      45.681  26.044  29.953  1.00  0.00     0.049 A 
ATOM     64  H   UNL A   1      44.613  24.819  31.268  1.00  0.00     0.167 HD
ATOM     65  C   UNL A   1      44.276  24.546  28.572  1.00  0.00     0.074 A 
ATOM     66  C   UNL A   1      43.741  23.619  29.558  1.00  0.00     0.031 C 
ATOM     67  C   UNL A   1      45.210  25.530  28.684  1.00  0.00     0.031 A 
BRANCH  54  68
ATOM     68  C   UNL A   1      44.280  25.435  34.142  1.00  0.00    -0.014 A 
ATOM     69  C   UNL A   1      43.436  24.318  33.999  1.00  0.00     0.009 A 
ATOM     70  C   UNL A   1      45.320  25.316  35.083  1.00  0.00     0.009 A 
ATOM     71  C   UNL A   1      43.627  23.141  34.729  1.00  0.00     0.001 A 
ATOM     72  C   UNL A   1      45.539  24.126  35.789  1.00  0.00     0.001 A 
ATOM     73  C   UNL A   1      44.695  23.037  35.605  1.00  0.00     0.000 A 
ENDBRANCH  54  68
BRANCH  55  74
ATOM     74  C   UNL A   1      39.956  23.462  27.171  1.00  0.00    -0.014 A 
ATOM     75  C   UNL A   1      40.403  22.153  26.918  1.00  0.00     0.009 A 
ATOM     76  C   UNL A   1      38.700  23.831  26.655  1.00  0.00     0.009 A 
ATOM     77  C   UNL A   1      39.655  21.268  26.133  1.00  0.00     0.001 A 
ATOM     78  C   UNL A   1      37.953  22.945  25.865  1.00  0.00     0.001 A 
ATOM     79  C   UNL A   1      38.441  21.671  25.588  1.00  0.00     0.000 A 
ENDBRANCH  55  74
BRANCH  67  80
ATOM     80  C   UNL A   1      45.598  26.286  27.445  1.00  0.00    -0.014 A 
ATOM     81  C   UNL A   1      44.954  27.510  27.207  1.00  0.00     0.009 A 
ATOM     82  C   UNL A   1      46.473  25.786  26.468  1.00  0.00     0.009 A 
ATOM     83  C   UNL A   1      45.155  28.206  26.017  1.00  0.00     0.001 A 
ATOM     84  C   UNL A   1      46.698  26.499  25.286  1.00  0.00     0.001 A 
ATOM     85  C   UNL A   1      46.027  27.700  25.056  1.00  0.00     0.000 A 
ENDBRANCH  67  80
ENDBRANCH  41  42
ENDBRANCH  34  36
ENDBRANCH  33  34
ENDBRANCH  32  33
ENDBRANCH  31  32
ENDBRANCH  30  31
ENDBRANCH  29  30
ENDBRANCH   1  29
TORSDOF 21
ENDMDL
MODEL 2
REMARK VINA RESULT:     -10.3      2.749      5.217
REMARK SMILES Cc1nn([C@@H](C)C(=O)OCCOCCOCCOCCOC(=O)c2ccc(-c3c4nc(c(-c5ccccc5)c5ccc([nH]5)c(-c5ccccc5)c5nc(c(-c6ccccc6)c6ccc3[nH]6)C=C5)C=C4)cc2)c(=O)c2cc3cc(F)ccc3n12
REMARK SMILES IDX 16 1 15 2 14 3 13 4 12 5 11 6 10 7 9 8 7 9 8 10 5 11 6 12
REMARK SMILES IDX 4 13 1 14 2 15 3 16 83 17 74 18 82 19 72 20 75 21 76 22
REMARK SMILES IDX 81 23 73 24 77 25 80 26 78 27 79 28 17 29 18 30 19 31 20 32
REMARK SMILES IDX 21 33 22 34 23 35 24 36 25 37 71 38 26 39 70 40 27 41 28 42
REMARK SMILES IDX 29 43 64 44 30 45 69 46 63 47 65 48 31 49 68 50 62 51 61 52
REMARK SMILES IDX 32 54 54 55 39 56 53 57 40 58 43 59 52 60 66 61 41 62 42 63
REMARK SMILES IDX 51 65 67 66 44 67 33 68 34 69 38 70 35 71 37 72 36 73 55 74
REMARK SMILES IDX 56 75 60 76 57 77 59 78 58 79 45 80 46 81 50 82 47 83 49 84
REMARK SMILES IDX 48 85
REMARK H PARENT 65 53 43 64
REMARK Flexibility Score: inf
ROOT
ATOM      1  C   UNL A   1      39.054  30.744  34.883  1.00  0.00     0.188 C 
ENDROOT
BRANCH   1   2
ATOM      2  O   UNL A   1      38.440  31.059  33.645  1.00  0.00    -0.377 OA
BRANCH   2   3
ATOM      3  C   UNL A   1      37.191  31.710  33.635  1.00  0.00     0.188 C 
BRANCH   3   4
ATOM      4  C   UNL A   1      37.049  33.003  34.446  1.00  0.00     0.188 C 
BRANCH   4   5
ATOM      5  O   UNL A   1      35.772  33.483  34.811  1.00  0.00    -0.376 OA
BRANCH   5   6
ATOM      6  C   UNL A   1      35.036  34.383  33.995  1.00  0.00     0.202 C 
BRANCH   6   7
ATOM      7  C   UNL A   1      35.473  34.906  32.619  1.00  0.00     0.261 C 
BRANCH   7   8
ATOM      8  O   UNL A   1      34.550  34.693  31.548  1.00  0.00    -0.462 OA
BRANCH   8   9
ATOM      9  C   UNL A   1      34.613  33.483  30.943  1.00  0.00     0.330 C 
ATOM     10  O   UNL A   1      34.391  32.421  31.526  1.00  0.00    -0.250 OA
BRANCH   9  11
ATOM     11  C   UNL A   1      34.908  33.521  29.435  1.00  0.00     0.218 C 
ATOM     12  C   UNL A   1      34.559  34.908  28.907  1.00  0.00     0.046 C 
BRANCH  11  13
ATOM     13  N   UNL A   1      34.422  32.450  28.545  1.00  0.00    -0.212 N 
ATOM     14  C   UNL A   1      31.345  32.045  26.504  1.00  0.00     0.090 C 
ATOM     15  C   UNL A   1      32.645  31.774  27.191  1.00  0.00     0.131 A 
ATOM     16  N   UNL A   1      33.167  32.676  27.969  1.00  0.00    -0.155 NA
ATOM     17  N   UNL A   1      33.257  30.534  26.963  1.00  0.00    -0.291 N 
ATOM     18  C   UNL A   1      34.485  30.282  27.536  1.00  0.00     0.115 A 
ATOM     19  C   UNL A   1      32.842  29.395  26.260  1.00  0.00     0.055 A 
ATOM     20  C   UNL A   1      35.131  31.251  28.393  1.00  0.00     0.291 A 
ATOM     21  C   UNL A   1      34.903  29.028  27.155  1.00  0.00     0.043 A 
ATOM     22  C   UNL A   1      33.875  28.449  26.373  1.00  0.00     0.004 A 
ATOM     23  C   UNL A   1      31.660  29.069  25.555  1.00  0.00     0.030 A 
ATOM     24  O   UNL A   1      36.194  31.022  28.964  1.00  0.00    -0.265 OA
ATOM     25  C   UNL A   1      33.735  27.182  25.770  1.00  0.00     0.049 A 
ATOM     26  C   UNL A   1      31.537  27.800  24.977  1.00  0.00     0.041 A 
ATOM     27  C   UNL A   1      32.562  26.878  25.087  1.00  0.00     0.123 A 
ATOM     28  F   UNL A   1      32.417  25.667  24.533  1.00  0.00    -0.207 F 
ENDBRANCH  11  13
ENDBRANCH   9  11
ENDBRANCH   8   9
ENDBRANCH   7   8
ENDBRANCH   6   7
ENDBRANCH   5   6
ENDBRANCH   4   5
ENDBRANCH   3   4
ENDBRANCH   2   3
ENDBRANCH   1   2
BRANCH   1  29
ATOM     29  C   UNL A   1      40.449  31.302  35.214  1.00  0.00     0.188 C 
BRANCH  29  30
ATOM     30  O   UNL A   1      41.071  31.931  34.107  1.00  0.00    -0.376 OA
BRANCH  30  31
ATOM     31  C   UNL A   1      41.439  33.296  34.234  1.00  0.00     0.202 C 
BRANCH  31  32
ATOM     32  C   UNL A   1      40.704  34.318  33.350  1.00  0.00     0.261 C 
BRANCH  32  33
ATOM     33  O   UNL A   1      41.010  34.219  31.948  1.00  0.00    -0.460 OA
BRANCH  33  34
ATOM     34  C   UNL A   1      40.021  33.912  31.072  1.00  0.00     0.338 C 
ATOM     35  O   UNL A   1      39.218  34.674  30.590  1.00  0.00    -0.246 OA
BRANCH  34  36
ATOM     36  C   UNL A   1      40.374  32.565  30.532  1.00  0.00     0.060 A 
ATOM     37  C   UNL A   1      39.435  31.531  30.436  1.00  0.00     0.016 A 
ATOM     38  C   UNL A   1      41.744  32.281  30.426  1.00  0.00     0.016 A 
ATOM     39  C   UNL A   1      39.882  30.211  30.347  1.00  0.00     0.010 A 
ATOM     40  C   UNL A   1      42.187  30.959  30.364  1.00  0.00     0.010 A 
ATOM     41  C   UNL A   1      41.261  29.915  30.357  1.00  0.00    -0.014 A 
BRANCH  41  42
ATOM     42  C   UNL A   1      41.671  28.529  30.073  1.00  0.00     0.031 A 
ATOM     43  C   UNL A   1      42.435  27.942  31.206  1.00  0.00     0.074 A 
ATOM     44  C   UNL A   1      41.303  27.726  29.047  1.00  0.00     0.049 A 
ATOM     45  N   UNL A   1      43.651  27.509  31.212  1.00  0.00    -0.248 NA
ATOM     46  C   UNL A   1      41.792  27.967  32.530  1.00  0.00     0.031 C 
ATOM     47  C   UNL A   1      40.282  27.992  28.033  1.00  0.00     0.029 A 
ATOM     48  N   UNL A   1      41.703  26.443  28.751  1.00  0.00    -0.354 N 
ATOM     49  C   UNL A   1      43.877  27.054  32.509  1.00  0.00     0.074 A 
ATOM     50  C   UNL A   1      42.769  27.505  33.306  1.00  0.00     0.031 C 
ATOM     51  C   UNL A   1      40.006  26.850  27.361  1.00  0.00     0.029 A 
ATOM     52  C   UNL A   1      40.896  25.797  27.819  1.00  0.00     0.049 A 
ATOM     53  H   UNL A   1      42.492  26.020  29.162  1.00  0.00     0.167 HD
ATOM     54  C   UNL A   1      44.833  26.127  32.779  1.00  0.00     0.031 A 
ATOM     55  C   UNL A   1      40.907  24.481  27.476  1.00  0.00     0.031 A 
ATOM     56  C   UNL A   1      45.759  25.982  31.691  1.00  0.00     0.049 A 
ATOM     57  C   UNL A   1      42.209  23.897  27.850  1.00  0.00     0.074 A 
ATOM     58  C   UNL A   1      46.822  26.687  31.177  1.00  0.00     0.029 A 
ATOM     59  N   UNL A   1      45.374  25.065  30.750  1.00  0.00    -0.354 N 
ATOM     60  N   UNL A   1      43.328  24.191  27.258  1.00  0.00    -0.248 NA
ATOM     61  C   UNL A   1      42.334  23.135  29.086  1.00  0.00     0.031 C 
ATOM     62  C   UNL A   1      46.931  26.291  29.812  1.00  0.00     0.029 A 
ATOM     63  C   UNL A   1      45.950  25.340  29.539  1.00  0.00     0.049 A 
ATOM     64  H   UNL A   1      44.766  24.311  30.922  1.00  0.00     0.167 HD
ATOM     65  C   UNL A   1      44.280  24.049  28.247  1.00  0.00     0.074 A 
ATOM     66  C   UNL A   1      43.652  23.229  29.273  1.00  0.00     0.031 C 
ATOM     67  C   UNL A   1      45.355  24.883  28.301  1.00  0.00     0.031 A 
BRANCH  54  68
ATOM     68  C   UNL A   1      44.650  25.016  33.791  1.00  0.00    -0.014 A 
ATOM     69  C   UNL A   1      43.772  23.930  33.612  1.00  0.00     0.009 A 
ATOM     70  C   UNL A   1      45.602  24.887  34.820  1.00  0.00     0.009 A 
ATOM     71  C   UNL A   1      43.851  22.771  34.390  1.00  0.00     0.001 A 
ATOM     72  C   UNL A   1      45.710  23.713  35.577  1.00  0.00     0.001 A 
ATOM     73  C   UNL A   1      44.838  22.653  35.357  1.00  0.00     0.000 A 
ENDBRANCH  54  68
BRANCH  55  74
ATOM     74  C   UNL A   1      39.791  23.608  27.039  1.00  0.00    -0.014 A 
ATOM     75  C   UNL A   1      40.051  22.280  26.660  1.00  0.00     0.009 A 
ATOM     76  C   UNL A   1      38.537  24.149  26.699  1.00  0.00     0.009 A 
ATOM     77  C   UNL A   1      39.121  21.539  25.921  1.00  0.00     0.001 A 
ATOM     78  C   UNL A   1      37.607  23.408  25.955  1.00  0.00     0.001 A 
ATOM     79  C   UNL A   1      37.908  22.110  25.549  1.00  0.00     0.000 A 
ENDBRANCH  55  74
BRANCH  67  80
ATOM     80  C   UNL A   1      45.800  25.551  27.031  1.00  0.00    -0.014 A 
ATOM     81  C   UNL A   1      46.994  25.101  26.449  1.00  0.00     0.009 A 
ATOM     82  C   UNL A   1      45.154  26.664  26.468  1.00  0.00     0.009 A 
ATOM     83  C   UNL A   1      47.547  25.756  25.350  1.00  0.00     0.001 A 
ATOM     84  C   UNL A   1      45.694  27.303  25.347  1.00  0.00     0.001 A 
ATOM     85  C   UNL A   1      46.896  26.857  24.799  1.00  0.00     0.000 A 
ENDBRANCH  67  80
ENDBRANCH  41  42
ENDBRANCH  34  36
ENDBRANCH  33  34
ENDBRANCH  32  33
ENDBRANCH  31  32
ENDBRANCH  30  31
ENDBRANCH  29  30
ENDBRANCH   1  29
TORSDOF 21
ENDMDL
MODEL 3
REMARK VINA RESULT:     -10.1      2.472      4.499
REMARK SMILES Cc1nn([C@@H](C)C(=O)OCCOCCOCCOCCOC(=O)c2ccc(-c3c4nc(c(-c5ccccc5)c5ccc([nH]5)c(-c5ccccc5)c5nc(c(-c6ccccc6)c6ccc3[nH]6)C=C5)C=C4)cc2)c(=O)c2cc3cc(F)ccc3n12
REMARK SMILES IDX 16 1 15 2 14 3 13 4 12 5 11 6 10 7 9 8 7 9 8 10 5 11 6 12
REMARK SMILES IDX 4 13 1 14 2 15 3 16 83 17 74 18 82 19 72 20 75 21 76 22
REMARK SMILES IDX 81 23 73 24 77 25 80 26 78 27 79 28 17 29 18 30 19 31 20 32
REMARK SMILES IDX 21 33 22 34 23 35 24 36 25 37 71 38 26 39 70 40 27 41 28 42
REMARK SMILES IDX 29 43 64 44 30 45 69 46 63 47 65 48 31 49 68 50 62 51 61 52
REMARK SMILES IDX 32 54 54 55 39 56 53 57 40 58 43 59 52 60 66 61 41 62 42 63
REMARK SMILES IDX 51 65 67 66 44 67 33 68 34 69 38 70 35 71 37 72 36 73 55 74
REMARK SMILES IDX 56 75 60 76 57 77 59 78 58 79 45 80 46 81 50 82 47 83 49 84
REMARK SMILES IDX 48 85
REMARK H PARENT 65 53 43 64
REMARK Flexibility Score: inf
ROOT
ATOM      1  C   UNL A   1      33.131  28.549  26.235  1.00  0.00     0.188 C 
ENDROOT
BRANCH   1   2
ATOM      2  O   UNL A   1      31.723  28.556  26.401  1.00  0.00    -0.377 OA
BRANCH   2   3
ATOM      3  C   UNL A   1      31.035  27.337  26.557  1.00  0.00     0.188 C 
BRANCH   3   4
ATOM      4  C   UNL A   1      31.865  26.051  26.647  1.00  0.00     0.188 C 
BRANCH   4   5
ATOM      5  O   UNL A   1      31.230  24.792  26.721  1.00  0.00    -0.376 OA
BRANCH   5   6
ATOM      6  C   UNL A   1      31.947  23.594  26.986  1.00  0.00     0.202 C 
BRANCH   6   7
ATOM      7  C   UNL A   1      33.046  22.993  26.097  1.00  0.00     0.261 C 
BRANCH   7   8
ATOM      8  O   UNL A   1      33.941  23.929  25.492  1.00  0.00    -0.462 OA
BRANCH   8   9
ATOM      9  C   UNL A   1      34.212  23.729  24.181  1.00  0.00     0.330 C 
ATOM     10  O   UNL A   1      35.331  23.448  23.754  1.00  0.00    -0.250 OA
BRANCH   9  11
ATOM     11  C   UNL A   1      32.993  23.799  23.245  1.00  0.00     0.218 C 
ATOM     12  C   UNL A   1      33.396  23.248  21.882  1.00  0.00     0.046 C 
BRANCH  11  13
ATOM     13  N   UNL A   1      32.202  25.038  23.131  1.00  0.00    -0.212 N 
ATOM     14  C   UNL A   1      33.119  28.595  22.578  1.00  0.00     0.090 C 
ATOM     15  C   UNL A   1      32.337  27.353  22.863  1.00  0.00     0.131 A 
ATOM     16  N   UNL A   1      32.948  26.208  22.946  1.00  0.00    -0.155 NA
ATOM     17  N   UNL A   1      30.951  27.478  23.029  1.00  0.00    -0.291 N 
ATOM     18  C   UNL A   1      30.199  26.342  23.232  1.00  0.00     0.115 A 
ATOM     19  C   UNL A   1      30.108  28.596  23.080  1.00  0.00     0.055 A 
ATOM     20  C   UNL A   1      30.813  25.035  23.313  1.00  0.00     0.291 A 
ATOM     21  C   UNL A   1      28.875  26.699  23.339  1.00  0.00     0.043 A 
ATOM     22  C   UNL A   1      28.802  28.111  23.268  1.00  0.00     0.004 A 
ATOM     23  C   UNL A   1      30.340  29.989  23.010  1.00  0.00     0.030 A 
ATOM     24  O   UNL A   1      30.170  24.018  23.556  1.00  0.00    -0.265 OA
ATOM     25  C   UNL A   1      27.725  29.016  23.372  1.00  0.00     0.049 A 
ATOM     26  C   UNL A   1      29.258  30.870  23.131  1.00  0.00     0.041 A 
ATOM     27  C   UNL A   1      27.975  30.383  23.308  1.00  0.00     0.123 A 
ATOM     28  F   UNL A   1      26.957  31.245  23.429  1.00  0.00    -0.207 F 
ENDBRANCH  11  13
ENDBRANCH   9  11
ENDBRANCH   8   9
ENDBRANCH   7   8
ENDBRANCH   6   7
ENDBRANCH   5   6
ENDBRANCH   4   5
ENDBRANCH   3   4
ENDBRANCH   2   3
ENDBRANCH   1   2
BRANCH   1  29
ATOM     29  C   UNL A   1      34.038  29.129  27.334  1.00  0.00     0.188 C 
BRANCH  29  30
ATOM     30  O   UNL A   1      34.682  30.330  26.944  1.00  0.00    -0.376 OA
BRANCH  30  31
ATOM     31  C   UNL A   1      34.443  31.497  27.716  1.00  0.00     0.202 C 
BRANCH  31  32
ATOM     32  C   UNL A   1      35.625  32.453  27.948  1.00  0.00     0.261 C 
BRANCH  32  33
ATOM     33  O   UNL A   1      35.675  33.026  29.267  1.00  0.00    -0.460 OA
BRANCH  33  34
ATOM     34  C   UNL A   1      35.748  32.206  30.345  1.00  0.00     0.338 C 
ATOM     35  O   UNL A   1      34.922  32.081  31.217  1.00  0.00    -0.246 OA
BRANCH  34  36
ATOM     36  C   UNL A   1      36.832  31.229  30.027  1.00  0.00     0.060 A 
ATOM     37  C   UNL A   1      36.630  29.845  30.092  1.00  0.00     0.016 A 
ATOM     38  C   UNL A   1      38.134  31.747  29.972  1.00  0.00     0.016 A 
ATOM     39  C   UNL A   1      37.735  29.001  30.215  1.00  0.00     0.010 A 
ATOM     40  C   UNL A   1      39.235  30.902  30.122  1.00  0.00     0.010 A 
ATOM     41  C   UNL A   1      39.042  29.529  30.277  1.00  0.00    -0.014 A 
BRANCH  41  42
ATOM     42  C   UNL A   1      40.171  28.584  30.218  1.00  0.00     0.031 A 
ATOM     43  C   UNL A   1      40.824  28.428  31.545  1.00  0.00     0.074 A 
ATOM     44  C   UNL A   1      40.543  27.765  29.207  1.00  0.00     0.049 A 
ATOM     45  N   UNL A   1      42.041  28.701  31.876  1.00  0.00    -0.248 NA
ATOM     46  C   UNL A   1      39.960  28.040  32.673  1.00  0.00     0.031 C 
ATOM     47  C   UNL A   1      39.820  27.507  27.961  1.00  0.00     0.029 A 
ATOM     48  N   UNL A   1      41.613  26.904  29.125  1.00  0.00    -0.354 N 
ATOM     49  C   UNL A   1      42.144  28.365  33.224  1.00  0.00     0.074 A 
ATOM     50  C   UNL A   1      40.808  28.120  33.694  1.00  0.00     0.031 C 
ATOM     51  C   UNL A   1      40.356  26.430  27.343  1.00  0.00     0.029 A 
ATOM     52  C   UNL A   1      41.521  25.980  28.087  1.00  0.00     0.049 A 
ATOM     53  H   UNL A   1      42.377  26.938  29.746  1.00  0.00     0.167 HD
ATOM     54  C   UNL A   1      43.342  28.068  33.791  1.00  0.00     0.031 A 
ATOM     55  C   UNL A   1      42.302  24.889  27.870  1.00  0.00     0.031 A 
ATOM     56  C   UNL A   1      44.442  28.491  32.970  1.00  0.00     0.049 A 
ATOM     57  C   UNL A   1      43.579  25.059  28.590  1.00  0.00     0.074 A 
ATOM     58  C   UNL A   1      45.067  29.677  32.664  1.00  0.00     0.029 A 
ATOM     59  N   UNL A   1      44.838  27.562  32.046  1.00  0.00    -0.354 N 
ATOM     60  N   UNL A   1      44.484  25.930  28.257  1.00  0.00    -0.248 NA
ATOM     61  C   UNL A   1      43.774  24.412  29.881  1.00  0.00     0.031 C 
ATOM     62  C   UNL A   1      45.699  29.473  31.402  1.00  0.00     0.029 A 
ATOM     63  C   UNL A   1      45.462  28.163  30.987  1.00  0.00     0.049 A 
ATOM     64  H   UNL A   1      44.693  26.592  32.133  1.00  0.00     0.167 HD
ATOM     65  C   UNL A   1      45.091  26.258  29.452  1.00  0.00     0.074 A 
ATOM     66  C   UNL A   1      44.755  25.177  30.366  1.00  0.00     0.031 C 
ATOM     67  C   UNL A   1      45.520  27.529  29.687  1.00  0.00     0.031 A 
BRANCH  54  68
ATOM     68  C   UNL A   1      43.525  26.974  34.822  1.00  0.00    -0.014 A 
ATOM     69  C   UNL A   1      43.504  27.196  36.212  1.00  0.00     0.009 A 
ATOM     70  C   UNL A   1      43.411  25.635  34.402  1.00  0.00     0.009 A 
ATOM     71  C   UNL A   1      43.353  26.154  37.132  1.00  0.00     0.001 A 
ATOM     72  C   UNL A   1      43.221  24.592  35.317  1.00  0.00     0.001 A 
ATOM     73  C   UNL A   1      43.186  24.854  36.682  1.00  0.00     0.000 A 
ENDBRANCH  54  68
BRANCH  55  74
ATOM     74  C   UNL A   1      41.955  23.584  27.257  1.00  0.00    -0.014 A 
ATOM     75  C   UNL A   1      41.009  22.750  27.878  1.00  0.00     0.009 A 
ATOM     76  C   UNL A   1      42.758  23.019  26.248  1.00  0.00     0.009 A 
ATOM     77  C   UNL A   1      40.907  21.393  27.548  1.00  0.00     0.001 A 
ATOM     78  C   UNL A   1      42.658  21.659  25.922  1.00  0.00     0.001 A 
ATOM     79  C   UNL A   1      41.747  20.843  26.586  1.00  0.00     0.000 A 
ENDBRANCH  55  74
BRANCH  67  80
ATOM     80  C   UNL A   1      45.846  28.399  28.507  1.00  0.00    -0.014 A 
ATOM     81  C   UNL A   1      44.832  29.242  28.026  1.00  0.00     0.009 A 
ATOM     82  C   UNL A   1      47.055  28.330  27.797  1.00  0.00     0.009 A 
ATOM     83  C   UNL A   1      45.006  29.978  26.857  1.00  0.00     0.001 A 
ATOM     84  C   UNL A   1      47.241  29.092  26.639  1.00  0.00     0.001 A 
ATOM     85  C   UNL A   1      46.212  29.903  26.163  1.00  0.00     0.000 A 
ENDBRANCH  67  80
ENDBRANCH  41  42
ENDBRANCH  34  36
ENDBRANCH  33  34
ENDBRANCH  32  33
ENDBRANCH  31  32
ENDBRANCH  30  31
ENDBRANCH  29  30
ENDBRANCH   1  29
TORSDOF 21
ENDMDL
