MODEL 1
REMARK VINA RESULT:      -9.9      0.000      0.000
REMARK SMILES O=C(C[C@H](NC(=O)[C@]12C[C@H]3C[C@H](C[C@H](C3)C1)C2)c1ccc(Cl)cc1Cl)OCCOCCOCCOCCOC(=O)c1ccc(-c2c3nc(c(-c4ccccc4)c4ccc([nH]4)c(-c4ccccc4)c4nc(c(-c5ccccc5)c5ccc2[nH]5)C=C4)C=C3)cc1
REMARK SMILES IDX 31 1 30 2 29 3 28 4 27 5 26 6 2 7 1 8 3 9 4 10 18 11 19 12
REMARK SMILES IDX 24 13 20 14 23 15 25 16 21 17 22 18 5 19 6 20 7 22 8 23 9 24
REMARK SMILES IDX 16 25 17 26 10 27 14 28 12 29 11 30 15 31 13 32 32 33 33 34
REMARK SMILES IDX 34 35 35 36 36 37 37 38 38 39 39 40 40 41 41 42 42 43 88 44
REMARK SMILES IDX 43 45 87 46 44 47 45 48 46 49 81 50 47 51 86 52 80 53 82 54
REMARK SMILES IDX 48 55 85 56 79 57 78 58 49 60 71 61 56 62 70 63 57 64 60 65
REMARK SMILES IDX 69 66 83 67 58 68 59 69 68 71 84 72 61 73 50 74 51 75 55 76
REMARK SMILES IDX 52 77 54 78 53 79 72 80 73 81 77 82 74 83 76 84 75 85 62 86
REMARK SMILES IDX 63 87 67 88 64 89 66 90 65 91
REMARK H PARENT 5 21 82 59 60 70
REMARK Flexibility Score: inf
ROOT
ATOM      1  C   UNL A   1      35.470  19.987  24.984  1.00  0.00     0.188 C 
ENDROOT
BRANCH   1   2
ATOM      2  C   UNL A   1      35.446  18.504  24.588  1.00  0.00     0.188 C 
BRANCH   2   3
ATOM      3  O   UNL A   1      34.262  17.749  24.714  1.00  0.00    -0.376 OA
BRANCH   3   4
ATOM      4  C   UNL A   1      33.394  17.417  23.646  1.00  0.00     0.202 C 
BRANCH   4   5
ATOM      5  C   UNL A   1      32.262  18.305  23.100  1.00  0.00     0.261 C 
BRANCH   5   6
ATOM      6  O   UNL A   1      32.474  19.704  22.877  1.00  0.00    -0.463 OA
BRANCH   6   7
ATOM      7  C   UNL A   1      32.128  20.647  23.792  1.00  0.00     0.308 C 
ATOM      8  O   UNL A   1      31.961  20.343  24.967  1.00  0.00    -0.252 OA
BRANCH   7   9
ATOM      9  C   UNL A   1      31.754  21.992  23.228  1.00  0.00     0.152 C 
BRANCH   9  10
ATOM     10  C   UNL A   1      31.593  23.069  24.274  1.00  0.00     0.125 C 
BRANCH  10  11
ATOM     11  C   UNL A   1      32.995  23.521  24.698  1.00  0.00    -0.006 A 
ATOM     12  C   UNL A   1      33.962  23.876  23.748  1.00  0.00     0.009 A 
ATOM     13  C   UNL A   1      33.408  23.434  26.052  1.00  0.00     0.047 A 
ATOM     14  C   UNL A   1      35.300  24.056  24.116  1.00  0.00     0.021 A 
ATOM     15  C   UNL A   1      34.748  23.595  26.417  1.00  0.00     0.041 A 
ATOM     16  Cl  UNL A   1      32.300  23.076  27.338  1.00  0.00    -0.084 Cl
ATOM     17  C   UNL A   1      35.690  23.891  25.442  1.00  0.00     0.042 A 
ATOM     18  Cl  UNL A   1      37.346  24.046  25.877  1.00  0.00    -0.084 Cl
ENDBRANCH  10  11
BRANCH  10  19
ATOM     19  N   UNL A   1      30.649  24.154  23.951  1.00  0.00    -0.348 N 
ATOM     20  C   UNL A   1      30.459  25.488  23.999  1.00  0.00     0.226 C 
ATOM     21  H   UNL A   1      29.849  23.748  23.543  1.00  0.00     0.164 HD
ATOM     22  O   UNL A   1      29.372  25.807  23.486  1.00  0.00    -0.274 OA
BRANCH  20  23
ATOM     23  C   UNL A   1      31.358  26.614  24.600  1.00  0.00     0.050 C 
ATOM     24  C   UNL A   1      32.786  26.618  24.015  1.00  0.00     0.020 C 
ATOM     25  C   UNL A   1      31.504  26.295  26.137  1.00  0.00     0.020 C 
ATOM     26  C   UNL A   1      30.757  28.038  24.548  1.00  0.00     0.020 C 
ATOM     27  C   UNL A   1      33.694  27.629  24.745  1.00  0.00    -0.010 C 
ATOM     28  C   UNL A   1      32.403  27.305  26.868  1.00  0.00    -0.010 C 
ATOM     29  C   UNL A   1      31.682  29.067  25.244  1.00  0.00    -0.010 C 
ATOM     30  C   UNL A   1      33.095  29.036  24.640  1.00  0.00     0.007 C 
ATOM     31  C   UNL A   1      33.798  27.266  26.231  1.00  0.00     0.007 C 
ATOM     32  C   UNL A   1      31.801  28.712  26.730  1.00  0.00     0.007 C 
ENDBRANCH  20  23
ENDBRANCH  10  19
ENDBRANCH   9  10
ENDBRANCH   7   9
ENDBRANCH   6   7
ENDBRANCH   5   6
ENDBRANCH   4   5
ENDBRANCH   3   4
ENDBRANCH   2   3
ENDBRANCH   1   2
BRANCH   1  33
ATOM     33  O   UNL A   1      36.719  20.625  25.149  1.00  0.00    -0.377 OA
BRANCH  33  34
ATOM     34  C   UNL A   1      37.843  19.937  24.632  1.00  0.00     0.188 C 
BRANCH  34  35
ATOM     35  C   UNL A   1      38.943  19.419  25.594  1.00  0.00     0.188 C 
BRANCH  35  36
ATOM     36  O   UNL A   1      39.854  20.411  26.062  1.00  0.00    -0.376 OA
BRANCH  36  37
ATOM     37  C   UNL A   1      40.947  19.928  26.834  1.00  0.00     0.202 C 
BRANCH  37  38
ATOM     38  C   UNL A   1      42.098  19.314  26.024  1.00  0.00     0.261 C 
BRANCH  38  39
ATOM     39  O   UNL A   1      42.734  20.201  25.092  1.00  0.00    -0.460 OA
BRANCH  39  40
ATOM     40  C   UNL A   1      43.948  20.696  25.415  1.00  0.00     0.338 C 
ATOM     41  O   UNL A   1      45.035  20.198  25.182  1.00  0.00    -0.246 OA
BRANCH  40  42
ATOM     42  C   UNL A   1      43.728  22.090  25.868  1.00  0.00     0.060 A 
ATOM     43  C   UNL A   1      43.437  23.076  24.909  1.00  0.00     0.016 A 
ATOM     44  C   UNL A   1      43.660  22.386  27.232  1.00  0.00     0.016 A 
ATOM     45  C   UNL A   1      43.035  24.349  25.320  1.00  0.00     0.010 A 
ATOM     46  C   UNL A   1      43.325  23.677  27.640  1.00  0.00     0.010 A 
ATOM     47  C   UNL A   1      43.028  24.665  26.687  1.00  0.00    -0.014 A 
BRANCH  47  48
ATOM     48  C   UNL A   1      43.066  26.081  27.114  1.00  0.00     0.031 A 
ATOM     49  C   UNL A   1      44.432  26.678  27.306  1.00  0.00     0.074 A 
ATOM     50  C   UNL A   1      41.961  26.786  27.406  1.00  0.00     0.049 A 
ATOM     51  N   UNL A   1      44.775  27.837  27.802  1.00  0.00    -0.248 NA
ATOM     52  C   UNL A   1      45.570  25.836  26.893  1.00  0.00     0.031 C 
ATOM     53  C   UNL A   1      40.584  26.328  27.234  1.00  0.00     0.029 A 
ATOM     54  N   UNL A   1      41.835  28.043  27.946  1.00  0.00    -0.354 N 
ATOM     55  C   UNL A   1      46.163  27.852  27.771  1.00  0.00     0.074 A 
ATOM     56  C   UNL A   1      46.601  26.593  27.219  1.00  0.00     0.031 C 
ATOM     57  C   UNL A   1      39.750  27.280  27.695  1.00  0.00     0.029 A 
ATOM     58  C   UNL A   1      40.537  28.392  28.229  1.00  0.00     0.049 A 
ATOM     59  H   UNL A   1      42.602  28.637  28.113  1.00  0.00     0.167 HD
ATOM     60  C   UNL A   1      47.008  28.821  28.185  1.00  0.00     0.031 A 
ATOM     61  C   UNL A   1      40.052  29.466  28.882  1.00  0.00     0.031 A 
ATOM     62  C   UNL A   1      46.577  30.041  28.798  1.00  0.00     0.049 A 
ATOM     63  C   UNL A   1      41.010  30.505  29.409  1.00  0.00     0.074 A 
ATOM     64  C   UNL A   1      47.345  31.095  29.256  1.00  0.00     0.029 A 
ATOM     65  N   UNL A   1      45.253  30.355  29.066  1.00  0.00    -0.354 N 
ATOM     66  N   UNL A   1      42.321  30.535  29.335  1.00  0.00    -0.248 NA
ATOM     67  C   UNL A   1      40.425  31.657  30.110  1.00  0.00     0.031 C 
ATOM     68  C   UNL A   1      46.487  32.022  29.856  1.00  0.00     0.029 A 
ATOM     69  C   UNL A   1      45.182  31.575  29.710  1.00  0.00     0.049 A 
ATOM     70  H   UNL A   1      44.479  29.792  28.831  1.00  0.00     0.167 HD
ATOM     71  C   UNL A   1      42.713  31.717  29.953  1.00  0.00     0.074 A 
ATOM     72  C   UNL A   1      41.502  32.379  30.393  1.00  0.00     0.031 C 
ATOM     73  C   UNL A   1      43.962  32.214  30.134  1.00  0.00     0.031 A 
BRANCH  60  74
ATOM     74  C   UNL A   1      48.475  28.535  28.050  1.00  0.00    -0.014 A 
ATOM     75  C   UNL A   1      49.245  29.122  27.032  1.00  0.00     0.009 A 
ATOM     76  C   UNL A   1      49.083  27.619  28.921  1.00  0.00     0.009 A 
ATOM     77  C   UNL A   1      50.581  28.759  26.859  1.00  0.00     0.001 A 
ATOM     78  C   UNL A   1      50.428  27.282  28.766  1.00  0.00     0.001 A 
ATOM     79  C   UNL A   1      51.172  27.841  27.727  1.00  0.00     0.000 A 
ENDBRANCH  60  74
BRANCH  61  80
ATOM     80  C   UNL A   1      38.588  29.596  29.113  1.00  0.00    -0.014 A 
ATOM     81  C   UNL A   1      37.734  30.032  28.089  1.00  0.00     0.009 A 
ATOM     82  C   UNL A   1      38.034  29.274  30.363  1.00  0.00     0.009 A 
ATOM     83  C   UNL A   1      36.360  30.154  28.316  1.00  0.00     0.001 A 
ATOM     84  C   UNL A   1      36.657  29.373  30.579  1.00  0.00     0.001 A 
ATOM     85  C   UNL A   1      35.822  29.817  29.556  1.00  0.00     0.000 A 
ENDBRANCH  61  80
BRANCH  73  86
ATOM     86  C   UNL A   1      44.092  33.558  30.796  1.00  0.00    -0.014 A 
ATOM     87  C   UNL A   1      43.998  34.748  30.062  1.00  0.00     0.009 A 
ATOM     88  C   UNL A   1      44.214  33.624  32.193  1.00  0.00     0.009 A 
ATOM     89  C   UNL A   1      44.042  35.982  30.715  1.00  0.00     0.001 A 
ATOM     90  C   UNL A   1      44.230  34.856  32.846  1.00  0.00     0.001 A 
ATOM     91  C   UNL A   1      44.150  36.035  32.105  1.00  0.00     0.000 A 
ENDBRANCH  73  86
ENDBRANCH  47  48
ENDBRANCH  40  42
ENDBRANCH  39  40
ENDBRANCH  38  39
ENDBRANCH  37  38
ENDBRANCH  36  37
ENDBRANCH  35  36
ENDBRANCH  34  35
ENDBRANCH  33  34
ENDBRANCH   1  33
TORSDOF 24
ENDMDL
MODEL 2
REMARK VINA RESULT:      -9.6      2.573      6.956
REMARK SMILES O=C(C[C@H](NC(=O)[C@]12C[C@H]3C[C@H](C[C@H](C3)C1)C2)c1ccc(Cl)cc1Cl)OCCOCCOCCOCCOC(=O)c1ccc(-c2c3nc(c(-c4ccccc4)c4ccc([nH]4)c(-c4ccccc4)c4nc(c(-c5ccccc5)c5ccc2[nH]5)C=C4)C=C3)cc1
REMARK SMILES IDX 31 1 30 2 29 3 28 4 27 5 26 6 2 7 1 8 3 9 4 10 18 11 19 12
REMARK SMILES IDX 24 13 20 14 23 15 25 16 21 17 22 18 5 19 6 20 7 22 8 23 9 24
REMARK SMILES IDX 16 25 17 26 10 27 14 28 12 29 11 30 15 31 13 32 32 33 33 34
REMARK SMILES IDX 34 35 35 36 36 37 37 38 38 39 39 40 40 41 41 42 42 43 88 44
REMARK SMILES IDX 43 45 87 46 44 47 45 48 46 49 81 50 47 51 86 52 80 53 82 54
REMARK SMILES IDX 48 55 85 56 79 57 78 58 49 60 71 61 56 62 70 63 57 64 60 65
REMARK SMILES IDX 69 66 83 67 58 68 59 69 68 71 84 72 61 73 50 74 51 75 55 76
REMARK SMILES IDX 52 77 54 78 53 79 72 80 73 81 77 82 74 83 76 84 75 85 62 86
REMARK SMILES IDX 63 87 67 88 64 89 66 90 65 91
REMARK H PARENT 5 21 82 59 60 70
REMARK Flexibility Score: inf
ROOT
ATOM      1  C   UNL A   1      35.004  23.864  26.110  1.00  0.00     0.188 C 
ENDROOT
BRANCH   1   2
ATOM      2  C   UNL A   1      34.189  24.951  25.396  1.00  0.00     0.188 C 
BRANCH   2   3
ATOM      3  O   UNL A   1      33.498  24.659  24.202  1.00  0.00    -0.376 OA
BRANCH   3   4
ATOM      4  C   UNL A   1      32.192  24.118  24.132  1.00  0.00     0.202 C 
BRANCH   4   5
ATOM      5  C   UNL A   1      30.891  24.928  23.997  1.00  0.00     0.261 C 
BRANCH   5   6
ATOM      6  O   UNL A   1      30.737  26.181  24.675  1.00  0.00    -0.463 OA
BRANCH   6   7
ATOM      7  C   UNL A   1      30.773  26.283  26.029  1.00  0.00     0.308 C 
ATOM      8  O   UNL A   1      29.896  25.775  26.716  1.00  0.00    -0.252 OA
BRANCH   7   9
ATOM      9  C   UNL A   1      31.805  27.231  26.581  1.00  0.00     0.152 C 
BRANCH   9  10
ATOM     10  C   UNL A   1      31.896  28.538  25.832  1.00  0.00     0.125 C 
BRANCH  10  11
ATOM     11  C   UNL A   1      33.025  29.360  26.465  1.00  0.00    -0.006 A 
ATOM     12  C   UNL A   1      34.264  28.780  26.770  1.00  0.00     0.009 A 
ATOM     13  C   UNL A   1      32.796  30.687  26.913  1.00  0.00     0.047 A 
ATOM     14  C   UNL A   1      35.200  29.457  27.558  1.00  0.00     0.021 A 
ATOM     15  C   UNL A   1      33.724  31.356  27.715  1.00  0.00     0.041 A 
ATOM     16  Cl  UNL A   1      31.337  31.551  26.542  1.00  0.00    -0.084 Cl
ATOM     17  C   UNL A   1      34.917  30.730  28.045  1.00  0.00     0.042 A 
ATOM     18  Cl  UNL A   1      36.044  31.530  29.068  1.00  0.00    -0.084 Cl
ENDBRANCH  10  11
BRANCH  10  19
ATOM     19  N   UNL A   1      31.928  28.446  24.362  1.00  0.00    -0.348 N 
ATOM     20  C   UNL A   1      31.304  28.827  23.228  1.00  0.00     0.226 C 
ATOM     21  H   UNL A   1      32.703  27.892  24.110  1.00  0.00     0.164 HD
ATOM     22  O   UNL A   1      31.906  28.410  22.222  1.00  0.00    -0.274 OA
BRANCH  20  23
ATOM     23  C   UNL A   1      29.995  29.651  23.026  1.00  0.00     0.050 C 
ATOM     24  C   UNL A   1      28.725  28.774  23.040  1.00  0.00     0.020 C 
ATOM     25  C   UNL A   1      30.085  30.284  21.584  1.00  0.00     0.020 C 
ATOM     26  C   UNL A   1      29.819  30.859  23.976  1.00  0.00     0.020 C 
ATOM     27  C   UNL A   1      27.468  29.590  22.673  1.00  0.00    -0.010 C 
ATOM     28  C   UNL A   1      28.837  31.103  21.218  1.00  0.00    -0.010 C 
ATOM     29  C   UNL A   1      28.538  31.660  23.640  1.00  0.00    -0.010 C 
ATOM     30  C   UNL A   1      27.297  30.752  23.657  1.00  0.00     0.007 C 
ATOM     31  C   UNL A   1      27.615  30.177  21.264  1.00  0.00     0.007 C 
ATOM     32  C   UNL A   1      28.668  32.247  22.230  1.00  0.00     0.007 C 
ENDBRANCH  20  23
ENDBRANCH  10  19
ENDBRANCH   9  10
ENDBRANCH   7   9
ENDBRANCH   6   7
ENDBRANCH   5   6
ENDBRANCH   4   5
ENDBRANCH   3   4
ENDBRANCH   2   3
ENDBRANCH   1   2
BRANCH   1  33
ATOM     33  O   UNL A   1      35.470  22.762  25.360  1.00  0.00    -0.377 OA
BRANCH  33  34
ATOM     34  C   UNL A   1      35.041  21.486  25.796  1.00  0.00     0.188 C 
BRANCH  34  35
ATOM     35  C   UNL A   1      35.197  20.256  24.863  1.00  0.00     0.188 C 
BRANCH  35  36
ATOM     36  O   UNL A   1      36.388  19.498  25.055  1.00  0.00    -0.376 OA
BRANCH  36  37
ATOM     37  C   UNL A   1      37.605  20.181  24.779  1.00  0.00     0.202 C 
BRANCH  37  38
ATOM     38  C   UNL A   1      38.863  19.545  25.390  1.00  0.00     0.261 C 
BRANCH  38  39
ATOM     39  O   UNL A   1      39.839  20.472  25.886  1.00  0.00    -0.460 OA
BRANCH  39  40
ATOM     40  C   UNL A   1      41.099  20.025  26.080  1.00  0.00     0.338 C 
ATOM     41  O   UNL A   1      41.545  18.928  25.798  1.00  0.00    -0.246 OA
BRANCH  40  42
ATOM     42  C   UNL A   1      41.910  21.206  26.454  1.00  0.00     0.060 A 
ATOM     43  C   UNL A   1      42.310  21.357  27.793  1.00  0.00     0.016 A 
ATOM     44  C   UNL A   1      42.396  22.070  25.468  1.00  0.00     0.016 A 
ATOM     45  C   UNL A   1      43.232  22.350  28.137  1.00  0.00     0.010 A 
ATOM     46  C   UNL A   1      43.263  23.103  25.824  1.00  0.00     0.010 A 
ATOM     47  C   UNL A   1      43.670  23.255  27.160  1.00  0.00    -0.014 A 
BRANCH  47  48
ATOM     48  C   UNL A   1      44.251  24.553  27.569  1.00  0.00     0.031 A 
ATOM     49  C   UNL A   1      43.294  25.549  28.162  1.00  0.00     0.074 A 
ATOM     50  C   UNL A   1      45.536  24.880  27.351  1.00  0.00     0.049 A 
ATOM     51  N   UNL A   1      43.483  26.802  28.480  1.00  0.00    -0.248 NA
ATOM     52  C   UNL A   1      41.926  25.061  28.415  1.00  0.00     0.031 C 
ATOM     53  C   UNL A   1      46.564  23.993  26.811  1.00  0.00     0.029 A 
ATOM     54  N   UNL A   1      46.183  26.077  27.536  1.00  0.00    -0.354 N 
ATOM     55  C   UNL A   1      42.258  27.248  28.955  1.00  0.00     0.074 A 
ATOM     56  C   UNL A   1      41.332  26.144  28.879  1.00  0.00     0.031 C 
ATOM     57  C   UNL A   1      47.708  24.690  26.673  1.00  0.00     0.029 A 
ATOM     58  C   UNL A   1      47.478  26.078  27.079  1.00  0.00     0.049 A 
ATOM     59  H   UNL A   1      45.759  26.860  27.956  1.00  0.00     0.167 HD
ATOM     60  C   UNL A   1      41.918  28.478  29.400  1.00  0.00     0.031 A 
ATOM     61  C   UNL A   1      48.356  27.094  26.964  1.00  0.00     0.031 A 
ATOM     62  C   UNL A   1      42.817  29.593  29.410  1.00  0.00     0.049 A 
ATOM     63  C   UNL A   1      47.942  28.480  27.392  1.00  0.00     0.074 A 
ATOM     64  C   UNL A   1      42.583  30.886  29.839  1.00  0.00     0.029 A 
ATOM     65  N   UNL A   1      44.121  29.550  28.938  1.00  0.00    -0.354 N 
ATOM     66  N   UNL A   1      46.794  28.885  27.883  1.00  0.00    -0.248 NA
ATOM     67  C   UNL A   1      48.940  29.548  27.247  1.00  0.00     0.031 C 
ATOM     68  C   UNL A   1      43.728  31.641  29.571  1.00  0.00     0.029 A 
ATOM     69  C   UNL A   1      44.696  30.801  29.038  1.00  0.00     0.049 A 
ATOM     70  H   UNL A   1      44.569  28.747  28.586  1.00  0.00     0.167 HD
ATOM     71  C   UNL A   1      46.942  30.244  28.132  1.00  0.00     0.074 A 
ATOM     72  C   UNL A   1      48.292  30.595  27.741  1.00  0.00     0.031 C 
ATOM     73  C   UNL A   1      46.045  31.123  28.646  1.00  0.00     0.031 A 
BRANCH  60  74
ATOM     74  C   UNL A   1      40.492  28.668  29.827  1.00  0.00    -0.014 A 
ATOM     75  C   UNL A   1      40.128  28.671  31.183  1.00  0.00     0.009 A 
ATOM     76  C   UNL A   1      39.491  28.790  28.852  1.00  0.00     0.009 A 
ATOM     77  C   UNL A   1      38.784  28.741  31.553  1.00  0.00     0.001 A 
ATOM     78  C   UNL A   1      38.150  28.892  29.225  1.00  0.00     0.001 A 
ATOM     79  C   UNL A   1      37.797  28.854  30.573  1.00  0.00     0.000 A 
ENDBRANCH  60  74
BRANCH  61  80
ATOM     80  C   UNL A   1      49.703  26.848  26.382  1.00  0.00    -0.014 A 
ATOM     81  C   UNL A   1      50.791  26.509  27.201  1.00  0.00     0.009 A 
ATOM     82  C   UNL A   1      49.906  26.946  24.995  1.00  0.00     0.009 A 
ATOM     83  C   UNL A   1      52.053  26.284  26.644  1.00  0.00     0.001 A 
ATOM     84  C   UNL A   1      51.164  26.696  24.440  1.00  0.00     0.001 A 
ATOM     85  C   UNL A   1      52.237  26.370  25.266  1.00  0.00     0.000 A 
ENDBRANCH  61  80
BRANCH  73  86
ATOM     86  C   UNL A   1      46.497  32.541  28.860  1.00  0.00    -0.014 A 
ATOM     87  C   UNL A   1      47.329  32.890  29.932  1.00  0.00     0.009 A 
ATOM     88  C   UNL A   1      46.156  33.519  27.912  1.00  0.00     0.009 A 
ATOM     89  C   UNL A   1      47.798  34.200  30.060  1.00  0.00     0.001 A 
ATOM     90  C   UNL A   1      46.649  34.819  28.027  1.00  0.00     0.001 A 
ATOM     91  C   UNL A   1      47.465  35.160  29.105  1.00  0.00     0.000 A 
ENDBRANCH  73  86
ENDBRANCH  47  48
ENDBRANCH  40  42
ENDBRANCH  39  40
ENDBRANCH  38  39
ENDBRANCH  37  38
ENDBRANCH  36  37
ENDBRANCH  35  36
ENDBRANCH  34  35
ENDBRANCH  33  34
ENDBRANCH   1  33
TORSDOF 24
ENDMDL
MODEL 3
REMARK VINA RESULT:      -9.5      3.499      4.549
REMARK SMILES O=C(C[C@H](NC(=O)[C@]12C[C@H]3C[C@H](C[C@H](C3)C1)C2)c1ccc(Cl)cc1Cl)OCCOCCOCCOCCOC(=O)c1ccc(-c2c3nc(c(-c4ccccc4)c4ccc([nH]4)c(-c4ccccc4)c4nc(c(-c5ccccc5)c5ccc2[nH]5)C=C4)C=C3)cc1
REMARK SMILES IDX 31 1 30 2 29 3 28 4 27 5 26 6 2 7 1 8 3 9 4 10 18 11 19 12
REMARK SMILES IDX 24 13 20 14 23 15 25 16 21 17 22 18 5 19 6 20 7 22 8 23 9 24
REMARK SMILES IDX 16 25 17 26 10 27 14 28 12 29 11 30 15 31 13 32 32 33 33 34
REMARK SMILES IDX 34 35 35 36 36 37 37 38 38 39 39 40 40 41 41 42 42 43 88 44
REMARK SMILES IDX 43 45 87 46 44 47 45 48 46 49 81 50 47 51 86 52 80 53 82 54
REMARK SMILES IDX 48 55 85 56 79 57 78 58 49 60 71 61 56 62 70 63 57 64 60 65
REMARK SMILES IDX 69 66 83 67 58 68 59 69 68 71 84 72 61 73 50 74 51 75 55 76
REMARK SMILES IDX 52 77 54 78 53 79 72 80 73 81 77 82 74 83 76 84 75 85 62 86
REMARK SMILES IDX 63 87 67 88 64 89 66 90 65 91
REMARK H PARENT 5 21 82 59 60 70
REMARK Flexibility Score: inf
ROOT
ATOM      1  C   UNL A   1      35.605  19.132  24.838  1.00  0.00     0.188 C 
ENDROOT
BRANCH   1   2
ATOM      2  C   UNL A   1      34.765  17.874  24.573  1.00  0.00     0.188 C 
BRANCH   2   3
ATOM      3  O   UNL A   1      33.425  17.804  25.007  1.00  0.00    -0.376 OA
BRANCH   3   4
ATOM      4  C   UNL A   1      32.505  18.879  24.973  1.00  0.00     0.202 C 
BRANCH   4   5
ATOM      5  C   UNL A   1      32.074  19.652  23.714  1.00  0.00     0.261 C 
BRANCH   5   6
ATOM      6  O   UNL A   1      32.674  20.913  23.390  1.00  0.00    -0.463 OA
BRANCH   6   7
ATOM      7  C   UNL A   1      32.378  21.586  22.248  1.00  0.00     0.308 C 
ATOM      8  O   UNL A   1      31.611  21.106  21.422  1.00  0.00    -0.252 OA
BRANCH   7   9
ATOM      9  C   UNL A   1      33.214  22.810  21.982  1.00  0.00     0.152 C 
BRANCH   9  10
ATOM     10  C   UNL A   1      32.796  24.020  22.782  1.00  0.00     0.125 C 
BRANCH  10  11
ATOM     11  C   UNL A   1      33.189  23.771  24.242  1.00  0.00    -0.006 A 
ATOM     12  C   UNL A   1      34.514  23.490  24.601  1.00  0.00     0.009 A 
ATOM     13  C   UNL A   1      32.198  23.653  25.251  1.00  0.00     0.047 A 
ATOM     14  C   UNL A   1      34.829  23.031  25.884  1.00  0.00     0.021 A 
ATOM     15  C   UNL A   1      32.511  23.177  26.527  1.00  0.00     0.041 A 
ATOM     16  Cl  UNL A   1      30.532  24.042  24.964  1.00  0.00    -0.084 Cl
ATOM     17  C   UNL A   1      33.825  22.854  26.832  1.00  0.00     0.042 A 
ATOM     18  Cl  UNL A   1      34.210  22.225  28.385  1.00  0.00    -0.084 Cl
ENDBRANCH  10  11
BRANCH  10  19
ATOM     19  N   UNL A   1      33.192  25.331  22.235  1.00  0.00    -0.348 N 
ATOM     20  C   UNL A   1      33.315  26.643  22.521  1.00  0.00     0.226 C 
ATOM     21  H   UNL A   1      33.473  25.196  21.300  1.00  0.00     0.164 HD
ATOM     22  O   UNL A   1      33.780  27.273  21.555  1.00  0.00    -0.274 OA
BRANCH  20  23
ATOM     23  C   UNL A   1      32.952  27.431  23.819  1.00  0.00     0.050 C 
ATOM     24  C   UNL A   1      33.302  28.931  23.729  1.00  0.00     0.020 C 
ATOM     25  C   UNL A   1      33.847  26.831  24.970  1.00  0.00     0.020 C 
ATOM     26  C   UNL A   1      31.498  27.252  24.316  1.00  0.00     0.020 C 
ATOM     27  C   UNL A   1      33.087  29.646  25.079  1.00  0.00    -0.010 C 
ATOM     28  C   UNL A   1      33.629  27.536  26.318  1.00  0.00    -0.010 C 
ATOM     29  C   UNL A   1      31.262  27.999  25.651  1.00  0.00    -0.010 C 
ATOM     30  C   UNL A   1      31.628  29.487  25.524  1.00  0.00     0.007 C 
ATOM     31  C   UNL A   1      33.983  29.020  26.154  1.00  0.00     0.007 C 
ATOM     32  C   UNL A   1      32.158  27.389  26.735  1.00  0.00     0.007 C 
ENDBRANCH  20  23
ENDBRANCH  10  19
ENDBRANCH   9  10
ENDBRANCH   7   9
ENDBRANCH   6   7
ENDBRANCH   5   6
ENDBRANCH   4   5
ENDBRANCH   3   4
ENDBRANCH   2   3
ENDBRANCH   1   2
BRANCH   1  33
ATOM     33  O   UNL A   1      37.013  19.027  24.804  1.00  0.00    -0.377 OA
BRANCH  33  34
ATOM     34  C   UNL A   1      37.732  20.189  25.172  1.00  0.00     0.188 C 
BRANCH  34  35
ATOM     35  C   UNL A   1      39.277  20.135  25.298  1.00  0.00     0.188 C 
BRANCH  35  36
ATOM     36  O   UNL A   1      39.861  21.195  26.051  1.00  0.00    -0.376 OA
BRANCH  36  37
ATOM     37  C   UNL A   1      41.045  20.864  26.765  1.00  0.00     0.202 C 
BRANCH  37  38
ATOM     38  C   UNL A   1      42.329  21.526  26.244  1.00  0.00     0.261 C 
BRANCH  38  39
ATOM     39  O   UNL A   1      42.144  22.789  25.587  1.00  0.00    -0.460 OA
BRANCH  39  40
ATOM     40  C   UNL A   1      43.153  23.685  25.638  1.00  0.00     0.338 C 
ATOM     41  O   UNL A   1      44.156  23.709  24.948  1.00  0.00    -0.246 OA
BRANCH  40  42
ATOM     42  C   UNL A   1      42.688  24.791  26.507  1.00  0.00     0.060 A 
ATOM     43  C   UNL A   1      43.527  25.904  26.694  1.00  0.00     0.016 A 
ATOM     44  C   UNL A   1      41.383  24.796  27.007  1.00  0.00     0.016 A 
ATOM     45  C   UNL A   1      43.040  27.041  27.346  1.00  0.00     0.010 A 
ATOM     46  C   UNL A   1      40.922  25.905  27.716  1.00  0.00     0.010 A 
ATOM     47  C   UNL A   1      41.753  27.022  27.902  1.00  0.00    -0.014 A 
BRANCH  47  48
ATOM     48  C   UNL A   1      41.398  27.989  28.964  1.00  0.00     0.031 A 
ATOM     49  C   UNL A   1      42.152  27.859  30.257  1.00  0.00     0.074 A 
ATOM     50  C   UNL A   1      40.401  28.880  28.836  1.00  0.00     0.049 A 
ATOM     51  N   UNL A   1      41.965  28.467  31.398  1.00  0.00    -0.248 NA
ATOM     52  C   UNL A   1      43.266  26.893  30.262  1.00  0.00     0.031 C 
ATOM     53  C   UNL A   1      39.617  29.119  27.626  1.00  0.00     0.029 A 
ATOM     54  N   UNL A   1      39.859  29.734  29.765  1.00  0.00    -0.354 N 
ATOM     55  C   UNL A   1      42.926  27.945  32.253  1.00  0.00     0.074 A 
ATOM     56  C   UNL A   1      43.689  26.971  31.510  1.00  0.00     0.031 C 
ATOM     57  C   UNL A   1      38.668  30.035  27.899  1.00  0.00     0.029 A 
ATOM     58  C   UNL A   1      38.756  30.413  29.310  1.00  0.00     0.049 A 
ATOM     59  H   UNL A   1      40.227  29.848  30.672  1.00  0.00     0.167 HD
ATOM     60  C   UNL A   1      43.148  28.233  33.554  1.00  0.00     0.031 A 
ATOM     61  C   UNL A   1      37.896  31.212  29.972  1.00  0.00     0.031 A 
ATOM     62  C   UNL A   1      42.347  29.147  34.312  1.00  0.00     0.049 A 
ATOM     63  C   UNL A   1      38.107  31.466  31.444  1.00  0.00     0.074 A 
ATOM     64  C   UNL A   1      42.480  29.517  35.637  1.00  0.00     0.029 A 
ATOM     65  N   UNL A   1      41.239  29.814  33.811  1.00  0.00    -0.354 N 
ATOM     66  N   UNL A   1      39.048  31.005  32.236  1.00  0.00    -0.248 NA
ATOM     67  C   UNL A   1      37.141  32.348  32.114  1.00  0.00     0.031 C 
ATOM     68  C   UNL A   1      41.414  30.364  35.955  1.00  0.00     0.029 A 
ATOM     69  C   UNL A   1      40.659  30.573  34.809  1.00  0.00     0.049 A 
ATOM     70  H   UNL A   1      40.915  29.756  32.883  1.00  0.00     0.167 HD
ATOM     71  C   UNL A   1      38.802  31.561  33.486  1.00  0.00     0.074 A 
ATOM     72  C   UNL A   1      37.627  32.397  33.347  1.00  0.00     0.031 C 
ATOM     73  C   UNL A   1      39.491  31.401  34.644  1.00  0.00     0.031 A 
BRANCH  60  74
ATOM     74  C   UNL A   1      44.254  27.478  34.230  1.00  0.00    -0.014 A 
ATOM     75  C   UNL A   1      44.024  26.236  34.844  1.00  0.00     0.009 A 
ATOM     76  C   UNL A   1      45.534  28.047  34.303  1.00  0.00     0.009 A 
ATOM     77  C   UNL A   1      45.042  25.603  35.560  1.00  0.00     0.001 A 
ATOM     78  C   UNL A   1      46.559  27.397  34.992  1.00  0.00     0.001 A 
ATOM     79  C   UNL A   1      46.308  26.183  35.631  1.00  0.00     0.000 A 
ENDBRANCH  60  74
BRANCH  61  80
ATOM     80  C   UNL A   1      36.729  31.799  29.259  1.00  0.00    -0.014 A 
ATOM     81  C   UNL A   1      36.797  33.086  28.704  1.00  0.00     0.009 A 
ATOM     82  C   UNL A   1      35.537  31.067  29.124  1.00  0.00     0.009 A 
ATOM     83  C   UNL A   1      35.694  33.630  28.040  1.00  0.00     0.001 A 
ATOM     84  C   UNL A   1      34.446  31.604  28.437  1.00  0.00     0.001 A 
ATOM     85  C   UNL A   1      34.524  32.887  27.899  1.00  0.00     0.000 A 
ENDBRANCH  61  80
BRANCH  73  86
ATOM     86  C   UNL A   1      39.029  32.175  35.847  1.00  0.00    -0.014 A 
ATOM     87  C   UNL A   1      39.398  33.512  36.044  1.00  0.00     0.009 A 
ATOM     88  C   UNL A   1      38.129  31.574  36.742  1.00  0.00     0.009 A 
ATOM     89  C   UNL A   1      38.888  34.229  37.129  1.00  0.00     0.001 A 
ATOM     90  C   UNL A   1      37.600  32.301  37.809  1.00  0.00     0.001 A 
ATOM     91  C   UNL A   1      37.984  33.627  38.005  1.00  0.00     0.000 A 
ENDBRANCH  73  86
ENDBRANCH  47  48
ENDBRANCH  40  42
ENDBRANCH  39  40
ENDBRANCH  38  39
ENDBRANCH  37  38
ENDBRANCH  36  37
ENDBRANCH  35  36
ENDBRANCH  34  35
ENDBRANCH  33  34
ENDBRANCH   1  33
TORSDOF 24
ENDMDL
