MODEL 1
REMARK VINA RESULT:      -9.2      0.000      0.000
REMARK SMILES CC(C)C(=O)Nc1ccc2c([C@H](C(=O)OCCOCCOCCOCCOC(=O)c3ccc(-c4c5nc(c(-c6ccccc6)c6ccc([nH]6)c(-c6ccccc6)c6nc(c(-c7ccccc7)c7ccc4[nH]7)C=C6)C=C5)cc3)[NH+]3CC[NH+](CC(=O)N(C)C)CC3)c[nH]c2c1
REMARK SMILES IDX 20 1 19 2 18 3 17 4 16 5 15 6 13 7 14 8 12 9 11 10 7 11 8 12
REMARK SMILES IDX 93 13 9 14 92 15 10 16 91 17 90 18 6 20 4 21 5 22 2 24 1 25
REMARK SMILES IDX 3 26 78 27 79 28 89 29 80 31 88 32 81 33 82 35 83 36 84 37
REMARK SMILES IDX 85 38 86 39 87 40 21 41 22 42 23 43 24 44 25 45 26 46 27 47
REMARK SMILES IDX 28 48 29 49 30 50 31 51 77 52 32 53 76 54 33 55 34 56 35 57
REMARK SMILES IDX 70 58 36 59 75 60 69 61 71 62 37 63 74 64 68 65 67 66 38 68
REMARK SMILES IDX 60 69 45 70 59 71 46 72 49 73 58 74 72 75 47 76 48 77 57 79
REMARK SMILES IDX 73 80 50 81 39 82 40 83 44 84 41 85 43 86 42 87 61 88 62 89
REMARK SMILES IDX 66 90 63 91 65 92 64 93 51 94 52 95 56 96 53 97 55 98 54 99
REMARK H PARENT 91 19 6 23 78 30 81 34 71 67 49 78
REMARK Flexibility Score: inf
ROOT
ATOM      1  C   UNL A   1      35.166  23.102  23.113  1.00  0.00     0.188 C 
ENDROOT
BRANCH   1   2
ATOM      2  C   UNL A   1      34.318  24.293  22.580  1.00  0.00     0.188 C 
BRANCH   2   3
ATOM      3  O   UNL A   1      32.957  23.954  22.369  1.00  0.00    -0.376 OA
BRANCH   3   4
ATOM      4  C   UNL A   1      32.190  25.017  21.827  1.00  0.00     0.202 C 
BRANCH   4   5
ATOM      5  C   UNL A   1      32.989  26.315  21.687  1.00  0.00     0.261 C 
BRANCH   5   6
ATOM      6  O   UNL A   1      32.907  27.244  22.791  1.00  0.00    -0.459 OA
BRANCH   6   7
ATOM      7  C   UNL A   1      31.683  27.732  23.170  1.00  0.00     0.370 C 
ATOM      8  O   UNL A   1      31.006  28.466  22.463  1.00  0.00    -0.245 OA
BRANCH   7   9
ATOM      9  C   UNL A   1      31.383  27.296  24.630  1.00  0.00     0.328 C 
BRANCH   9  10
ATOM     10  C   UNL A   1      32.469  26.376  25.139  1.00  0.00     0.046 A 
ATOM     11  C   UNL A   1      32.502  22.438  26.576  1.00  0.00     0.043 A 
ATOM     12  C   UNL A   1      31.254  22.931  26.219  1.00  0.00     0.027 A 
ATOM     13  C   UNL A   1      33.628  23.269  26.597  1.00  0.00     0.052 A 
ATOM     14  C   UNL A   1      31.123  24.216  25.704  1.00  0.00     0.013 A 
ATOM     15  C   UNL A   1      33.481  24.553  26.062  1.00  0.00     0.048 A 
ATOM     16  C   UNL A   1      32.262  25.036  25.599  1.00  0.00     0.009 A 
ATOM     17  N   UNL A   1      34.409  25.546  25.866  1.00  0.00    -0.361 N 
ATOM     18  C   UNL A   1      33.822  26.633  25.278  1.00  0.00     0.094 A 
ATOM     19  H   UNL A   1      35.361  25.486  26.113  1.00  0.00     0.166 HD
BRANCH  11  20
ATOM     20  N   UNL A   1      32.671  21.099  26.921  1.00  0.00    -0.326 N 
ATOM     21  C   UNL A   1      33.014  20.036  26.136  1.00  0.00     0.226 C 
ATOM     22  O   UNL A   1      32.962  18.914  26.654  1.00  0.00    -0.274 OA
ATOM     23  H   UNL A   1      32.521  20.889  27.872  1.00  0.00     0.169 HD
BRANCH  21  24
ATOM     24  C   UNL A   1      33.550  20.179  24.701  1.00  0.00     0.072 C 
ATOM     25  C   UNL A   1      34.639  19.185  24.314  1.00  0.00     0.018 C 
ATOM     26  C   UNL A   1      32.470  20.316  23.626  1.00  0.00     0.018 C 
ENDBRANCH  21  24
ENDBRANCH  11  20
ENDBRANCH   9  10
BRANCH   9  27
ATOM     27  N   UNL A   1      31.214  28.355  25.649  1.00  0.00    -0.310 N 
ATOM     28  C   UNL A   1      31.565  28.091  27.040  1.00  0.00     0.325 C 
ATOM     29  C   UNL A   1      31.509  29.728  25.274  1.00  0.00     0.325 C 
ATOM     30  H   UNL A   1      30.198  28.270  25.639  1.00  0.00     0.349 HD
ATOM     31  C   UNL A   1      32.979  28.558  27.477  1.00  0.00     0.325 C 
ATOM     32  C   UNL A   1      32.971  30.062  25.543  1.00  0.00     0.325 C 
ATOM     33  N   UNL A   1      33.536  29.764  26.847  1.00  0.00    -0.318 N 
ATOM     34  H   UNL A   1      34.502  29.496  26.655  1.00  0.00     0.348 HD
BRANCH  33  35
ATOM     35  C   UNL A   1      33.724  30.926  27.720  1.00  0.00     0.364 C 
BRANCH  35  36
ATOM     36  C   UNL A   1      35.181  31.390  27.766  1.00  0.00     0.277 C 
ATOM     37  O   UNL A   1      36.084  30.565  27.590  1.00  0.00    -0.268 OA
ATOM     38  N   UNL A   1      35.457  32.715  28.104  1.00  0.00    -0.344 N 
ATOM     39  C   UNL A   1      34.533  33.842  28.052  1.00  0.00     0.146 C 
ATOM     40  C   UNL A   1      36.820  33.038  28.481  1.00  0.00     0.146 C 
ENDBRANCH  35  36
ENDBRANCH  33  35
ENDBRANCH   9  27
ENDBRANCH   7   9
ENDBRANCH   6   7
ENDBRANCH   5   6
ENDBRANCH   4   5
ENDBRANCH   3   4
ENDBRANCH   2   3
ENDBRANCH   1   2
BRANCH   1  41
ATOM     41  O   UNL A   1      36.110  23.300  24.149  1.00  0.00    -0.377 OA
BRANCH  41  42
ATOM     42  C   UNL A   1      36.902  22.186  24.511  1.00  0.00     0.188 C 
BRANCH  42  43
ATOM     43  C   UNL A   1      37.900  22.362  25.677  1.00  0.00     0.188 C 
BRANCH  43  44
ATOM     44  O   UNL A   1      39.030  21.499  25.605  1.00  0.00    -0.376 OA
BRANCH  44  45
ATOM     45  C   UNL A   1      39.990  21.548  26.642  1.00  0.00     0.202 C 
BRANCH  45  46
ATOM     46  C   UNL A   1      41.187  22.477  26.411  1.00  0.00     0.261 C 
BRANCH  46  47
ATOM     47  O   UNL A   1      41.238  23.642  27.242  1.00  0.00    -0.460 OA
BRANCH  47  48
ATOM     48  C   UNL A   1      40.878  24.824  26.681  1.00  0.00     0.338 C 
ATOM     49  O   UNL A   1      39.763  25.242  26.504  1.00  0.00    -0.246 OA
BRANCH  48  50
ATOM     50  C   UNL A   1      42.126  25.620  26.570  1.00  0.00     0.060 A 
ATOM     51  C   UNL A   1      42.816  25.938  27.750  1.00  0.00     0.016 A 
ATOM     52  C   UNL A   1      42.681  25.913  25.320  1.00  0.00     0.016 A 
ATOM     53  C   UNL A   1      44.079  26.521  27.679  1.00  0.00     0.010 A 
ATOM     54  C   UNL A   1      43.920  26.554  25.251  1.00  0.00     0.010 A 
ATOM     55  C   UNL A   1      44.611  26.874  26.432  1.00  0.00    -0.014 A 
BRANCH  55  56
ATOM     56  C   UNL A   1      45.730  27.841  26.401  1.00  0.00     0.031 A 
ATOM     57  C   UNL A   1      45.369  29.291  26.569  1.00  0.00     0.074 A 
ATOM     58  C   UNL A   1      47.012  27.457  26.289  1.00  0.00     0.049 A 
ATOM     59  N   UNL A   1      46.144  30.341  26.620  1.00  0.00    -0.248 NA
ATOM     60  C   UNL A   1      43.932  29.593  26.708  1.00  0.00     0.031 C 
ATOM     61  C   UNL A   1      47.484  26.078  26.171  1.00  0.00     0.029 A 
ATOM     62  N   UNL A   1      48.158  28.211  26.260  1.00  0.00    -0.354 N 
ATOM     63  C   UNL A   1      45.291  31.422  26.798  1.00  0.00     0.074 A 
ATOM     64  C   UNL A   1      43.940  30.910  26.822  1.00  0.00     0.031 C 
ATOM     65  C   UNL A   1      48.826  26.086  26.074  1.00  0.00     0.029 A 
ATOM     66  C   UNL A   1      49.303  27.469  26.096  1.00  0.00     0.049 A 
ATOM     67  H   UNL A   1      48.161  29.191  26.349  1.00  0.00     0.167 HD
ATOM     68  C   UNL A   1      45.604  32.729  26.933  1.00  0.00     0.031 A 
ATOM     69  C   UNL A   1      50.581  27.872  25.962  1.00  0.00     0.031 A 
ATOM     70  C   UNL A   1      46.943  33.239  26.875  1.00  0.00     0.049 A 
ATOM     71  C   UNL A   1      50.895  29.346  26.026  1.00  0.00     0.074 A 
ATOM     72  C   UNL A   1      47.372  34.547  27.000  1.00  0.00     0.029 A 
ATOM     73  N   UNL A   1      48.070  32.462  26.655  1.00  0.00    -0.354 N 
ATOM     74  N   UNL A   1      50.086  30.358  26.234  1.00  0.00    -0.248 NA
ATOM     75  C   UNL A   1      52.303  29.732  25.849  1.00  0.00     0.031 C 
ATOM     76  C   UNL A   1      48.754  34.570  26.790  1.00  0.00     0.029 A 
ATOM     77  C   UNL A   1      49.193  33.267  26.607  1.00  0.00     0.049 A 
ATOM     78  H   UNL A   1      48.070  31.483  26.549  1.00  0.00     0.167 HD
ATOM     79  C   UNL A   1      50.889  31.494  26.241  1.00  0.00     0.074 A 
ATOM     80  C   UNL A   1      52.251  31.042  26.040  1.00  0.00     0.031 C 
ATOM     81  C   UNL A   1      50.537  32.793  26.402  1.00  0.00     0.031 A 
BRANCH  68  82
ATOM     82  C   UNL A   1      44.467  33.695  27.101  1.00  0.00    -0.014 A 
ATOM     83  C   UNL A   1      43.951  34.009  28.368  1.00  0.00     0.009 A 
ATOM     84  C   UNL A   1      43.914  34.313  25.968  1.00  0.00     0.009 A 
ATOM     85  C   UNL A   1      42.887  34.905  28.494  1.00  0.00     0.001 A 
ATOM     86  C   UNL A   1      42.870  35.229  26.100  1.00  0.00     0.001 A 
ATOM     87  C   UNL A   1      42.352  35.519  27.361  1.00  0.00     0.000 A 
ENDBRANCH  68  82
BRANCH  69  88
ATOM     88  C   UNL A   1      51.665  26.880  25.717  1.00  0.00    -0.014 A 
ATOM     89  C   UNL A   1      52.146  26.637  24.421  1.00  0.00     0.009 A 
ATOM     90  C   UNL A   1      52.192  26.133  26.782  1.00  0.00     0.009 A 
ATOM     91  C   UNL A   1      53.103  25.643  24.194  1.00  0.00     0.001 A 
ATOM     92  C   UNL A   1      53.173  25.164  26.558  1.00  0.00     0.001 A 
ATOM     93  C   UNL A   1      53.619  24.911  25.262  1.00  0.00     0.000 A 
ENDBRANCH  69  88
BRANCH  81  94
ATOM     94  C   UNL A   1      51.644  33.813  26.404  1.00  0.00    -0.014 A 
ATOM     95  C   UNL A   1      52.322  34.158  27.583  1.00  0.00     0.009 A 
ATOM     96  C   UNL A   1      52.039  34.407  25.194  1.00  0.00     0.009 A 
ATOM     97  C   UNL A   1      53.344  35.109  27.556  1.00  0.00     0.001 A 
ATOM     98  C   UNL A   1      53.085  35.329  25.164  1.00  0.00     0.001 A 
ATOM     99  C   UNL A   1      53.727  35.690  26.348  1.00  0.00     0.000 A 
ENDBRANCH  81  94
ENDBRANCH  55  56
ENDBRANCH  48  50
ENDBRANCH  47  48
ENDBRANCH  46  47
ENDBRANCH  45  46
ENDBRANCH  44  45
ENDBRANCH  43  44
ENDBRANCH  42  43
ENDBRANCH  41  42
ENDBRANCH   1  41
TORSDOF 26
ENDMDL
MODEL 2
REMARK VINA RESULT:      -8.7      2.417      3.513
REMARK SMILES CC(C)C(=O)Nc1ccc2c([C@H](C(=O)OCCOCCOCCOCCOC(=O)c3ccc(-c4c5nc(c(-c6ccccc6)c6ccc([nH]6)c(-c6ccccc6)c6nc(c(-c7ccccc7)c7ccc4[nH]7)C=C6)C=C5)cc3)[NH+]3CC[NH+](CC(=O)N(C)C)CC3)c[nH]c2c1
REMARK SMILES IDX 20 1 19 2 18 3 17 4 16 5 15 6 13 7 14 8 12 9 11 10 7 11 8 12
REMARK SMILES IDX 93 13 9 14 92 15 10 16 91 17 90 18 6 20 4 21 5 22 2 24 1 25
REMARK SMILES IDX 3 26 78 27 79 28 89 29 80 31 88 32 81 33 82 35 83 36 84 37
REMARK SMILES IDX 85 38 86 39 87 40 21 41 22 42 23 43 24 44 25 45 26 46 27 47
REMARK SMILES IDX 28 48 29 49 30 50 31 51 77 52 32 53 76 54 33 55 34 56 35 57
REMARK SMILES IDX 70 58 36 59 75 60 69 61 71 62 37 63 74 64 68 65 67 66 38 68
REMARK SMILES IDX 60 69 45 70 59 71 46 72 49 73 58 74 72 75 47 76 48 77 57 79
REMARK SMILES IDX 73 80 50 81 39 82 40 83 44 84 41 85 43 86 42 87 61 88 62 89
REMARK SMILES IDX 66 90 63 91 65 92 64 93 51 94 52 95 56 96 53 97 55 98 54 99
REMARK H PARENT 91 19 6 23 78 30 81 34 71 67 49 78
REMARK Flexibility Score: inf
ROOT
ATOM      1  C   UNL A   1      33.924  24.313  22.464  1.00  0.00     0.188 C 
ENDROOT
BRANCH   1   2
ATOM      2  C   UNL A   1      33.108  25.635  22.385  1.00  0.00     0.188 C 
BRANCH   2   3
ATOM      3  O   UNL A   1      33.731  26.623  21.580  1.00  0.00    -0.376 OA
BRANCH   3   4
ATOM      4  C   UNL A   1      33.950  27.848  22.261  1.00  0.00     0.202 C 
BRANCH   4   5
ATOM      5  C   UNL A   1      32.672  28.675  22.421  1.00  0.00     0.261 C 
BRANCH   5   6
ATOM      6  O   UNL A   1      31.585  28.050  23.140  1.00  0.00    -0.459 OA
BRANCH   6   7
ATOM      7  C   UNL A   1      31.039  28.687  24.224  1.00  0.00     0.370 C 
ATOM      8  O   UNL A   1      30.772  29.881  24.234  1.00  0.00    -0.245 OA
BRANCH   7   9
ATOM      9  C   UNL A   1      30.933  27.690  25.410  1.00  0.00     0.328 C 
BRANCH   9  10
ATOM     10  C   UNL A   1      30.656  26.294  24.902  1.00  0.00     0.046 A 
ATOM     11  C   UNL A   1      31.912  22.471  26.076  1.00  0.00     0.043 A 
ATOM     12  C   UNL A   1      32.431  23.523  26.819  1.00  0.00     0.027 A 
ATOM     13  C   UNL A   1      31.156  22.706  24.923  1.00  0.00     0.052 A 
ATOM     14  C   UNL A   1      32.065  24.835  26.539  1.00  0.00     0.013 A 
ATOM     15  C   UNL A   1      30.783  24.030  24.664  1.00  0.00     0.048 A 
ATOM     16  C   UNL A   1      31.204  25.094  25.456  1.00  0.00     0.009 A 
ATOM     17  N   UNL A   1      29.983  24.552  23.678  1.00  0.00    -0.361 N 
ATOM     18  C   UNL A   1      29.868  25.906  23.831  1.00  0.00     0.094 A 
ATOM     19  H   UNL A   1      29.553  24.028  22.964  1.00  0.00     0.166 HD
BRANCH  11  20
ATOM     20  N   UNL A   1      32.129  21.150  26.459  1.00  0.00    -0.326 N 
ATOM     21  C   UNL A   1      32.583  20.095  25.721  1.00  0.00     0.226 C 
ATOM     22  O   UNL A   1      32.556  18.980  26.256  1.00  0.00    -0.274 OA
ATOM     23  H   UNL A   1      31.925  20.947  27.401  1.00  0.00     0.169 HD
BRANCH  21  24
ATOM     24  C   UNL A   1      33.209  20.244  24.322  1.00  0.00     0.072 C 
ATOM     25  C   UNL A   1      34.688  20.610  24.311  1.00  0.00     0.018 C 
ATOM     26  C   UNL A   1      32.875  19.113  23.349  1.00  0.00     0.018 C 
ENDBRANCH  21  24
ENDBRANCH  11  20
ENDBRANCH   9  10
BRANCH   9  27
ATOM     27  N   UNL A   1      32.086  27.584  26.331  1.00  0.00    -0.310 N 
ATOM     28  C   UNL A   1      33.445  27.583  25.802  1.00  0.00     0.325 C 
ATOM     29  C   UNL A   1      32.010  28.265  27.614  1.00  0.00     0.325 C 
ATOM     30  H   UNL A   1      31.903  26.598  26.522  1.00  0.00     0.349 HD
ATOM     31  C   UNL A   1      34.171  28.955  25.813  1.00  0.00     0.325 C 
ATOM     32  C   UNL A   1      32.557  29.683  27.507  1.00  0.00     0.325 C 
ATOM     33  N   UNL A   1      33.858  29.896  26.899  1.00  0.00    -0.318 N 
ATOM     34  H   UNL A   1      33.774  30.787  26.411  1.00  0.00     0.348 HD
BRANCH  33  35
ATOM     35  C   UNL A   1      34.943  30.182  27.844  1.00  0.00     0.364 C 
BRANCH  35  36
ATOM     36  C   UNL A   1      35.012  31.664  28.218  1.00  0.00     0.277 C 
ATOM     37  O   UNL A   1      34.576  32.507  27.428  1.00  0.00    -0.268 OA
ATOM     38  N   UNL A   1      35.657  32.032  29.399  1.00  0.00    -0.344 N 
ATOM     39  C   UNL A   1      35.952  31.172  30.539  1.00  0.00     0.146 C 
ATOM     40  C   UNL A   1      36.017  33.428  29.556  1.00  0.00     0.146 C 
ENDBRANCH  35  36
ENDBRANCH  33  35
ENDBRANCH   9  27
ENDBRANCH   7   9
ENDBRANCH   6   7
ENDBRANCH   5   6
ENDBRANCH   4   5
ENDBRANCH   3   4
ENDBRANCH   2   3
ENDBRANCH   1   2
BRANCH   1  41
ATOM     41  O   UNL A   1      35.130  24.256  23.203  1.00  0.00    -0.377 OA
BRANCH  41  42
ATOM     42  C   UNL A   1      35.042  24.527  24.587  1.00  0.00     0.188 C 
BRANCH  42  43
ATOM     43  C   UNL A   1      36.070  23.848  25.520  1.00  0.00     0.188 C 
BRANCH  43  44
ATOM     44  O   UNL A   1      37.330  23.598  24.905  1.00  0.00    -0.376 OA
BRANCH  44  45
ATOM     45  C   UNL A   1      37.891  22.305  25.009  1.00  0.00     0.202 C 
BRANCH  45  46
ATOM     46  C   UNL A   1      38.710  22.023  26.272  1.00  0.00     0.261 C 
BRANCH  46  47
ATOM     47  O   UNL A   1      39.952  21.339  26.067  1.00  0.00    -0.460 OA
BRANCH  47  48
ATOM     48  C   UNL A   1      40.708  21.079  27.163  1.00  0.00     0.338 C 
ATOM     49  O   UNL A   1      40.750  20.057  27.799  1.00  0.00    -0.246 OA
BRANCH  48  50
ATOM     50  C   UNL A   1      41.672  22.202  27.271  1.00  0.00     0.060 A 
ATOM     51  C   UNL A   1      42.470  22.282  28.424  1.00  0.00     0.016 A 
ATOM     52  C   UNL A   1      41.893  23.064  26.192  1.00  0.00     0.016 A 
ATOM     53  C   UNL A   1      43.510  23.206  28.484  1.00  0.00     0.010 A 
ATOM     54  C   UNL A   1      42.896  24.032  26.280  1.00  0.00     0.010 A 
ATOM     55  C   UNL A   1      43.693  24.115  27.433  1.00  0.00    -0.014 A 
BRANCH  55  56
ATOM     56  C   UNL A   1      44.507  25.322  27.691  1.00  0.00     0.031 A 
ATOM     57  C   UNL A   1      43.825  26.451  28.411  1.00  0.00     0.074 A 
ATOM     58  C   UNL A   1      45.807  25.399  27.358  1.00  0.00     0.049 A 
ATOM     59  N   UNL A   1      44.305  27.603  28.798  1.00  0.00    -0.248 NA
ATOM     60  C   UNL A   1      42.404  26.245  28.747  1.00  0.00     0.031 C 
ATOM     61  C   UNL A   1      46.586  24.349  26.704  1.00  0.00     0.029 A 
ATOM     62  N   UNL A   1      46.702  26.424  27.536  1.00  0.00    -0.354 N 
ATOM     63  C   UNL A   1      43.249  28.252  29.423  1.00  0.00     0.074 A 
ATOM     64  C   UNL A   1      42.097  27.385  29.344  1.00  0.00     0.031 C 
ATOM     65  C   UNL A   1      47.845  24.790  26.527  1.00  0.00     0.029 A 
ATOM     66  C   UNL A   1      47.952  26.159  27.032  1.00  0.00     0.049 A 
ATOM     67  H   UNL A   1      46.471  27.270  27.984  1.00  0.00     0.167 HD
ATOM     68  C   UNL A   1      43.238  29.467  30.014  1.00  0.00     0.031 A 
ATOM     69  C   UNL A   1      49.044  26.946  26.973  1.00  0.00     0.031 A 
ATOM     70  C   UNL A   1      44.374  30.342  30.061  1.00  0.00     0.049 A 
ATOM     71  C   UNL A   1      48.980  28.334  27.561  1.00  0.00     0.074 A 
ATOM     72  C   UNL A   1      44.472  31.594  30.636  1.00  0.00     0.029 A 
ATOM     73  N   UNL A   1      45.607  30.058  29.493  1.00  0.00    -0.354 N 
ATOM     74  N   UNL A   1      47.988  28.925  28.185  1.00  0.00    -0.248 NA
ATOM     75  C   UNL A   1      50.192  29.158  27.447  1.00  0.00     0.031 C 
ATOM     76  C   UNL A   1      45.746  32.099  30.358  1.00  0.00     0.029 A 
ATOM     77  C   UNL A   1      46.464  31.129  29.674  1.00  0.00     0.049 A 
ATOM     78  H   UNL A   1      45.837  29.221  29.030  1.00  0.00     0.167 HD
ATOM     79  C   UNL A   1      48.466  30.176  28.562  1.00  0.00     0.074 A 
ATOM     80  C   UNL A   1      49.842  30.247  28.116  1.00  0.00     0.031 C 
ATOM     81  C   UNL A   1      47.829  31.177  29.218  1.00  0.00     0.031 A 
BRANCH  68  82
ATOM     82  C   UNL A   1      41.939  29.933  30.605  1.00  0.00    -0.014 A 
ATOM     83  C   UNL A   1      40.986  30.618  29.835  1.00  0.00     0.009 A 
ATOM     84  C   UNL A   1      41.660  29.667  31.954  1.00  0.00     0.009 A 
ATOM     85  C   UNL A   1      39.790  31.049  30.412  1.00  0.00     0.001 A 
ATOM     86  C   UNL A   1      40.452  30.072  32.521  1.00  0.00     0.001 A 
ATOM     87  C   UNL A   1      39.520  30.769  31.753  1.00  0.00     0.000 A 
ENDBRANCH  68  82
BRANCH  69  88
ATOM     88  C   UNL A   1      50.286  26.467  26.305  1.00  0.00    -0.014 A 
ATOM     89  C   UNL A   1      51.212  25.661  26.986  1.00  0.00     0.009 A 
ATOM     90  C   UNL A   1      50.575  26.858  24.987  1.00  0.00     0.009 A 
ATOM     91  C   UNL A   1      52.413  25.289  26.376  1.00  0.00     0.001 A 
ATOM     92  C   UNL A   1      51.761  26.457  24.368  1.00  0.00     0.001 A 
ATOM     93  C   UNL A   1      52.685  25.683  25.067  1.00  0.00     0.000 A 
ENDBRANCH  69  88
BRANCH  81  94
ATOM     94  C   UNL A   1      48.624  32.416  29.527  1.00  0.00    -0.014 A 
ATOM     95  C   UNL A   1      48.692  33.488  28.624  1.00  0.00     0.009 A 
ATOM     96  C   UNL A   1      49.281  32.526  30.763  1.00  0.00     0.009 A 
ATOM     97  C   UNL A   1      49.439  34.626  28.935  1.00  0.00     0.001 A 
ATOM     98  C   UNL A   1      49.996  33.679  31.086  1.00  0.00     0.001 A 
ATOM     99  C   UNL A   1      50.086  34.722  30.166  1.00  0.00     0.000 A 
ENDBRANCH  81  94
ENDBRANCH  55  56
ENDBRANCH  48  50
ENDBRANCH  47  48
ENDBRANCH  46  47
ENDBRANCH  45  46
ENDBRANCH  44  45
ENDBRANCH  43  44
ENDBRANCH  42  43
ENDBRANCH  41  42
ENDBRANCH   1  41
TORSDOF 26
ENDMDL
MODEL 3
REMARK VINA RESULT:      -8.7      6.413      9.920
REMARK SMILES CC(C)C(=O)Nc1ccc2c([C@H](C(=O)OCCOCCOCCOCCOC(=O)c3ccc(-c4c5nc(c(-c6ccccc6)c6ccc([nH]6)c(-c6ccccc6)c6nc(c(-c7ccccc7)c7ccc4[nH]7)C=C6)C=C5)cc3)[NH+]3CC[NH+](CC(=O)N(C)C)CC3)c[nH]c2c1
REMARK SMILES IDX 20 1 19 2 18 3 17 4 16 5 15 6 13 7 14 8 12 9 11 10 7 11 8 12
REMARK SMILES IDX 93 13 9 14 92 15 10 16 91 17 90 18 6 20 4 21 5 22 2 24 1 25
REMARK SMILES IDX 3 26 78 27 79 28 89 29 80 31 88 32 81 33 82 35 83 36 84 37
REMARK SMILES IDX 85 38 86 39 87 40 21 41 22 42 23 43 24 44 25 45 26 46 27 47
REMARK SMILES IDX 28 48 29 49 30 50 31 51 77 52 32 53 76 54 33 55 34 56 35 57
REMARK SMILES IDX 70 58 36 59 75 60 69 61 71 62 37 63 74 64 68 65 67 66 38 68
REMARK SMILES IDX 60 69 45 70 59 71 46 72 49 73 58 74 72 75 47 76 48 77 57 79
REMARK SMILES IDX 73 80 50 81 39 82 40 83 44 84 41 85 43 86 42 87 61 88 62 89
REMARK SMILES IDX 66 90 63 91 65 92 64 93 51 94 52 95 56 96 53 97 55 98 54 99
REMARK H PARENT 91 19 6 23 78 30 81 34 71 67 49 78
REMARK Flexibility Score: inf
ROOT
ATOM      1  C   UNL A   1      34.110  23.607  22.293  1.00  0.00     0.188 C 
ENDROOT
BRANCH   1   2
ATOM      2  C   UNL A   1      33.328  24.948  22.404  1.00  0.00     0.188 C 
BRANCH   2   3
ATOM      3  O   UNL A   1      33.982  26.027  21.758  1.00  0.00    -0.376 OA
BRANCH   3   4
ATOM      4  C   UNL A   1      33.800  27.271  22.415  1.00  0.00     0.202 C 
BRANCH   4   5
ATOM      5  C   UNL A   1      32.510  27.981  21.995  1.00  0.00     0.261 C 
BRANCH   5   6
ATOM      6  O   UNL A   1      31.308  27.605  22.705  1.00  0.00    -0.459 OA
BRANCH   6   7
ATOM      7  C   UNL A   1      30.857  28.393  23.731  1.00  0.00     0.370 C 
ATOM      8  O   UNL A   1      30.680  29.599  23.621  1.00  0.00    -0.245 OA
BRANCH   7   9
ATOM      9  C   UNL A   1      30.728  27.539  25.021  1.00  0.00     0.328 C 
BRANCH   9  10
ATOM     10  C   UNL A   1      30.575  26.077  24.672  1.00  0.00     0.046 A 
ATOM     11  C   UNL A   1      32.180  22.533  26.233  1.00  0.00     0.043 A 
ATOM     12  C   UNL A   1      32.606  23.702  26.849  1.00  0.00     0.027 A 
ATOM     13  C   UNL A   1      31.397  22.572  25.074  1.00  0.00     0.052 A 
ATOM     14  C   UNL A   1      32.121  24.937  26.435  1.00  0.00     0.013 A 
ATOM     15  C   UNL A   1      30.905  23.821  24.679  1.00  0.00     0.048 A 
ATOM     16  C   UNL A   1      31.233  24.998  25.344  1.00  0.00     0.009 A 
ATOM     17  N   UNL A   1      30.055  24.159  23.656  1.00  0.00    -0.361 N 
ATOM     18  C   UNL A   1      29.818  25.506  23.663  1.00  0.00     0.094 A 
ATOM     19  H   UNL A   1      29.669  23.524  23.009  1.00  0.00     0.166 HD
BRANCH  11  20
ATOM     20  N   UNL A   1      32.518  21.286  26.753  1.00  0.00    -0.326 N 
ATOM     21  C   UNL A   1      33.031  20.191  26.119  1.00  0.00     0.226 C 
ATOM     22  O   UNL A   1      33.115  19.147  26.778  1.00  0.00    -0.274 OA
ATOM     23  H   UNL A   1      32.364  21.179  27.720  1.00  0.00     0.169 HD
BRANCH  21  24
ATOM     24  C   UNL A   1      33.593  20.224  24.687  1.00  0.00     0.072 C 
ATOM     25  C   UNL A   1      34.995  19.647  24.528  1.00  0.00     0.018 C 
ATOM     26  C   UNL A   1      32.628  19.730  23.610  1.00  0.00     0.018 C 
ENDBRANCH  21  24
ENDBRANCH  11  20
ENDBRANCH   9  10
BRANCH   9  27
ATOM     27  N   UNL A   1      31.816  27.624  26.021  1.00  0.00    -0.310 N 
ATOM     28  C   UNL A   1      33.200  27.758  25.582  1.00  0.00     0.325 C 
ATOM     29  C   UNL A   1      31.569  28.361  27.249  1.00  0.00     0.325 C 
ATOM     30  H   UNL A   1      31.737  26.636  26.262  1.00  0.00     0.349 HD
ATOM     31  C   UNL A   1      33.759  29.205  25.553  1.00  0.00     0.325 C 
ATOM     32  C   UNL A   1      31.954  29.827  27.089  1.00  0.00     0.325 C 
ATOM     33  N   UNL A   1      33.262  30.161  26.554  1.00  0.00    -0.318 N 
ATOM     34  H   UNL A   1      33.110  31.007  26.006  1.00  0.00     0.348 HD
BRANCH  33  35
ATOM     35  C   UNL A   1      34.235  30.627  27.547  1.00  0.00     0.364 C 
BRANCH  35  36
ATOM     36  C   UNL A   1      34.037  32.101  27.907  1.00  0.00     0.277 C 
ATOM     37  O   UNL A   1      32.894  32.528  28.099  1.00  0.00    -0.268 OA
ATOM     38  N   UNL A   1      35.145  32.948  27.911  1.00  0.00    -0.344 N 
ATOM     39  C   UNL A   1      36.547  32.556  27.992  1.00  0.00     0.146 C 
ATOM     40  C   UNL A   1      34.893  34.378  27.905  1.00  0.00     0.146 C 
ENDBRANCH  35  36
ENDBRANCH  33  35
ENDBRANCH   9  27
ENDBRANCH   7   9
ENDBRANCH   6   7
ENDBRANCH   5   6
ENDBRANCH   4   5
ENDBRANCH   3   4
ENDBRANCH   2   3
ENDBRANCH   1   2
BRANCH   1  41
ATOM     41  O   UNL A   1      35.280  23.393  23.061  1.00  0.00    -0.377 OA
BRANCH  41  42
ATOM     42  C   UNL A   1      35.290  23.928  24.369  1.00  0.00     0.188 C 
BRANCH  42  43
ATOM     43  C   UNL A   1      35.881  23.055  25.499  1.00  0.00     0.188 C 
BRANCH  43  44
ATOM     44  O   UNL A   1      37.086  22.387  25.141  1.00  0.00    -0.376 OA
BRANCH  44  45
ATOM     45  C   UNL A   1      38.267  22.686  25.859  1.00  0.00     0.202 C 
BRANCH  45  46
ATOM     46  C   UNL A   1      38.546  24.172  26.111  1.00  0.00     0.261 C 
BRANCH  46  47
ATOM     47  O   UNL A   1      39.619  24.457  27.016  1.00  0.00    -0.460 OA
BRANCH  47  48
ATOM     48  C   UNL A   1      40.382  25.547  26.753  1.00  0.00     0.338 C 
ATOM     49  O   UNL A   1      40.891  25.850  25.705  1.00  0.00    -0.246 OA
BRANCH  48  50
ATOM     50  C   UNL A   1      40.249  26.434  27.935  1.00  0.00     0.060 A 
ATOM     51  C   UNL A   1      40.893  27.681  27.904  1.00  0.00     0.016 A 
ATOM     52  C   UNL A   1      39.382  26.107  28.984  1.00  0.00     0.016 A 
ATOM     53  C   UNL A   1      40.644  28.615  28.907  1.00  0.00     0.010 A 
ATOM     54  C   UNL A   1      39.183  27.021  30.021  1.00  0.00     0.010 A 
ATOM     55  C   UNL A   1      39.828  28.268  29.992  1.00  0.00    -0.014 A 
BRANCH  55  56
ATOM     56  C   UNL A   1      39.910  29.093  31.217  1.00  0.00     0.031 A 
ATOM     57  C   UNL A   1      41.077  28.830  32.127  1.00  0.00     0.074 A 
ATOM     58  C   UNL A   1      39.030  30.071  31.487  1.00  0.00     0.049 A 
ATOM     59  N   UNL A   1      41.416  29.424  33.239  1.00  0.00    -0.248 NA
ATOM     60  C   UNL A   1      41.992  27.748  31.717  1.00  0.00     0.031 C 
ATOM     61  C   UNL A   1      37.890  30.450  30.653  1.00  0.00     0.029 A 
ATOM     62  N   UNL A   1      38.969  30.930  32.556  1.00  0.00    -0.354 N 
ATOM     63  C   UNL A   1      42.580  28.792  33.657  1.00  0.00     0.074 A 
ATOM     64  C   UNL A   1      42.878  27.754  32.698  1.00  0.00     0.031 C 
ATOM     65  C   UNL A   1      37.236  31.464  31.249  1.00  0.00     0.029 A 
ATOM     66  C   UNL A   1      37.894  31.786  32.515  1.00  0.00     0.049 A 
ATOM     67  H   UNL A   1      39.632  30.934  33.283  1.00  0.00     0.167 HD
ATOM     68  C   UNL A   1      43.337  29.055  34.744  1.00  0.00     0.031 A 
ATOM     69  C   UNL A   1      37.489  32.707  33.411  1.00  0.00     0.031 A 
ATOM     70  C   UNL A   1      43.020  30.064  35.713  1.00  0.00     0.049 A 
ATOM     71  C   UNL A   1      38.305  32.919  34.663  1.00  0.00     0.074 A 
ATOM     72  C   UNL A   1      43.721  30.413  36.852  1.00  0.00     0.029 A 
ATOM     73  N   UNL A   1      41.896  30.874  35.663  1.00  0.00    -0.354 N 
ATOM     74  N   UNL A   1      39.425  32.344  35.030  1.00  0.00    -0.248 NA
ATOM     75  C   UNL A   1      37.803  33.918  35.618  1.00  0.00     0.031 C 
ATOM     76  C   UNL A   1      42.985  31.391  37.529  1.00  0.00     0.029 A 
ATOM     77  C   UNL A   1      41.865  31.701  36.772  1.00  0.00     0.049 A 
ATOM     78  H   UNL A   1      41.222  30.862  34.947  1.00  0.00     0.167 HD
ATOM     79  C   UNL A   1      39.777  32.930  36.242  1.00  0.00     0.074 A 
ATOM     80  C   UNL A   1      38.762  33.922  36.534  1.00  0.00     0.031 C 
ATOM     81  C   UNL A   1      40.842  32.677  37.041  1.00  0.00     0.031 A 
BRANCH  68  82
ATOM     82  C   UNL A   1      44.549  28.196  34.961  1.00  0.00    -0.014 A 
ATOM     83  C   UNL A   1      45.810  28.565  34.466  1.00  0.00     0.009 A 
ATOM     84  C   UNL A   1      44.427  27.002  35.690  1.00  0.00     0.009 A 
ATOM     85  C   UNL A   1      46.919  27.742  34.675  1.00  0.00     0.001 A 
ATOM     86  C   UNL A   1      45.542  26.197  35.923  1.00  0.00     0.001 A 
ATOM     87  C   UNL A   1      46.786  26.563  35.409  1.00  0.00     0.000 A 
ENDBRANCH  68  82
BRANCH  69  88
ATOM     88  C   UNL A   1      36.236  33.478  33.188  1.00  0.00    -0.014 A 
ATOM     89  C   UNL A   1      36.273  34.824  32.789  1.00  0.00     0.009 A 
ATOM     90  C   UNL A   1      34.987  32.881  33.423  1.00  0.00     0.009 A 
ATOM     91  C   UNL A   1      35.092  35.561  32.665  1.00  0.00     0.001 A 
ATOM     92  C   UNL A   1      33.806  33.610  33.266  1.00  0.00     0.001 A 
ATOM     93  C   UNL A   1      33.860  34.953  32.900  1.00  0.00     0.000 A 
ENDBRANCH  69  88
BRANCH  81  94
ATOM     94  C   UNL A   1      40.983  33.509  38.287  1.00  0.00    -0.014 A 
ATOM     95  C   UNL A   1      41.986  34.483  38.410  1.00  0.00     0.009 A 
ATOM     96  C   UNL A   1      40.067  33.341  39.338  1.00  0.00     0.009 A 
ATOM     97  C   UNL A   1      42.095  35.239  39.578  1.00  0.00     0.001 A 
ATOM     98  C   UNL A   1      40.156  34.124  40.489  1.00  0.00     0.001 A 
ATOM     99  C   UNL A   1      41.179  35.063  40.613  1.00  0.00     0.000 A 
ENDBRANCH  81  94
ENDBRANCH  55  56
ENDBRANCH  48  50
ENDBRANCH  47  48
ENDBRANCH  46  47
ENDBRANCH  45  46
ENDBRANCH  44  45
ENDBRANCH  43  44
ENDBRANCH  42  43
ENDBRANCH  41  42
ENDBRANCH   1  41
TORSDOF 26
ENDMDL
