MODEL 1
REMARK VINA RESULT:     -10.1      0.000      0.000
REMARK SMILES Cc1ccc(/C=C/C(=O)N2C[C@@H](O)C[C@H]2C(=O)OCCOCCOCCOCCOC(=O)c2ccc(-c3c4nc(c(-c5ccccc5)c5ccc([nH]5)c(-c5ccccc5)c5nc(c(-c6ccccc6)c6ccc3[nH]6)C=C5)C=C4)cc2)c(C)c1
REMARK SMILES IDX 23 1 22 2 21 3 20 4 19 5 18 6 16 7 17 8 15 9 10 10 11 11
REMARK SMILES IDX 12 12 14 13 8 14 9 15 7 16 6 17 5 18 1 19 2 20 3 21 83 22
REMARK SMILES IDX 4 23 81 24 82 25 13 26 24 28 25 29 26 30 27 31 28 32 29 33
REMARK SMILES IDX 30 34 31 35 32 36 33 37 34 38 80 39 35 40 79 41 36 42 37 43
REMARK SMILES IDX 38 44 73 45 39 46 78 47 72 48 74 49 40 50 77 51 71 52 70 53
REMARK SMILES IDX 41 55 63 56 48 57 62 58 49 59 52 60 61 61 75 62 50 63 51 64
REMARK SMILES IDX 60 66 76 67 53 68 42 69 43 70 47 71 44 72 46 73 45 74 64 75
REMARK SMILES IDX 65 76 69 77 66 78 68 79 67 80 54 81 55 82 59 83 56 84 58 85
REMARK SMILES IDX 57 86
REMARK H PARENT 13 27 74 54 52 65
REMARK Flexibility Score: inf
ROOT
ATOM      1  C   UNL A   1      41.108  20.436  27.009  1.00  0.00     0.188 C 
ENDROOT
BRANCH   1   2
ATOM      2  C   UNL A   1      39.914  20.717  26.084  1.00  0.00     0.188 C 
BRANCH   2   3
ATOM      3  O   UNL A   1      39.376  22.012  26.212  1.00  0.00    -0.376 OA
BRANCH   3   4
ATOM      4  C   UNL A   1      38.076  22.294  25.746  1.00  0.00     0.202 C 
BRANCH   4   5
ATOM      5  C   UNL A   1      37.113  21.254  25.133  1.00  0.00     0.261 C 
BRANCH   5   6
ATOM      6  O   UNL A   1      35.990  21.702  24.356  1.00  0.00    -0.462 OA
BRANCH   6   7
ATOM      7  C   UNL A   1      34.755  21.318  24.772  1.00  0.00     0.329 C 
ATOM      8  O   UNL A   1      34.372  20.151  24.757  1.00  0.00    -0.250 OA
BRANCH   7   9
ATOM      9  C   UNL A   1      33.802  22.497  25.105  1.00  0.00     0.198 C 
ATOM     10  N   UNL A   1      32.948  23.162  24.092  1.00  0.00    -0.323 N 
ATOM     11  C   UNL A   1      31.569  22.747  24.235  1.00  0.00     0.152 C 
ATOM     12  C   UNL A   1      31.453  22.562  25.742  1.00  0.00     0.136 C 
ATOM     13  C   UNL A   1      32.793  21.943  26.125  1.00  0.00     0.071 C 
BRANCH  10  14
ATOM     14  C   UNL A   1      33.377  24.301  23.443  1.00  0.00     0.247 C 
ATOM     15  O   UNL A   1      33.794  24.290  22.286  1.00  0.00    -0.270 OA
BRANCH  14  16
ATOM     16  C   UNL A   1      33.311  25.594  24.175  1.00  0.00     0.072 C 
ATOM     17  C   UNL A   1      32.217  26.340  23.962  1.00  0.00     0.014 C 
BRANCH  17  18
ATOM     18  C   UNL A   1      31.783  27.584  24.630  1.00  0.00    -0.023 A 
ATOM     19  C   UNL A   1      31.610  31.443  26.600  1.00  0.00     0.044 C 
ATOM     20  C   UNL A   1      31.599  30.082  25.967  1.00  0.00    -0.051 A 
ATOM     21  C   UNL A   1      32.173  28.986  26.604  1.00  0.00     0.004 A 
ATOM     22  C   UNL A   1      31.052  29.903  24.691  1.00  0.00     0.007 A 
ATOM     23  C   UNL A   1      32.263  27.756  25.943  1.00  0.00     0.008 A 
ATOM     24  C   UNL A   1      31.129  28.666  24.009  1.00  0.00    -0.044 A 
ATOM     25  C   UNL A   1      30.574  28.650  22.611  1.00  0.00     0.045 C 
ENDBRANCH  17  18
ENDBRANCH  14  16
ENDBRANCH  10  14
BRANCH  12  26
ATOM     26  O   UNL A   1      30.365  21.741  26.122  1.00  0.00    -0.391 OA
ATOM     27  H   UNL A   1      30.436  21.525  27.065  1.00  0.00     0.211 HD
ENDBRANCH  12  26
ENDBRANCH   7   9
ENDBRANCH   6   7
ENDBRANCH   5   6
ENDBRANCH   4   5
ENDBRANCH   3   4
ENDBRANCH   2   3
ENDBRANCH   1   2
BRANCH   1  28
ATOM     28  O   UNL A   1      42.458  20.474  26.575  1.00  0.00    -0.377 OA
BRANCH  28  29
ATOM     29  C   UNL A   1      43.090  19.289  26.136  1.00  0.00     0.188 C 
BRANCH  29  30
ATOM     30  C   UNL A   1      44.044  19.347  24.931  1.00  0.00     0.188 C 
BRANCH  30  31
ATOM     31  O   UNL A   1      45.350  19.801  25.238  1.00  0.00    -0.376 OA
BRANCH  31  32
ATOM     32  C   UNL A   1      45.809  20.989  24.616  1.00  0.00     0.202 C 
BRANCH  32  33
ATOM     33  C   UNL A   1      44.783  22.081  24.269  1.00  0.00     0.261 C 
BRANCH  33  34
ATOM     34  O   UNL A   1      44.397  22.961  25.333  1.00  0.00    -0.460 OA
BRANCH  34  35
ATOM     35  C   UNL A   1      44.887  24.219  25.297  1.00  0.00     0.338 C 
ATOM     36  O   UNL A   1      45.754  24.655  24.573  1.00  0.00    -0.246 OA
BRANCH  35  37
ATOM     37  C   UNL A   1      44.043  25.042  26.190  1.00  0.00     0.060 A 
ATOM     38  C   UNL A   1      44.336  26.406  26.320  1.00  0.00     0.016 A 
ATOM     39  C   UNL A   1      42.971  24.474  26.881  1.00  0.00     0.016 A 
ATOM     40  C   UNL A   1      43.570  27.202  27.167  1.00  0.00     0.010 A 
ATOM     41  C   UNL A   1      42.223  25.267  27.755  1.00  0.00     0.010 A 
ATOM     42  C   UNL A   1      42.545  26.625  27.927  1.00  0.00    -0.014 A 
BRANCH  42  43
ATOM     43  C   UNL A   1      41.989  27.393  29.065  1.00  0.00     0.031 A 
ATOM     44  C   UNL A   1      42.691  27.296  30.390  1.00  0.00     0.074 A 
ATOM     45  C   UNL A   1      40.933  28.209  28.912  1.00  0.00     0.049 A 
ATOM     46  N   UNL A   1      42.419  27.893  31.522  1.00  0.00    -0.248 NA
ATOM     47  C   UNL A   1      43.864  26.407  30.443  1.00  0.00     0.031 C 
ATOM     48  C   UNL A   1      40.201  28.426  27.666  1.00  0.00     0.029 A 
ATOM     49  N   UNL A   1      40.296  29.014  29.823  1.00  0.00    -0.354 N 
ATOM     50  C   UNL A   1      43.384  27.450  32.418  1.00  0.00     0.074 A 
ATOM     51  C   UNL A   1      44.223  26.507  31.713  1.00  0.00     0.031 C 
ATOM     52  C   UNL A   1      39.208  29.306  27.893  1.00  0.00     0.029 A 
ATOM     53  C   UNL A   1      39.219  29.688  29.304  1.00  0.00     0.049 A 
ATOM     54  H   UNL A   1      40.586  29.100  30.761  1.00  0.00     0.167 HD
ATOM     55  C   UNL A   1      43.566  27.804  33.712  1.00  0.00     0.031 A 
ATOM     56  C   UNL A   1      38.334  30.504  29.907  1.00  0.00     0.031 A 
ATOM     57  C   UNL A   1      42.713  28.719  34.420  1.00  0.00     0.049 A 
ATOM     58  C   UNL A   1      38.500  30.816  31.372  1.00  0.00     0.074 A 
ATOM     59  C   UNL A   1      42.803  29.143  35.734  1.00  0.00     0.029 A 
ATOM     60  N   UNL A   1      41.601  29.342  33.873  1.00  0.00    -0.354 N 
ATOM     61  N   UNL A   1      39.430  30.413  32.205  1.00  0.00    -0.248 NA
ATOM     62  C   UNL A   1      37.502  31.711  31.975  1.00  0.00     0.031 C 
ATOM     63  C   UNL A   1      41.708  29.973  35.999  1.00  0.00     0.029 A 
ATOM     64  C   UNL A   1      40.979  30.125  34.831  1.00  0.00     0.049 A 
ATOM     65  H   UNL A   1      41.298  29.242  32.941  1.00  0.00     0.167 HD
ATOM     66  C   UNL A   1      39.147  31.026  33.420  1.00  0.00     0.074 A 
ATOM     67  C   UNL A   1      37.969  31.844  33.209  1.00  0.00     0.031 C 
ATOM     68  C   UNL A   1      39.802  30.926  34.604  1.00  0.00     0.031 A 
BRANCH  55  69
ATOM     69  C   UNL A   1      44.704  27.152  34.448  1.00  0.00    -0.014 A 
ATOM     70  C   UNL A   1      44.516  25.979  35.199  1.00  0.00     0.009 A 
ATOM     71  C   UNL A   1      45.984  27.723  34.393  1.00  0.00     0.009 A 
ATOM     72  C   UNL A   1      45.578  25.419  35.912  1.00  0.00     0.001 A 
ATOM     73  C   UNL A   1      47.051  27.141  35.080  1.00  0.00     0.001 A 
ATOM     74  C   UNL A   1      46.845  25.998  35.849  1.00  0.00     0.000 A 
ENDBRANCH  55  69
BRANCH  56  75
ATOM     75  C   UNL A   1      37.192  31.065  29.134  1.00  0.00    -0.014 A 
ATOM     76  C   UNL A   1      37.171  32.414  28.749  1.00  0.00     0.009 A 
ATOM     77  C   UNL A   1      36.103  30.247  28.793  1.00  0.00     0.009 A 
ATOM     78  C   UNL A   1      36.072  32.936  28.061  1.00  0.00     0.001 A 
ATOM     79  C   UNL A   1      35.021  30.764  28.076  1.00  0.00     0.001 A 
ATOM     80  C   UNL A   1      35.003  32.110  27.720  1.00  0.00     0.000 A 
ENDBRANCH  56  75
BRANCH  68  81
ATOM     81  C   UNL A   1      39.284  31.751  35.751  1.00  0.00    -0.014 A 
ATOM     82  C   UNL A   1      38.252  31.290  36.584  1.00  0.00     0.009 A 
ATOM     83  C   UNL A   1      39.864  33.001  36.021  1.00  0.00     0.009 A 
ATOM     84  C   UNL A   1      37.785  32.083  37.634  1.00  0.00     0.001 A 
ATOM     85  C   UNL A   1      39.421  33.775  37.093  1.00  0.00     0.001 A 
ATOM     86  C   UNL A   1      38.372  33.321  37.891  1.00  0.00     0.000 A 
ENDBRANCH  68  81
ENDBRANCH  42  43
ENDBRANCH  35  37
ENDBRANCH  34  35
ENDBRANCH  33  34
ENDBRANCH  32  33
ENDBRANCH  31  32
ENDBRANCH  30  31
ENDBRANCH  29  30
ENDBRANCH  28  29
ENDBRANCH   1  28
TORSDOF 24
ENDMDL
MODEL 2
REMARK VINA RESULT:     -10.0      1.651      3.998
REMARK SMILES Cc1ccc(/C=C/C(=O)N2C[C@@H](O)C[C@H]2C(=O)OCCOCCOCCOCCOC(=O)c2ccc(-c3c4nc(c(-c5ccccc5)c5ccc([nH]5)c(-c5ccccc5)c5nc(c(-c6ccccc6)c6ccc3[nH]6)C=C5)C=C4)cc2)c(C)c1
REMARK SMILES IDX 23 1 22 2 21 3 20 4 19 5 18 6 16 7 17 8 15 9 10 10 11 11
REMARK SMILES IDX 12 12 14 13 8 14 9 15 7 16 6 17 5 18 1 19 2 20 3 21 83 22
REMARK SMILES IDX 4 23 81 24 82 25 13 26 24 28 25 29 26 30 27 31 28 32 29 33
REMARK SMILES IDX 30 34 31 35 32 36 33 37 34 38 80 39 35 40 79 41 36 42 37 43
REMARK SMILES IDX 38 44 73 45 39 46 78 47 72 48 74 49 40 50 77 51 71 52 70 53
REMARK SMILES IDX 41 55 63 56 48 57 62 58 49 59 52 60 61 61 75 62 50 63 51 64
REMARK SMILES IDX 60 66 76 67 53 68 42 69 43 70 47 71 44 72 46 73 45 74 64 75
REMARK SMILES IDX 65 76 69 77 66 78 68 79 67 80 54 81 55 82 59 83 56 84 58 85
REMARK SMILES IDX 57 86
REMARK H PARENT 13 27 74 54 52 65
REMARK Flexibility Score: inf
ROOT
ATOM      1  C   UNL A   1      38.413  22.730  25.985  1.00  0.00     0.188 C 
ENDROOT
BRANCH   1   2
ATOM      2  C   UNL A   1      37.145  22.828  25.122  1.00  0.00     0.188 C 
BRANCH   2   3
ATOM      3  O   UNL A   1      36.513  24.085  25.162  1.00  0.00    -0.376 OA
BRANCH   3   4
ATOM      4  C   UNL A   1      35.107  24.177  25.194  1.00  0.00     0.202 C 
BRANCH   4   5
ATOM      5  C   UNL A   1      34.311  25.496  25.290  1.00  0.00     0.261 C 
BRANCH   5   6
ATOM      6  O   UNL A   1      33.299  25.640  26.302  1.00  0.00    -0.462 OA
BRANCH   6   7
ATOM      7  C   UNL A   1      32.309  26.539  26.065  1.00  0.00     0.329 C 
ATOM      8  O   UNL A   1      31.446  26.823  26.892  1.00  0.00    -0.250 OA
BRANCH   7   9
ATOM      9  C   UNL A   1      32.252  27.052  24.602  1.00  0.00     0.198 C 
ATOM     10  N   UNL A   1      31.232  26.603  23.623  1.00  0.00    -0.323 N 
ATOM     11  C   UNL A   1      30.229  27.626  23.425  1.00  0.00     0.152 C 
ATOM     12  C   UNL A   1      31.050  28.901  23.570  1.00  0.00     0.136 C 
ATOM     13  C   UNL A   1      32.020  28.569  24.700  1.00  0.00     0.071 C 
BRANCH  10  14
ATOM     14  C   UNL A   1      31.494  25.561  22.758  1.00  0.00     0.247 C 
ATOM     15  O   UNL A   1      32.049  25.722  21.672  1.00  0.00    -0.270 OA
BRANCH  14  16
ATOM     16  C   UNL A   1      31.102  24.187  23.172  1.00  0.00     0.072 C 
ATOM     17  C   UNL A   1      32.039  23.237  23.033  1.00  0.00     0.014 C 
BRANCH  17  18
ATOM     18  C   UNL A   1      32.021  21.829  23.477  1.00  0.00    -0.023 A 
ATOM     19  C   UNL A   1      32.979  17.679  24.293  1.00  0.00     0.044 C 
ATOM     20  C   UNL A   1      32.561  19.091  24.004  1.00  0.00    -0.051 A 
ATOM     21  C   UNL A   1      32.343  19.525  22.699  1.00  0.00     0.004 A 
ATOM     22  C   UNL A   1      32.435  20.017  25.047  1.00  0.00     0.007 A 
ATOM     23  C   UNL A   1      32.078  20.874  22.443  1.00  0.00     0.008 A 
ATOM     24  C   UNL A   1      32.162  21.384  24.806  1.00  0.00    -0.044 A 
ATOM     25  C   UNL A   1      32.141  22.273  26.019  1.00  0.00     0.045 C 
ENDBRANCH  17  18
ENDBRANCH  14  16
ENDBRANCH  10  14
BRANCH  12  26
ATOM     26  O   UNL A   1      30.266  30.040  23.866  1.00  0.00    -0.391 OA
ATOM     27  H   UNL A   1      30.243  30.627  23.094  1.00  0.00     0.211 HD
ENDBRANCH  12  26
ENDBRANCH   7   9
ENDBRANCH   6   7
ENDBRANCH   5   6
ENDBRANCH   4   5
ENDBRANCH   3   4
ENDBRANCH   2   3
ENDBRANCH   1   2
BRANCH   1  28
ATOM     28  O   UNL A   1      39.194  21.551  26.095  1.00  0.00    -0.377 OA
BRANCH  28  29
ATOM     29  C   UNL A   1      40.431  21.587  26.776  1.00  0.00     0.188 C 
BRANCH  29  30
ATOM     30  C   UNL A   1      41.669  20.947  26.125  1.00  0.00     0.188 C 
BRANCH  30  31
ATOM     31  O   UNL A   1      42.904  21.495  26.550  1.00  0.00    -0.376 OA
BRANCH  31  32
ATOM     32  C   UNL A   1      44.008  21.424  25.664  1.00  0.00     0.202 C 
BRANCH  32  33
ATOM     33  C   UNL A   1      44.007  22.321  24.414  1.00  0.00     0.261 C 
BRANCH  33  34
ATOM     34  O   UNL A   1      43.408  23.616  24.554  1.00  0.00    -0.460 OA
BRANCH  34  35
ATOM     35  C   UNL A   1      44.197  24.612  25.013  1.00  0.00     0.338 C 
ATOM     36  O   UNL A   1      45.310  24.907  24.635  1.00  0.00    -0.246 OA
BRANCH  35  37
ATOM     37  C   UNL A   1      43.388  25.414  25.954  1.00  0.00     0.060 A 
ATOM     38  C   UNL A   1      43.612  26.794  26.024  1.00  0.00     0.016 A 
ATOM     39  C   UNL A   1      42.413  24.809  26.750  1.00  0.00     0.016 A 
ATOM     40  C   UNL A   1      42.878  27.573  26.914  1.00  0.00     0.010 A 
ATOM     41  C   UNL A   1      41.698  25.586  27.666  1.00  0.00     0.010 A 
ATOM     42  C   UNL A   1      41.956  26.964  27.775  1.00  0.00    -0.014 A 
BRANCH  42  43
ATOM     43  C   UNL A   1      41.456  27.734  28.937  1.00  0.00     0.031 A 
ATOM     44  C   UNL A   1      42.205  27.615  30.235  1.00  0.00     0.074 A 
ATOM     45  C   UNL A   1      40.410  28.571  28.828  1.00  0.00     0.049 A 
ATOM     46  N   UNL A   1      41.986  28.209  31.380  1.00  0.00    -0.248 NA
ATOM     47  C   UNL A   1      43.362  26.704  30.239  1.00  0.00     0.031 C 
ATOM     48  C   UNL A   1      39.638  28.809  27.611  1.00  0.00     0.029 A 
ATOM     49  N   UNL A   1      39.823  29.380  29.767  1.00  0.00    -0.354 N 
ATOM     50  C   UNL A   1      42.975  27.743  32.237  1.00  0.00     0.074 A 
ATOM     51  C   UNL A   1      43.769  26.789  31.495  1.00  0.00     0.031 C 
ATOM     52  C   UNL A   1      38.670  29.705  27.880  1.00  0.00     0.029 A 
ATOM     53  C   UNL A   1      38.740  30.078  29.292  1.00  0.00     0.049 A 
ATOM     54  H   UNL A   1      40.148  29.454  30.694  1.00  0.00     0.167 HD
ATOM     55  C   UNL A   1      43.210  28.084  33.525  1.00  0.00     0.031 A 
ATOM     56  C   UNL A   1      37.893  30.906  29.932  1.00  0.00     0.031 A 
ATOM     57  C   UNL A   1      42.401  29.010  34.270  1.00  0.00     0.049 A 
ATOM     58  C   UNL A   1      38.119  31.205  31.392  1.00  0.00     0.074 A 
ATOM     59  C   UNL A   1      42.547  29.423  35.582  1.00  0.00     0.029 A 
ATOM     60  N   UNL A   1      41.282  29.657  33.768  1.00  0.00    -0.354 N 
ATOM     61  N   UNL A   1      39.071  30.778  32.188  1.00  0.00    -0.248 NA
ATOM     62  C   UNL A   1      37.161  32.114  32.037  1.00  0.00     0.031 C 
ATOM     63  C   UNL A   1      41.478  30.271  35.893  1.00  0.00     0.029 A 
ATOM     64  C   UNL A   1      40.709  30.444  34.753  1.00  0.00     0.049 A 
ATOM     65  H   UNL A   1      40.943  29.569  32.847  1.00  0.00     0.167 HD
ATOM     66  C   UNL A   1      38.844  31.388  33.416  1.00  0.00     0.074 A 
ATOM     67  C   UNL A   1      37.675  32.229  33.253  1.00  0.00     0.031 C 
ATOM     68  C   UNL A   1      39.540  31.269  34.575  1.00  0.00     0.031 A 
BRANCH  55  69
ATOM     69  C   UNL A   1      44.362  27.407  34.215  1.00  0.00    -0.014 A 
ATOM     70  C   UNL A   1      45.677  27.886  34.089  1.00  0.00     0.009 A 
ATOM     71  C   UNL A   1      44.129  26.269  35.002  1.00  0.00     0.009 A 
ATOM     72  C   UNL A   1      46.737  27.213  34.700  1.00  0.00     0.001 A 
ATOM     73  C   UNL A   1      45.186  25.619  35.640  1.00  0.00     0.001 A 
ATOM     74  C   UNL A   1      46.490  26.082  35.478  1.00  0.00     0.000 A 
ENDBRANCH  55  69
BRANCH  56  75
ATOM     75  C   UNL A   1      36.735  31.493  29.205  1.00  0.00    -0.014 A 
ATOM     76  C   UNL A   1      35.565  30.750  28.986  1.00  0.00     0.009 A 
ATOM     77  C   UNL A   1      36.806  32.804  28.709  1.00  0.00     0.009 A 
ATOM     78  C   UNL A   1      34.502  31.300  28.264  1.00  0.00     0.001 A 
ATOM     79  C   UNL A   1      35.729  33.363  28.016  1.00  0.00     0.001 A 
ATOM     80  C   UNL A   1      34.583  32.607  27.787  1.00  0.00     0.000 A 
ENDBRANCH  56  75
BRANCH  68  81
ATOM     81  C   UNL A   1      39.080  32.095  35.745  1.00  0.00    -0.014 A 
ATOM     82  C   UNL A   1      39.527  33.412  35.938  1.00  0.00     0.009 A 
ATOM     83  C   UNL A   1      38.154  31.554  36.651  1.00  0.00     0.009 A 
ATOM     84  C   UNL A   1      39.089  34.151  37.040  1.00  0.00     0.001 A 
ATOM     85  C   UNL A   1      37.690  32.307  37.730  1.00  0.00     0.001 A 
ATOM     86  C   UNL A   1      38.169  33.601  37.931  1.00  0.00     0.000 A 
ENDBRANCH  68  81
ENDBRANCH  42  43
ENDBRANCH  35  37
ENDBRANCH  34  35
ENDBRANCH  33  34
ENDBRANCH  32  33
ENDBRANCH  31  32
ENDBRANCH  30  31
ENDBRANCH  29  30
ENDBRANCH  28  29
ENDBRANCH   1  28
TORSDOF 24
ENDMDL
MODEL 3
REMARK VINA RESULT:      -9.9      1.131      5.809
REMARK SMILES Cc1ccc(/C=C/C(=O)N2C[C@@H](O)C[C@H]2C(=O)OCCOCCOCCOCCOC(=O)c2ccc(-c3c4nc(c(-c5ccccc5)c5ccc([nH]5)c(-c5ccccc5)c5nc(c(-c6ccccc6)c6ccc3[nH]6)C=C5)C=C4)cc2)c(C)c1
REMARK SMILES IDX 23 1 22 2 21 3 20 4 19 5 18 6 16 7 17 8 15 9 10 10 11 11
REMARK SMILES IDX 12 12 14 13 8 14 9 15 7 16 6 17 5 18 1 19 2 20 3 21 83 22
REMARK SMILES IDX 4 23 81 24 82 25 13 26 24 28 25 29 26 30 27 31 28 32 29 33
REMARK SMILES IDX 30 34 31 35 32 36 33 37 34 38 80 39 35 40 79 41 36 42 37 43
REMARK SMILES IDX 38 44 73 45 39 46 78 47 72 48 74 49 40 50 77 51 71 52 70 53
REMARK SMILES IDX 41 55 63 56 48 57 62 58 49 59 52 60 61 61 75 62 50 63 51 64
REMARK SMILES IDX 60 66 76 67 53 68 42 69 43 70 47 71 44 72 46 73 45 74 64 75
REMARK SMILES IDX 65 76 69 77 66 78 68 79 67 80 54 81 55 82 59 83 56 84 58 85
REMARK SMILES IDX 57 86
REMARK H PARENT 13 27 74 54 52 65
REMARK Flexibility Score: inf
ROOT
ATOM      1  C   UNL A   1      41.087  21.089  27.093  1.00  0.00     0.188 C 
ENDROOT
BRANCH   1   2
ATOM      2  C   UNL A   1      39.953  21.839  26.378  1.00  0.00     0.188 C 
BRANCH   2   3
ATOM      3  O   UNL A   1      39.686  23.119  26.901  1.00  0.00    -0.376 OA
BRANCH   3   4
ATOM      4  C   UNL A   1      38.435  23.733  26.683  1.00  0.00     0.202 C 
BRANCH   4   5
ATOM      5  C   UNL A   1      37.373  23.238  25.678  1.00  0.00     0.261 C 
BRANCH   5   6
ATOM      6  O   UNL A   1      36.071  23.848  25.667  1.00  0.00    -0.462 OA
BRANCH   6   7
ATOM      7  C   UNL A   1      34.999  23.023  25.782  1.00  0.00     0.329 C 
ATOM      8  O   UNL A   1      35.097  21.814  25.977  1.00  0.00    -0.250 OA
BRANCH   7   9
ATOM      9  C   UNL A   1      33.638  23.702  25.473  1.00  0.00     0.198 C 
ATOM     10  N   UNL A   1      32.956  23.593  24.161  1.00  0.00    -0.323 N 
ATOM     11  C   UNL A   1      31.839  22.676  24.241  1.00  0.00     0.152 C 
ATOM     12  C   UNL A   1      31.343  22.911  25.662  1.00  0.00     0.136 C 
ATOM     13  C   UNL A   1      32.631  23.088  26.460  1.00  0.00     0.071 C 
BRANCH  10  14
ATOM     14  C   UNL A   1      33.131  24.557  23.190  1.00  0.00     0.247 C 
ATOM     15  O   UNL A   1      34.214  24.764  22.647  1.00  0.00    -0.270 OA
BRANCH  14  16
ATOM     16  C   UNL A   1      31.950  25.363  22.778  1.00  0.00     0.072 C 
ATOM     17  C   UNL A   1      31.696  26.458  23.509  1.00  0.00     0.014 C 
BRANCH  17  18
ATOM     18  C   UNL A   1      30.707  27.531  23.282  1.00  0.00    -0.023 A 
ATOM     19  C   UNL A   1      27.987  30.425  21.540  1.00  0.00     0.044 C 
ATOM     20  C   UNL A   1      28.944  29.481  22.209  1.00  0.00    -0.051 A 
ATOM     21  C   UNL A   1      30.320  29.608  22.037  1.00  0.00     0.004 A 
ATOM     22  C   UNL A   1      28.461  28.418  22.982  1.00  0.00     0.007 A 
ATOM     23  C   UNL A   1      31.186  28.645  22.566  1.00  0.00     0.008 A 
ATOM     24  C   UNL A   1      29.322  27.438  23.529  1.00  0.00    -0.044 A 
ATOM     25  C   UNL A   1      28.651  26.309  24.262  1.00  0.00     0.045 C 
ENDBRANCH  17  18
ENDBRANCH  14  16
ENDBRANCH  10  14
BRANCH  12  26
ATOM     26  O   UNL A   1      30.555  21.848  26.161  1.00  0.00    -0.391 OA
ATOM     27  H   UNL A   1      29.620  22.016  25.962  1.00  0.00     0.211 HD
ENDBRANCH  12  26
ENDBRANCH   7   9
ENDBRANCH   6   7
ENDBRANCH   5   6
ENDBRANCH   4   5
ENDBRANCH   3   4
ENDBRANCH   2   3
ENDBRANCH   1   2
BRANCH   1  28
ATOM     28  O   UNL A   1      42.378  20.908  26.533  1.00  0.00    -0.377 OA
BRANCH  28  29
ATOM     29  C   UNL A   1      42.767  19.635  26.058  1.00  0.00     0.188 C 
BRANCH  29  30
ATOM     30  C   UNL A   1      43.815  19.538  24.937  1.00  0.00     0.188 C 
BRANCH  30  31
ATOM     31  O   UNL A   1      45.119  19.941  25.316  1.00  0.00    -0.376 OA
BRANCH  31  32
ATOM     32  C   UNL A   1      45.667  21.096  24.704  1.00  0.00     0.202 C 
BRANCH  32  33
ATOM     33  C   UNL A   1      44.728  22.270  24.376  1.00  0.00     0.261 C 
BRANCH  33  34
ATOM     34  O   UNL A   1      44.374  23.133  25.465  1.00  0.00    -0.460 OA
BRANCH  34  35
ATOM     35  C   UNL A   1      44.803  24.412  25.399  1.00  0.00     0.338 C 
ATOM     36  O   UNL A   1      45.601  24.886  24.620  1.00  0.00    -0.246 OA
BRANCH  35  37
ATOM     37  C   UNL A   1      43.982  25.197  26.345  1.00  0.00     0.060 A 
ATOM     38  C   UNL A   1      44.206  26.576  26.442  1.00  0.00     0.016 A 
ATOM     39  C   UNL A   1      42.998  24.578  27.119  1.00  0.00     0.016 A 
ATOM     40  C   UNL A   1      43.461  27.339  27.337  1.00  0.00     0.010 A 
ATOM     41  C   UNL A   1      42.273  25.339  28.041  1.00  0.00     0.010 A 
ATOM     42  C   UNL A   1      42.530  26.715  28.177  1.00  0.00    -0.014 A 
BRANCH  42  43
ATOM     43  C   UNL A   1      42.017  27.464  29.346  1.00  0.00     0.031 A 
ATOM     44  C   UNL A   1      40.697  28.170  29.207  1.00  0.00     0.074 A 
ATOM     45  C   UNL A   1      42.665  27.460  30.523  1.00  0.00     0.049 A 
ATOM     46  N   UNL A   1      40.025  28.862  30.090  1.00  0.00    -0.248 NA
ATOM     47  C   UNL A   1      40.045  28.078  27.889  1.00  0.00     0.031 C 
ATOM     48  C   UNL A   1      43.924  26.770  30.796  1.00  0.00     0.029 A 
ATOM     49  N   UNL A   1      42.342  28.060  31.714  1.00  0.00    -0.354 N 
ATOM     50  C   UNL A   1      38.875  29.286  29.435  1.00  0.00     0.074 A 
ATOM     51  C   UNL A   1      38.959  28.811  28.072  1.00  0.00     0.031 C 
ATOM     52  C   UNL A   1      44.270  26.992  32.078  1.00  0.00     0.029 A 
ATOM     53  C   UNL A   1      43.274  27.860  32.702  1.00  0.00     0.049 A 
ATOM     54  H   UNL A   1      41.519  28.584  31.847  1.00  0.00     0.167 HD
ATOM     55  C   UNL A   1      37.835  30.001  29.925  1.00  0.00     0.031 A 
ATOM     56  C   UNL A   1      43.323  28.341  33.959  1.00  0.00     0.031 A 
ATOM     57  C   UNL A   1      37.769  30.499  31.272  1.00  0.00     0.049 A 
ATOM     58  C   UNL A   1      42.198  29.210  34.458  1.00  0.00     0.074 A 
ATOM     59  C   UNL A   1      36.763  31.238  31.870  1.00  0.00     0.029 A 
ATOM     60  N   UNL A   1      38.757  30.318  32.228  1.00  0.00    -0.354 N 
ATOM     61  N   UNL A   1      41.103  29.586  33.840  1.00  0.00    -0.248 NA
ATOM     62  C   UNL A   1      42.308  29.707  35.837  1.00  0.00     0.031 C 
ATOM     63  C   UNL A   1      37.174  31.559  33.168  1.00  0.00     0.029 A 
ATOM     64  C   UNL A   1      38.400  30.956  33.403  1.00  0.00     0.049 A 
ATOM     65  H   UNL A   1      39.590  29.811  32.090  1.00  0.00     0.167 HD
ATOM     66  C   UNL A   1      40.382  30.338  34.761  1.00  0.00     0.074 A 
ATOM     67  C   UNL A   1      41.156  30.346  35.986  1.00  0.00     0.031 C 
ATOM     68  C   UNL A   1      39.187  30.961  34.611  1.00  0.00     0.031 A 
BRANCH  55  69
ATOM     69  C   UNL A   1      36.716  30.324  28.973  1.00  0.00    -0.014 A 
ATOM     70  C   UNL A   1      36.506  31.632  28.505  1.00  0.00     0.009 A 
ATOM     71  C   UNL A   1      35.857  29.304  28.540  1.00  0.00     0.009 A 
ATOM     72  C   UNL A   1      35.432  31.917  27.659  1.00  0.00     0.001 A 
ATOM     73  C   UNL A   1      34.804  29.586  27.667  1.00  0.00     0.001 A 
ATOM     74  C   UNL A   1      34.584  30.893  27.238  1.00  0.00     0.000 A 
ENDBRANCH  55  69
BRANCH  56  75
ATOM     75  C   UNL A   1      44.492  28.035  34.828  1.00  0.00    -0.014 A 
ATOM     76  C   UNL A   1      45.726  28.674  34.634  1.00  0.00     0.009 A 
ATOM     77  C   UNL A   1      44.378  27.080  35.850  1.00  0.00     0.009 A 
ATOM     78  C   UNL A   1      46.826  28.344  35.430  1.00  0.00     0.001 A 
ATOM     79  C   UNL A   1      45.471  26.776  36.666  1.00  0.00     0.001 A 
ATOM     80  C   UNL A   1      46.695  27.402  36.449  1.00  0.00     0.000 A 
ENDBRANCH  56  75
BRANCH  68  81
ATOM     81  C   UNL A   1      38.624  31.672  35.812  1.00  0.00    -0.014 A 
ATOM     82  C   UNL A   1      38.785  33.055  35.992  1.00  0.00     0.009 A 
ATOM     83  C   UNL A   1      37.890  30.946  36.763  1.00  0.00     0.009 A 
ATOM     84  C   UNL A   1      38.260  33.685  37.123  1.00  0.00     0.001 A 
ATOM     85  C   UNL A   1      37.336  31.584  37.873  1.00  0.00     0.001 A 
ATOM     86  C   UNL A   1      37.532  32.951  38.059  1.00  0.00     0.000 A 
ENDBRANCH  68  81
ENDBRANCH  42  43
ENDBRANCH  35  37
ENDBRANCH  34  35
ENDBRANCH  33  34
ENDBRANCH  32  33
ENDBRANCH  31  32
ENDBRANCH  30  31
ENDBRANCH  29  30
ENDBRANCH  28  29
ENDBRANCH   1  28
TORSDOF 24
ENDMDL
