MODEL 1
REMARK VINA RESULT:      -9.6      0.000      0.000
REMARK SMILES NS(=O)(=O)c1ccc(-n2nc(C(=O)OCCOCCOCCOCCOC(=O)c3ccc(-c4c5nc(c(-c6ccccc6)c6ccc([nH]6)c(-c6ccccc6)c6nc(c(-c7ccccc7)c7ccc4[nH]7)C=C6)C=C5)cc3)c(Cl)c2-c2ccc(Cl)cc2)cc1
REMARK SMILES IDX 19 1 18 2 17 3 16 4 15 5 14 6 12 7 13 8 11 9 9 10 10 11
REMARK SMILES IDX 79 12 77 13 78 14 8 15 5 16 6 17 88 18 7 19 87 20 2 21 3 22
REMARK SMILES IDX 4 23 1 24 80 27 81 28 86 29 82 30 85 31 83 32 84 33 20 34
REMARK SMILES IDX 21 35 22 36 23 37 24 38 25 39 26 40 27 41 28 42 29 43 30 44
REMARK SMILES IDX 76 45 31 46 75 47 32 48 33 49 34 50 69 51 35 52 74 53 68 54
REMARK SMILES IDX 70 55 36 56 73 57 67 58 66 59 37 61 59 62 44 63 58 64 45 65
REMARK SMILES IDX 48 66 57 67 71 68 46 69 47 70 56 72 72 73 49 74 38 75 39 76
REMARK SMILES IDX 43 77 40 78 42 79 41 80 60 81 61 82 65 83 62 84 64 85 63 86
REMARK SMILES IDX 50 87 51 88 55 89 52 90 54 91 53 92
REMARK H PARENT 1 25 1 26 70 60 48 71
REMARK Flexibility Score: inf
ROOT
ATOM      1  C   UNL A   1      37.107  33.752  33.465  1.00  0.00     0.188 C 
ENDROOT
BRANCH   1   2
ATOM      2  C   UNL A   1      36.561  32.560  32.644  1.00  0.00     0.188 C 
BRANCH   2   3
ATOM      3  O   UNL A   1      35.177  32.441  32.355  1.00  0.00    -0.376 OA
BRANCH   3   4
ATOM      4  C   UNL A   1      34.604  32.820  31.118  1.00  0.00     0.202 C 
BRANCH   4   5
ATOM      5  C   UNL A   1      35.163  32.407  29.752  1.00  0.00     0.261 C 
BRANCH   5   6
ATOM      6  O   UNL A   1      34.397  31.465  29.016  1.00  0.00    -0.458 OA
BRANCH   6   7
ATOM      7  C   UNL A   1      34.996  30.879  27.942  1.00  0.00     0.360 C 
ATOM      8  O   UNL A   1      36.184  30.992  27.664  1.00  0.00    -0.244 OA
BRANCH   7   9
ATOM      9  C   UNL A   1      34.047  30.046  27.195  1.00  0.00     0.190 A 
ATOM     10  N   UNL A   1      33.245  28.367  26.140  1.00  0.00    -0.231 N 
ATOM     11  N   UNL A   1      34.209  28.717  27.027  1.00  0.00    -0.159 NA
ATOM     12  C   UNL A   1      32.396  29.419  25.838  1.00  0.00     0.094 A 
ATOM     13  C   UNL A   1      32.849  30.483  26.589  1.00  0.00     0.102 A 
ATOM     14  Cl  UNL A   1      32.157  32.040  26.670  1.00  0.00    -0.079 Cl
BRANCH  10  15
ATOM     15  C   UNL A   1      33.285  27.100  25.513  1.00  0.00     0.065 A 
ATOM     16  C   UNL A   1      33.239  24.679  24.147  1.00  0.00     0.082 A 
ATOM     17  C   UNL A   1      32.602  24.783  25.391  1.00  0.00     0.024 A 
ATOM     18  C   UNL A   1      33.932  25.767  23.607  1.00  0.00     0.024 A 
ATOM     19  C   UNL A   1      32.647  25.996  26.094  1.00  0.00     0.030 A 
ATOM     20  C   UNL A   1      33.939  26.984  24.280  1.00  0.00     0.030 A 
BRANCH  16  21
ATOM     21  S   UNL A   1      33.210  23.181  23.207  1.00  0.00     0.238 S 
ATOM     22  O   UNL A   1      33.944  23.398  21.977  1.00  0.00    -0.207 OA
ATOM     23  O   UNL A   1      31.869  22.659  23.233  1.00  0.00    -0.207 OA
BRANCH  21  24
ATOM     24  N   UNL A   1      34.150  22.102  24.086  1.00  0.00    -0.225 NA
ATOM     25  H   UNL A   1      34.839  22.618  24.631  1.00  0.00     0.137 HD
ATOM     26  H   UNL A   1      34.627  21.467  23.446  1.00  0.00     0.137 HD
ENDBRANCH  21  24
ENDBRANCH  16  21
ENDBRANCH  10  15
BRANCH  12  27
ATOM     27  C   UNL A   1      31.282  29.395  24.896  1.00  0.00     0.002 A 
ATOM     28  C   UNL A   1      30.616  30.601  24.628  1.00  0.00     0.012 A 
ATOM     29  C   UNL A   1      30.821  28.211  24.311  1.00  0.00     0.012 A 
ATOM     30  C   UNL A   1      29.485  30.624  23.818  1.00  0.00     0.021 A 
ATOM     31  C   UNL A   1      29.691  28.236  23.488  1.00  0.00     0.021 A 
ATOM     32  C   UNL A   1      29.022  29.439  23.256  1.00  0.00     0.041 A 
ATOM     33  Cl  UNL A   1      27.606  29.462  22.283  1.00  0.00    -0.084 Cl
ENDBRANCH  12  27
ENDBRANCH   7   9
ENDBRANCH   6   7
ENDBRANCH   5   6
ENDBRANCH   4   5
ENDBRANCH   3   4
ENDBRANCH   2   3
ENDBRANCH   1   2
BRANCH   1  34
ATOM     34  O   UNL A   1      38.484  33.683  33.780  1.00  0.00    -0.377 OA
BRANCH  34  35
ATOM     35  C   UNL A   1      38.854  33.184  35.064  1.00  0.00     0.188 C 
BRANCH  35  36
ATOM     36  C   UNL A   1      40.093  33.724  35.827  1.00  0.00     0.188 C 
BRANCH  36  37
ATOM     37  O   UNL A   1      41.305  33.024  35.588  1.00  0.00    -0.376 OA
BRANCH  37  38
ATOM     38  C   UNL A   1      42.424  33.625  34.965  1.00  0.00     0.202 C 
BRANCH  38  39
ATOM     39  C   UNL A   1      42.813  33.076  33.597  1.00  0.00     0.261 C 
BRANCH  39  40
ATOM     40  O   UNL A   1      41.710  32.555  32.882  1.00  0.00    -0.460 OA
BRANCH  40  41
ATOM     41  C   UNL A   1      41.371  33.265  31.791  1.00  0.00     0.338 C 
ATOM     42  O   UNL A   1      41.059  34.441  31.741  1.00  0.00    -0.246 OA
BRANCH  41  43
ATOM     43  C   UNL A   1      41.285  32.336  30.662  1.00  0.00     0.060 A 
ATOM     44  C   UNL A   1      40.210  31.454  30.718  1.00  0.00     0.016 A 
ATOM     45  C   UNL A   1      42.454  32.070  29.929  1.00  0.00     0.016 A 
ATOM     46  C   UNL A   1      40.455  30.160  30.349  1.00  0.00     0.010 A 
ATOM     47  C   UNL A   1      42.705  30.773  29.578  1.00  0.00     0.010 A 
ATOM     48  C   UNL A   1      41.744  29.827  29.910  1.00  0.00    -0.014 A 
BRANCH  48  49
ATOM     49  C   UNL A   1      42.037  28.427  29.768  1.00  0.00     0.031 A 
ATOM     50  C   UNL A   1      42.749  27.889  30.935  1.00  0.00     0.074 A 
ATOM     51  C   UNL A   1      41.659  27.710  28.699  1.00  0.00     0.049 A 
ATOM     52  N   UNL A   1      43.983  27.525  30.996  1.00  0.00    -0.248 NA
ATOM     53  C   UNL A   1      42.054  27.951  32.229  1.00  0.00     0.031 C 
ATOM     54  C   UNL A   1      40.722  28.066  27.630  1.00  0.00     0.029 A 
ATOM     55  N   UNL A   1      41.975  26.423  28.415  1.00  0.00    -0.354 N 
ATOM     56  C   UNL A   1      44.175  27.125  32.309  1.00  0.00     0.074 A 
ATOM     57  C   UNL A   1      43.034  27.589  33.055  1.00  0.00     0.031 C 
ATOM     58  C   UNL A   1      40.363  26.939  26.970  1.00  0.00     0.029 A 
ATOM     59  C   UNL A   1      41.144  25.824  27.483  1.00  0.00     0.049 A 
ATOM     60  H   UNL A   1      42.731  25.953  28.836  1.00  0.00     0.167 HD
ATOM     61  C   UNL A   1      45.113  26.196  32.626  1.00  0.00     0.031 A 
ATOM     62  C   UNL A   1      41.060  24.492  27.247  1.00  0.00     0.031 A 
ATOM     63  C   UNL A   1      46.100  26.046  31.587  1.00  0.00     0.049 A 
ATOM     64  C   UNL A   1      42.287  23.859  27.793  1.00  0.00     0.074 A 
ATOM     65  C   UNL A   1      47.003  26.895  30.979  1.00  0.00     0.029 A 
ATOM     66  N   UNL A   1      45.975  24.963  30.749  1.00  0.00    -0.354 N 
ATOM     67  N   UNL A   1      43.472  24.030  27.281  1.00  0.00    -0.248 NA
ATOM     68  C   UNL A   1      42.267  23.401  29.175  1.00  0.00     0.031 C 
ATOM     69  C   UNL A   1      47.012  26.506  29.606  1.00  0.00     0.029 A 
ATOM     70  C   UNL A   1      46.156  25.412  29.466  1.00  0.00     0.049 A 
ATOM     71  H   UNL A   1      45.790  24.035  31.020  1.00  0.00     0.167 HD
ATOM     72  C   UNL A   1      44.321  24.128  28.376  1.00  0.00     0.074 A 
ATOM     73  C   UNL A   1      43.541  23.630  29.507  1.00  0.00     0.031 C 
ATOM     74  C   UNL A   1      45.467  24.871  28.315  1.00  0.00     0.031 A 
BRANCH  61  75
ATOM     75  C   UNL A   1      44.850  25.131  33.658  1.00  0.00    -0.014 A 
ATOM     76  C   UNL A   1      45.843  24.861  34.611  1.00  0.00     0.009 A 
ATOM     77  C   UNL A   1      43.798  24.198  33.551  1.00  0.00     0.009 A 
ATOM     78  C   UNL A   1      45.817  23.682  35.365  1.00  0.00     0.001 A 
ATOM     79  C   UNL A   1      43.744  23.045  34.333  1.00  0.00     0.001 A 
ATOM     80  C   UNL A   1      44.772  22.772  35.219  1.00  0.00     0.000 A 
ENDBRANCH  61  75
BRANCH  62  81
ATOM     81  C   UNL A   1      39.866  23.701  26.882  1.00  0.00    -0.014 A 
ATOM     82  C   UNL A   1      38.653  24.341  26.586  1.00  0.00     0.009 A 
ATOM     83  C   UNL A   1      39.988  22.339  26.551  1.00  0.00     0.009 A 
ATOM     84  C   UNL A   1      37.616  23.653  25.943  1.00  0.00     0.001 A 
ATOM     85  C   UNL A   1      38.951  21.650  25.914  1.00  0.00     0.001 A 
ATOM     86  C   UNL A   1      37.771  22.313  25.595  1.00  0.00     0.000 A 
ENDBRANCH  62  81
BRANCH  74  87
ATOM     87  C   UNL A   1      45.897  25.391  26.965  1.00  0.00    -0.014 A 
ATOM     88  C   UNL A   1      45.376  26.567  26.395  1.00  0.00     0.009 A 
ATOM     89  C   UNL A   1      46.963  24.754  26.313  1.00  0.00     0.009 A 
ATOM     90  C   UNL A   1      45.884  27.069  25.192  1.00  0.00     0.001 A 
ATOM     91  C   UNL A   1      47.485  25.266  25.123  1.00  0.00     0.001 A 
ATOM     92  C   UNL A   1      46.941  26.419  24.559  1.00  0.00     0.000 A 
ENDBRANCH  74  87
ENDBRANCH  48  49
ENDBRANCH  41  43
ENDBRANCH  40  41
ENDBRANCH  39  40
ENDBRANCH  38  39
ENDBRANCH  37  38
ENDBRANCH  36  37
ENDBRANCH  35  36
ENDBRANCH  34  35
ENDBRANCH   1  34
TORSDOF 24
ENDMDL
MODEL 2
REMARK VINA RESULT:      -8.8      5.119     10.671
REMARK SMILES NS(=O)(=O)c1ccc(-n2nc(C(=O)OCCOCCOCCOCCOC(=O)c3ccc(-c4c5nc(c(-c6ccccc6)c6ccc([nH]6)c(-c6ccccc6)c6nc(c(-c7ccccc7)c7ccc4[nH]7)C=C6)C=C5)cc3)c(Cl)c2-c2ccc(Cl)cc2)cc1
REMARK SMILES IDX 19 1 18 2 17 3 16 4 15 5 14 6 12 7 13 8 11 9 9 10 10 11
REMARK SMILES IDX 79 12 77 13 78 14 8 15 5 16 6 17 88 18 7 19 87 20 2 21 3 22
REMARK SMILES IDX 4 23 1 24 80 27 81 28 86 29 82 30 85 31 83 32 84 33 20 34
REMARK SMILES IDX 21 35 22 36 23 37 24 38 25 39 26 40 27 41 28 42 29 43 30 44
REMARK SMILES IDX 76 45 31 46 75 47 32 48 33 49 34 50 69 51 35 52 74 53 68 54
REMARK SMILES IDX 70 55 36 56 73 57 67 58 66 59 37 61 59 62 44 63 58 64 45 65
REMARK SMILES IDX 48 66 57 67 71 68 46 69 47 70 56 72 72 73 49 74 38 75 39 76
REMARK SMILES IDX 43 77 40 78 42 79 41 80 60 81 61 82 65 83 62 84 64 85 63 86
REMARK SMILES IDX 50 87 51 88 55 89 52 90 54 91 53 92
REMARK H PARENT 1 25 1 26 70 60 48 71
REMARK Flexibility Score: inf
ROOT
ATOM      1  C   UNL A   1      40.989  19.963  26.748  1.00  0.00     0.188 C 
ENDROOT
BRANCH   1   2
ATOM      2  C   UNL A   1      40.404  21.343  27.130  1.00  0.00     0.188 C 
BRANCH   2   3
ATOM      3  O   UNL A   1      41.232  22.492  27.221  1.00  0.00    -0.376 OA
BRANCH   3   4
ATOM      4  C   UNL A   1      41.015  23.671  26.469  1.00  0.00     0.202 C 
BRANCH   4   5
ATOM      5  C   UNL A   1      40.149  24.843  26.944  1.00  0.00     0.261 C 
BRANCH   5   6
ATOM      6  O   UNL A   1      40.736  26.134  26.862  1.00  0.00    -0.458 OA
BRANCH   6   7
ATOM      7  C   UNL A   1      41.622  26.477  27.837  1.00  0.00     0.360 C 
ATOM      8  O   UNL A   1      42.808  26.165  27.838  1.00  0.00    -0.244 OA
BRANCH   7   9
ATOM      9  C   UNL A   1      40.988  27.319  28.857  1.00  0.00     0.190 A 
ATOM     10  N   UNL A   1      39.629  28.704  29.759  1.00  0.00    -0.231 N 
ATOM     11  N   UNL A   1      39.762  27.864  28.703  1.00  0.00    -0.159 NA
ATOM     12  C   UNL A   1      40.689  28.611  30.647  1.00  0.00     0.094 A 
ATOM     13  C   UNL A   1      41.525  27.649  30.121  1.00  0.00     0.102 A 
ATOM     14  Cl  UNL A   1      42.972  27.068  30.813  1.00  0.00    -0.079 Cl
BRANCH  10  15
ATOM     15  C   UNL A   1      38.585  29.657  29.779  1.00  0.00     0.065 A 
ATOM     16  C   UNL A   1      36.432  31.414  29.698  1.00  0.00     0.082 A 
ATOM     17  C   UNL A   1      37.626  31.753  29.047  1.00  0.00     0.024 A 
ATOM     18  C   UNL A   1      36.327  30.223  30.421  1.00  0.00     0.024 A 
ATOM     19  C   UNL A   1      38.722  30.881  29.109  1.00  0.00     0.030 A 
ATOM     20  C   UNL A   1      37.397  29.333  30.446  1.00  0.00     0.030 A 
BRANCH  16  21
ATOM     21  S   UNL A   1      35.011  32.467  29.648  1.00  0.00     0.238 S 
ATOM     22  O   UNL A   1      34.038  31.880  28.750  1.00  0.00    -0.207 OA
ATOM     23  O   UNL A   1      35.464  33.828  29.526  1.00  0.00    -0.207 OA
BRANCH  21  24
ATOM     24  N   UNL A   1      34.324  32.337  31.175  1.00  0.00    -0.225 NA
ATOM     25  H   UNL A   1      33.539  31.687  31.140  1.00  0.00     0.137 HD
ATOM     26  H   UNL A   1      33.996  33.253  31.479  1.00  0.00     0.137 HD
ENDBRANCH  21  24
ENDBRANCH  16  21
ENDBRANCH  10  15
BRANCH  12  27
ATOM     27  C   UNL A   1      40.879  29.399  31.861  1.00  0.00     0.002 A 
ATOM     28  C   UNL A   1      40.835  28.733  33.095  1.00  0.00     0.012 A 
ATOM     29  C   UNL A   1      41.033  30.789  31.834  1.00  0.00     0.012 A 
ATOM     30  C   UNL A   1      40.906  29.443  34.289  1.00  0.00     0.021 A 
ATOM     31  C   UNL A   1      41.117  31.501  33.034  1.00  0.00     0.021 A 
ATOM     32  C   UNL A   1      41.041  30.828  34.254  1.00  0.00     0.041 A 
ATOM     33  Cl  UNL A   1      41.097  31.708  35.729  1.00  0.00    -0.084 Cl
ENDBRANCH  12  27
ENDBRANCH   7   9
ENDBRANCH   6   7
ENDBRANCH   5   6
ENDBRANCH   4   5
ENDBRANCH   3   4
ENDBRANCH   2   3
ENDBRANCH   1   2
BRANCH   1  34
ATOM     34  O   UNL A   1      42.396  19.859  26.855  1.00  0.00    -0.377 OA
BRANCH  34  35
ATOM     35  C   UNL A   1      43.116  19.338  25.739  1.00  0.00     0.188 C 
BRANCH  35  36
ATOM     36  C   UNL A   1      44.204  20.168  25.006  1.00  0.00     0.188 C 
BRANCH  36  37
ATOM     37  O   UNL A   1      43.826  21.492  24.660  1.00  0.00    -0.376 OA
BRANCH  37  38
ATOM     38  C   UNL A   1      44.555  22.278  23.737  1.00  0.00     0.202 C 
BRANCH  38  39
ATOM     39  C   UNL A   1      45.935  22.744  24.186  1.00  0.00     0.261 C 
BRANCH  39  40
ATOM     40  O   UNL A   1      45.885  23.881  25.024  1.00  0.00    -0.460 OA
BRANCH  40  41
ATOM     41  C   UNL A   1      46.951  24.695  24.919  1.00  0.00     0.338 C 
ATOM     42  O   UNL A   1      47.526  25.034  23.901  1.00  0.00    -0.246 OA
BRANCH  41  43
ATOM     43  C   UNL A   1      47.418  24.996  26.275  1.00  0.00     0.060 A 
ATOM     44  C   UNL A   1      46.629  24.464  27.290  1.00  0.00     0.016 A 
ATOM     45  C   UNL A   1      48.252  26.112  26.459  1.00  0.00     0.016 A 
ATOM     46  C   UNL A   1      46.395  25.268  28.372  1.00  0.00     0.010 A 
ATOM     47  C   UNL A   1      48.003  26.922  27.531  1.00  0.00     0.010 A 
ATOM     48  C   UNL A   1      46.990  26.536  28.399  1.00  0.00    -0.014 A 
BRANCH  48  49
ATOM     49  C   UNL A   1      46.532  27.444  29.415  1.00  0.00     0.031 A 
ATOM     50  C   UNL A   1      46.086  28.726  28.854  1.00  0.00     0.074 A 
ATOM     51  C   UNL A   1      46.493  27.118  30.717  1.00  0.00     0.049 A 
ATOM     52  N   UNL A   1      46.676  29.867  28.949  1.00  0.00    -0.248 NA
ATOM     53  C   UNL A   1      44.956  28.687  27.913  1.00  0.00     0.031 C 
ATOM     54  C   UNL A   1      46.643  25.804  31.346  1.00  0.00     0.029 A 
ATOM     55  N   UNL A   1      46.186  27.927  31.760  1.00  0.00    -0.354 N 
ATOM     56  C   UNL A   1      45.881  30.744  28.230  1.00  0.00     0.074 A 
ATOM     57  C   UNL A   1      44.964  29.940  27.463  1.00  0.00     0.031 C 
ATOM     58  C   UNL A   1      46.180  25.872  32.617  1.00  0.00     0.029 A 
ATOM     59  C   UNL A   1      45.835  27.254  32.918  1.00  0.00     0.049 A 
ATOM     60  H   UNL A   1      46.211  28.909  31.701  1.00  0.00     0.167 HD
ATOM     61  C   UNL A   1      45.842  32.066  28.539  1.00  0.00     0.031 A 
ATOM     62  C   UNL A   1      45.217  27.805  33.990  1.00  0.00     0.031 A 
ATOM     63  C   UNL A   1      46.979  32.471  29.325  1.00  0.00     0.049 A 
ATOM     64  C   UNL A   1      45.398  29.277  33.908  1.00  0.00     0.074 A 
ATOM     65  C   UNL A   1      48.347  32.454  29.131  1.00  0.00     0.029 A 
ATOM     66  N   UNL A   1      46.791  32.621  30.678  1.00  0.00    -0.354 N 
ATOM     67  N   UNL A   1      46.545  29.868  34.073  1.00  0.00    -0.248 NA
ATOM     68  C   UNL A   1      44.394  30.054  33.195  1.00  0.00     0.031 C 
ATOM     69  C   UNL A   1      48.897  32.123  30.405  1.00  0.00     0.029 A 
ATOM     70  C   UNL A   1      47.842  32.009  31.311  1.00  0.00     0.049 A 
ATOM     71  H   UNL A   1      46.039  33.084  31.114  1.00  0.00     0.167 HD
ATOM     72  C   UNL A   1      46.560  30.886  33.128  1.00  0.00     0.074 A 
ATOM     73  C   UNL A   1      45.171  31.017  32.690  1.00  0.00     0.031 C 
ATOM     74  C   UNL A   1      47.733  31.324  32.581  1.00  0.00     0.031 A 
BRANCH  61  75
ATOM     75  C   UNL A   1      44.554  32.846  28.510  1.00  0.00    -0.014 A 
ATOM     76  C   UNL A   1      44.419  33.884  27.577  1.00  0.00     0.009 A 
ATOM     77  C   UNL A   1      43.596  32.788  29.543  1.00  0.00     0.009 A 
ATOM     78  C   UNL A   1      43.418  34.852  27.717  1.00  0.00     0.001 A 
ATOM     79  C   UNL A   1      42.569  33.724  29.659  1.00  0.00     0.001 A 
ATOM     80  C   UNL A   1      42.500  34.776  28.761  1.00  0.00     0.000 A 
ENDBRANCH  61  75
BRANCH  62  81
ATOM     81  C   UNL A   1      44.218  27.188  34.888  1.00  0.00    -0.014 A 
ATOM     82  C   UNL A   1      43.933  27.763  36.136  1.00  0.00     0.009 A 
ATOM     83  C   UNL A   1      43.344  26.196  34.407  1.00  0.00     0.009 A 
ATOM     84  C   UNL A   1      42.790  27.390  36.855  1.00  0.00     0.001 A 
ATOM     85  C   UNL A   1      42.206  25.819  35.128  1.00  0.00     0.001 A 
ATOM     86  C   UNL A   1      41.920  26.430  36.344  1.00  0.00     0.000 A 
ENDBRANCH  62  81
BRANCH  74  87
ATOM     87  C   UNL A   1      49.022  30.834  33.196  1.00  0.00    -0.014 A 
ATOM     88  C   UNL A   1      49.649  29.635  32.807  1.00  0.00     0.009 A 
ATOM     89  C   UNL A   1      49.697  31.675  34.091  1.00  0.00     0.009 A 
ATOM     90  C   UNL A   1      50.897  29.277  33.326  1.00  0.00     0.001 A 
ATOM     91  C   UNL A   1      50.954  31.328  34.593  1.00  0.00     0.001 A 
ATOM     92  C   UNL A   1      51.550  30.126  34.216  1.00  0.00     0.000 A 
ENDBRANCH  74  87
ENDBRANCH  48  49
ENDBRANCH  41  43
ENDBRANCH  40  41
ENDBRANCH  39  40
ENDBRANCH  38  39
ENDBRANCH  37  38
ENDBRANCH  36  37
ENDBRANCH  35  36
ENDBRANCH  34  35
ENDBRANCH   1  34
TORSDOF 24
ENDMDL
MODEL 3
REMARK VINA RESULT:      -8.7      5.139      8.403
REMARK SMILES NS(=O)(=O)c1ccc(-n2nc(C(=O)OCCOCCOCCOCCOC(=O)c3ccc(-c4c5nc(c(-c6ccccc6)c6ccc([nH]6)c(-c6ccccc6)c6nc(c(-c7ccccc7)c7ccc4[nH]7)C=C6)C=C5)cc3)c(Cl)c2-c2ccc(Cl)cc2)cc1
REMARK SMILES IDX 19 1 18 2 17 3 16 4 15 5 14 6 12 7 13 8 11 9 9 10 10 11
REMARK SMILES IDX 79 12 77 13 78 14 8 15 5 16 6 17 88 18 7 19 87 20 2 21 3 22
REMARK SMILES IDX 4 23 1 24 80 27 81 28 86 29 82 30 85 31 83 32 84 33 20 34
REMARK SMILES IDX 21 35 22 36 23 37 24 38 25 39 26 40 27 41 28 42 29 43 30 44
REMARK SMILES IDX 76 45 31 46 75 47 32 48 33 49 34 50 69 51 35 52 74 53 68 54
REMARK SMILES IDX 70 55 36 56 73 57 67 58 66 59 37 61 59 62 44 63 58 64 45 65
REMARK SMILES IDX 48 66 57 67 71 68 46 69 47 70 56 72 72 73 49 74 38 75 39 76
REMARK SMILES IDX 43 77 40 78 42 79 41 80 60 81 61 82 65 83 62 84 64 85 63 86
REMARK SMILES IDX 50 87 51 88 55 89 52 90 54 91 53 92
REMARK H PARENT 1 25 1 26 70 60 48 71
REMARK Flexibility Score: inf
ROOT
ATOM      1  C   UNL A   1      41.343  33.152  40.551  1.00  0.00     0.188 C 
ENDROOT
BRANCH   1   2
ATOM      2  C   UNL A   1      40.643  34.367  39.900  1.00  0.00     0.188 C 
BRANCH   2   3
ATOM      3  O   UNL A   1      39.527  34.196  39.039  1.00  0.00    -0.376 OA
BRANCH   3   4
ATOM      4  C   UNL A   1      39.224  32.976  38.388  1.00  0.00     0.202 C 
BRANCH   4   5
ATOM      5  C   UNL A   1      37.838  32.618  37.841  1.00  0.00     0.261 C 
BRANCH   5   6
ATOM      6  O   UNL A   1      37.647  31.269  37.440  1.00  0.00    -0.458 OA
BRANCH   6   7
ATOM      7  C   UNL A   1      38.388  30.822  36.389  1.00  0.00     0.360 C 
ATOM      8  O   UNL A   1      39.295  30.003  36.478  1.00  0.00    -0.244 OA
BRANCH   7   9
ATOM      9  C   UNL A   1      37.921  31.404  35.126  1.00  0.00     0.190 A 
ATOM     10  N   UNL A   1      36.824  32.641  33.768  1.00  0.00    -0.231 N 
ATOM     11  N   UNL A   1      37.216  32.554  35.062  1.00  0.00    -0.159 NA
ATOM     12  C   UNL A   1      37.369  31.639  32.981  1.00  0.00     0.094 A 
ATOM     13  C   UNL A   1      38.156  30.892  33.832  1.00  0.00     0.102 A 
ATOM     14  Cl  UNL A   1      39.123  29.551  33.410  1.00  0.00    -0.079 Cl
BRANCH  10  15
ATOM     15  C   UNL A   1      35.830  33.573  33.389  1.00  0.00     0.065 A 
ATOM     16  C   UNL A   1      33.857  35.307  32.478  1.00  0.00     0.082 A 
ATOM     17  C   UNL A   1      35.189  35.739  32.524  1.00  0.00     0.024 A 
ATOM     18  C   UNL A   1      33.505  34.029  32.925  1.00  0.00     0.024 A 
ATOM     19  C   UNL A   1      36.183  34.876  33.008  1.00  0.00     0.030 A 
ATOM     20  C   UNL A   1      34.495  33.154  33.362  1.00  0.00     0.030 A 
BRANCH  16  21
ATOM     21  S   UNL A   1      32.560  36.344  31.869  1.00  0.00     0.238 S 
ATOM     22  O   UNL A   1      32.179  35.875  30.552  1.00  0.00    -0.207 OA
ATOM     23  O   UNL A   1      32.916  37.713  32.136  1.00  0.00    -0.207 OA
BRANCH  21  24
ATOM     24  N   UNL A   1      31.239  36.003  32.848  1.00  0.00    -0.225 NA
ATOM     25  H   UNL A   1      30.673  35.275  32.414  1.00  0.00     0.137 HD
ATOM     26  H   UNL A   1      30.678  36.847  32.967  1.00  0.00     0.137 HD
ENDBRANCH  21  24
ENDBRANCH  16  21
ENDBRANCH  10  15
BRANCH  12  27
ATOM     27  C   UNL A   1      37.123  31.418  31.559  1.00  0.00     0.002 A 
ATOM     28  C   UNL A   1      36.283  30.357  31.191  1.00  0.00     0.012 A 
ATOM     29  C   UNL A   1      37.745  32.180  30.564  1.00  0.00     0.012 A 
ATOM     30  C   UNL A   1      36.092  30.032  29.851  1.00  0.00     0.021 A 
ATOM     31  C   UNL A   1      37.544  31.862  29.218  1.00  0.00     0.021 A 
ATOM     32  C   UNL A   1      36.730  30.784  28.869  1.00  0.00     0.041 A 
ATOM     33  Cl  UNL A   1      36.520  30.364  27.216  1.00  0.00    -0.084 Cl
ENDBRANCH  12  27
ENDBRANCH   7   9
ENDBRANCH   6   7
ENDBRANCH   5   6
ENDBRANCH   4   5
ENDBRANCH   3   4
ENDBRANCH   2   3
ENDBRANCH   1   2
BRANCH   1  34
ATOM     34  O   UNL A   1      42.583  32.792  39.971  1.00  0.00    -0.377 OA
BRANCH  34  35
ATOM     35  C   UNL A   1      43.539  33.824  39.741  1.00  0.00     0.188 C 
BRANCH  35  36
ATOM     36  C   UNL A   1      44.476  33.813  38.502  1.00  0.00     0.188 C 
BRANCH  36  37
ATOM     37  O   UNL A   1      43.864  34.182  37.275  1.00  0.00    -0.376 OA
BRANCH  37  38
ATOM     38  C   UNL A   1      44.334  35.251  36.478  1.00  0.00     0.202 C 
BRANCH  38  39
ATOM     39  C   UNL A   1      43.363  35.795  35.436  1.00  0.00     0.261 C 
BRANCH  39  40
ATOM     40  O   UNL A   1      42.881  34.795  34.560  1.00  0.00    -0.460 OA
BRANCH  40  41
ATOM     41  C   UNL A   1      41.546  34.632  34.585  1.00  0.00     0.338 C 
ATOM     42  O   UNL A   1      40.714  35.407  35.020  1.00  0.00    -0.246 OA
BRANCH  41  43
ATOM     43  C   UNL A   1      41.254  33.270  34.133  1.00  0.00     0.060 A 
ATOM     44  C   UNL A   1      41.824  32.267  34.911  1.00  0.00     0.016 A 
ATOM     45  C   UNL A   1      40.884  33.079  32.791  1.00  0.00     0.016 A 
ATOM     46  C   UNL A   1      42.360  31.200  34.244  1.00  0.00     0.010 A 
ATOM     47  C   UNL A   1      41.435  32.022  32.123  1.00  0.00     0.010 A 
ATOM     48  C   UNL A   1      42.264  31.174  32.846  1.00  0.00    -0.014 A 
BRANCH  48  49
ATOM     49  C   UNL A   1      43.044  30.179  32.162  1.00  0.00     0.031 A 
ATOM     50  C   UNL A   1      43.963  30.772  31.182  1.00  0.00     0.074 A 
ATOM     51  C   UNL A   1      42.950  28.868  32.434  1.00  0.00     0.049 A 
ATOM     52  N   UNL A   1      43.875  30.719  29.898  1.00  0.00    -0.248 NA
ATOM     53  C   UNL A   1      44.985  31.696  31.697  1.00  0.00     0.031 C 
ATOM     54  C   UNL A   1      42.289  28.202  33.559  1.00  0.00     0.029 A 
ATOM     55  N   UNL A   1      43.552  27.845  31.780  1.00  0.00    -0.354 N 
ATOM     56  C   UNL A   1      44.954  31.453  29.433  1.00  0.00     0.074 A 
ATOM     57  C   UNL A   1      45.476  32.183  30.560  1.00  0.00     0.031 C 
ATOM     58  C   UNL A   1      42.741  26.928  33.639  1.00  0.00     0.029 A 
ATOM     59  C   UNL A   1      43.606  26.663  32.499  1.00  0.00     0.049 A 
ATOM     60  H   UNL A   1      43.920  27.934  30.872  1.00  0.00     0.167 HD
ATOM     61  C   UNL A   1      45.515  31.183  28.226  1.00  0.00     0.031 A 
ATOM     62  C   UNL A   1      44.393  25.600  32.205  1.00  0.00     0.031 A 
ATOM     63  C   UNL A   1      44.632  30.425  27.377  1.00  0.00     0.049 A 
ATOM     64  C   UNL A   1      44.811  25.728  30.786  1.00  0.00     0.074 A 
ATOM     65  C   UNL A   1      43.371  30.636  26.855  1.00  0.00     0.029 A 
ATOM     66  N   UNL A   1      44.864  29.074  27.270  1.00  0.00    -0.354 N 
ATOM     67  N   UNL A   1      43.994  25.596  29.782  1.00  0.00    -0.248 NA
ATOM     68  C   UNL A   1      46.041  26.450  30.495  1.00  0.00     0.031 C 
ATOM     69  C   UNL A   1      42.733  29.360  26.899  1.00  0.00     0.029 A 
ATOM     70  C   UNL A   1      43.656  28.437  27.394  1.00  0.00     0.049 A 
ATOM     71  H   UNL A   1      45.738  28.643  27.130  1.00  0.00     0.167 HD
ATOM     72  C   UNL A   1      44.385  26.571  28.874  1.00  0.00     0.074 A 
ATOM     73  C   UNL A   1      45.712  26.995  29.319  1.00  0.00     0.031 C 
ATOM     74  C   UNL A   1      43.484  27.146  28.023  1.00  0.00     0.031 A 
BRANCH  61  75
ATOM     75  C   UNL A   1      47.007  31.219  28.024  1.00  0.00    -0.014 A 
ATOM     76  C   UNL A   1      47.809  30.363  28.792  1.00  0.00     0.009 A 
ATOM     77  C   UNL A   1      47.664  32.252  27.324  1.00  0.00     0.009 A 
ATOM     78  C   UNL A   1      49.187  30.578  28.908  1.00  0.00     0.001 A 
ATOM     79  C   UNL A   1      49.043  32.441  27.400  1.00  0.00     0.001 A 
ATOM     80  C   UNL A   1      49.801  31.621  28.219  1.00  0.00     0.000 A 
ENDBRANCH  61  75
BRANCH  62  81
ATOM     81  C   UNL A   1      45.063  24.671  33.138  1.00  0.00    -0.014 A 
ATOM     82  C   UNL A   1      46.117  25.117  33.950  1.00  0.00     0.009 A 
ATOM     83  C   UNL A   1      44.489  23.421  33.434  1.00  0.00     0.009 A 
ATOM     84  C   UNL A   1      46.549  24.359  35.047  1.00  0.00     0.001 A 
ATOM     85  C   UNL A   1      44.925  22.661  34.525  1.00  0.00     0.001 A 
ATOM     86  C   UNL A   1      45.943  23.140  35.341  1.00  0.00     0.000 A 
ENDBRANCH  62  81
BRANCH  74  87
ATOM     87  C   UNL A   1      42.106  26.535  27.941  1.00  0.00    -0.014 A 
ATOM     88  C   UNL A   1      41.787  25.480  27.066  1.00  0.00     0.009 A 
ATOM     89  C   UNL A   1      41.139  26.937  28.874  1.00  0.00     0.009 A 
ATOM     90  C   UNL A   1      40.527  24.872  27.102  1.00  0.00     0.001 A 
ATOM     91  C   UNL A   1      39.889  26.317  28.925  1.00  0.00     0.001 A 
ATOM     92  C   UNL A   1      39.580  25.289  28.035  1.00  0.00     0.000 A 
ENDBRANCH  74  87
ENDBRANCH  48  49
ENDBRANCH  41  43
ENDBRANCH  40  41
ENDBRANCH  39  40
ENDBRANCH  38  39
ENDBRANCH  37  38
ENDBRANCH  36  37
ENDBRANCH  35  36
ENDBRANCH  34  35
ENDBRANCH   1  34
TORSDOF 24
ENDMDL
