MODEL 1
REMARK VINA RESULT:     -10.3      0.000      0.000
REMARK SMILES Cc1cccc(NC(=O)C[C@@H]2CCCCO2)c1C(=O)OCCOCCOCCOCCOC(=O)c1ccc(-c2c3nc(c(-c4ccccc4)c4ccc([nH]4)c(-c4ccccc4)c4nc(c(-c5ccccc5)c5ccc2[nH]5)C=C4)C=C3)cc1
REMARK SMILES IDX 25 1 24 2 23 3 22 4 21 5 20 6 18 7 19 8 17 9 1 10 2 11 3 12
REMARK SMILES IDX 4 13 6 14 5 15 7 16 8 17 9 19 10 20 11 21 12 22 16 23 13 24
REMARK SMILES IDX 15 25 14 26 26 27 27 28 28 29 29 30 30 31 31 32 32 33 33 34
REMARK SMILES IDX 34 35 35 36 36 37 82 38 37 39 81 40 38 41 39 42 40 43 75 44
REMARK SMILES IDX 41 45 80 46 74 47 76 48 42 49 79 50 73 51 72 52 43 54 65 55
REMARK SMILES IDX 50 56 64 57 51 58 54 59 63 60 77 61 52 62 53 63 62 65 78 66
REMARK SMILES IDX 55 67 44 68 45 69 49 70 46 71 48 72 47 73 66 74 67 75 71 76
REMARK SMILES IDX 68 77 70 78 69 79 56 80 57 81 61 82 58 83 60 84 59 85
REMARK H PARENT 7 18 76 53 54 64
REMARK Flexibility Score: inf
ROOT
ATOM      1  C   UNL A   1      33.783  31.131  27.346  1.00  0.00     0.188 C 
ENDROOT
BRANCH   1   2
ATOM      2  C   UNL A   1      34.327  29.951  26.527  1.00  0.00     0.188 C 
BRANCH   2   3
ATOM      3  O   UNL A   1      33.404  28.932  26.174  1.00  0.00    -0.376 OA
BRANCH   3   4
ATOM      4  C   UNL A   1      33.785  28.188  25.029  1.00  0.00     0.202 C 
BRANCH   4   5
ATOM      5  C   UNL A   1      32.911  28.367  23.817  1.00  0.00     0.261 C 
BRANCH   5   6
ATOM      6  O   UNL A   1      31.575  28.127  24.248  1.00  0.00    -0.460 OA
BRANCH   6   7
ATOM      7  C   UNL A   1      31.025  27.086  23.638  1.00  0.00     0.340 C 
ATOM      8  O   UNL A   1      30.681  27.044  22.464  1.00  0.00    -0.246 OA
BRANCH   7   9
ATOM      9  C   UNL A   1      31.056  25.869  24.473  1.00  0.00     0.086 A 
ATOM     10  C   UNL A   1      30.936  26.885  26.870  1.00  0.00     0.045 C 
ATOM     11  C   UNL A   1      30.809  25.778  25.860  1.00  0.00    -0.034 A 
ATOM     12  C   UNL A   1      30.565  24.501  26.393  1.00  0.00     0.004 A 
ATOM     13  C   UNL A   1      30.648  23.359  25.597  1.00  0.00     0.002 A 
ATOM     14  C   UNL A   1      31.361  24.701  23.736  1.00  0.00     0.056 A 
ATOM     15  C   UNL A   1      31.096  23.453  24.280  1.00  0.00     0.027 A 
BRANCH  14  16
ATOM     16  N   UNL A   1      32.002  24.817  22.459  1.00  0.00    -0.325 N 
ATOM     17  C   UNL A   1      33.391  24.809  22.388  1.00  0.00     0.227 C 
ATOM     18  H   UNL A   1      31.464  24.901  21.639  1.00  0.00     0.169 HD
ATOM     19  O   UNL A   1      34.014  25.788  21.984  1.00  0.00    -0.275 OA
BRANCH  17  20
ATOM     20  C   UNL A   1      34.045  23.480  22.626  1.00  0.00     0.132 C 
BRANCH  20  21
ATOM     21  C   UNL A   1      35.210  23.381  23.620  1.00  0.00     0.127 C 
ATOM     22  C   UNL A   1      35.259  21.971  24.218  1.00  0.00     0.033 C 
ATOM     23  O   UNL A   1      35.295  24.341  24.667  1.00  0.00    -0.378 OA
ATOM     24  C   UNL A   1      34.106  21.761  25.195  1.00  0.00     0.005 C 
ATOM     25  C   UNL A   1      34.404  24.205  25.758  1.00  0.00     0.160 C 
ATOM     26  C   UNL A   1      34.162  22.805  26.286  1.00  0.00     0.029 C 
ENDBRANCH  20  21
ENDBRANCH  17  20
ENDBRANCH  14  16
ENDBRANCH   7   9
ENDBRANCH   6   7
ENDBRANCH   5   6
ENDBRANCH   4   5
ENDBRANCH   3   4
ENDBRANCH   2   3
ENDBRANCH   1   2
BRANCH   1  27
ATOM     27  O   UNL A   1      34.623  31.806  28.270  1.00  0.00    -0.377 OA
BRANCH  27  28
ATOM     28  C   UNL A   1      34.347  33.174  28.572  1.00  0.00     0.188 C 
BRANCH  28  29
ATOM     29  C   UNL A   1      33.063  33.782  28.027  1.00  0.00     0.188 C 
BRANCH  29  30
ATOM     30  O   UNL A   1      32.530  34.650  29.028  1.00  0.00    -0.376 OA
BRANCH  30  31
ATOM     31  C   UNL A   1      33.176  35.911  29.154  1.00  0.00     0.202 C 
BRANCH  31  32
ATOM     32  C   UNL A   1      33.000  36.528  30.543  1.00  0.00     0.261 C 
BRANCH  32  33
ATOM     33  O   UNL A   1      33.071  35.487  31.537  1.00  0.00    -0.460 OA
BRANCH  33  34
ATOM     34  C   UNL A   1      34.276  35.344  32.146  1.00  0.00     0.338 C 
ATOM     35  O   UNL A   1      34.821  36.190  32.848  1.00  0.00    -0.246 OA
BRANCH  34  36
ATOM     36  C   UNL A   1      34.973  34.135  31.629  1.00  0.00     0.060 A 
ATOM     37  C   UNL A   1      34.585  32.854  32.054  1.00  0.00     0.016 A 
ATOM     38  C   UNL A   1      36.187  34.293  30.975  1.00  0.00     0.016 A 
ATOM     39  C   UNL A   1      35.490  31.781  31.992  1.00  0.00     0.010 A 
ATOM     40  C   UNL A   1      37.093  33.251  30.990  1.00  0.00     0.010 A 
ATOM     41  C   UNL A   1      36.799  32.004  31.564  1.00  0.00    -0.014 A 
BRANCH  41  42
ATOM     42  C   UNL A   1      37.951  31.109  31.859  1.00  0.00     0.031 A 
ATOM     43  C   UNL A   1      38.155  29.849  31.050  1.00  0.00     0.074 A 
ATOM     44  C   UNL A   1      39.010  31.649  32.530  1.00  0.00     0.049 A 
ATOM     45  N   UNL A   1      39.171  29.055  31.143  1.00  0.00    -0.248 NA
ATOM     46  C   UNL A   1      37.241  29.403  29.995  1.00  0.00     0.031 C 
ATOM     47  C   UNL A   1      40.405  31.216  32.468  1.00  0.00     0.029 A 
ATOM     48  N   UNL A   1      39.106  32.743  33.387  1.00  0.00    -0.354 N 
ATOM     49  C   UNL A   1      39.264  28.325  29.969  1.00  0.00     0.074 A 
ATOM     50  C   UNL A   1      37.976  28.492  29.345  1.00  0.00     0.031 C 
ATOM     51  C   UNL A   1      41.182  31.932  33.288  1.00  0.00     0.029 A 
ATOM     52  C   UNL A   1      40.270  32.620  34.157  1.00  0.00     0.049 A 
ATOM     53  H   UNL A   1      38.460  33.483  33.444  1.00  0.00     0.167 HD
ATOM     54  C   UNL A   1      40.470  27.797  29.582  1.00  0.00     0.031 A 
ATOM     55  C   UNL A   1      40.253  32.376  35.500  1.00  0.00     0.031 A 
ATOM     56  C   UNL A   1      41.512  27.969  30.617  1.00  0.00     0.049 A 
ATOM     57  C   UNL A   1      40.803  30.965  35.749  1.00  0.00     0.074 A 
ATOM     58  C   UNL A   1      42.820  28.421  30.616  1.00  0.00     0.029 A 
ATOM     59  N   UNL A   1      41.190  27.797  31.966  1.00  0.00    -0.354 N 
ATOM     60  N   UNL A   1      40.654  29.971  34.895  1.00  0.00    -0.248 NA
ATOM     61  C   UNL A   1      41.791  30.647  36.782  1.00  0.00     0.031 C 
ATOM     62  C   UNL A   1      43.184  28.738  31.957  1.00  0.00     0.029 A 
ATOM     63  C   UNL A   1      42.153  28.336  32.797  1.00  0.00     0.049 A 
ATOM     64  H   UNL A   1      40.375  27.345  32.286  1.00  0.00     0.167 HD
ATOM     65  C   UNL A   1      41.633  29.033  35.114  1.00  0.00     0.074 A 
ATOM     66  C   UNL A   1      42.256  29.453  36.363  1.00  0.00     0.031 C 
ATOM     67  C   UNL A   1      42.102  28.094  34.231  1.00  0.00     0.031 A 
BRANCH  54  68
ATOM     68  C   UNL A   1      40.796  27.284  28.171  1.00  0.00    -0.014 A 
ATOM     69  C   UNL A   1      41.085  25.917  27.965  1.00  0.00     0.009 A 
ATOM     70  C   UNL A   1      40.917  28.087  27.018  1.00  0.00     0.009 A 
ATOM     71  C   UNL A   1      41.465  25.393  26.714  1.00  0.00     0.001 A 
ATOM     72  C   UNL A   1      41.252  27.565  25.752  1.00  0.00     0.001 A 
ATOM     73  C   UNL A   1      41.535  26.217  25.600  1.00  0.00     0.000 A 
ENDBRANCH  54  68
BRANCH  55  74
ATOM     74  C   UNL A   1      39.245  33.240  36.191  1.00  0.00    -0.014 A 
ATOM     75  C   UNL A   1      38.333  32.507  36.993  1.00  0.00     0.009 A 
ATOM     76  C   UNL A   1      39.591  34.533  36.621  1.00  0.00     0.009 A 
ATOM     77  C   UNL A   1      38.026  32.918  38.297  1.00  0.00     0.001 A 
ATOM     78  C   UNL A   1      39.250  34.954  37.923  1.00  0.00     0.001 A 
ATOM     79  C   UNL A   1      38.536  34.116  38.782  1.00  0.00     0.000 A 
ENDBRANCH  55  74
BRANCH  67  80
ATOM     80  C   UNL A   1      42.536  26.715  34.674  1.00  0.00    -0.014 A 
ATOM     81  C   UNL A   1      41.683  25.846  35.360  1.00  0.00     0.009 A 
ATOM     82  C   UNL A   1      43.732  26.162  34.151  1.00  0.00     0.009 A 
ATOM     83  C   UNL A   1      42.004  24.492  35.506  1.00  0.00     0.001 A 
ATOM     84  C   UNL A   1      44.033  24.806  34.257  1.00  0.00     0.001 A 
ATOM     85  C   UNL A   1      43.165  23.971  34.939  1.00  0.00     0.000 A 
ENDBRANCH  67  80
ENDBRANCH  41  42
ENDBRANCH  34  36
ENDBRANCH  33  34
ENDBRANCH  32  33
ENDBRANCH  31  32
ENDBRANCH  30  31
ENDBRANCH  29  30
ENDBRANCH  28  29
ENDBRANCH  27  28
ENDBRANCH   1  27
TORSDOF 23
ENDMDL
MODEL 2
REMARK VINA RESULT:     -10.2      1.481      2.216
REMARK SMILES Cc1cccc(NC(=O)C[C@@H]2CCCCO2)c1C(=O)OCCOCCOCCOCCOC(=O)c1ccc(-c2c3nc(c(-c4ccccc4)c4ccc([nH]4)c(-c4ccccc4)c4nc(c(-c5ccccc5)c5ccc2[nH]5)C=C4)C=C3)cc1
REMARK SMILES IDX 25 1 24 2 23 3 22 4 21 5 20 6 18 7 19 8 17 9 1 10 2 11 3 12
REMARK SMILES IDX 4 13 6 14 5 15 7 16 8 17 9 19 10 20 11 21 12 22 16 23 13 24
REMARK SMILES IDX 15 25 14 26 26 27 27 28 28 29 29 30 30 31 31 32 32 33 33 34
REMARK SMILES IDX 34 35 35 36 36 37 82 38 37 39 81 40 38 41 39 42 40 43 75 44
REMARK SMILES IDX 41 45 80 46 74 47 76 48 42 49 79 50 73 51 72 52 43 54 65 55
REMARK SMILES IDX 50 56 64 57 51 58 54 59 63 60 77 61 52 62 53 63 62 65 78 66
REMARK SMILES IDX 55 67 44 68 45 69 49 70 46 71 48 72 47 73 66 74 67 75 71 76
REMARK SMILES IDX 68 77 70 78 69 79 56 80 57 81 61 82 58 83 60 84 59 85
REMARK H PARENT 7 18 76 53 54 64
REMARK Flexibility Score: inf
ROOT
ATOM      1  C   UNL A   1      33.995  32.779  28.016  1.00  0.00     0.188 C 
ENDROOT
BRANCH   1   2
ATOM      2  C   UNL A   1      34.792  31.496  27.741  1.00  0.00     0.188 C 
BRANCH   2   3
ATOM      3  O   UNL A   1      34.171  30.266  28.084  1.00  0.00    -0.376 OA
BRANCH   3   4
ATOM      4  C   UNL A   1      34.615  29.166  27.309  1.00  0.00     0.202 C 
BRANCH   4   5
ATOM      5  C   UNL A   1      33.880  28.945  26.014  1.00  0.00     0.261 C 
BRANCH   5   6
ATOM      6  O   UNL A   1      32.539  29.366  26.238  1.00  0.00    -0.460 OA
BRANCH   6   7
ATOM      7  C   UNL A   1      31.717  28.347  26.449  1.00  0.00     0.340 C 
ATOM      8  O   UNL A   1      31.232  28.030  27.527  1.00  0.00    -0.246 OA
BRANCH   7   9
ATOM      9  C   UNL A   1      31.256  27.731  25.189  1.00  0.00     0.086 A 
ATOM     10  C   UNL A   1      30.111  29.755  24.013  1.00  0.00     0.045 C 
ATOM     11  C   UNL A   1      30.745  28.392  24.051  1.00  0.00    -0.034 A 
ATOM     12  C   UNL A   1      30.677  27.661  22.853  1.00  0.00     0.004 A 
ATOM     13  C   UNL A   1      31.021  26.310  22.811  1.00  0.00     0.002 A 
ATOM     14  C   UNL A   1      31.380  26.322  25.187  1.00  0.00     0.056 A 
ATOM     15  C   UNL A   1      31.323  25.626  23.987  1.00  0.00     0.027 A 
BRANCH  14  16
ATOM     16  N   UNL A   1      31.496  25.619  26.430  1.00  0.00    -0.325 N 
ATOM     17  C   UNL A   1      32.038  24.337  26.444  1.00  0.00     0.227 C 
ATOM     18  H   UNL A   1      31.195  26.039  27.268  1.00  0.00     0.169 HD
ATOM     19  O   UNL A   1      31.367  23.366  26.783  1.00  0.00    -0.275 OA
BRANCH  17  20
ATOM     20  C   UNL A   1      33.520  24.258  26.230  1.00  0.00     0.132 C 
BRANCH  20  21
ATOM     21  C   UNL A   1      34.169  22.896  25.949  1.00  0.00     0.127 C 
ATOM     22  C   UNL A   1      35.666  22.963  26.268  1.00  0.00     0.033 C 
ATOM     23  O   UNL A   1      33.985  22.307  24.667  1.00  0.00    -0.378 OA
ATOM     24  C   UNL A   1      36.403  23.788  25.218  1.00  0.00     0.005 C 
ATOM     25  C   UNL A   1      34.726  22.840  23.585  1.00  0.00     0.160 C 
ATOM     26  C   UNL A   1      36.176  23.196  23.847  1.00  0.00     0.029 C 
ENDBRANCH  20  21
ENDBRANCH  17  20
ENDBRANCH  14  16
ENDBRANCH   7   9
ENDBRANCH   6   7
ENDBRANCH   5   6
ENDBRANCH   4   5
ENDBRANCH   3   4
ENDBRANCH   2   3
ENDBRANCH   1   2
BRANCH   1  27
ATOM     27  O   UNL A   1      34.538  34.045  27.667  1.00  0.00    -0.377 OA
BRANCH  27  28
ATOM     28  C   UNL A   1      34.497  35.095  28.633  1.00  0.00     0.188 C 
BRANCH  28  29
ATOM     29  C   UNL A   1      33.158  35.762  28.910  1.00  0.00     0.188 C 
BRANCH  29  30
ATOM     30  O   UNL A   1      32.620  35.190  30.101  1.00  0.00    -0.376 OA
BRANCH  30  31
ATOM     31  C   UNL A   1      32.239  36.117  31.110  1.00  0.00     0.202 C 
BRANCH  31  32
ATOM     32  C   UNL A   1      32.905  35.831  32.458  1.00  0.00     0.261 C 
BRANCH  32  33
ATOM     33  O   UNL A   1      33.625  34.584  32.376  1.00  0.00    -0.460 OA
BRANCH  33  34
ATOM     34  C   UNL A   1      34.971  34.679  32.521  1.00  0.00     0.338 C 
ATOM     35  O   UNL A   1      35.578  35.686  32.876  1.00  0.00    -0.246 OA
BRANCH  34  36
ATOM     36  C   UNL A   1      35.638  33.487  31.930  1.00  0.00     0.060 A 
ATOM     37  C   UNL A   1      35.332  32.199  32.397  1.00  0.00     0.016 A 
ATOM     38  C   UNL A   1      36.766  33.673  31.145  1.00  0.00     0.016 A 
ATOM     39  C   UNL A   1      36.253  31.148  32.234  1.00  0.00     0.010 A 
ATOM     40  C   UNL A   1      37.695  32.655  31.059  1.00  0.00     0.010 A 
ATOM     41  C   UNL A   1      37.499  31.403  31.663  1.00  0.00    -0.014 A 
BRANCH  41  42
ATOM     42  C   UNL A   1      38.699  30.539  31.828  1.00  0.00     0.031 A 
ATOM     43  C   UNL A   1      38.946  29.398  30.869  1.00  0.00     0.074 A 
ATOM     44  C   UNL A   1      39.746  31.047  32.542  1.00  0.00     0.049 A 
ATOM     45  N   UNL A   1      40.002  28.651  30.847  1.00  0.00    -0.248 NA
ATOM     46  C   UNL A   1      38.031  29.036  29.782  1.00  0.00     0.031 C 
ATOM     47  C   UNL A   1      41.159  30.696  32.404  1.00  0.00     0.029 A 
ATOM     48  N   UNL A   1      39.809  32.033  33.524  1.00  0.00    -0.354 N 
ATOM     49  C   UNL A   1      40.103  28.074  29.591  1.00  0.00     0.074 A 
ATOM     50  C   UNL A   1      38.795  28.249  29.015  1.00  0.00     0.031 C 
ATOM     51  C   UNL A   1      41.918  31.347  33.293  1.00  0.00     0.029 A 
ATOM     52  C   UNL A   1      40.994  31.878  34.254  1.00  0.00     0.049 A 
ATOM     53  H   UNL A   1      39.129  32.727  33.681  1.00  0.00     0.167 HD
ATOM     54  C   UNL A   1      41.324  27.659  29.123  1.00  0.00     0.031 A 
ATOM     55  C   UNL A   1      41.019  31.473  35.558  1.00  0.00     0.031 A 
ATOM     56  C   UNL A   1      42.380  27.757  30.155  1.00  0.00     0.049 A 
ATOM     57  C   UNL A   1      41.643  30.072  35.624  1.00  0.00     0.074 A 
ATOM     58  C   UNL A   1      43.664  28.272  30.187  1.00  0.00     0.029 A 
ATOM     59  N   UNL A   1      42.097  27.407  31.478  1.00  0.00    -0.354 N 
ATOM     60  N   UNL A   1      41.523  29.182  34.658  1.00  0.00    -0.248 NA
ATOM     61  C   UNL A   1      42.668  29.682  36.594  1.00  0.00     0.031 C 
ATOM     62  C   UNL A   1      44.043  28.443  31.551  1.00  0.00     0.029 A 
ATOM     63  C   UNL A   1      43.051  27.890  32.352  1.00  0.00     0.049 A 
ATOM     64  H   UNL A   1      41.313  26.879  31.754  1.00  0.00     0.167 HD
ATOM     65  C   UNL A   1      42.551  28.276  34.745  1.00  0.00     0.074 A 
ATOM     66  C   UNL A   1      43.181  28.574  36.025  1.00  0.00     0.031 C 
ATOM     67  C   UNL A   1      43.044  27.475  33.747  1.00  0.00     0.031 A 
BRANCH  54  68
ATOM     68  C   UNL A   1      41.644  27.337  27.656  1.00  0.00    -0.014 A 
ATOM     69  C   UNL A   1      41.533  26.011  27.182  1.00  0.00     0.009 A 
ATOM     70  C   UNL A   1      42.131  28.258  26.706  1.00  0.00     0.009 A 
ATOM     71  C   UNL A   1      41.881  25.633  25.870  1.00  0.00     0.001 A 
ATOM     72  C   UNL A   1      42.439  27.898  25.377  1.00  0.00     0.001 A 
ATOM     73  C   UNL A   1      42.322  26.582  24.960  1.00  0.00     0.000 A 
ENDBRANCH  54  68
BRANCH  55  74
ATOM     74  C   UNL A   1      39.986  32.195  36.365  1.00  0.00    -0.014 A 
ATOM     75  C   UNL A   1      40.137  33.605  36.338  1.00  0.00     0.009 A 
ATOM     76  C   UNL A   1      38.679  31.686  36.467  1.00  0.00     0.009 A 
ATOM     77  C   UNL A   1      39.037  34.445  36.119  1.00  0.00     0.001 A 
ATOM     78  C   UNL A   1      37.575  32.543  36.279  1.00  0.00     0.001 A 
ATOM     79  C   UNL A   1      37.761  33.904  36.029  1.00  0.00     0.000 A 
ENDBRANCH  55  74
BRANCH  67  80
ATOM     80  C   UNL A   1      43.555  26.077  34.012  1.00  0.00    -0.014 A 
ATOM     81  C   UNL A   1      42.846  25.155  34.788  1.00  0.00     0.009 A 
ATOM     82  C   UNL A   1      44.632  25.573  33.240  1.00  0.00     0.009 A 
ATOM     83  C   UNL A   1      43.190  23.800  34.785  1.00  0.00     0.001 A 
ATOM     84  C   UNL A   1      44.949  24.217  33.201  1.00  0.00     0.001 A 
ATOM     85  C   UNL A   1      44.225  23.330  33.979  1.00  0.00     0.000 A 
ENDBRANCH  67  80
ENDBRANCH  41  42
ENDBRANCH  34  36
ENDBRANCH  33  34
ENDBRANCH  32  33
ENDBRANCH  31  32
ENDBRANCH  30  31
ENDBRANCH  29  30
ENDBRANCH  28  29
ENDBRANCH  27  28
ENDBRANCH   1  27
TORSDOF 23
ENDMDL
MODEL 3
REMARK VINA RESULT:     -10.2      1.724      2.749
REMARK SMILES Cc1cccc(NC(=O)C[C@@H]2CCCCO2)c1C(=O)OCCOCCOCCOCCOC(=O)c1ccc(-c2c3nc(c(-c4ccccc4)c4ccc([nH]4)c(-c4ccccc4)c4nc(c(-c5ccccc5)c5ccc2[nH]5)C=C4)C=C3)cc1
REMARK SMILES IDX 25 1 24 2 23 3 22 4 21 5 20 6 18 7 19 8 17 9 1 10 2 11 3 12
REMARK SMILES IDX 4 13 6 14 5 15 7 16 8 17 9 19 10 20 11 21 12 22 16 23 13 24
REMARK SMILES IDX 15 25 14 26 26 27 27 28 28 29 29 30 30 31 31 32 32 33 33 34
REMARK SMILES IDX 34 35 35 36 36 37 82 38 37 39 81 40 38 41 39 42 40 43 75 44
REMARK SMILES IDX 41 45 80 46 74 47 76 48 42 49 79 50 73 51 72 52 43 54 65 55
REMARK SMILES IDX 50 56 64 57 51 58 54 59 63 60 77 61 52 62 53 63 62 65 78 66
REMARK SMILES IDX 55 67 44 68 45 69 49 70 46 71 48 72 47 73 66 74 67 75 71 76
REMARK SMILES IDX 68 77 70 78 69 79 56 80 57 81 61 82 58 83 60 84 59 85
REMARK H PARENT 7 18 76 53 54 64
REMARK Flexibility Score: inf
ROOT
ATOM      1  C   UNL A   1      34.004  29.749  26.926  1.00  0.00     0.188 C 
ENDROOT
BRANCH   1   2
ATOM      2  C   UNL A   1      33.222  28.453  27.183  1.00  0.00     0.188 C 
BRANCH   2   3
ATOM      3  O   UNL A   1      32.140  28.169  26.309  1.00  0.00    -0.376 OA
BRANCH   3   4
ATOM      4  C   UNL A   1      31.202  27.250  26.841  1.00  0.00     0.202 C 
BRANCH   4   5
ATOM      5  C   UNL A   1      31.146  25.910  26.159  1.00  0.00     0.261 C 
BRANCH   5   6
ATOM      6  O   UNL A   1      30.169  26.024  25.129  1.00  0.00    -0.460 OA
BRANCH   6   7
ATOM      7  C   UNL A   1      30.618  25.600  23.956  1.00  0.00     0.340 C 
ATOM      8  O   UNL A   1      30.288  24.563  23.396  1.00  0.00    -0.246 OA
BRANCH   7   9
ATOM      9  C   UNL A   1      31.422  26.625  23.262  1.00  0.00     0.086 A 
ATOM     10  C   UNL A   1      29.610  28.414  22.706  1.00  0.00     0.045 C 
ATOM     11  C   UNL A   1      31.021  27.931  22.907  1.00  0.00    -0.034 A 
ATOM     12  C   UNL A   1      32.027  28.847  22.557  1.00  0.00     0.004 A 
ATOM     13  C   UNL A   1      33.364  28.456  22.482  1.00  0.00     0.002 A 
ATOM     14  C   UNL A   1      32.733  26.188  22.962  1.00  0.00     0.056 A 
ATOM     15  C   UNL A   1      33.712  27.115  22.633  1.00  0.00     0.027 A 
BRANCH  14  16
ATOM     16  N   UNL A   1      33.023  24.784  22.934  1.00  0.00    -0.325 N 
ATOM     17  C   UNL A   1      34.258  24.331  23.385  1.00  0.00     0.227 C 
ATOM     18  H   UNL A   1      32.352  24.146  22.599  1.00  0.00     0.169 HD
ATOM     19  O   UNL A   1      35.049  23.777  22.626  1.00  0.00    -0.275 OA
BRANCH  17  20
ATOM     20  C   UNL A   1      34.461  24.370  24.870  1.00  0.00     0.132 C 
BRANCH  20  21
ATOM     21  C   UNL A   1      33.634  23.440  25.768  1.00  0.00     0.127 C 
ATOM     22  C   UNL A   1      34.563  22.694  26.732  1.00  0.00     0.033 C 
ATOM     23  O   UNL A   1      32.747  22.513  25.154  1.00  0.00    -0.378 OA
ATOM     24  C   UNL A   1      35.371  21.636  25.988  1.00  0.00     0.005 C 
ATOM     25  C   UNL A   1      33.312  21.364  24.550  1.00  0.00     0.160 C 
ATOM     26  C   UNL A   1      34.437  20.671  25.294  1.00  0.00     0.029 C 
ENDBRANCH  20  21
ENDBRANCH  17  20
ENDBRANCH  14  16
ENDBRANCH   7   9
ENDBRANCH   6   7
ENDBRANCH   5   6
ENDBRANCH   4   5
ENDBRANCH   3   4
ENDBRANCH   2   3
ENDBRANCH   1   2
BRANCH   1  27
ATOM     27  O   UNL A   1      33.787  30.888  27.746  1.00  0.00    -0.377 OA
BRANCH  27  28
ATOM     28  C   UNL A   1      34.910  31.490  28.391  1.00  0.00     0.188 C 
BRANCH  28  29
ATOM     29  C   UNL A   1      34.682  32.771  29.178  1.00  0.00     0.188 C 
BRANCH  29  30
ATOM     30  O   UNL A   1      35.039  33.870  28.341  1.00  0.00    -0.376 OA
BRANCH  30  31
ATOM     31  C   UNL A   1      34.242  35.039  28.490  1.00  0.00     0.202 C 
BRANCH  31  32
ATOM     32  C   UNL A   1      33.098  34.852  29.488  1.00  0.00     0.261 C 
BRANCH  32  33
ATOM     33  O   UNL A   1      33.319  35.704  30.630  1.00  0.00    -0.460 OA
BRANCH  33  34
ATOM     34  C   UNL A   1      33.016  35.156  31.833  1.00  0.00     0.338 C 
ATOM     35  O   UNL A   1      31.886  35.049  32.301  1.00  0.00    -0.246 OA
BRANCH  34  36
ATOM     36  C   UNL A   1      34.255  34.950  32.632  1.00  0.00     0.060 A 
ATOM     37  C   UNL A   1      35.484  35.460  32.181  1.00  0.00     0.016 A 
ATOM     38  C   UNL A   1      34.247  34.006  33.648  1.00  0.00     0.016 A 
ATOM     39  C   UNL A   1      36.692  34.888  32.614  1.00  0.00     0.010 A 
ATOM     40  C   UNL A   1      35.435  33.401  34.007  1.00  0.00     0.010 A 
ATOM     41  C   UNL A   1      36.668  33.770  33.447  1.00  0.00    -0.014 A 
BRANCH  41  42
ATOM     42  C   UNL A   1      37.798  32.816  33.618  1.00  0.00     0.031 A 
ATOM     43  C   UNL A   1      37.789  31.495  32.884  1.00  0.00     0.074 A 
ATOM     44  C   UNL A   1      38.983  33.321  34.067  1.00  0.00     0.049 A 
ATOM     45  N   UNL A   1      38.758  30.639  32.870  1.00  0.00    -0.248 NA
ATOM     46  C   UNL A   1      36.688  31.049  32.026  1.00  0.00     0.031 C 
ATOM     47  C   UNL A   1      40.321  32.787  33.813  1.00  0.00     0.029 A 
ATOM     48  N   UNL A   1      39.286  34.458  34.814  1.00  0.00    -0.354 N 
ATOM     49  C   UNL A   1      38.611  29.831  31.754  1.00  0.00     0.074 A 
ATOM     50  C   UNL A   1      37.250  30.048  31.336  1.00  0.00     0.031 C 
ATOM     51  C   UNL A   1      41.264  33.497  34.442  1.00  0.00     0.029 A 
ATOM     52  C   UNL A   1      40.552  34.302  35.392  1.00  0.00     0.049 A 
ATOM     53  H   UNL A   1      38.703  35.244  34.918  1.00  0.00     0.167 HD
ATOM     54  C   UNL A   1      39.702  29.195  31.218  1.00  0.00     0.031 A 
ATOM     55  C   UNL A   1      40.743  34.147  36.736  1.00  0.00     0.031 A 
ATOM     56  C   UNL A   1      40.911  29.358  32.057  1.00  0.00     0.049 A 
ATOM     57  C   UNL A   1      41.242  32.719  36.997  1.00  0.00     0.074 A 
ATOM     58  C   UNL A   1      42.224  29.715  31.811  1.00  0.00     0.029 A 
ATOM     59  N   UNL A   1      40.807  29.296  33.449  1.00  0.00    -0.354 N 
ATOM     60  N   UNL A   1      40.894  31.685  36.255  1.00  0.00    -0.248 NA
ATOM     61  C   UNL A   1      42.367  32.398  37.878  1.00  0.00     0.031 C 
ATOM     62  C   UNL A   1      42.824  30.091  33.049  1.00  0.00     0.029 A 
ATOM     63  C   UNL A   1      41.924  29.817  34.071  1.00  0.00     0.049 A 
ATOM     64  H   UNL A   1      40.031  28.924  33.929  1.00  0.00     0.167 HD
ATOM     65  C   UNL A   1      41.839  30.696  36.383  1.00  0.00     0.074 A 
ATOM     66  C   UNL A   1      42.684  31.151  37.480  1.00  0.00     0.031 C 
ATOM     67  C   UNL A   1      42.098  29.672  35.509  1.00  0.00     0.031 A 
BRANCH  54  68
ATOM     68  C   UNL A   1      39.760  28.571  29.816  1.00  0.00    -0.014 A 
ATOM     69  C   UNL A   1      39.918  29.396  28.681  1.00  0.00     0.009 A 
ATOM     70  C   UNL A   1      39.587  27.202  29.524  1.00  0.00     0.009 A 
ATOM     71  C   UNL A   1      39.904  28.898  27.363  1.00  0.00     0.001 A 
ATOM     72  C   UNL A   1      39.616  26.688  28.211  1.00  0.00     0.001 A 
ATOM     73  C   UNL A   1      39.767  27.539  27.127  1.00  0.00     0.000 A 
ENDBRANCH  54  68
BRANCH  55  74
ATOM     74  C   UNL A   1      39.917  35.122  37.513  1.00  0.00    -0.014 A 
ATOM     75  C   UNL A   1      39.109  34.509  38.505  1.00  0.00     0.009 A 
ATOM     76  C   UNL A   1      40.406  36.412  37.784  1.00  0.00     0.009 A 
ATOM     77  C   UNL A   1      39.048  35.024  39.807  1.00  0.00     0.001 A 
ATOM     78  C   UNL A   1      40.311  36.940  39.088  1.00  0.00     0.001 A 
ATOM     79  C   UNL A   1      39.701  36.211  40.111  1.00  0.00     0.000 A 
ENDBRANCH  55  74
BRANCH  67  80
ATOM     80  C   UNL A   1      42.516  28.297  35.978  1.00  0.00    -0.014 A 
ATOM     81  C   UNL A   1      43.855  27.952  36.184  1.00  0.00     0.009 A 
ATOM     82  C   UNL A   1      41.538  27.411  36.494  1.00  0.00     0.009 A 
ATOM     83  C   UNL A   1      44.197  26.787  36.879  1.00  0.00     0.001 A 
ATOM     84  C   UNL A   1      41.875  26.274  37.225  1.00  0.00     0.001 A 
ATOM     85  C   UNL A   1      43.211  25.962  37.415  1.00  0.00     0.000 A 
ENDBRANCH  67  80
ENDBRANCH  41  42
ENDBRANCH  34  36
ENDBRANCH  33  34
ENDBRANCH  32  33
ENDBRANCH  31  32
ENDBRANCH  30  31
ENDBRANCH  29  30
ENDBRANCH  28  29
ENDBRANCH  27  28
ENDBRANCH   1  27
TORSDOF 23
ENDMDL
