MODEL 1
REMARK VINA RESULT:      -8.9      0.000      0.000
REMARK SMILES C[C@@H](C(=O)OCCOCCOCCOCCOC(=O)c1ccc(-c2c3nc(c(-c4ccccc4)c4ccc([nH]4)c(-c4ccccc4)c4nc(c(-c5ccccc5)c5ccc2[nH]5)C=C4)C=C3)cc1)c1ccn(C(F)F)c(=O)c1
REMARK SMILES IDX 11 1 10 2 9 3 8 4 7 5 6 6 5 7 3 8 4 9 2 10 1 11 68 12 69 13
REMARK SMILES IDX 77 14 70 15 75 16 71 17 76 18 72 19 73 20 74 21 12 22 13 23
REMARK SMILES IDX 14 24 15 25 16 26 17 27 18 28 19 29 20 30 21 31 67 32 22 33
REMARK SMILES IDX 66 34 23 35 24 36 25 37 60 38 26 39 65 40 59 41 61 42 27 43
REMARK SMILES IDX 64 44 58 45 57 46 28 48 50 49 35 50 49 51 36 52 39 53 48 54
REMARK SMILES IDX 62 55 37 56 38 57 47 59 63 60 40 61 29 62 30 63 34 64 31 65
REMARK SMILES IDX 33 66 32 67 51 68 52 69 56 70 53 71 55 72 54 73 41 74 42 75
REMARK SMILES IDX 46 76 43 77 45 78 44 79
REMARK H PARENT 61 47 39 58
REMARK Flexibility Score: inf
ROOT
ATOM      1  O   UNL A   1      30.362  26.846  23.081  1.00  0.00    -0.377 OA
ENDROOT
BRANCH   1   2
ATOM      2  C   UNL A   1      31.249  25.931  22.462  1.00  0.00     0.188 C 
BRANCH   2   3
ATOM      3  C   UNL A   1      32.672  26.463  22.233  1.00  0.00     0.188 C 
BRANCH   3   4
ATOM      4  O   UNL A   1      33.718  25.607  22.643  1.00  0.00    -0.376 OA
BRANCH   4   5
ATOM      5  C   UNL A   1      33.587  24.796  23.801  1.00  0.00     0.202 C 
BRANCH   5   6
ATOM      6  C   UNL A   1      34.597  24.702  24.967  1.00  0.00     0.261 C 
BRANCH   6   7
ATOM      7  O   UNL A   1      35.039  23.393  25.340  1.00  0.00    -0.463 OA
BRANCH   7   8
ATOM      8  C   UNL A   1      36.257  22.971  24.925  1.00  0.00     0.313 C 
ATOM      9  O   UNL A   1      37.025  23.638  24.243  1.00  0.00    -0.252 OA
BRANCH   8  10
ATOM     10  C   UNL A   1      36.629  21.591  25.517  1.00  0.00     0.126 C 
ATOM     11  C   UNL A   1      38.140  21.295  25.381  1.00  0.00     0.025 C 
BRANCH  10  12
ATOM     12  C   UNL A   1      35.669  20.476  25.062  1.00  0.00    -0.027 A 
ATOM     13  C   UNL A   1      36.185  19.133  24.833  1.00  0.00     0.023 A 
ATOM     14  C   UNL A   1      34.343  20.660  24.900  1.00  0.00     0.076 A 
ATOM     15  C   UNL A   1      35.373  18.130  24.467  1.00  0.00     0.095 A 
ATOM     16  C   UNL A   1      33.428  19.569  24.460  1.00  0.00     0.255 A 
ATOM     17  N   UNL A   1      34.017  18.330  24.292  1.00  0.00    -0.258 N 
ATOM     18  O   UNL A   1      32.243  19.829  24.282  1.00  0.00    -0.269 OA
BRANCH  17  19
ATOM     19  C   UNL A   1      33.147  17.241  23.924  1.00  0.00     0.451 C 
ATOM     20  F   UNL A   1      33.843  16.240  23.330  1.00  0.00    -0.185 F 
ATOM     21  F   UNL A   1      32.519  16.730  25.009  1.00  0.00    -0.185 F 
ENDBRANCH  17  19
ENDBRANCH  10  12
ENDBRANCH   8  10
ENDBRANCH   7   8
ENDBRANCH   6   7
ENDBRANCH   5   6
ENDBRANCH   4   5
ENDBRANCH   3   4
ENDBRANCH   2   3
ENDBRANCH   1   2
BRANCH   1  22
ATOM     22  C   UNL A   1      30.663  27.293  24.400  1.00  0.00     0.188 C 
BRANCH  22  23
ATOM     23  C   UNL A   1      30.515  26.364  25.627  1.00  0.00     0.188 C 
BRANCH  23  24
ATOM     24  O   UNL A   1      31.060  26.875  26.834  1.00  0.00    -0.376 OA
BRANCH  24  25
ATOM     25  C   UNL A   1      32.432  27.238  26.861  1.00  0.00     0.202 C 
BRANCH  25  26
ATOM     26  C   UNL A   1      32.767  28.677  27.282  1.00  0.00     0.261 C 
BRANCH  26  27
ATOM     27  O   UNL A   1      34.124  29.097  27.075  1.00  0.00    -0.460 OA
BRANCH  27  28
ATOM     28  C   UNL A   1      34.545  30.204  27.720  1.00  0.00     0.338 C 
ATOM     29  O   UNL A   1      33.880  31.180  28.027  1.00  0.00    -0.246 OA
BRANCH  28  30
ATOM     30  C   UNL A   1      35.929  29.961  28.176  1.00  0.00     0.060 A 
ATOM     31  C   UNL A   1      36.986  30.169  27.281  1.00  0.00     0.016 A 
ATOM     32  C   UNL A   1      36.180  29.532  29.481  1.00  0.00     0.016 A 
ATOM     33  C   UNL A   1      38.298  29.908  27.676  1.00  0.00     0.010 A 
ATOM     34  C   UNL A   1      37.492  29.249  29.870  1.00  0.00     0.010 A 
ATOM     35  C   UNL A   1      38.552  29.400  28.956  1.00  0.00    -0.014 A 
BRANCH  35  36
ATOM     36  C   UNL A   1      39.885  28.830  29.269  1.00  0.00     0.031 A 
ATOM     37  C   UNL A   1      40.856  29.676  30.047  1.00  0.00     0.074 A 
ATOM     38  C   UNL A   1      40.225  27.584  28.895  1.00  0.00     0.049 A 
ATOM     39  N   UNL A   1      42.091  29.420  30.394  1.00  0.00    -0.248 NA
ATOM     40  C   UNL A   1      40.365  30.991  30.494  1.00  0.00     0.031 C 
ATOM     41  C   UNL A   1      39.359  26.645  28.185  1.00  0.00     0.029 A 
ATOM     42  N   UNL A   1      41.404  26.900  29.060  1.00  0.00    -0.354 N 
ATOM     43  C   UNL A   1      42.526  30.542  31.089  1.00  0.00     0.074 A 
ATOM     44  C   UNL A   1      41.437  31.494  31.086  1.00  0.00     0.031 C 
ATOM     45  C   UNL A   1      40.043  25.507  27.965  1.00  0.00     0.029 A 
ATOM     46  C   UNL A   1      41.403  25.654  28.483  1.00  0.00     0.049 A 
ATOM     47  H   UNL A   1      42.178  27.269  29.545  1.00  0.00     0.167 HD
ATOM     48  C   UNL A   1      43.722  30.760  31.683  1.00  0.00     0.031 A 
ATOM     49  C   UNL A   1      42.393  24.749  28.365  1.00  0.00     0.031 A 
ATOM     50  C   UNL A   1      44.813  29.824  31.670  1.00  0.00     0.049 A 
ATOM     51  C   UNL A   1      43.749  25.054  28.951  1.00  0.00     0.074 A 
ATOM     52  C   UNL A   1      46.065  29.950  32.245  1.00  0.00     0.029 A 
ATOM     53  N   UNL A   1      44.785  28.591  31.037  1.00  0.00    -0.354 N 
ATOM     54  N   UNL A   1      44.143  26.108  29.623  1.00  0.00    -0.248 NA
ATOM     55  C   UNL A   1      44.793  24.034  28.769  1.00  0.00     0.031 C 
ATOM     56  C   UNL A   1      46.816  28.821  31.905  1.00  0.00     0.029 A 
ATOM     57  C   UNL A   1      46.008  27.958  31.183  1.00  0.00     0.049 A 
ATOM     58  H   UNL A   1      44.010  28.219  30.557  1.00  0.00     0.167 HD
ATOM     59  C   UNL A   1      45.468  25.866  29.970  1.00  0.00     0.074 A 
ATOM     60  C   UNL A   1      45.804  24.557  29.449  1.00  0.00     0.031 C 
ATOM     61  C   UNL A   1      46.328  26.654  30.661  1.00  0.00     0.031 A 
BRANCH  48  62
ATOM     62  C   UNL A   1      43.924  32.086  32.364  1.00  0.00    -0.014 A 
ATOM     63  C   UNL A   1      44.393  33.207  31.662  1.00  0.00     0.009 A 
ATOM     64  C   UNL A   1      43.616  32.221  33.727  1.00  0.00     0.009 A 
ATOM     65  C   UNL A   1      44.581  34.426  32.318  1.00  0.00     0.001 A 
ATOM     66  C   UNL A   1      43.772  33.448  34.372  1.00  0.00     0.001 A 
ATOM     67  C   UNL A   1      44.266  34.547  33.670  1.00  0.00     0.000 A 
ENDBRANCH  48  62
BRANCH  49  68
ATOM     68  C   UNL A   1      42.158  23.474  27.633  1.00  0.00    -0.014 A 
ATOM     69  C   UNL A   1      41.598  22.363  28.281  1.00  0.00     0.009 A 
ATOM     70  C   UNL A   1      42.528  23.353  26.283  1.00  0.00     0.009 A 
ATOM     71  C   UNL A   1      41.439  21.152  27.603  1.00  0.00     0.001 A 
ATOM     72  C   UNL A   1      42.338  22.151  25.599  1.00  0.00     0.001 A 
ATOM     73  C   UNL A   1      41.805  21.048  26.261  1.00  0.00     0.000 A 
ENDBRANCH  49  68
BRANCH  61  74
ATOM     74  C   UNL A   1      47.703  26.107  30.936  1.00  0.00    -0.014 A 
ATOM     75  C   UNL A   1      48.720  26.149  29.971  1.00  0.00     0.009 A 
ATOM     76  C   UNL A   1      47.995  25.582  32.207  1.00  0.00     0.009 A 
ATOM     77  C   UNL A   1      49.990  25.643  30.259  1.00  0.00     0.001 A 
ATOM     78  C   UNL A   1      49.275  25.109  32.503  1.00  0.00     0.001 A 
ATOM     79  C   UNL A   1      50.267  25.129  31.526  1.00  0.00     0.000 A 
ENDBRANCH  61  74
ENDBRANCH  35  36
ENDBRANCH  28  30
ENDBRANCH  27  28
ENDBRANCH  26  27
ENDBRANCH  25  26
ENDBRANCH  24  25
ENDBRANCH  23  24
ENDBRANCH  22  23
ENDBRANCH   1  22
TORSDOF 22
ENDMDL
MODEL 2
REMARK VINA RESULT:      -8.8      2.395      6.844
REMARK SMILES C[C@@H](C(=O)OCCOCCOCCOCCOC(=O)c1ccc(-c2c3nc(c(-c4ccccc4)c4ccc([nH]4)c(-c4ccccc4)c4nc(c(-c5ccccc5)c5ccc2[nH]5)C=C4)C=C3)cc1)c1ccn(C(F)F)c(=O)c1
REMARK SMILES IDX 11 1 10 2 9 3 8 4 7 5 6 6 5 7 3 8 4 9 2 10 1 11 68 12 69 13
REMARK SMILES IDX 77 14 70 15 75 16 71 17 76 18 72 19 73 20 74 21 12 22 13 23
REMARK SMILES IDX 14 24 15 25 16 26 17 27 18 28 19 29 20 30 21 31 67 32 22 33
REMARK SMILES IDX 66 34 23 35 24 36 25 37 60 38 26 39 65 40 59 41 61 42 27 43
REMARK SMILES IDX 64 44 58 45 57 46 28 48 50 49 35 50 49 51 36 52 39 53 48 54
REMARK SMILES IDX 62 55 37 56 38 57 47 59 63 60 40 61 29 62 30 63 34 64 31 65
REMARK SMILES IDX 33 66 32 67 51 68 52 69 56 70 53 71 55 72 54 73 41 74 42 75
REMARK SMILES IDX 46 76 43 77 45 78 44 79
REMARK H PARENT 61 47 39 58
REMARK Flexibility Score: inf
ROOT
ATOM      1  O   UNL A   1      31.454  29.427  24.622  1.00  0.00    -0.377 OA
ENDROOT
BRANCH   1   2
ATOM      2  C   UNL A   1      30.610  28.540  23.911  1.00  0.00     0.188 C 
BRANCH   2   3
ATOM      3  C   UNL A   1      31.057  28.233  22.473  1.00  0.00     0.188 C 
BRANCH   3   4
ATOM      4  O   UNL A   1      31.102  26.865  22.126  1.00  0.00    -0.376 OA
BRANCH   4   5
ATOM      5  C   UNL A   1      31.895  25.949  22.867  1.00  0.00     0.202 C 
BRANCH   5   6
ATOM      6  C   UNL A   1      33.384  25.622  22.616  1.00  0.00     0.261 C 
BRANCH   6   7
ATOM      7  O   UNL A   1      33.803  24.275  22.853  1.00  0.00    -0.463 OA
BRANCH   7   8
ATOM      8  C   UNL A   1      34.287  23.946  24.075  1.00  0.00     0.313 C 
ATOM      9  O   UNL A   1      35.335  24.374  24.542  1.00  0.00    -0.252 OA
BRANCH   8  10
ATOM     10  C   UNL A   1      33.301  23.063  24.874  1.00  0.00     0.126 C 
ATOM     11  C   UNL A   1      33.212  23.495  26.355  1.00  0.00     0.025 C 
BRANCH  10  12
ATOM     12  C   UNL A   1      33.509  21.559  24.611  1.00  0.00    -0.027 A 
ATOM     13  C   UNL A   1      34.727  20.910  25.076  1.00  0.00     0.023 A 
ATOM     14  C   UNL A   1      32.593  20.780  24.000  1.00  0.00     0.076 A 
ATOM     15  C   UNL A   1      34.928  19.597  24.893  1.00  0.00     0.095 A 
ATOM     16  C   UNL A   1      32.811  19.326  23.754  1.00  0.00     0.255 A 
ATOM     17  N   UNL A   1      33.990  18.808  24.255  1.00  0.00    -0.258 N 
ATOM     18  O   UNL A   1      31.954  18.697  23.143  1.00  0.00    -0.269 OA
BRANCH  17  19
ATOM     19  C   UNL A   1      34.202  17.393  24.086  1.00  0.00     0.451 C 
ATOM     20  F   UNL A   1      34.433  17.086  22.785  1.00  0.00    -0.185 F 
ATOM     21  F   UNL A   1      35.264  16.968  24.812  1.00  0.00    -0.185 F 
ENDBRANCH  17  19
ENDBRANCH  10  12
ENDBRANCH   8  10
ENDBRANCH   7   8
ENDBRANCH   6   7
ENDBRANCH   5   6
ENDBRANCH   4   5
ENDBRANCH   3   4
ENDBRANCH   2   3
ENDBRANCH   1   2
BRANCH   1  22
ATOM     22  C   UNL A   1      32.859  29.195  24.592  1.00  0.00     0.188 C 
BRANCH  22  23
ATOM     23  C   UNL A   1      33.615  28.624  25.814  1.00  0.00     0.188 C 
BRANCH  23  24
ATOM     24  O   UNL A   1      33.355  29.287  27.042  1.00  0.00    -0.376 OA
BRANCH  24  25
ATOM     25  C   UNL A   1      33.891  30.585  27.242  1.00  0.00     0.202 C 
BRANCH  25  26
ATOM     26  C   UNL A   1      32.890  31.743  27.378  1.00  0.00     0.261 C 
BRANCH  26  27
ATOM     27  O   UNL A   1      33.430  33.066  27.240  1.00  0.00    -0.460 OA
BRANCH  27  28
ATOM     28  C   UNL A   1      33.478  33.844  28.340  1.00  0.00     0.338 C 
ATOM     29  O   UNL A   1      32.587  34.547  28.789  1.00  0.00    -0.246 OA
BRANCH  28  30
ATOM     30  C   UNL A   1      34.746  33.556  29.041  1.00  0.00     0.060 A 
ATOM     31  C   UNL A   1      35.955  33.940  28.443  1.00  0.00     0.016 A 
ATOM     32  C   UNL A   1      34.742  32.914  30.280  1.00  0.00     0.016 A 
ATOM     33  C   UNL A   1      37.167  33.643  29.067  1.00  0.00     0.010 A 
ATOM     34  C   UNL A   1      35.957  32.597  30.893  1.00  0.00     0.010 A 
ATOM     35  C   UNL A   1      37.175  32.927  30.270  1.00  0.00    -0.014 A 
BRANCH  35  36
ATOM     36  C   UNL A   1      38.443  32.341  30.768  1.00  0.00     0.031 A 
ATOM     37  C   UNL A   1      38.915  31.047  30.162  1.00  0.00     0.074 A 
ATOM     38  C   UNL A   1      39.176  32.949  31.718  1.00  0.00     0.049 A 
ATOM     39  N   UNL A   1      39.958  30.318  30.465  1.00  0.00    -0.248 NA
ATOM     40  C   UNL A   1      38.098  30.503  29.064  1.00  0.00     0.031 C 
ATOM     41  C   UNL A   1      38.857  34.229  32.346  1.00  0.00     0.029 A 
ATOM     42  N   UNL A   1      40.343  32.555  32.323  1.00  0.00    -0.354 N 
ATOM     43  C   UNL A   1      39.916  29.228  29.605  1.00  0.00     0.074 A 
ATOM     44  C   UNL A   1      38.729  29.372  28.792  1.00  0.00     0.031 C 
ATOM     45  C   UNL A   1      39.804  34.510  33.259  1.00  0.00     0.029 A 
ATOM     46  C   UNL A   1      40.770  33.413  33.306  1.00  0.00     0.049 A 
ATOM     47  H   UNL A   1      40.828  31.733  32.076  1.00  0.00     0.167 HD
ATOM     48  C   UNL A   1      40.791  28.200  29.496  1.00  0.00     0.031 A 
ATOM     49  C   UNL A   1      41.806  33.310  34.161  1.00  0.00     0.031 A 
ATOM     50  C   UNL A   1      41.961  28.045  30.317  1.00  0.00     0.049 A 
ATOM     51  C   UNL A   1      42.712  32.108  34.086  1.00  0.00     0.074 A 
ATOM     52  C   UNL A   1      42.911  27.040  30.282  1.00  0.00     0.029 A 
ATOM     53  N   UNL A   1      42.333  28.914  31.330  1.00  0.00    -0.354 N 
ATOM     54  N   UNL A   1      42.675  31.092  33.257  1.00  0.00    -0.248 NA
ATOM     55  C   UNL A   1      43.811  32.044  35.062  1.00  0.00     0.031 C 
ATOM     56  C   UNL A   1      43.822  27.266  31.318  1.00  0.00     0.029 A 
ATOM     57  C   UNL A   1      43.483  28.453  31.948  1.00  0.00     0.049 A 
ATOM     58  H   UNL A   1      41.852  29.738  31.574  1.00  0.00     0.167 HD
ATOM     59  C   UNL A   1      43.759  30.288  33.589  1.00  0.00     0.074 A 
ATOM     60  C   UNL A   1      44.445  30.943  34.684  1.00  0.00     0.031 C 
ATOM     61  C   UNL A   1      44.156  29.116  33.036  1.00  0.00     0.031 A 
BRANCH  48  62
ATOM     62  C   UNL A   1      40.487  27.140  28.473  1.00  0.00    -0.014 A 
ATOM     63  C   UNL A   1      39.687  26.029  28.784  1.00  0.00     0.009 A 
ATOM     64  C   UNL A   1      40.990  27.269  27.169  1.00  0.00     0.009 A 
ATOM     65  C   UNL A   1      39.426  25.053  27.819  1.00  0.00     0.001 A 
ATOM     66  C   UNL A   1      40.700  26.310  26.198  1.00  0.00     0.001 A 
ATOM     67  C   UNL A   1      39.928  25.197  26.526  1.00  0.00     0.000 A 
ENDBRANCH  48  62
BRANCH  49  68
ATOM     68  C   UNL A   1      42.031  34.360  35.193  1.00  0.00    -0.014 A 
ATOM     69  C   UNL A   1      41.403  34.286  36.445  1.00  0.00     0.009 A 
ATOM     70  C   UNL A   1      42.853  35.465  34.913  1.00  0.00     0.009 A 
ATOM     71  C   UNL A   1      41.571  35.308  37.384  1.00  0.00     0.001 A 
ATOM     72  C   UNL A   1      43.044  36.468  35.865  1.00  0.00     0.001 A 
ATOM     73  C   UNL A   1      42.394  36.395  37.094  1.00  0.00     0.000 A 
ENDBRANCH  49  68
BRANCH  61  74
ATOM     74  C   UNL A   1      45.413  28.484  33.571  1.00  0.00    -0.014 A 
ATOM     75  C   UNL A   1      45.379  27.537  34.606  1.00  0.00     0.009 A 
ATOM     76  C   UNL A   1      46.651  28.812  32.992  1.00  0.00     0.009 A 
ATOM     77  C   UNL A   1      46.561  26.960  35.076  1.00  0.00     0.001 A 
ATOM     78  C   UNL A   1      47.827  28.207  33.441  1.00  0.00     0.001 A 
ATOM     79  C   UNL A   1      47.782  27.291  34.489  1.00  0.00     0.000 A 
ENDBRANCH  61  74
ENDBRANCH  35  36
ENDBRANCH  28  30
ENDBRANCH  27  28
ENDBRANCH  26  27
ENDBRANCH  25  26
ENDBRANCH  24  25
ENDBRANCH  23  24
ENDBRANCH  22  23
ENDBRANCH   1  22
TORSDOF 22
ENDMDL
MODEL 3
REMARK VINA RESULT:      -8.4      3.447      8.530
REMARK SMILES C[C@@H](C(=O)OCCOCCOCCOCCOC(=O)c1ccc(-c2c3nc(c(-c4ccccc4)c4ccc([nH]4)c(-c4ccccc4)c4nc(c(-c5ccccc5)c5ccc2[nH]5)C=C4)C=C3)cc1)c1ccn(C(F)F)c(=O)c1
REMARK SMILES IDX 11 1 10 2 9 3 8 4 7 5 6 6 5 7 3 8 4 9 2 10 1 11 68 12 69 13
REMARK SMILES IDX 77 14 70 15 75 16 71 17 76 18 72 19 73 20 74 21 12 22 13 23
REMARK SMILES IDX 14 24 15 25 16 26 17 27 18 28 19 29 20 30 21 31 67 32 22 33
REMARK SMILES IDX 66 34 23 35 24 36 25 37 60 38 26 39 65 40 59 41 61 42 27 43
REMARK SMILES IDX 64 44 58 45 57 46 28 48 50 49 35 50 49 51 36 52 39 53 48 54
REMARK SMILES IDX 62 55 37 56 38 57 47 59 63 60 40 61 29 62 30 63 34 64 31 65
REMARK SMILES IDX 33 66 32 67 51 68 52 69 56 70 53 71 55 72 54 73 41 74 42 75
REMARK SMILES IDX 46 76 43 77 45 78 44 79
REMARK H PARENT 61 47 39 58
REMARK Flexibility Score: inf
ROOT
ATOM      1  O   UNL A   1      39.361  22.571  26.763  1.00  0.00    -0.377 OA
ENDROOT
BRANCH   1   2
ATOM      2  C   UNL A   1      38.664  21.828  25.779  1.00  0.00     0.188 C 
BRANCH   2   3
ATOM      3  C   UNL A   1      37.506  22.577  25.102  1.00  0.00     0.188 C 
BRANCH   3   4
ATOM      4  O   UNL A   1      36.913  23.606  25.867  1.00  0.00    -0.376 OA
BRANCH   4   5
ATOM      5  C   UNL A   1      35.532  23.905  25.743  1.00  0.00     0.202 C 
BRANCH   5   6
ATOM      6  C   UNL A   1      34.499  23.116  24.906  1.00  0.00     0.261 C 
BRANCH   6   7
ATOM      7  O   UNL A   1      33.613  22.247  25.618  1.00  0.00    -0.463 OA
BRANCH   7   8
ATOM      8  C   UNL A   1      32.499  21.794  24.995  1.00  0.00     0.313 C 
ATOM      9  O   UNL A   1      31.357  22.118  25.298  1.00  0.00    -0.252 OA
BRANCH   8  10
ATOM     10  C   UNL A   1      32.833  20.916  23.766  1.00  0.00     0.126 C 
ATOM     11  C   UNL A   1      31.952  21.273  22.548  1.00  0.00     0.025 C 
BRANCH  10  12
ATOM     12  C   UNL A   1      32.938  19.421  24.121  1.00  0.00    -0.027 A 
ATOM     13  C   UNL A   1      32.537  18.967  25.446  1.00  0.00     0.023 A 
ATOM     14  C   UNL A   1      33.347  18.479  23.246  1.00  0.00     0.076 A 
ATOM     15  C   UNL A   1      32.585  17.668  25.779  1.00  0.00     0.095 A 
ATOM     16  C   UNL A   1      33.441  17.035  23.607  1.00  0.00     0.255 A 
ATOM     17  N   UNL A   1      33.016  16.711  24.881  1.00  0.00    -0.258 N 
ATOM     18  O   UNL A   1      33.875  16.248  22.773  1.00  0.00    -0.269 OA
BRANCH  17  19
ATOM     19  C   UNL A   1      33.040  15.315  25.238  1.00  0.00     0.451 C 
ATOM     20  F   UNL A   1      34.293  14.916  25.569  1.00  0.00    -0.185 F 
ATOM     21  F   UNL A   1      32.228  15.068  26.294  1.00  0.00    -0.185 F 
ENDBRANCH  17  19
ENDBRANCH  10  12
ENDBRANCH   8  10
ENDBRANCH   7   8
ENDBRANCH   6   7
ENDBRANCH   5   6
ENDBRANCH   4   5
ENDBRANCH   3   4
ENDBRANCH   2   3
ENDBRANCH   1   2
BRANCH   1  22
ATOM     22  C   UNL A   1      40.783  22.620  26.692  1.00  0.00     0.188 C 
BRANCH  22  23
ATOM     23  C   UNL A   1      41.613  21.422  26.177  1.00  0.00     0.188 C 
BRANCH  23  24
ATOM     24  O   UNL A   1      42.859  21.765  25.591  1.00  0.00    -0.376 OA
BRANCH  24  25
ATOM     25  C   UNL A   1      42.956  22.974  24.855  1.00  0.00     0.202 C 
BRANCH  25  26
ATOM     26  C   UNL A   1      43.969  24.017  25.351  1.00  0.00     0.261 C 
BRANCH  26  27
ATOM     27  O   UNL A   1      43.529  24.868  26.421  1.00  0.00    -0.460 OA
BRANCH  27  28
ATOM     28  C   UNL A   1      42.837  25.979  26.096  1.00  0.00     0.338 C 
ATOM     29  O   UNL A   1      42.239  26.201  25.056  1.00  0.00    -0.246 OA
BRANCH  28  30
ATOM     30  C   UNL A   1      42.755  26.828  27.302  1.00  0.00     0.060 A 
ATOM     31  C   UNL A   1      42.051  26.357  28.419  1.00  0.00     0.016 A 
ATOM     32  C   UNL A   1      43.372  28.080  27.332  1.00  0.00     0.016 A 
ATOM     33  C   UNL A   1      41.926  27.157  29.554  1.00  0.00     0.010 A 
ATOM     34  C   UNL A   1      43.228  28.890  28.461  1.00  0.00     0.010 A 
ATOM     35  C   UNL A   1      42.472  28.446  29.562  1.00  0.00    -0.014 A 
BRANCH  35  36
ATOM     36  C   UNL A   1      42.078  29.404  30.623  1.00  0.00     0.031 A 
ATOM     37  C   UNL A   1      42.988  29.563  31.811  1.00  0.00     0.074 A 
ATOM     38  C   UNL A   1      40.954  30.136  30.531  1.00  0.00     0.049 A 
ATOM     39  N   UNL A   1      42.834  30.295  32.885  1.00  0.00    -0.248 NA
ATOM     40  C   UNL A   1      44.241  28.791  31.783  1.00  0.00     0.031 C 
ATOM     41  C   UNL A   1      40.017  30.116  29.410  1.00  0.00     0.029 A 
ATOM     42  N   UNL A   1      40.410  31.039  31.411  1.00  0.00    -0.354 N 
ATOM     43  C   UNL A   1      43.963  30.062  33.661  1.00  0.00     0.074 A 
ATOM     44  C   UNL A   1      44.776  29.099  32.953  1.00  0.00     0.031 C 
ATOM     45  C   UNL A   1      39.005  30.962  29.677  1.00  0.00     0.029 A 
ATOM     46  C   UNL A   1      39.204  31.550  31.000  1.00  0.00     0.049 A 
ATOM     47  H   UNL A   1      40.844  31.295  32.258  1.00  0.00     0.167 HD
ATOM     48  C   UNL A   1      44.298  30.607  34.855  1.00  0.00     0.031 A 
ATOM     49  C   UNL A   1      38.348  32.376  31.633  1.00  0.00     0.031 A 
ATOM     50  C   UNL A   1      43.481  31.550  35.569  1.00  0.00     0.049 A 
ATOM     51  C   UNL A   1      38.697  32.896  33.004  1.00  0.00     0.074 A 
ATOM     52  C   UNL A   1      43.734  32.163  36.784  1.00  0.00     0.029 A 
ATOM     53  N   UNL A   1      42.246  32.009  35.138  1.00  0.00    -0.354 N 
ATOM     54  N   UNL A   1      39.775  32.686  33.721  1.00  0.00    -0.248 NA
ATOM     55  C   UNL A   1      37.711  33.775  33.650  1.00  0.00     0.031 C 
ATOM     56  C   UNL A   1      42.622  32.941  37.119  1.00  0.00     0.029 A 
ATOM     57  C   UNL A   1      41.710  32.874  36.077  1.00  0.00     0.049 A 
ATOM     58  H   UNL A   1      41.814  31.757  34.290  1.00  0.00     0.167 HD
ATOM     59  C   UNL A   1      39.612  33.430  34.883  1.00  0.00     0.074 A 
ATOM     60  C   UNL A   1      38.338  34.111  34.768  1.00  0.00     0.031 C 
ATOM     61  C   UNL A   1      40.442  33.545  35.949  1.00  0.00     0.031 A 
BRANCH  48  62
ATOM     62  C   UNL A   1      45.591  30.161  35.480  1.00  0.00    -0.014 A 
ATOM     63  C   UNL A   1      46.795  30.840  35.238  1.00  0.00     0.009 A 
ATOM     64  C   UNL A   1      45.598  29.056  36.346  1.00  0.00     0.009 A 
ATOM     65  C   UNL A   1      47.985  30.401  35.824  1.00  0.00     0.001 A 
ATOM     66  C   UNL A   1      46.782  28.640  36.956  1.00  0.00     0.001 A 
ATOM     67  C   UNL A   1      47.977  29.306  36.686  1.00  0.00     0.000 A 
ENDBRANCH  48  62
BRANCH  49  68
ATOM     68  C   UNL A   1      37.055  32.745  30.994  1.00  0.00    -0.014 A 
ATOM     69  C   UNL A   1      35.874  32.054  31.306  1.00  0.00     0.009 A 
ATOM     70  C   UNL A   1      37.004  33.773  30.037  1.00  0.00     0.009 A 
ATOM     71  C   UNL A   1      34.677  32.366  30.655  1.00  0.00     0.001 A 
ATOM     72  C   UNL A   1      35.800  34.103  29.412  1.00  0.00     0.001 A 
ATOM     73  C   UNL A   1      34.640  33.392  29.712  1.00  0.00     0.000 A 
ENDBRANCH  49  68
BRANCH  61  74
ATOM     74  C   UNL A   1      40.026  34.473  37.058  1.00  0.00    -0.014 A 
ATOM     75  C   UNL A   1      40.315  35.846  37.018  1.00  0.00     0.009 A 
ATOM     76  C   UNL A   1      39.287  33.968  38.141  1.00  0.00     0.009 A 
ATOM     77  C   UNL A   1      39.907  36.686  38.057  1.00  0.00     0.001 A 
ATOM     78  C   UNL A   1      38.851  34.815  39.161  1.00  0.00     0.001 A 
ATOM     79  C   UNL A   1      39.171  36.170  39.124  1.00  0.00     0.000 A 
ENDBRANCH  61  74
ENDBRANCH  35  36
ENDBRANCH  28  30
ENDBRANCH  27  28
ENDBRANCH  26  27
ENDBRANCH  25  26
ENDBRANCH  24  25
ENDBRANCH  23  24
ENDBRANCH  22  23
ENDBRANCH   1  22
TORSDOF 22
ENDMDL
