MODEL 1
REMARK VINA RESULT:      -8.3      0.000      0.000
REMARK SMILES O=C(OCCOCCOCCOCCOC(=O)c1ccc(-c2c3nc(c(-c4ccccc4)c4ccc([nH]4)c(-c4ccccc4)c4nc(c(-c5ccccc5)c5ccc2[nH]5)C=C4)C=C3)cc1)C1=Cc2cc(Cl)cc(C#Cc3ccccc3)c2O[C@@H]1C(F)(F)F
REMARK SMILES IDX 9 1 8 2 7 3 6 4 5 5 4 6 3 7 2 8 1 9 66 10 67 11 84 12 68 13
REMARK SMILES IDX 83 14 69 15 82 16 70 17 73 18 71 19 72 20 85 21 86 22 87 23
REMARK SMILES IDX 88 24 74 25 75 26 76 27 77 28 81 29 78 30 80 31 79 32 10 33
REMARK SMILES IDX 11 34 12 35 13 36 14 37 15 38 16 39 17 40 18 41 19 42 65 43
REMARK SMILES IDX 20 44 64 45 21 46 22 47 23 48 58 49 24 50 63 51 57 52 59 53
REMARK SMILES IDX 25 54 62 55 56 56 55 57 26 59 48 60 33 61 47 62 34 63 37 64
REMARK SMILES IDX 46 65 60 66 35 67 36 68 45 70 61 71 38 72 27 73 28 74 32 75
REMARK SMILES IDX 29 76 31 77 30 78 49 79 50 80 54 81 51 82 53 83 52 84 39 85
REMARK SMILES IDX 40 86 44 87 41 88 43 89 42 90
REMARK H PARENT 59 58 37 69
REMARK Flexibility Score: inf
ROOT
ATOM      1  O   UNL A   1      34.624  25.105  24.949  1.00  0.00    -0.377 OA
ENDROOT
BRANCH   1   2
ATOM      2  C   UNL A   1      34.296  23.790  24.563  1.00  0.00     0.188 C 
BRANCH   2   3
ATOM      3  C   UNL A   1      35.120  22.692  25.240  1.00  0.00     0.188 C 
BRANCH   3   4
ATOM      4  O   UNL A   1      36.286  22.911  26.099  1.00  0.00    -0.376 OA
BRANCH   4   5
ATOM      5  C   UNL A   1      37.769  23.533  25.902  1.00  0.00     0.202 C 
BRANCH   5   6
ATOM      6  C   UNL A   1      38.950  24.685  27.322  1.00  0.00     0.261 C 
BRANCH   6   7
ATOM      7  O   UNL A   1      40.087  25.634  26.996  1.00  0.00    -0.460 OA
BRANCH   7   8
ATOM      8  C   UNL A   1      40.614  26.193  28.091  1.00  0.00     0.338 C 
ATOM      9  O   UNL A   1      41.095  25.650  29.053  1.00  0.00    -0.246 OA
BRANCH   8  10
ATOM     10  C   UNL A   1      40.000  27.501  27.932  1.00  0.00     0.087 C 
ATOM     11  C   UNL A   1      39.034  27.834  28.997  1.00  0.00     0.027 C 
ATOM     12  C   UNL A   1      41.688  28.391  27.667  1.00  0.00     0.316 C 
ATOM     13  C   UNL A   1      39.373  28.983  30.355  1.00  0.00     0.020 A 
ATOM     14  O   UNL A   1      42.131  29.527  29.183  1.00  0.00    -0.474 OA
ATOM     15  C   UNL A   1      38.403  29.211  31.293  1.00  0.00     0.032 A 
ATOM     16  C   UNL A   1      40.926  29.749  30.552  1.00  0.00     0.143 A 
ATOM     17  C   UNL A   1      38.778  30.076  32.336  1.00  0.00     0.043 A 
ATOM     18  C   UNL A   1      41.218  30.531  31.653  1.00  0.00     0.069 A 
ATOM     19  Cl  UNL A   1      37.563  30.431  33.526  1.00  0.00    -0.084 Cl
ATOM     20  C   UNL A   1      40.092  30.688  32.511  1.00  0.00     0.041 A 
BRANCH  12  21
ATOM     21  C   UNL A   1      41.380  28.718  26.069  1.00  0.00     0.430 C 
ATOM     22  F   UNL A   1      41.391  27.704  25.186  1.00  0.00    -0.167 F 
ATOM     23  F   UNL A   1      40.093  29.185  26.016  1.00  0.00    -0.167 F 
ATOM     24  F   UNL A   1      42.118  29.731  25.547  1.00  0.00    -0.167 F 
ENDBRANCH  12  21
BRANCH  18  25
ATOM     25  C   UNL A   1      42.450  31.193  31.984  1.00  0.00    -0.058 C 
ATOM     26  C   UNL A   1      43.548  31.616  32.218  1.00  0.00    -0.062 C 
BRANCH  26  27
ATOM     27  C   UNL A   1      44.921  31.973  32.493  1.00  0.00     0.025 A 
ATOM     28  C   UNL A   1      45.761  32.424  31.473  1.00  0.00     0.017 A 
ATOM     29  C   UNL A   1      45.463  31.770  33.764  1.00  0.00     0.017 A 
ATOM     30  C   UNL A   1      47.138  32.564  31.688  1.00  0.00     0.001 A 
ATOM     31  C   UNL A   1      46.830  31.967  33.997  1.00  0.00     0.001 A 
ATOM     32  C   UNL A   1      47.675  32.329  32.950  1.00  0.00     0.000 A 
ENDBRANCH  26  27
ENDBRANCH  18  25
ENDBRANCH   8  10
ENDBRANCH   7   8
ENDBRANCH   6   7
ENDBRANCH   5   6
ENDBRANCH   4   5
ENDBRANCH   3   4
ENDBRANCH   2   3
ENDBRANCH   1   2
BRANCH   1  33
ATOM     33  C   UNL A   1      33.645  25.678  25.793  1.00  0.00     0.188 C 
BRANCH  33  34
ATOM     34  C   UNL A   1      33.461  27.187  25.664  1.00  0.00     0.188 C 
BRANCH  34  35
ATOM     35  O   UNL A   1      32.244  27.652  26.216  1.00  0.00    -0.376 OA
BRANCH  35  36
ATOM     36  C   UNL A   1      32.248  28.972  26.742  1.00  0.00     0.202 C 
BRANCH  36  37
ATOM     37  C   UNL A   1      33.501  29.844  26.531  1.00  0.00     0.261 C 
BRANCH  37  38
ATOM     38  O   UNL A   1      34.030  30.563  27.674  1.00  0.00    -0.460 OA
BRANCH  38  39
ATOM     39  C   UNL A   1      33.691  31.850  27.903  1.00  0.00     0.338 C 
ATOM     40  O   UNL A   1      32.751  32.463  27.432  1.00  0.00    -0.246 OA
BRANCH  39  41
ATOM     41  C   UNL A   1      34.579  32.374  28.976  1.00  0.00     0.060 A 
ATOM     42  C   UNL A   1      34.355  33.624  29.589  1.00  0.00     0.016 A 
ATOM     43  C   UNL A   1      35.639  31.591  29.398  1.00  0.00     0.016 A 
ATOM     44  C   UNL A   1      35.194  34.092  30.622  1.00  0.00     0.010 A 
ATOM     45  C   UNL A   1      36.471  32.064  30.416  1.00  0.00     0.010 A 
ATOM     46  C   UNL A   1      36.292  33.330  31.025  1.00  0.00    -0.014 A 
BRANCH  46  47
ATOM     47  C   UNL A   1      37.413  33.837  31.892  1.00  0.00     0.031 A 
ATOM     48  C   UNL A   1      38.700  34.188  31.180  1.00  0.00     0.074 A 
ATOM     49  C   UNL A   1      37.404  33.897  33.241  1.00  0.00     0.049 A 
ATOM     50  N   UNL A   1      39.917  34.306  31.644  1.00  0.00    -0.248 NA
ATOM     51  C   UNL A   1      38.595  34.365  29.719  1.00  0.00     0.031 C 
ATOM     52  C   UNL A   1      36.258  33.680  34.118  1.00  0.00     0.029 A 
ATOM     53  N   UNL A   1      38.454  34.081  34.122  1.00  0.00    -0.354 N 
ATOM     54  C   UNL A   1      40.713  34.518  30.526  1.00  0.00     0.074 A 
ATOM     55  C   UNL A   1      39.866  34.365  29.365  1.00  0.00     0.031 C 
ATOM     56  C   UNL A   1      36.679  33.635  35.397  1.00  0.00     0.029 A 
ATOM     57  C   UNL A   1      38.126  33.826  35.436  1.00  0.00     0.049 A 
ATOM     58  H   UNL A   1      39.352  34.369  33.837  1.00  0.00     0.167 HD
ATOM     59  C   UNL A   1      42.013  34.886  30.451  1.00  0.00     0.031 A 
ATOM     60  C   UNL A   1      38.898  33.729  36.540  1.00  0.00     0.031 A 
ATOM     61  C   UNL A   1      42.848  35.113  31.594  1.00  0.00     0.049 A 
ATOM     62  C   UNL A   1      40.373  34.040  36.454  1.00  0.00     0.074 A 
ATOM     63  C   UNL A   1      44.144  35.593  31.632  1.00  0.00     0.029 A 
ATOM     64  N   UNL A   1      42.463  34.882  32.904  1.00  0.00    -0.354 N 
ATOM     65  N   UNL A   1      41.100  34.319  35.399  1.00  0.00    -0.248 NA
ATOM     66  C   UNL A   1      41.121  34.088  37.722  1.00  0.00     0.031 C 
ATOM     67  C   UNL A   1      44.568  35.590  32.963  1.00  0.00     0.029 A 
ATOM     68  C   UNL A   1      43.508  35.184  33.759  1.00  0.00     0.049 A 
ATOM     69  H   UNL A   1      41.579  34.553  33.185  1.00  0.00     0.167 HD
ATOM     70  C   UNL A   1      42.360  34.659  35.883  1.00  0.00     0.074 A 
ATOM     71  C   UNL A   1      42.307  34.527  37.323  1.00  0.00     0.031 C 
ATOM     72  C   UNL A   1      43.450  35.075  35.193  1.00  0.00     0.031 A 
BRANCH  59  73
ATOM     73  C   UNL A   1      42.584  35.099  29.076  1.00  0.00    -0.014 A 
ATOM     74  C   UNL A   1      43.399  34.128  28.465  1.00  0.00     0.009 A 
ATOM     75  C   UNL A   1      42.322  36.292  28.385  1.00  0.00     0.009 A 
ATOM     76  C   UNL A   1      44.001  34.379  27.233  1.00  0.00     0.001 A 
ATOM     77  C   UNL A   1      42.885  36.518  27.129  1.00  0.00     0.001 A 
ATOM     78  C   UNL A   1      43.740  35.573  26.565  1.00  0.00     0.000 A 
ENDBRANCH  59  73
BRANCH  60  79
ATOM     79  C   UNL A   1      38.301  33.371  37.860  1.00  0.00    -0.014 A 
ATOM     80  C   UNL A   1      38.431  34.239  38.956  1.00  0.00     0.009 A 
ATOM     81  C   UNL A   1      37.652  32.140  38.050  1.00  0.00     0.009 A 
ATOM     82  C   UNL A   1      37.957  33.872  40.218  1.00  0.00     0.001 A 
ATOM     83  C   UNL A   1      37.156  31.787  39.310  1.00  0.00     0.001 A 
ATOM     84  C   UNL A   1      37.317  32.647  40.395  1.00  0.00     0.000 A 
ENDBRANCH  60  79
BRANCH  72  85
ATOM     85  C   UNL A   1      44.660  35.513  35.972  1.00  0.00    -0.014 A 
ATOM     86  C   UNL A   1      45.758  34.666  36.185  1.00  0.00     0.009 A 
ATOM     87  C   UNL A   1      44.729  36.839  36.435  1.00  0.00     0.009 A 
ATOM     88  C   UNL A   1      46.884  35.130  36.869  1.00  0.00     0.001 A 
ATOM     89  C   UNL A   1      45.870  37.311  37.084  1.00  0.00     0.001 A 
ATOM     90  C   UNL A   1      46.943  36.453  37.309  1.00  0.00     0.000 A 
ENDBRANCH  72  85
ENDBRANCH  46  47
ENDBRANCH  39  41
ENDBRANCH  38  39
ENDBRANCH  37  38
ENDBRANCH  36  37
ENDBRANCH  35  36
ENDBRANCH  34  35
ENDBRANCH  33  34
ENDBRANCH   1  33
TORSDOF 23
ENDMDL
MODEL 2
REMARK VINA RESULT:      -7.9      4.955      9.038
REMARK SMILES O=C(OCCOCCOCCOCCOC(=O)c1ccc(-c2c3nc(c(-c4ccccc4)c4ccc([nH]4)c(-c4ccccc4)c4nc(c(-c5ccccc5)c5ccc2[nH]5)C=C4)C=C3)cc1)C1=Cc2cc(Cl)cc(C#Cc3ccccc3)c2O[C@@H]1C(F)(F)F
REMARK SMILES IDX 9 1 8 2 7 3 6 4 5 5 4 6 3 7 2 8 1 9 66 10 67 11 84 12 68 13
REMARK SMILES IDX 83 14 69 15 82 16 70 17 73 18 71 19 72 20 85 21 86 22 87 23
REMARK SMILES IDX 88 24 74 25 75 26 76 27 77 28 81 29 78 30 80 31 79 32 10 33
REMARK SMILES IDX 11 34 12 35 13 36 14 37 15 38 16 39 17 40 18 41 19 42 65 43
REMARK SMILES IDX 20 44 64 45 21 46 22 47 23 48 58 49 24 50 63 51 57 52 59 53
REMARK SMILES IDX 25 54 62 55 56 56 55 57 26 59 48 60 33 61 47 62 34 63 37 64
REMARK SMILES IDX 46 65 60 66 35 67 36 68 45 70 61 71 38 72 27 73 28 74 32 75
REMARK SMILES IDX 29 76 31 77 30 78 49 79 50 80 54 81 51 82 53 83 52 84 39 85
REMARK SMILES IDX 40 86 44 87 41 88 43 89 42 90
REMARK H PARENT 59 58 37 69
REMARK Flexibility Score: inf
ROOT
ATOM      1  O   UNL A   1      39.115  33.159  34.359  1.00  0.00    -0.377 OA
ENDROOT
BRANCH   1   2
ATOM      2  C   UNL A   1      39.549  32.152  35.243  1.00  0.00     0.188 C 
BRANCH   2   3
ATOM      3  C   UNL A   1      41.020  31.754  35.099  1.00  0.00     0.188 C 
BRANCH   3   4
ATOM      4  O   UNL A   1      41.598  31.032  33.963  1.00  0.00    -0.376 OA
BRANCH   4   5
ATOM      5  C   UNL A   1      41.310  29.622  33.218  1.00  0.00     0.202 C 
BRANCH   5   6
ATOM      6  C   UNL A   1      42.374  27.737  33.440  1.00  0.00     0.261 C 
BRANCH   6   7
ATOM      7  O   UNL A   1      43.875  27.551  33.563  1.00  0.00    -0.460 OA
BRANCH   7   8
ATOM      8  C   UNL A   1      44.481  27.499  32.370  1.00  0.00     0.338 C 
ATOM      9  O   UNL A   1      44.390  28.268  31.448  1.00  0.00    -0.246 OA
BRANCH   8  10
ATOM     10  C   UNL A   1      44.830  26.088  32.416  1.00  0.00     0.087 C 
ATOM     11  C   UNL A   1      44.046  25.255  31.483  1.00  0.00     0.027 C 
ATOM     12  C   UNL A   1      46.719  26.431  32.254  1.00  0.00     0.316 C 
ATOM     13  C   UNL A   1      44.686  24.599  29.921  1.00  0.00     0.020 A 
ATOM     14  O   UNL A   1      47.394  25.853  30.524  1.00  0.00    -0.474 OA
ATOM     15  C   UNL A   1      43.864  23.842  29.131  1.00  0.00     0.032 A 
ATOM     16  C   UNL A   1      46.291  24.967  29.353  1.00  0.00     0.143 A 
ATOM     17  C   UNL A   1      44.433  23.423  27.915  1.00  0.00     0.043 A 
ATOM     18  C   UNL A   1      46.733  24.563  28.108  1.00  0.00     0.069 A 
ATOM     19  Cl  UNL A   1      43.442  22.421  26.899  1.00  0.00    -0.084 Cl
ATOM     20  C   UNL A   1      45.768  23.762  27.432  1.00  0.00     0.041 A 
BRANCH  12  21
ATOM     21  C   UNL A   1      47.043  25.943  33.808  1.00  0.00     0.430 C 
ATOM     22  F   UNL A   1      46.211  25.069  34.399  1.00  0.00    -0.167 F 
ATOM     23  F   UNL A   1      48.239  25.275  33.756  1.00  0.00    -0.167 F 
ATOM     24  F   UNL A   1      47.271  26.956  34.683  1.00  0.00    -0.167 F 
ENDBRANCH  12  21
BRANCH  18  25
ATOM     25  C   UNL A   1      48.000  24.816  27.477  1.00  0.00    -0.058 C 
ATOM     26  C   UNL A   1      49.022  25.176  26.964  1.00  0.00    -0.062 C 
BRANCH  26  27
ATOM     27  C   UNL A   1      50.183  25.753  26.326  1.00  0.00     0.025 A 
ATOM     28  C   UNL A   1      51.426  25.745  26.961  1.00  0.00     0.017 A 
ATOM     29  C   UNL A   1      50.060  26.426  25.109  1.00  0.00     0.017 A 
ATOM     30  C   UNL A   1      52.499  26.487  26.448  1.00  0.00     0.001 A 
ATOM     31  C   UNL A   1      51.148  27.120  24.563  1.00  0.00     0.001 A 
ATOM     32  C   UNL A   1      52.357  27.181  25.251  1.00  0.00     0.000 A 
ENDBRANCH  26  27
ENDBRANCH  18  25
ENDBRANCH   8  10
ENDBRANCH   7   8
ENDBRANCH   6   7
ENDBRANCH   5   6
ENDBRANCH   4   5
ENDBRANCH   3   4
ENDBRANCH   2   3
ENDBRANCH   1   2
BRANCH   1  33
ATOM     33  C   UNL A   1      38.121  33.986  34.931  1.00  0.00     0.188 C 
BRANCH  33  34
ATOM     34  C   UNL A   1      36.705  33.784  34.399  1.00  0.00     0.188 C 
BRANCH  34  35
ATOM     35  O   UNL A   1      36.136  34.961  33.859  1.00  0.00    -0.376 OA
BRANCH  35  36
ATOM     36  C   UNL A   1      34.747  35.158  34.087  1.00  0.00     0.202 C 
BRANCH  36  37
ATOM     37  C   UNL A   1      33.879  35.683  32.927  1.00  0.00     0.261 C 
BRANCH  37  38
ATOM     38  O   UNL A   1      34.439  35.649  31.589  1.00  0.00    -0.460 OA
BRANCH  38  39
ATOM     39  C   UNL A   1      34.132  34.649  30.733  1.00  0.00     0.338 C 
ATOM     40  O   UNL A   1      33.105  34.511  30.095  1.00  0.00    -0.246 OA
BRANCH  39  41
ATOM     41  C   UNL A   1      35.343  33.802  30.565  1.00  0.00     0.060 A 
ATOM     42  C   UNL A   1      35.596  32.686  31.388  1.00  0.00     0.016 A 
ATOM     43  C   UNL A   1      36.230  34.111  29.548  1.00  0.00     0.016 A 
ATOM     44  C   UNL A   1      36.738  31.881  31.197  1.00  0.00     0.010 A 
ATOM     45  C   UNL A   1      37.363  33.314  29.370  1.00  0.00     0.010 A 
ATOM     46  C   UNL A   1      37.662  32.209  30.203  1.00  0.00    -0.014 A 
BRANCH  46  47
ATOM     47  C   UNL A   1      39.041  31.618  30.089  1.00  0.00     0.031 A 
ATOM     48  C   UNL A   1      40.195  32.581  30.264  1.00  0.00     0.074 A 
ATOM     49  C   UNL A   1      39.330  30.346  29.738  1.00  0.00     0.049 A 
ATOM     50  N   UNL A   1      41.444  32.478  29.889  1.00  0.00    -0.248 NA
ATOM     51  C   UNL A   1      39.861  33.871  30.896  1.00  0.00     0.031 C 
ATOM     52  C   UNL A   1      38.387  29.243  29.597  1.00  0.00     0.029 A 
ATOM     53  N   UNL A   1      40.536  29.793  29.346  1.00  0.00    -0.354 N 
ATOM     54  C   UNL A   1      42.016  33.706  30.198  1.00  0.00     0.074 A 
ATOM     55  C   UNL A   1      40.951  34.572  30.647  1.00  0.00     0.031 C 
ATOM     56  C   UNL A   1      39.018  28.185  29.051  1.00  0.00     0.029 A 
ATOM     57  C   UNL A   1      40.416  28.530  28.808  1.00  0.00     0.049 A 
ATOM     58  H   UNL A   1      41.399  30.258  29.442  1.00  0.00     0.167 HD
ATOM     59  C   UNL A   1      43.318  34.074  30.192  1.00  0.00     0.031 A 
ATOM     60  C   UNL A   1      41.314  27.749  28.169  1.00  0.00     0.031 A 
ATOM     61  C   UNL A   1      44.396  33.204  29.819  1.00  0.00     0.049 A 
ATOM     62  C   UNL A   1      42.754  28.193  28.065  1.00  0.00     0.074 A 
ATOM     63  C   UNL A   1      45.756  33.443  29.882  1.00  0.00     0.029 A 
ATOM     64  N   UNL A   1      44.232  31.923  29.320  1.00  0.00    -0.354 N 
ATOM     65  N   UNL A   1      43.300  29.325  28.435  1.00  0.00    -0.248 NA
ATOM     66  C   UNL A   1      43.715  27.220  27.516  1.00  0.00     0.031 C 
ATOM     67  C   UNL A   1      46.415  32.329  29.358  1.00  0.00     0.029 A 
ATOM     68  C   UNL A   1      45.468  31.367  29.044  1.00  0.00     0.049 A 
ATOM     69  H   UNL A   1      43.366  31.475  29.183  1.00  0.00     0.167 HD
ATOM     70  C   UNL A   1      44.669  29.169  28.245  1.00  0.00     0.074 A 
ATOM     71  C   UNL A   1      44.870  27.841  27.705  1.00  0.00     0.031 C 
ATOM     72  C   UNL A   1      45.670  30.039  28.527  1.00  0.00     0.031 A 
BRANCH  59  73
ATOM     73  C   UNL A   1      43.633  35.475  30.641  1.00  0.00    -0.014 A 
ATOM     74  C   UNL A   1      43.993  35.751  31.973  1.00  0.00     0.009 A 
ATOM     75  C   UNL A   1      43.553  36.538  29.729  1.00  0.00     0.009 A 
ATOM     76  C   UNL A   1      44.186  37.065  32.398  1.00  0.00     0.001 A 
ATOM     77  C   UNL A   1      43.798  37.846  30.146  1.00  0.00     0.001 A 
ATOM     78  C   UNL A   1      44.092  38.111  31.483  1.00  0.00     0.000 A 
ENDBRANCH  59  73
BRANCH  60  79
ATOM     79  C   UNL A   1      40.914  26.424  27.612  1.00  0.00    -0.014 A 
ATOM     80  C   UNL A   1      40.690  25.333  28.466  1.00  0.00     0.009 A 
ATOM     81  C   UNL A   1      40.811  26.224  26.225  1.00  0.00     0.009 A 
ATOM     82  C   UNL A   1      40.407  24.066  27.949  1.00  0.00     0.001 A 
ATOM     83  C   UNL A   1      40.502  24.960  25.710  1.00  0.00     0.001 A 
ATOM     84  C   UNL A   1      40.309  23.881  26.571  1.00  0.00     0.000 A 
ENDBRANCH  60  79
BRANCH  72  85
ATOM     85  C   UNL A   1      47.089  29.572  28.353  1.00  0.00    -0.014 A 
ATOM     86  C   UNL A   1      47.799  29.769  27.158  1.00  0.00     0.009 A 
ATOM     87  C   UNL A   1      47.754  28.988  29.446  1.00  0.00     0.009 A 
ATOM     88  C   UNL A   1      49.132  29.366  27.056  1.00  0.00     0.001 A 
ATOM     89  C   UNL A   1      49.097  28.621  29.352  1.00  0.00     0.001 A 
ATOM     90  C   UNL A   1      49.782  28.802  28.154  1.00  0.00     0.000 A 
ENDBRANCH  72  85
ENDBRANCH  46  47
ENDBRANCH  39  41
ENDBRANCH  38  39
ENDBRANCH  37  38
ENDBRANCH  36  37
ENDBRANCH  35  36
ENDBRANCH  34  35
ENDBRANCH  33  34
ENDBRANCH   1  33
TORSDOF 23
ENDMDL
MODEL 3
REMARK VINA RESULT:      -7.6      4.528     10.641
REMARK SMILES O=C(OCCOCCOCCOCCOC(=O)c1ccc(-c2c3nc(c(-c4ccccc4)c4ccc([nH]4)c(-c4ccccc4)c4nc(c(-c5ccccc5)c5ccc2[nH]5)C=C4)C=C3)cc1)C1=Cc2cc(Cl)cc(C#Cc3ccccc3)c2O[C@@H]1C(F)(F)F
REMARK SMILES IDX 9 1 8 2 7 3 6 4 5 5 4 6 3 7 2 8 1 9 66 10 67 11 84 12 68 13
REMARK SMILES IDX 83 14 69 15 82 16 70 17 73 18 71 19 72 20 85 21 86 22 87 23
REMARK SMILES IDX 88 24 74 25 75 26 76 27 77 28 81 29 78 30 80 31 79 32 10 33
REMARK SMILES IDX 11 34 12 35 13 36 14 37 15 38 16 39 17 40 18 41 19 42 65 43
REMARK SMILES IDX 20 44 64 45 21 46 22 47 23 48 58 49 24 50 63 51 57 52 59 53
REMARK SMILES IDX 25 54 62 55 56 56 55 57 26 59 48 60 33 61 47 62 34 63 37 64
REMARK SMILES IDX 46 65 60 66 35 67 36 68 45 70 61 71 38 72 27 73 28 74 32 75
REMARK SMILES IDX 29 76 31 77 30 78 49 79 50 80 54 81 51 82 53 83 52 84 39 85
REMARK SMILES IDX 40 86 44 87 41 88 43 89 42 90
REMARK H PARENT 59 58 37 69
REMARK Flexibility Score: inf
ROOT
ATOM      1  O   UNL A   1      37.406  20.004  25.659  1.00  0.00    -0.377 OA
ENDROOT
BRANCH   1   2
ATOM      2  C   UNL A   1      36.341  20.599  24.955  1.00  0.00     0.188 C 
BRANCH   2   3
ATOM      3  C   UNL A   1      36.294  22.128  25.022  1.00  0.00     0.188 C 
BRANCH   3   4
ATOM      4  O   UNL A   1      36.212  23.028  23.869  1.00  0.00    -0.376 OA
BRANCH   4   5
ATOM      5  C   UNL A   1      35.063  23.447  22.807  1.00  0.00     0.202 C 
BRANCH   5   6
ATOM      6  C   UNL A   1      32.922  23.066  22.913  1.00  0.00     0.261 C 
BRANCH   6   7
ATOM      7  O   UNL A   1      32.025  23.264  24.120  1.00  0.00    -0.460 OA
BRANCH   7   8
ATOM      8  C   UNL A   1      32.201  22.313  25.046  1.00  0.00     0.338 C 
ATOM      9  O   UNL A   1      32.095  21.120  24.926  1.00  0.00    -0.246 OA
BRANCH   8  10
ATOM     10  C   UNL A   1      32.074  23.178  26.208  1.00  0.00     0.087 C 
ATOM     11  C   UNL A   1      33.212  24.100  26.387  1.00  0.00     0.027 C 
ATOM     12  C   UNL A   1      30.284  23.725  25.749  1.00  0.00     0.316 C 
ATOM     13  C   UNL A   1      33.162  25.867  25.994  1.00  0.00     0.020 A 
ATOM     14  O   UNL A   1      30.237  25.589  25.195  1.00  0.00    -0.474 OA
ATOM     15  C   UNL A   1      34.284  26.625  26.194  1.00  0.00     0.032 A 
ATOM     16  C   UNL A   1      31.755  26.619  25.293  1.00  0.00     0.143 A 
ATOM     17  C   UNL A   1      34.164  27.973  25.810  1.00  0.00     0.043 A 
ATOM     18  C   UNL A   1      31.761  27.939  24.887  1.00  0.00     0.069 A 
ATOM     19  Cl  UNL A   1      35.549  28.985  26.088  1.00  0.00    -0.084 Cl
ATOM     20  C   UNL A   1      32.992  28.587  25.194  1.00  0.00     0.041 A 
BRANCH  12  21
ATOM     21  C   UNL A   1      29.600  22.915  27.027  1.00  0.00     0.430 C 
ATOM     22  F   UNL A   1      30.379  22.571  28.068  1.00  0.00    -0.167 F 
ATOM     23  F   UNL A   1      28.681  23.773  27.575  1.00  0.00    -0.167 F 
ATOM     24  F   UNL A   1      28.867  21.827  26.680  1.00  0.00    -0.167 F 
ENDBRANCH  12  21
BRANCH  18  25
ATOM     25  C   UNL A   1      30.710  28.692  24.259  1.00  0.00    -0.058 C 
ATOM     26  C   UNL A   1      29.944  29.403  23.672  1.00  0.00    -0.062 C 
BRANCH  26  27
ATOM     27  C   UNL A   1      29.144  30.362  22.943  1.00  0.00     0.025 A 
ATOM     28  C   UNL A   1      29.063  30.313  21.550  1.00  0.00     0.017 A 
ATOM     29  C   UNL A   1      28.526  31.420  23.612  1.00  0.00     0.017 A 
ATOM     30  C   UNL A   1      28.470  31.359  20.830  1.00  0.00     0.001 A 
ATOM     31  C   UNL A   1      27.880  32.437  22.897  1.00  0.00     0.001 A 
ATOM     32  C   UNL A   1      27.884  32.426  21.504  1.00  0.00     0.000 A 
ENDBRANCH  26  27
ENDBRANCH  18  25
ENDBRANCH   8  10
ENDBRANCH   7   8
ENDBRANCH   6   7
ENDBRANCH   5   6
ENDBRANCH   4   5
ENDBRANCH   3   4
ENDBRANCH   2   3
ENDBRANCH   1   2
BRANCH   1  33
ATOM     33  C   UNL A   1      38.656  20.233  25.039  1.00  0.00     0.188 C 
BRANCH  33  34
ATOM     34  C   UNL A   1      39.653  21.061  25.843  1.00  0.00     0.188 C 
BRANCH  34  35
ATOM     35  O   UNL A   1      40.256  20.341  26.901  1.00  0.00    -0.376 OA
BRANCH  35  36
ATOM     36  C   UNL A   1      41.614  19.963  26.721  1.00  0.00     0.202 C 
BRANCH  36  37
ATOM     37  C   UNL A   1      42.587  20.989  26.109  1.00  0.00     0.261 C 
BRANCH  37  38
ATOM     38  O   UNL A   1      42.067  22.299  25.765  1.00  0.00    -0.460 OA
BRANCH  38  39
ATOM     39  C   UNL A   1      42.897  23.313  25.440  1.00  0.00     0.338 C 
ATOM     40  O   UNL A   1      43.771  23.312  24.592  1.00  0.00    -0.246 OA
BRANCH  39  41
ATOM     41  C   UNL A   1      42.461  24.521  26.190  1.00  0.00     0.060 A 
ATOM     42  C   UNL A   1      42.788  25.825  25.766  1.00  0.00     0.016 A 
ATOM     43  C   UNL A   1      41.688  24.351  27.326  1.00  0.00     0.016 A 
ATOM     44  C   UNL A   1      42.345  26.959  26.478  1.00  0.00     0.010 A 
ATOM     45  C   UNL A   1      41.260  25.478  28.031  1.00  0.00     0.010 A 
ATOM     46  C   UNL A   1      41.602  26.798  27.649  1.00  0.00    -0.014 A 
BRANCH  46  47
ATOM     47  C   UNL A   1      41.324  27.892  28.643  1.00  0.00     0.031 A 
ATOM     48  C   UNL A   1      42.120  27.843  29.929  1.00  0.00     0.074 A 
ATOM     49  C   UNL A   1      40.362  28.834  28.535  1.00  0.00     0.049 A 
ATOM     50  N   UNL A   1      41.883  28.396  31.090  1.00  0.00    -0.248 NA
ATOM     51  C   UNL A   1      43.321  26.987  29.905  1.00  0.00     0.031 C 
ATOM     52  C   UNL A   1      39.538  29.110  27.363  1.00  0.00     0.029 A 
ATOM     53  N   UNL A   1      39.857  29.692  29.494  1.00  0.00    -0.354 N 
ATOM     54  C   UNL A   1      42.876  27.911  31.931  1.00  0.00     0.074 A 
ATOM     55  C   UNL A   1      43.615  26.916  31.189  1.00  0.00     0.031 C 
ATOM     56  C   UNL A   1      38.568  29.983  27.697  1.00  0.00     0.029 A 
ATOM     57  C   UNL A   1      38.702  30.337  29.107  1.00  0.00     0.049 A 
ATOM     58  H   UNL A   1      40.283  29.830  30.372  1.00  0.00     0.167 HD
ATOM     59  C   UNL A   1      43.209  28.300  33.183  1.00  0.00     0.031 A 
ATOM     60  C   UNL A   1      37.835  31.100  29.808  1.00  0.00     0.031 A 
ATOM     61  C   UNL A   1      42.532  29.337  33.908  1.00  0.00     0.049 A 
ATOM     62  C   UNL A   1      38.144  31.463  31.241  1.00  0.00     0.074 A 
ATOM     63  C   UNL A   1      42.857  29.882  35.135  1.00  0.00     0.029 A 
ATOM     64  N   UNL A   1      41.395  29.989  33.462  1.00  0.00    -0.354 N 
ATOM     65  N   UNL A   1      39.132  31.060  32.003  1.00  0.00    -0.248 NA
ATOM     66  C   UNL A   1      37.252  32.439  31.890  1.00  0.00     0.031 C 
ATOM     67  C   UNL A   1      41.876  30.821  35.465  1.00  0.00     0.029 A 
ATOM     68  C   UNL A   1      40.988  30.915  34.405  1.00  0.00     0.049 A 
ATOM     69  H   UNL A   1      40.945  29.820  32.603  1.00  0.00     0.167 HD
ATOM     70  C   UNL A   1      39.030  31.795  33.180  1.00  0.00     0.074 A 
ATOM     71  C   UNL A   1      37.871  32.651  33.043  1.00  0.00     0.031 C 
ATOM     72  C   UNL A   1      39.847  31.783  34.261  1.00  0.00     0.031 A 
BRANCH  59  73
ATOM     73  C   UNL A   1      44.387  27.615  33.821  1.00  0.00    -0.014 A 
ATOM     74  C   UNL A   1      45.706  28.011  33.532  1.00  0.00     0.009 A 
ATOM     75  C   UNL A   1      44.181  26.548  34.708  1.00  0.00     0.009 A 
ATOM     76  C   UNL A   1      46.789  27.303  34.053  1.00  0.00     0.001 A 
ATOM     77  C   UNL A   1      45.267  25.875  35.268  1.00  0.00     0.001 A 
ATOM     78  C   UNL A   1      46.569  26.239  34.924  1.00  0.00     0.000 A 
ENDBRANCH  59  73
BRANCH  60  79
ATOM     79  C   UNL A   1      36.601  31.639  29.166  1.00  0.00    -0.014 A 
ATOM     80  C   UNL A   1      35.449  30.843  29.061  1.00  0.00     0.009 A 
ATOM     81  C   UNL A   1      36.582  32.926  28.603  1.00  0.00     0.009 A 
ATOM     82  C   UNL A   1      34.320  31.305  28.380  1.00  0.00     0.001 A 
ATOM     83  C   UNL A   1      35.440  33.396  27.943  1.00  0.00     0.001 A 
ATOM     84  C   UNL A   1      34.315  32.582  27.823  1.00  0.00     0.000 A 
ENDBRANCH  60  79
BRANCH  72  85
ATOM     85  C   UNL A   1      39.592  32.780  35.358  1.00  0.00    -0.014 A 
ATOM     86  C   UNL A   1      38.754  32.495  36.446  1.00  0.00     0.009 A 
ATOM     87  C   UNL A   1      40.275  34.009  35.333  1.00  0.00     0.009 A 
ATOM     88  C   UNL A   1      38.585  33.430  37.470  1.00  0.00     0.001 A 
ATOM     89  C   UNL A   1      40.133  34.925  36.376  1.00  0.00     0.001 A 
ATOM     90  C   UNL A   1      39.281  34.638  37.439  1.00  0.00     0.000 A 
ENDBRANCH  72  85
ENDBRANCH  46  47
ENDBRANCH  39  41
ENDBRANCH  38  39
ENDBRANCH  37  38
ENDBRANCH  36  37
ENDBRANCH  35  36
ENDBRANCH  34  35
ENDBRANCH  33  34
ENDBRANCH   1  33
TORSDOF 23
ENDMDL
