MODEL 1
REMARK VINA RESULT:      -9.4      0.000      0.000
REMARK SMILES O=C(OCCOCCOCCOCCOC(=O)c1ncc2ccccc2n1)c1ccc(-c2c3nc(c(-c4ccccc4)c4ccc([nH]4)c(-c4ccccc4)c4nc(c(-c5ccccc5)c5ccc2[nH]5)C=C4)C=C3)cc1
REMARK SMILES IDX 8 1 7 2 6 3 5 4 4 5 3 6 2 7 1 8 28 9 29 10 75 11 30 12 74 13
REMARK SMILES IDX 31 14 32 15 33 16 68 17 34 18 73 19 67 20 69 21 35 22 72 23
REMARK SMILES IDX 66 24 65 25 36 27 58 28 43 29 57 30 44 31 47 32 56 33 70 34
REMARK SMILES IDX 45 35 46 36 55 38 71 39 48 40 37 41 38 42 42 43 39 44 41 45
REMARK SMILES IDX 40 46 59 47 60 48 64 49 61 50 63 51 62 52 49 53 50 54 54 55
REMARK SMILES IDX 51 56 53 57 52 58 9 59 10 60 11 61 12 62 13 63 14 64 15 65
REMARK SMILES IDX 16 66 17 67 18 68 19 69 27 70 20 71 26 72 21 73 25 74 22 75
REMARK SMILES IDX 24 76 23 77
REMARK H PARENT 69 26 47 37
REMARK Flexibility Score: inf
ROOT
ATOM      1  C   UNL A   1      39.830  21.836  26.544  1.00  0.00     0.188 C 
ENDROOT
BRANCH   1   2
ATOM      2  C   UNL A   1      41.227  21.285  26.827  1.00  0.00     0.188 C 
BRANCH   2   3
ATOM      3  O   UNL A   1      41.978  21.206  25.619  1.00  0.00    -0.376 OA
BRANCH   3   4
ATOM      4  C   UNL A   1      43.345  20.835  25.737  1.00  0.00     0.202 C 
BRANCH   4   5
ATOM      5  C   UNL A   1      44.369  21.861  25.235  1.00  0.00     0.261 C 
BRANCH   5   6
ATOM      6  O   UNL A   1      43.801  23.130  24.860  1.00  0.00    -0.460 OA
BRANCH   6   7
ATOM      7  C   UNL A   1      44.250  24.368  25.194  1.00  0.00     0.338 C 
ATOM      8  O   UNL A   1      45.235  24.831  24.627  1.00  0.00    -0.246 OA
BRANCH   7   9
ATOM      9  C   UNL A   1      43.557  25.210  26.206  1.00  0.00     0.060 A 
ATOM     10  C   UNL A   1      43.702  26.589  26.276  1.00  0.00     0.016 A 
ATOM     11  C   UNL A   1      42.655  24.598  27.086  1.00  0.00     0.016 A 
ATOM     12  C   UNL A   1      43.149  27.327  27.303  1.00  0.00     0.010 A 
ATOM     13  C   UNL A   1      41.992  25.355  28.060  1.00  0.00     0.010 A 
ATOM     14  C   UNL A   1      42.286  26.718  28.207  1.00  0.00    -0.014 A 
BRANCH  14  15
ATOM     15  C   UNL A   1      41.831  27.525  29.359  1.00  0.00     0.031 A 
ATOM     16  C   UNL A   1      40.502  28.213  29.264  1.00  0.00     0.074 A 
ATOM     17  C   UNL A   1      42.511  27.474  30.522  1.00  0.00     0.049 A 
ATOM     18  N   UNL A   1      39.907  28.986  30.132  1.00  0.00    -0.248 NA
ATOM     19  C   UNL A   1      39.731  27.996  28.027  1.00  0.00     0.031 C 
ATOM     20  C   UNL A   1      43.746  26.715  30.751  1.00  0.00     0.029 A 
ATOM     21  N   UNL A   1      42.232  28.023  31.745  1.00  0.00    -0.354 N 
ATOM     22  C   UNL A   1      38.716  29.375  29.531  1.00  0.00     0.074 A 
ATOM     23  C   UNL A   1      38.675  28.768  28.222  1.00  0.00     0.031 C 
ATOM     24  C   UNL A   1      44.080  26.796  32.047  1.00  0.00     0.029 A 
ATOM     25  C   UNL A   1      43.145  27.691  32.717  1.00  0.00     0.049 A 
ATOM     26  H   UNL A   1      41.451  28.599  31.913  1.00  0.00     0.167 HD
ATOM     27  C   UNL A   1      37.745  30.170  30.033  1.00  0.00     0.031 A 
ATOM     28  C   UNL A   1      43.235  28.100  33.996  1.00  0.00     0.031 A 
ATOM     29  C   UNL A   1      37.809  30.759  31.340  1.00  0.00     0.049 A 
ATOM     30  C   UNL A   1      42.195  29.065  34.494  1.00  0.00     0.074 A 
ATOM     31  C   UNL A   1      36.947  31.662  31.931  1.00  0.00     0.029 A 
ATOM     32  N   UNL A   1      38.804  30.482  32.268  1.00  0.00    -0.354 N 
ATOM     33  N   UNL A   1      41.128  29.520  33.879  1.00  0.00    -0.248 NA
ATOM     34  C   UNL A   1      42.380  29.590  35.851  1.00  0.00     0.031 C 
ATOM     35  C   UNL A   1      37.443  31.960  33.205  1.00  0.00     0.029 A 
ATOM     36  C   UNL A   1      38.583  31.202  33.427  1.00  0.00     0.049 A 
ATOM     37  H   UNL A   1      39.557  29.864  32.123  1.00  0.00     0.167 HD
ATOM     38  C   UNL A   1      40.513  30.381  34.773  1.00  0.00     0.074 A 
ATOM     39  C   UNL A   1      41.306  30.353  35.989  1.00  0.00     0.031 C 
ATOM     40  C   UNL A   1      39.402  31.142  34.610  1.00  0.00     0.031 A 
BRANCH  27  41
ATOM     41  C   UNL A   1      36.592  30.488  29.125  1.00  0.00    -0.014 A 
ATOM     42  C   UNL A   1      35.711  29.491  28.677  1.00  0.00     0.009 A 
ATOM     43  C   UNL A   1      36.415  31.804  28.670  1.00  0.00     0.009 A 
ATOM     44  C   UNL A   1      34.701  29.799  27.762  1.00  0.00     0.001 A 
ATOM     45  C   UNL A   1      35.389  32.114  27.775  1.00  0.00     0.001 A 
ATOM     46  C   UNL A   1      34.541  31.110  27.313  1.00  0.00     0.000 A 
ENDBRANCH  27  41
BRANCH  28  47
ATOM     47  C   UNL A   1      44.381  27.683  34.851  1.00  0.00    -0.014 A 
ATOM     48  C   UNL A   1      44.279  26.595  35.731  1.00  0.00     0.009 A 
ATOM     49  C   UNL A   1      45.589  28.401  34.809  1.00  0.00     0.009 A 
ATOM     50  C   UNL A   1      45.348  26.257  36.569  1.00  0.00     0.001 A 
ATOM     51  C   UNL A   1      46.667  28.039  35.620  1.00  0.00     0.001 A 
ATOM     52  C   UNL A   1      46.540  26.976  36.509  1.00  0.00     0.000 A 
ENDBRANCH  28  47
BRANCH  40  53
ATOM     53  C   UNL A   1      38.982  31.974  35.785  1.00  0.00    -0.014 A 
ATOM     54  C   UNL A   1      39.395  33.308  35.912  1.00  0.00     0.009 A 
ATOM     55  C   UNL A   1      38.142  31.418  36.761  1.00  0.00     0.009 A 
ATOM     56  C   UNL A   1      39.004  34.061  37.019  1.00  0.00     0.001 A 
ATOM     57  C   UNL A   1      37.727  32.182  37.850  1.00  0.00     0.001 A 
ATOM     58  C   UNL A   1      38.167  33.499  37.983  1.00  0.00     0.000 A 
ENDBRANCH  40  53
ENDBRANCH  14  15
ENDBRANCH   7   9
ENDBRANCH   6   7
ENDBRANCH   5   6
ENDBRANCH   4   5
ENDBRANCH   3   4
ENDBRANCH   2   3
ENDBRANCH   1   2
BRANCH   1  59
ATOM     59  O   UNL A   1      38.992  20.991  25.758  1.00  0.00    -0.377 OA
BRANCH  59  60
ATOM     60  C   UNL A   1      37.761  21.547  25.308  1.00  0.00     0.188 C 
BRANCH  60  61
ATOM     61  C   UNL A   1      36.576  20.600  25.012  1.00  0.00     0.188 C 
BRANCH  61  62
ATOM     62  O   UNL A   1      35.415  20.811  25.808  1.00  0.00    -0.376 OA
BRANCH  62  63
ATOM     63  C   UNL A   1      34.178  20.517  25.156  1.00  0.00     0.202 C 
BRANCH  63  64
ATOM     64  C   UNL A   1      32.938  21.177  25.781  1.00  0.00     0.261 C 
BRANCH  64  65
ATOM     65  O   UNL A   1      32.889  22.609  25.647  1.00  0.00    -0.457 OA
BRANCH  65  66
ATOM     66  C   UNL A   1      32.329  23.314  26.664  1.00  0.00     0.376 C 
ATOM     67  O   UNL A   1      32.241  22.943  27.826  1.00  0.00    -0.242 OA
BRANCH  66  68
ATOM     68  C   UNL A   1      32.055  24.702  26.167  1.00  0.00     0.239 A 
ATOM     69  N   UNL A   1      30.811  25.172  26.413  1.00  0.00    -0.230 NA
ATOM     70  N   UNL A   1      33.088  25.418  25.674  1.00  0.00    -0.222 NA
ATOM     71  C   UNL A   1      30.619  26.475  26.140  1.00  0.00     0.124 A 
ATOM     72  C   UNL A   1      32.839  26.703  25.375  1.00  0.00     0.075 A 
ATOM     73  C   UNL A   1      31.594  27.304  25.608  1.00  0.00     0.019 A 
ATOM     74  C   UNL A   1      33.831  27.493  24.805  1.00  0.00     0.029 A 
ATOM     75  C   UNL A   1      31.362  28.660  25.300  1.00  0.00     0.012 A 
ATOM     76  C   UNL A   1      33.605  28.833  24.463  1.00  0.00     0.002 A 
ATOM     77  C   UNL A   1      32.370  29.419  24.715  1.00  0.00     0.001 A 
ENDBRANCH  66  68
ENDBRANCH  65  66
ENDBRANCH  64  65
ENDBRANCH  63  64
ENDBRANCH  62  63
ENDBRANCH  61  62
ENDBRANCH  60  61
ENDBRANCH  59  60
ENDBRANCH   1  59
TORSDOF 20
ENDMDL
MODEL 2
REMARK VINA RESULT:      -9.2      3.886      7.658
REMARK SMILES O=C(OCCOCCOCCOCCOC(=O)c1ncc2ccccc2n1)c1ccc(-c2c3nc(c(-c4ccccc4)c4ccc([nH]4)c(-c4ccccc4)c4nc(c(-c5ccccc5)c5ccc2[nH]5)C=C4)C=C3)cc1
REMARK SMILES IDX 8 1 7 2 6 3 5 4 4 5 3 6 2 7 1 8 28 9 29 10 75 11 30 12 74 13
REMARK SMILES IDX 31 14 32 15 33 16 68 17 34 18 73 19 67 20 69 21 35 22 72 23
REMARK SMILES IDX 66 24 65 25 36 27 58 28 43 29 57 30 44 31 47 32 56 33 70 34
REMARK SMILES IDX 45 35 46 36 55 38 71 39 48 40 37 41 38 42 42 43 39 44 41 45
REMARK SMILES IDX 40 46 59 47 60 48 64 49 61 50 63 51 62 52 49 53 50 54 54 55
REMARK SMILES IDX 51 56 53 57 52 58 9 59 10 60 11 61 12 62 13 63 14 64 15 65
REMARK SMILES IDX 16 66 17 67 18 68 19 69 27 70 20 71 26 72 21 73 25 74 22 75
REMARK SMILES IDX 24 76 23 77
REMARK H PARENT 69 26 47 37
REMARK Flexibility Score: inf
ROOT
ATOM      1  C   UNL A   1      35.563  21.201  25.425  1.00  0.00     0.188 C 
ENDROOT
BRANCH   1   2
ATOM      2  C   UNL A   1      36.667  21.910  24.642  1.00  0.00     0.188 C 
BRANCH   2   3
ATOM      3  O   UNL A   1      37.930  21.311  24.922  1.00  0.00    -0.376 OA
BRANCH   3   4
ATOM      4  C   UNL A   1      38.020  19.901  24.766  1.00  0.00     0.202 C 
BRANCH   4   5
ATOM      5  C   UNL A   1      38.931  19.168  25.760  1.00  0.00     0.261 C 
BRANCH   5   6
ATOM      6  O   UNL A   1      40.315  19.119  25.368  1.00  0.00    -0.460 OA
BRANCH   6   7
ATOM      7  C   UNL A   1      41.396  19.488  26.105  1.00  0.00     0.338 C 
ATOM      8  O   UNL A   1      42.282  18.670  26.337  1.00  0.00    -0.246 OA
BRANCH   7   9
ATOM      9  C   UNL A   1      41.567  20.876  26.612  1.00  0.00     0.060 A 
ATOM     10  C   UNL A   1      41.461  22.000  25.803  1.00  0.00     0.016 A 
ATOM     11  C   UNL A   1      41.769  21.070  27.984  1.00  0.00     0.016 A 
ATOM     12  C   UNL A   1      41.751  23.265  26.276  1.00  0.00     0.010 A 
ATOM     13  C   UNL A   1      41.946  22.361  28.499  1.00  0.00     0.010 A 
ATOM     14  C   UNL A   1      41.995  23.460  27.630  1.00  0.00    -0.014 A 
BRANCH  14  15
ATOM     15  C   UNL A   1      42.428  24.808  28.053  1.00  0.00     0.031 A 
ATOM     16  C   UNL A   1      43.883  25.156  27.939  1.00  0.00     0.074 A 
ATOM     17  C   UNL A   1      41.506  25.746  28.347  1.00  0.00     0.049 A 
ATOM     18  N   UNL A   1      44.496  26.261  28.265  1.00  0.00    -0.248 NA
ATOM     19  C   UNL A   1      44.768  24.123  27.371  1.00  0.00     0.031 C 
ATOM     20  C   UNL A   1      40.053  25.536  28.348  1.00  0.00     0.029 A 
ATOM     21  N   UNL A   1      41.646  27.076  28.643  1.00  0.00    -0.354 N 
ATOM     22  C   UNL A   1      45.838  26.041  27.979  1.00  0.00     0.074 A 
ATOM     23  C   UNL A   1      45.956  24.697  27.466  1.00  0.00     0.031 C 
ATOM     24  C   UNL A   1      39.438  26.708  28.570  1.00  0.00     0.029 A 
ATOM     25  C   UNL A   1      40.449  27.727  28.824  1.00  0.00     0.049 A 
ATOM     26  H   UNL A   1      42.519  27.523  28.718  1.00  0.00     0.167 HD
ATOM     27  C   UNL A   1      46.878  26.892  28.133  1.00  0.00     0.031 A 
ATOM     28  C   UNL A   1      40.202  28.996  29.195  1.00  0.00     0.031 A 
ATOM     29  C   UNL A   1      46.733  28.225  28.643  1.00  0.00     0.049 A 
ATOM     30  C   UNL A   1      41.383  29.888  29.458  1.00  0.00     0.074 A 
ATOM     31  C   UNL A   1      47.712  29.153  28.944  1.00  0.00     0.029 A 
ATOM     32  N   UNL A   1      45.511  28.824  28.915  1.00  0.00    -0.354 N 
ATOM     33  N   UNL A   1      42.661  29.636  29.293  1.00  0.00    -0.248 NA
ATOM     34  C   UNL A   1      41.093  31.230  29.975  1.00  0.00     0.031 C 
ATOM     35  C   UNL A   1      47.080  30.301  29.435  1.00  0.00     0.029 A 
ATOM     36  C   UNL A   1      45.708  30.107  29.388  1.00  0.00     0.049 A 
ATOM     37  H   UNL A   1      44.632  28.397  28.789  1.00  0.00     0.167 HD
ATOM     38  C   UNL A   1      43.328  30.787  29.683  1.00  0.00     0.074 A 
ATOM     39  C   UNL A   1      42.309  31.751  30.055  1.00  0.00     0.031 C 
ATOM     40  C   UNL A   1      44.661  31.029  29.747  1.00  0.00     0.031 A 
BRANCH  27  41
ATOM     41  C   UNL A   1      48.244  26.357  27.813  1.00  0.00    -0.014 A 
ATOM     42  C   UNL A   1      48.815  26.512  26.539  1.00  0.00     0.009 A 
ATOM     43  C   UNL A   1      48.952  25.643  28.791  1.00  0.00     0.009 A 
ATOM     44  C   UNL A   1      50.049  25.927  26.241  1.00  0.00     0.001 A 
ATOM     45  C   UNL A   1      50.197  25.081  28.498  1.00  0.00     0.001 A 
ATOM     46  C   UNL A   1      50.738  25.214  27.222  1.00  0.00     0.000 A 
ENDBRANCH  27  41
BRANCH  28  47
ATOM     47  C   UNL A   1      38.808  29.465  29.429  1.00  0.00    -0.014 A 
ATOM     48  C   UNL A   1      38.100  30.175  28.448  1.00  0.00     0.009 A 
ATOM     49  C   UNL A   1      38.182  29.224  30.665  1.00  0.00     0.009 A 
ATOM     50  C   UNL A   1      36.813  30.658  28.710  1.00  0.00     0.001 A 
ATOM     51  C   UNL A   1      36.883  29.675  30.911  1.00  0.00     0.001 A 
ATOM     52  C   UNL A   1      36.205  30.404  29.939  1.00  0.00     0.000 A 
ENDBRANCH  28  47
BRANCH  40  53
ATOM     53  C   UNL A   1      45.071  32.395  30.211  1.00  0.00    -0.014 A 
ATOM     54  C   UNL A   1      45.232  33.451  29.302  1.00  0.00     0.009 A 
ATOM     55  C   UNL A   1      45.271  32.629  31.579  1.00  0.00     0.009 A 
ATOM     56  C   UNL A   1      45.626  34.711  29.753  1.00  0.00     0.001 A 
ATOM     57  C   UNL A   1      45.633  33.897  32.030  1.00  0.00     0.001 A 
ATOM     58  C   UNL A   1      45.821  34.933  31.116  1.00  0.00     0.000 A 
ENDBRANCH  40  53
ENDBRANCH  14  15
ENDBRANCH   7   9
ENDBRANCH   6   7
ENDBRANCH   5   6
ENDBRANCH   4   5
ENDBRANCH   3   4
ENDBRANCH   2   3
ENDBRANCH   1   2
BRANCH   1  59
ATOM     59  O   UNL A   1      35.245  21.781  26.688  1.00  0.00    -0.377 OA
BRANCH  59  60
ATOM     60  C   UNL A   1      33.875  22.092  26.925  1.00  0.00     0.188 C 
BRANCH  60  61
ATOM     61  C   UNL A   1      33.234  23.275  26.166  1.00  0.00     0.188 C 
BRANCH  61  62
ATOM     62  O   UNL A   1      33.991  24.480  26.166  1.00  0.00    -0.376 OA
BRANCH  62  63
ATOM     63  C   UNL A   1      34.490  24.877  24.888  1.00  0.00     0.202 C 
BRANCH  63  64
ATOM     64  C   UNL A   1      33.602  24.491  23.693  1.00  0.00     0.261 C 
BRANCH  64  65
ATOM     65  O   UNL A   1      32.752  25.548  23.211  1.00  0.00    -0.457 OA
BRANCH  65  66
ATOM     66  C   UNL A   1      31.420  25.439  23.454  1.00  0.00     0.376 C 
ATOM     67  O   UNL A   1      30.815  24.395  23.657  1.00  0.00    -0.242 OA
BRANCH  66  68
ATOM     68  C   UNL A   1      30.875  26.820  23.662  1.00  0.00     0.239 A 
ATOM     69  N   UNL A   1      31.755  27.725  24.149  1.00  0.00    -0.230 NA
ATOM     70  N   UNL A   1      29.634  27.092  23.206  1.00  0.00    -0.222 NA
ATOM     71  C   UNL A   1      31.329  29.000  24.161  1.00  0.00     0.124 A 
ATOM     72  C   UNL A   1      29.235  28.372  23.275  1.00  0.00     0.075 A 
ATOM     73  C   UNL A   1      30.070  29.398  23.743  1.00  0.00     0.019 A 
ATOM     74  C   UNL A   1      27.949  28.726  22.885  1.00  0.00     0.029 A 
ATOM     75  C   UNL A   1      29.633  30.736  23.792  1.00  0.00     0.012 A 
ATOM     76  C   UNL A   1      27.489  30.047  22.960  1.00  0.00     0.002 A 
ATOM     77  C   UNL A   1      28.334  31.055  23.410  1.00  0.00     0.001 A 
ENDBRANCH  66  68
ENDBRANCH  65  66
ENDBRANCH  64  65
ENDBRANCH  63  64
ENDBRANCH  62  63
ENDBRANCH  61  62
ENDBRANCH  60  61
ENDBRANCH  59  60
ENDBRANCH   1  59
TORSDOF 20
ENDMDL
MODEL 3
REMARK VINA RESULT:      -9.0      3.854      5.517
REMARK SMILES O=C(OCCOCCOCCOCCOC(=O)c1ncc2ccccc2n1)c1ccc(-c2c3nc(c(-c4ccccc4)c4ccc([nH]4)c(-c4ccccc4)c4nc(c(-c5ccccc5)c5ccc2[nH]5)C=C4)C=C3)cc1
REMARK SMILES IDX 8 1 7 2 6 3 5 4 4 5 3 6 2 7 1 8 28 9 29 10 75 11 30 12 74 13
REMARK SMILES IDX 31 14 32 15 33 16 68 17 34 18 73 19 67 20 69 21 35 22 72 23
REMARK SMILES IDX 66 24 65 25 36 27 58 28 43 29 57 30 44 31 47 32 56 33 70 34
REMARK SMILES IDX 45 35 46 36 55 38 71 39 48 40 37 41 38 42 42 43 39 44 41 45
REMARK SMILES IDX 40 46 59 47 60 48 64 49 61 50 63 51 62 52 49 53 50 54 54 55
REMARK SMILES IDX 51 56 53 57 52 58 9 59 10 60 11 61 12 62 13 63 14 64 15 65
REMARK SMILES IDX 16 66 17 67 18 68 19 69 27 70 20 71 26 72 21 73 25 74 22 75
REMARK SMILES IDX 24 76 23 77
REMARK H PARENT 69 26 47 37
REMARK Flexibility Score: inf
ROOT
ATOM      1  C   UNL A   1      35.597  20.745  25.427  1.00  0.00     0.188 C 
ENDROOT
BRANCH   1   2
ATOM      2  C   UNL A   1      36.409  21.715  24.569  1.00  0.00     0.188 C 
BRANCH   2   3
ATOM      3  O   UNL A   1      37.791  21.368  24.610  1.00  0.00    -0.376 OA
BRANCH   3   4
ATOM      4  C   UNL A   1      38.102  19.988  24.749  1.00  0.00     0.202 C 
BRANCH   4   5
ATOM      5  C   UNL A   1      38.982  19.612  25.949  1.00  0.00     0.261 C 
BRANCH   5   6
ATOM      6  O   UNL A   1      40.301  19.156  25.595  1.00  0.00    -0.460 OA
BRANCH   6   7
ATOM      7  C   UNL A   1      41.485  19.558  26.126  1.00  0.00     0.338 C 
ATOM      8  O   UNL A   1      42.412  18.758  26.221  1.00  0.00    -0.246 OA
BRANCH   7   9
ATOM      9  C   UNL A   1      41.716  20.961  26.564  1.00  0.00     0.060 A 
ATOM     10  C   UNL A   1      41.859  22.021  25.679  1.00  0.00     0.016 A 
ATOM     11  C   UNL A   1      41.714  21.246  27.936  1.00  0.00     0.016 A 
ATOM     12  C   UNL A   1      42.199  23.287  26.110  1.00  0.00     0.010 A 
ATOM     13  C   UNL A   1      41.940  22.552  28.388  1.00  0.00     0.010 A 
ATOM     14  C   UNL A   1      42.242  23.568  27.471  1.00  0.00    -0.014 A 
BRANCH  14  15
ATOM     15  C   UNL A   1      42.740  24.900  27.873  1.00  0.00     0.031 A 
ATOM     16  C   UNL A   1      41.737  25.945  28.264  1.00  0.00     0.074 A 
ATOM     17  C   UNL A   1      44.060  25.092  28.064  1.00  0.00     0.049 A 
ATOM     18  N   UNL A   1      41.933  27.182  28.631  1.00  0.00    -0.248 NA
ATOM     19  C   UNL A   1      40.320  25.540  28.250  1.00  0.00     0.031 C 
ATOM     20  C   UNL A   1      45.105  24.085  27.842  1.00  0.00     0.029 A 
ATOM     21  N   UNL A   1      44.746  26.177  28.541  1.00  0.00    -0.354 N 
ATOM     22  C   UNL A   1      40.667  27.711  28.852  1.00  0.00     0.074 A 
ATOM     23  C   UNL A   1      39.709  26.670  28.567  1.00  0.00     0.031 C 
ATOM     24  C   UNL A   1      46.286  24.580  28.242  1.00  0.00     0.029 A 
ATOM     25  C   UNL A   1      46.100  25.966  28.652  1.00  0.00     0.049 A 
ATOM     26  H   UNL A   1      44.311  27.026  28.784  1.00  0.00     0.167 HD
ATOM     27  C   UNL A   1      40.339  28.958  29.257  1.00  0.00     0.031 A 
ATOM     28  C   UNL A   1      47.082  26.815  29.006  1.00  0.00     0.031 A 
ATOM     29  C   UNL A   1      41.312  29.975  29.537  1.00  0.00     0.049 A 
ATOM     30  C   UNL A   1      46.693  28.225  29.353  1.00  0.00     0.074 A 
ATOM     31  C   UNL A   1      41.115  31.304  29.856  1.00  0.00     0.029 A 
ATOM     32  N   UNL A   1      42.683  29.757  29.541  1.00  0.00    -0.354 N 
ATOM     33  N   UNL A   1      45.494  28.751  29.450  1.00  0.00    -0.248 NA
ATOM     34  C   UNL A   1      47.789  29.163  29.620  1.00  0.00     0.031 C 
ATOM     35  C   UNL A   1      42.371  31.900  30.015  1.00  0.00     0.029 A 
ATOM     36  C   UNL A   1      43.347  30.929  29.849  1.00  0.00     0.049 A 
ATOM     37  H   UNL A   1      43.119  28.894  29.351  1.00  0.00     0.167 HD
ATOM     38  C   UNL A   1      45.690  30.079  29.792  1.00  0.00     0.074 A 
ATOM     39  C   UNL A   1      47.123  30.268  29.923  1.00  0.00     0.031 C 
ATOM     40  C   UNL A   1      44.776  31.067  29.967  1.00  0.00     0.031 A 
BRANCH  27  41
ATOM     41  C   UNL A   1      38.875  29.281  29.339  1.00  0.00    -0.014 A 
ATOM     42  C   UNL A   1      38.150  29.112  30.530  1.00  0.00     0.009 A 
ATOM     43  C   UNL A   1      38.199  29.717  28.189  1.00  0.00     0.009 A 
ATOM     44  C   UNL A   1      36.770  29.335  30.555  1.00  0.00     0.001 A 
ATOM     45  C   UNL A   1      36.825  29.963  28.224  1.00  0.00     0.001 A 
ATOM     46  C   UNL A   1      36.110  29.761  29.403  1.00  0.00     0.000 A 
ENDBRANCH  27  41
BRANCH  28  47
ATOM     47  C   UNL A   1      48.509  26.391  28.959  1.00  0.00    -0.014 A 
ATOM     48  C   UNL A   1      49.180  25.951  30.109  1.00  0.00     0.009 A 
ATOM     49  C   UNL A   1      49.223  26.455  27.749  1.00  0.00     0.009 A 
ATOM     50  C   UNL A   1      50.538  25.616  30.055  1.00  0.00     0.001 A 
ATOM     51  C   UNL A   1      50.568  26.084  27.690  1.00  0.00     0.001 A 
ATOM     52  C   UNL A   1      51.228  25.678  28.846  1.00  0.00     0.000 A 
ENDBRANCH  28  47
BRANCH  40  53
ATOM     53  C   UNL A   1      45.312  32.415  30.344  1.00  0.00    -0.014 A 
ATOM     54  C   UNL A   1      45.507  32.768  31.687  1.00  0.00     0.009 A 
ATOM     55  C   UNL A   1      45.651  33.331  29.336  1.00  0.00     0.009 A 
ATOM     56  C   UNL A   1      45.996  34.033  32.016  1.00  0.00     0.001 A 
ATOM     57  C   UNL A   1      46.169  34.581  29.667  1.00  0.00     0.001 A 
ATOM     58  C   UNL A   1      46.330  34.935  31.006  1.00  0.00     0.000 A 
ENDBRANCH  40  53
ENDBRANCH  14  15
ENDBRANCH   7   9
ENDBRANCH   6   7
ENDBRANCH   5   6
ENDBRANCH   4   5
ENDBRANCH   3   4
ENDBRANCH   2   3
ENDBRANCH   1   2
BRANCH   1  59
ATOM     59  O   UNL A   1      34.266  21.165  25.723  1.00  0.00    -0.377 OA
BRANCH  59  60
ATOM     60  C   UNL A   1      33.233  20.204  25.534  1.00  0.00     0.188 C 
BRANCH  60  61
ATOM     61  C   UNL A   1      32.403  20.244  24.231  1.00  0.00     0.188 C 
BRANCH  61  62
ATOM     62  O   UNL A   1      32.094  21.545  23.745  1.00  0.00    -0.376 OA
BRANCH  62  63
ATOM     63  C   UNL A   1      32.756  21.907  22.533  1.00  0.00     0.202 C 
BRANCH  63  64
ATOM     64  C   UNL A   1      33.337  23.330  22.506  1.00  0.00     0.261 C 
BRANCH  64  65
ATOM     65  O   UNL A   1      32.359  24.376  22.365  1.00  0.00    -0.457 OA
BRANCH  65  66
ATOM     66  C   UNL A   1      32.813  25.623  22.081  1.00  0.00     0.376 C 
ATOM     67  O   UNL A   1      33.284  25.985  21.011  1.00  0.00    -0.242 OA
BRANCH  66  68
ATOM     68  C   UNL A   1      32.422  26.525  23.214  1.00  0.00     0.239 A 
ATOM     69  N   UNL A   1      31.144  26.400  23.640  1.00  0.00    -0.230 NA
ATOM     70  N   UNL A   1      33.389  27.252  23.814  1.00  0.00    -0.222 NA
ATOM     71  C   UNL A   1      30.843  27.065  24.770  1.00  0.00     0.124 A 
ATOM     72  C   UNL A   1      33.032  27.933  24.914  1.00  0.00     0.075 A 
ATOM     73  C   UNL A   1      31.742  27.862  25.460  1.00  0.00     0.019 A 
ATOM     74  C   UNL A   1      33.951  28.755  25.556  1.00  0.00     0.029 A 
ATOM     75  C   UNL A   1      31.396  28.575  26.625  1.00  0.00     0.012 A 
ATOM     76  C   UNL A   1      33.612  29.496  26.696  1.00  0.00     0.002 A 
ATOM     77  C   UNL A   1      32.334  29.402  27.234  1.00  0.00     0.001 A 
ENDBRANCH  66  68
ENDBRANCH  65  66
ENDBRANCH  64  65
ENDBRANCH  63  64
ENDBRANCH  62  63
ENDBRANCH  61  62
ENDBRANCH  60  61
ENDBRANCH  59  60
ENDBRANCH   1  59
TORSDOF 20
ENDMDL
