MODEL 1
REMARK VINA RESULT:      -9.8      0.000      0.000
REMARK SMILES Cc1ccccc1/[NH+]=C1\S[C@@H](CC(=O)Nc2ccc(C(=O)OCCOCCOCCOCCOC(=O)c3ccc(-c4c5nc(c(-c6ccccc6)c6ccc([nH]6)c(-c6ccccc6)c6nc(c(-c7ccccc7)c7ccc4[nH]7)C=C6)C=C5)cc3)cc2)C(=O)N1C
REMARK SMILES IDX 27 1 26 2 25 3 24 4 23 5 22 6 20 7 21 8 19 9 16 10 17 11
REMARK SMILES IDX 86 12 18 13 85 14 15 15 13 16 14 17 12 19 11 20 8 21 9 22
REMARK SMILES IDX 10 24 89 25 87 26 90 27 88 28 7 29 1 30 2 31 3 32 4 33 6 34
REMARK SMILES IDX 5 35 28 36 29 37 30 38 31 39 32 40 33 41 34 42 35 43 36 44
REMARK SMILES IDX 37 45 38 46 84 47 39 48 83 49 40 50 41 51 42 52 77 53 43 54
REMARK SMILES IDX 82 55 76 56 78 57 44 58 81 59 75 60 74 61 45 63 67 64 52 65
REMARK SMILES IDX 66 66 53 67 56 68 65 69 79 70 54 71 55 72 64 74 80 75 57 76
REMARK SMILES IDX 46 77 47 78 51 79 48 80 50 81 49 82 68 83 69 84 73 85 70 86
REMARK SMILES IDX 72 87 71 88 58 89 59 90 63 91 60 92 62 93 61 94
REMARK H PARENT 15 18 8 23 78 62 56 73
REMARK Flexibility Score: inf
ROOT
ATOM      1  C   UNL A   1      38.897  21.944  26.118  1.00  0.00     0.188 C 
ENDROOT
BRANCH   1   2
ATOM      2  C   UNL A   1      37.733  22.801  25.552  1.00  0.00     0.188 C 
BRANCH   2   3
ATOM      3  O   UNL A   1      36.981  21.981  24.650  1.00  0.00    -0.376 OA
BRANCH   3   4
ATOM      4  C   UNL A   1      36.469  20.779  25.178  1.00  0.00     0.202 C 
BRANCH   4   5
ATOM      5  C   UNL A   1      35.026  20.667  25.423  1.00  0.00     0.261 C 
BRANCH   5   6
ATOM      6  O   UNL A   1      34.364  19.925  24.460  1.00  0.00    -0.460 OA
BRANCH   6   7
ATOM      7  C   UNL A   1      33.078  19.765  24.788  1.00  0.00     0.338 C 
ATOM      8  O   UNL A   1      32.539  18.833  25.387  1.00  0.00    -0.246 OA
BRANCH   7   9
ATOM      9  C   UNL A   1      32.529  21.088  24.589  1.00  0.00     0.060 A 
ATOM     10  C   UNL A   1      31.100  23.373  24.249  1.00  0.00     0.041 A 
ATOM     11  C   UNL A   1      30.859  22.530  25.284  1.00  0.00     0.027 A 
ATOM     12  C   UNL A   1      31.828  22.882  23.171  1.00  0.00     0.027 A 
ATOM     13  C   UNL A   1      31.765  21.601  25.622  1.00  0.00     0.018 A 
ATOM     14  C   UNL A   1      32.488  21.659  23.323  1.00  0.00     0.018 A 
BRANCH  10  15
ATOM     15  N   UNL A   1      30.592  24.664  24.401  1.00  0.00    -0.326 N 
ATOM     16  C   UNL A   1      30.925  25.580  25.399  1.00  0.00     0.226 C 
ATOM     17  O   UNL A   1      30.241  26.601  25.513  1.00  0.00    -0.275 OA
ATOM     18  H   UNL A   1      29.928  24.959  23.736  1.00  0.00     0.169 HD
BRANCH  16  19
ATOM     19  C   UNL A   1      32.209  25.438  26.276  1.00  0.00     0.128 C 
BRANCH  19  20
ATOM     20  C   UNL A   1      33.128  26.672  26.341  1.00  0.00     0.183 C 
ATOM     21  N   UNL A   1      33.797  30.283  26.394  1.00  0.00    -0.234 N 
ATOM     22  C   UNL A   1      33.097  29.213  26.291  1.00  0.00     0.319 C 
ATOM     23  H   UNL A   1      33.983  30.717  25.530  1.00  0.00     0.313 HD
ATOM     24  S   UNL A   1      32.367  28.052  27.348  1.00  0.00    -0.022 SA
ATOM     25  N   UNL A   1      32.974  28.678  25.061  1.00  0.00    -0.193 N 
ATOM     26  C   UNL A   1      33.411  27.383  25.015  1.00  0.00     0.324 C 
ATOM     27  C   UNL A   1      32.111  29.284  24.086  1.00  0.00     0.301 C 
ATOM     28  O   UNL A   1      33.952  26.862  24.047  1.00  0.00    -0.245 OA
BRANCH  21  29
ATOM     29  C   UNL A   1      34.348  30.959  27.486  1.00  0.00     0.128 A 
ATOM     30  C   UNL A   1      36.307  29.395  28.055  1.00  0.00     0.049 C 
ATOM     31  C   UNL A   1      35.453  30.602  28.275  1.00  0.00    -0.004 A 
ATOM     32  C   UNL A   1      35.870  31.452  29.317  1.00  0.00     0.008 A 
ATOM     33  C   UNL A   1      35.322  32.718  29.486  1.00  0.00     0.001 A 
ATOM     34  C   UNL A   1      33.835  32.264  27.656  1.00  0.00     0.052 A 
ATOM     35  C   UNL A   1      34.326  33.144  28.623  1.00  0.00     0.004 A 
ENDBRANCH  21  29
ENDBRANCH  19  20
ENDBRANCH  16  19
ENDBRANCH  10  15
ENDBRANCH   7   9
ENDBRANCH   6   7
ENDBRANCH   5   6
ENDBRANCH   4   5
ENDBRANCH   3   4
ENDBRANCH   2   3
ENDBRANCH   1   2
BRANCH   1  36
ATOM     36  O   UNL A   1      40.072  22.677  26.504  1.00  0.00    -0.377 OA
BRANCH  36  37
ATOM     37  C   UNL A   1      41.420  22.279  26.220  1.00  0.00     0.188 C 
BRANCH  37  38
ATOM     38  C   UNL A   1      41.778  20.855  25.778  1.00  0.00     0.188 C 
BRANCH  38  39
ATOM     39  O   UNL A   1      43.043  20.757  25.156  1.00  0.00    -0.376 OA
BRANCH  39  40
ATOM     40  C   UNL A   1      44.140  20.656  26.053  1.00  0.00     0.202 C 
BRANCH  40  41
ATOM     41  C   UNL A   1      45.505  20.961  25.409  1.00  0.00     0.261 C 
BRANCH  41  42
ATOM     42  O   UNL A   1      46.117  22.096  26.057  1.00  0.00    -0.460 OA
BRANCH  42  43
ATOM     43  C   UNL A   1      45.288  23.134  26.365  1.00  0.00     0.338 C 
ATOM     44  O   UNL A   1      44.752  23.878  25.560  1.00  0.00    -0.246 OA
BRANCH  43  45
ATOM     45  C   UNL A   1      45.416  23.447  27.824  1.00  0.00     0.060 A 
ATOM     46  C   UNL A   1      44.312  23.210  28.647  1.00  0.00     0.016 A 
ATOM     47  C   UNL A   1      46.369  24.390  28.202  1.00  0.00     0.016 A 
ATOM     48  C   UNL A   1      44.034  24.105  29.682  1.00  0.00     0.010 A 
ATOM     49  C   UNL A   1      45.984  25.380  29.095  1.00  0.00     0.010 A 
ATOM     50  C   UNL A   1      44.786  25.289  29.808  1.00  0.00    -0.014 A 
BRANCH  50  51
ATOM     51  C   UNL A   1      44.197  26.456  30.527  1.00  0.00     0.031 A 
ATOM     52  C   UNL A   1      44.480  26.729  32.061  1.00  0.00     0.074 A 
ATOM     53  C   UNL A   1      43.670  27.366  29.662  1.00  0.00     0.049 A 
ATOM     54  N   UNL A   1      43.974  27.598  32.916  1.00  0.00    -0.248 NA
ATOM     55  C   UNL A   1      45.437  25.855  32.752  1.00  0.00     0.031 C 
ATOM     56  C   UNL A   1      44.295  28.341  28.756  1.00  0.00     0.029 A 
ATOM     57  N   UNL A   1      42.348  27.537  29.317  1.00  0.00    -0.354 N 
ATOM     58  C   UNL A   1      44.714  27.544  34.147  1.00  0.00     0.074 A 
ATOM     59  C   UNL A   1      45.543  26.379  33.971  1.00  0.00     0.031 C 
ATOM     60  C   UNL A   1      43.416  29.240  28.303  1.00  0.00     0.029 A 
ATOM     61  C   UNL A   1      42.181  28.874  28.931  1.00  0.00     0.049 A 
ATOM     62  H   UNL A   1      41.648  26.845  29.336  1.00  0.00     0.167 HD
ATOM     63  C   UNL A   1      44.710  28.472  35.193  1.00  0.00     0.031 A 
ATOM     64  C   UNL A   1      41.049  29.507  28.622  1.00  0.00     0.031 A 
ATOM     65  C   UNL A   1      43.773  29.631  35.044  1.00  0.00     0.049 A 
ATOM     66  C   UNL A   1      40.584  30.137  29.927  1.00  0.00     0.074 A 
ATOM     67  C   UNL A   1      43.933  31.005  35.227  1.00  0.00     0.029 A 
ATOM     68  N   UNL A   1      42.495  29.502  34.466  1.00  0.00    -0.354 N 
ATOM     69  N   UNL A   1      41.257  30.184  31.076  1.00  0.00    -0.248 NA
ATOM     70  C   UNL A   1      39.371  30.939  29.968  1.00  0.00     0.031 C 
ATOM     71  C   UNL A   1      42.858  31.690  34.599  1.00  0.00     0.029 A 
ATOM     72  C   UNL A   1      42.006  30.744  34.038  1.00  0.00     0.049 A 
ATOM     73  H   UNL A   1      42.008  28.651  34.375  1.00  0.00     0.167 HD
ATOM     74  C   UNL A   1      40.486  30.848  32.037  1.00  0.00     0.074 A 
ATOM     75  C   UNL A   1      39.386  31.383  31.234  1.00  0.00     0.031 C 
ATOM     76  C   UNL A   1      40.692  30.944  33.408  1.00  0.00     0.031 A 
BRANCH  63  77
ATOM     77  C   UNL A   1      45.782  28.500  36.394  1.00  0.00    -0.014 A 
ATOM     78  C   UNL A   1      47.176  28.596  36.146  1.00  0.00     0.009 A 
ATOM     79  C   UNL A   1      45.504  28.439  37.775  1.00  0.00     0.009 A 
ATOM     80  C   UNL A   1      48.185  28.552  37.139  1.00  0.00     0.001 A 
ATOM     81  C   UNL A   1      46.499  28.411  38.789  1.00  0.00     0.001 A 
ATOM     82  C   UNL A   1      47.845  28.456  38.472  1.00  0.00     0.000 A 
ENDBRANCH  63  77
BRANCH  64  83
ATOM     83  C   UNL A   1      40.492  28.921  27.335  1.00  0.00    -0.014 A 
ATOM     84  C   UNL A   1      41.358  29.016  26.207  1.00  0.00     0.009 A 
ATOM     85  C   UNL A   1      39.784  27.705  27.462  1.00  0.00     0.009 A 
ATOM     86  C   UNL A   1      41.760  27.866  25.494  1.00  0.00     0.001 A 
ATOM     87  C   UNL A   1      40.205  26.552  26.759  1.00  0.00     0.001 A 
ATOM     88  C   UNL A   1      41.237  26.622  25.825  1.00  0.00     0.000 A 
ENDBRANCH  64  83
BRANCH  76  89
ATOM     89  C   UNL A   1      39.619  31.327  34.444  1.00  0.00    -0.014 A 
ATOM     90  C   UNL A   1      39.058  30.469  35.389  1.00  0.00     0.009 A 
ATOM     91  C   UNL A   1      39.278  32.702  34.599  1.00  0.00     0.009 A 
ATOM     92  C   UNL A   1      38.228  30.949  36.416  1.00  0.00     0.001 A 
ATOM     93  C   UNL A   1      38.485  33.192  35.633  1.00  0.00     0.001 A 
ATOM     94  C   UNL A   1      37.961  32.308  36.551  1.00  0.00     0.000 A 
ENDBRANCH  76  89
ENDBRANCH  50  51
ENDBRANCH  43  45
ENDBRANCH  42  43
ENDBRANCH  41  42
ENDBRANCH  40  41
ENDBRANCH  39  40
ENDBRANCH  38  39
ENDBRANCH  37  38
ENDBRANCH  36  37
ENDBRANCH   1  36
TORSDOF 24
ENDMDL
MODEL 2
REMARK VINA RESULT:      -9.8      3.953      6.535
REMARK SMILES Cc1ccccc1/[NH+]=C1\S[C@@H](CC(=O)Nc2ccc(C(=O)OCCOCCOCCOCCOC(=O)c3ccc(-c4c5nc(c(-c6ccccc6)c6ccc([nH]6)c(-c6ccccc6)c6nc(c(-c7ccccc7)c7ccc4[nH]7)C=C6)C=C5)cc3)cc2)C(=O)N1C
REMARK SMILES IDX 27 1 26 2 25 3 24 4 23 5 22 6 20 7 21 8 19 9 16 10 17 11
REMARK SMILES IDX 86 12 18 13 85 14 15 15 13 16 14 17 12 19 11 20 8 21 9 22
REMARK SMILES IDX 10 24 89 25 87 26 90 27 88 28 7 29 1 30 2 31 3 32 4 33 6 34
REMARK SMILES IDX 5 35 28 36 29 37 30 38 31 39 32 40 33 41 34 42 35 43 36 44
REMARK SMILES IDX 37 45 38 46 84 47 39 48 83 49 40 50 41 51 42 52 77 53 43 54
REMARK SMILES IDX 82 55 76 56 78 57 44 58 81 59 75 60 74 61 45 63 67 64 52 65
REMARK SMILES IDX 66 66 53 67 56 68 65 69 79 70 54 71 55 72 64 74 80 75 57 76
REMARK SMILES IDX 46 77 47 78 51 79 48 80 50 81 49 82 68 83 69 84 73 85 70 86
REMARK SMILES IDX 72 87 71 88 58 89 59 90 63 91 60 92 62 93 61 94
REMARK H PARENT 15 18 8 23 78 62 56 73
REMARK Flexibility Score: inf
ROOT
ATOM      1  C   UNL A   1      40.180  22.350  27.267  1.00  0.00     0.188 C 
ENDROOT
BRANCH   1   2
ATOM      2  C   UNL A   1      39.955  23.877  27.096  1.00  0.00     0.188 C 
BRANCH   2   3
ATOM      3  O   UNL A   1      38.847  24.062  26.207  1.00  0.00    -0.376 OA
BRANCH   3   4
ATOM      4  C   UNL A   1      37.952  22.981  26.092  1.00  0.00     0.202 C 
BRANCH   4   5
ATOM      5  C   UNL A   1      36.519  23.257  25.936  1.00  0.00     0.261 C 
BRANCH   5   6
ATOM      6  O   UNL A   1      35.742  22.112  25.898  1.00  0.00    -0.460 OA
BRANCH   6   7
ATOM      7  C   UNL A   1      34.499  22.370  26.315  1.00  0.00     0.338 C 
ATOM      8  O   UNL A   1      34.054  22.404  27.463  1.00  0.00    -0.246 OA
BRANCH   7   9
ATOM      9  C   UNL A   1      33.878  22.939  25.138  1.00  0.00     0.060 A 
ATOM     10  C   UNL A   1      32.331  23.857  23.102  1.00  0.00     0.041 A 
ATOM     11  C   UNL A   1      32.031  24.119  24.399  1.00  0.00     0.027 A 
ATOM     12  C   UNL A   1      33.220  22.819  22.842  1.00  0.00     0.027 A 
ATOM     13  C   UNL A   1      32.958  23.950  25.353  1.00  0.00     0.018 A 
ATOM     14  C   UNL A   1      33.948  22.290  23.912  1.00  0.00     0.018 A 
BRANCH  10  15
ATOM     15  N   UNL A   1      31.711  24.687  22.167  1.00  0.00    -0.326 N 
ATOM     16  C   UNL A   1      31.890  26.062  22.024  1.00  0.00     0.226 C 
ATOM     17  O   UNL A   1      31.120  26.682  21.286  1.00  0.00    -0.275 OA
ATOM     18  H   UNL A   1      31.082  24.257  21.544  1.00  0.00     0.169 HD
BRANCH  16  19
ATOM     19  C   UNL A   1      33.107  26.821  22.642  1.00  0.00     0.128 C 
BRANCH  19  20
ATOM     20  C   UNL A   1      32.771  27.976  23.603  1.00  0.00     0.183 C 
ATOM     21  N   UNL A   1      32.629  29.577  26.906  1.00  0.00    -0.234 N 
ATOM     22  C   UNL A   1      32.832  28.637  26.057  1.00  0.00     0.319 C 
ATOM     23  H   UNL A   1      31.796  29.469  27.420  1.00  0.00     0.313 HD
ATOM     24  S   UNL A   1      34.067  28.165  24.939  1.00  0.00    -0.022 SA
ATOM     25  N   UNL A   1      31.789  27.833  25.772  1.00  0.00    -0.193 N 
ATOM     26  C   UNL A   1      31.496  27.822  24.437  1.00  0.00     0.324 C 
ATOM     27  C   UNL A   1      31.363  26.833  26.711  1.00  0.00     0.301 C 
ATOM     28  O   UNL A   1      30.369  27.704  23.969  1.00  0.00    -0.245 OA
BRANCH  21  29
ATOM     29  C   UNL A   1      33.351  30.722  27.251  1.00  0.00     0.128 A 
ATOM     30  C   UNL A   1      31.532  32.516  26.970  1.00  0.00     0.049 C 
ATOM     31  C   UNL A   1      32.921  32.058  27.280  1.00  0.00    -0.004 A 
ATOM     32  C   UNL A   1      33.809  33.069  27.696  1.00  0.00     0.008 A 
ATOM     33  C   UNL A   1      35.052  32.765  28.238  1.00  0.00     0.001 A 
ATOM     34  C   UNL A   1      34.604  30.440  27.840  1.00  0.00     0.052 A 
ATOM     35  C   UNL A   1      35.436  31.439  28.350  1.00  0.00     0.004 A 
ENDBRANCH  21  29
ENDBRANCH  19  20
ENDBRANCH  16  19
ENDBRANCH  10  15
ENDBRANCH   7   9
ENDBRANCH   6   7
ENDBRANCH   5   6
ENDBRANCH   4   5
ENDBRANCH   3   4
ENDBRANCH   2   3
ENDBRANCH   1   2
BRANCH   1  36
ATOM     36  O   UNL A   1      41.519  21.958  27.609  1.00  0.00    -0.377 OA
BRANCH  36  37
ATOM     37  C   UNL A   1      42.387  21.180  26.773  1.00  0.00     0.188 C 
BRANCH  37  38
ATOM     38  C   UNL A   1      42.146  19.690  26.505  1.00  0.00     0.188 C 
BRANCH  38  39
ATOM     39  O   UNL A   1      42.558  19.272  25.219  1.00  0.00    -0.376 OA
BRANCH  39  40
ATOM     40  C   UNL A   1      43.913  18.855  25.135  1.00  0.00     0.202 C 
BRANCH  40  41
ATOM     41  C   UNL A   1      44.616  19.269  23.830  1.00  0.00     0.261 C 
BRANCH  41  42
ATOM     42  O   UNL A   1      45.566  20.325  24.091  1.00  0.00    -0.460 OA
BRANCH  42  43
ATOM     43  C   UNL A   1      45.050  21.577  24.244  1.00  0.00     0.338 C 
ATOM     44  O   UNL A   1      44.109  22.039  23.619  1.00  0.00    -0.246 OA
BRANCH  43  45
ATOM     45  C   UNL A   1      46.016  22.413  25.024  1.00  0.00     0.060 A 
ATOM     46  C   UNL A   1      45.802  22.558  26.397  1.00  0.00     0.016 A 
ATOM     47  C   UNL A   1      46.737  23.384  24.332  1.00  0.00     0.016 A 
ATOM     48  C   UNL A   1      46.066  23.791  26.997  1.00  0.00     0.010 A 
ATOM     49  C   UNL A   1      46.809  24.656  24.883  1.00  0.00     0.010 A 
ATOM     50  C   UNL A   1      46.423  24.898  26.203  1.00  0.00    -0.014 A 
BRANCH  50  51
ATOM     51  C   UNL A   1      46.193  26.277  26.725  1.00  0.00     0.031 A 
ATOM     52  C   UNL A   1      44.738  26.860  26.947  1.00  0.00     0.074 A 
ATOM     53  C   UNL A   1      47.330  26.814  27.246  1.00  0.00     0.049 A 
ATOM     54  N   UNL A   1      44.303  28.066  27.262  1.00  0.00    -0.248 NA
ATOM     55  C   UNL A   1      43.594  25.965  26.723  1.00  0.00     0.031 C 
ATOM     56  C   UNL A   1      48.063  26.549  28.494  1.00  0.00     0.029 A 
ATOM     57  N   UNL A   1      48.189  27.711  26.653  1.00  0.00    -0.354 N 
ATOM     58  C   UNL A   1      42.889  28.013  27.517  1.00  0.00     0.074 A 
ATOM     59  C   UNL A   1      42.534  26.689  27.077  1.00  0.00     0.031 C 
ATOM     60  C   UNL A   1      48.965  27.500  28.757  1.00  0.00     0.029 A 
ATOM     61  C   UNL A   1      48.821  28.431  27.676  1.00  0.00     0.049 A 
ATOM     62  H   UNL A   1      48.334  27.826  25.686  1.00  0.00     0.167 HD
ATOM     63  C   UNL A   1      42.094  28.973  28.152  1.00  0.00     0.031 A 
ATOM     64  C   UNL A   1      49.649  29.471  27.563  1.00  0.00     0.031 A 
ATOM     65  C   UNL A   1      42.786  30.237  28.559  1.00  0.00     0.049 A 
ATOM     66  C   UNL A   1      48.752  30.696  27.662  1.00  0.00     0.074 A 
ATOM     67  C   UNL A   1      42.781  30.979  29.741  1.00  0.00     0.029 A 
ATOM     68  N   UNL A   1      43.789  30.839  27.774  1.00  0.00    -0.354 N 
ATOM     69  N   UNL A   1      47.455  30.715  27.968  1.00  0.00    -0.248 NA
ATOM     70  C   UNL A   1      49.321  32.034  27.600  1.00  0.00     0.031 C 
ATOM     71  C   UNL A   1      43.882  31.877  29.737  1.00  0.00     0.029 A 
ATOM     72  C   UNL A   1      44.571  31.716  28.538  1.00  0.00     0.049 A 
ATOM     73  H   UNL A   1      43.924  30.665  26.814  1.00  0.00     0.167 HD
ATOM     74  C   UNL A   1      46.996  32.037  27.953  1.00  0.00     0.074 A 
ATOM     75  C   UNL A   1      48.241  32.795  27.832  1.00  0.00     0.031 C 
ATOM     76  C   UNL A   1      45.689  32.508  28.003  1.00  0.00     0.031 A 
BRANCH  63  77
ATOM     77  C   UNL A   1      40.592  28.718  28.668  1.00  0.00    -0.014 A 
ATOM     78  C   UNL A   1      39.465  29.191  27.946  1.00  0.00     0.009 A 
ATOM     79  C   UNL A   1      40.205  28.028  29.836  1.00  0.00     0.009 A 
ATOM     80  C   UNL A   1      38.118  29.074  28.368  1.00  0.00     0.001 A 
ATOM     81  C   UNL A   1      38.860  27.883  30.269  1.00  0.00     0.001 A 
ATOM     82  C   UNL A   1      37.812  28.417  29.541  1.00  0.00     0.000 A 
ENDBRANCH  63  77
BRANCH  64  83
ATOM     83  C   UNL A   1      50.937  29.006  26.904  1.00  0.00    -0.014 A 
ATOM     84  C   UNL A   1      51.337  29.763  25.765  1.00  0.00     0.009 A 
ATOM     85  C   UNL A   1      51.977  28.621  27.780  1.00  0.00     0.009 A 
ATOM     86  C   UNL A   1      52.599  30.394  25.712  1.00  0.00     0.001 A 
ATOM     87  C   UNL A   1      53.233  29.272  27.733  1.00  0.00     0.001 A 
ATOM     88  C   UNL A   1      53.516  30.206  26.739  1.00  0.00     0.000 A 
ENDBRANCH  64  83
BRANCH  76  89
ATOM     89  C   UNL A   1      45.234  33.917  27.579  1.00  0.00    -0.014 A 
ATOM     90  C   UNL A   1      44.509  34.225  26.429  1.00  0.00     0.009 A 
ATOM     91  C   UNL A   1      45.392  34.993  28.499  1.00  0.00     0.009 A 
ATOM     92  C   UNL A   1      43.975  35.507  26.218  1.00  0.00     0.001 A 
ATOM     93  C   UNL A   1      44.837  36.257  28.318  1.00  0.00     0.001 A 
ATOM     94  C   UNL A   1      44.118  36.512  27.169  1.00  0.00     0.000 A 
ENDBRANCH  76  89
ENDBRANCH  50  51
ENDBRANCH  43  45
ENDBRANCH  42  43
ENDBRANCH  41  42
ENDBRANCH  40  41
ENDBRANCH  39  40
ENDBRANCH  38  39
ENDBRANCH  37  38
ENDBRANCH  36  37
ENDBRANCH   1  36
TORSDOF 24
ENDMDL
MODEL 3
REMARK VINA RESULT:      -9.3      3.677      5.567
REMARK SMILES Cc1ccccc1/[NH+]=C1\S[C@@H](CC(=O)Nc2ccc(C(=O)OCCOCCOCCOCCOC(=O)c3ccc(-c4c5nc(c(-c6ccccc6)c6ccc([nH]6)c(-c6ccccc6)c6nc(c(-c7ccccc7)c7ccc4[nH]7)C=C6)C=C5)cc3)cc2)C(=O)N1C
REMARK SMILES IDX 27 1 26 2 25 3 24 4 23 5 22 6 20 7 21 8 19 9 16 10 17 11
REMARK SMILES IDX 86 12 18 13 85 14 15 15 13 16 14 17 12 19 11 20 8 21 9 22
REMARK SMILES IDX 10 24 89 25 87 26 90 27 88 28 7 29 1 30 2 31 3 32 4 33 6 34
REMARK SMILES IDX 5 35 28 36 29 37 30 38 31 39 32 40 33 41 34 42 35 43 36 44
REMARK SMILES IDX 37 45 38 46 84 47 39 48 83 49 40 50 41 51 42 52 77 53 43 54
REMARK SMILES IDX 82 55 76 56 78 57 44 58 81 59 75 60 74 61 45 63 67 64 52 65
REMARK SMILES IDX 66 66 53 67 56 68 65 69 79 70 54 71 55 72 64 74 80 75 57 76
REMARK SMILES IDX 46 77 47 78 51 79 48 80 50 81 49 82 68 83 69 84 73 85 70 86
REMARK SMILES IDX 72 87 71 88 58 89 59 90 63 91 60 92 62 93 61 94
REMARK H PARENT 15 18 8 23 78 62 56 73
REMARK Flexibility Score: inf
ROOT
ATOM      1  C   UNL A   1      38.449  21.584  25.664  1.00  0.00     0.188 C 
ENDROOT
BRANCH   1   2
ATOM      2  C   UNL A   1      37.698  22.856  25.185  1.00  0.00     0.188 C 
BRANCH   2   3
ATOM      3  O   UNL A   1      36.751  22.459  24.188  1.00  0.00    -0.376 OA
BRANCH   3   4
ATOM      4  C   UNL A   1      35.670  21.670  24.631  1.00  0.00     0.202 C 
BRANCH   4   5
ATOM      5  C   UNL A   1      34.310  22.215  24.546  1.00  0.00     0.261 C 
BRANCH   5   6
ATOM      6  O   UNL A   1      33.442  21.407  23.831  1.00  0.00    -0.460 OA
BRANCH   6   7
ATOM      7  C   UNL A   1      32.327  21.176  24.531  1.00  0.00     0.338 C 
ATOM      8  O   UNL A   1      31.916  20.120  25.014  1.00  0.00    -0.246 OA
BRANCH   7   9
ATOM      9  C   UNL A   1      31.890  22.508  24.887  1.00  0.00     0.060 A 
ATOM     10  C   UNL A   1      30.729  24.805  25.756  1.00  0.00     0.041 A 
ATOM     11  C   UNL A   1      30.966  23.766  26.595  1.00  0.00     0.027 A 
ATOM     12  C   UNL A   1      30.750  24.551  24.389  1.00  0.00     0.027 A 
ATOM     13  C   UNL A   1      31.818  22.793  26.240  1.00  0.00     0.018 A 
ATOM     14  C   UNL A   1      31.267  23.327  23.954  1.00  0.00     0.018 A 
BRANCH  10  15
ATOM     15  N   UNL A   1      30.504  26.034  26.379  1.00  0.00    -0.326 N 
ATOM     16  C   UNL A   1      31.472  26.942  26.808  1.00  0.00     0.226 C 
ATOM     17  O   UNL A   1      31.118  27.885  27.521  1.00  0.00    -0.275 OA
ATOM     18  H   UNL A   1      29.565  26.286  26.532  1.00  0.00     0.169 HD
BRANCH  16  19
ATOM     19  C   UNL A   1      32.950  26.895  26.309  1.00  0.00     0.128 C 
BRANCH  19  20
ATOM     20  C   UNL A   1      33.696  28.241  26.265  1.00  0.00     0.183 C 
ATOM     21  N   UNL A   1      34.219  31.751  27.215  1.00  0.00    -0.234 N 
ATOM     22  C   UNL A   1      33.619  30.619  27.161  1.00  0.00     0.319 C 
ATOM     23  H   UNL A   1      33.819  32.436  26.633  1.00  0.00     0.313 HD
ATOM     24  S   UNL A   1      33.721  29.075  27.939  1.00  0.00    -0.022 SA
ATOM     25  N   UNL A   1      32.756  30.430  26.144  1.00  0.00    -0.193 N 
ATOM     26  C   UNL A   1      33.080  29.336  25.389  1.00  0.00     0.324 C 
ATOM     27  C   UNL A   1      31.468  31.063  26.153  1.00  0.00     0.301 C 
ATOM     28  O   UNL A   1      32.900  29.241  24.181  1.00  0.00    -0.245 OA
BRANCH  21  29
ATOM     29  C   UNL A   1      35.327  32.208  27.934  1.00  0.00     0.128 A 
ATOM     30  C   UNL A   1      34.309  34.269  29.085  1.00  0.00     0.049 C 
ATOM     31  C   UNL A   1      35.430  33.333  28.768  1.00  0.00    -0.004 A 
ATOM     32  C   UNL A   1      36.642  33.598  29.434  1.00  0.00     0.008 A 
ATOM     33  C   UNL A   1      37.692  32.688  29.423  1.00  0.00     0.001 A 
ATOM     34  C   UNL A   1      36.394  31.284  27.970  1.00  0.00     0.052 A 
ATOM     35  C   UNL A   1      37.551  31.502  28.720  1.00  0.00     0.004 A 
ENDBRANCH  21  29
ENDBRANCH  19  20
ENDBRANCH  16  19
ENDBRANCH  10  15
ENDBRANCH   7   9
ENDBRANCH   6   7
ENDBRANCH   5   6
ENDBRANCH   4   5
ENDBRANCH   3   4
ENDBRANCH   2   3
ENDBRANCH   1   2
BRANCH   1  36
ATOM     36  O   UNL A   1      39.570  21.820  26.533  1.00  0.00    -0.377 OA
BRANCH  36  37
ATOM     37  C   UNL A   1      40.839  21.159  26.436  1.00  0.00     0.188 C 
BRANCH  37  38
ATOM     38  C   UNL A   1      40.960  19.638  26.275  1.00  0.00     0.188 C 
BRANCH  38  39
ATOM     39  O   UNL A   1      41.964  19.244  25.362  1.00  0.00    -0.376 OA
BRANCH  39  40
ATOM     40  C   UNL A   1      43.267  19.719  25.670  1.00  0.00     0.202 C 
BRANCH  40  41
ATOM     41  C   UNL A   1      44.329  19.362  24.615  1.00  0.00     0.261 C 
BRANCH  41  42
ATOM     42  O   UNL A   1      44.890  20.566  24.049  1.00  0.00    -0.460 OA
BRANCH  42  43
ATOM     43  C   UNL A   1      44.433  21.744  24.561  1.00  0.00     0.338 C 
ATOM     44  O   UNL A   1      43.366  22.269  24.290  1.00  0.00    -0.246 OA
BRANCH  43  45
ATOM     45  C   UNL A   1      45.568  22.465  25.218  1.00  0.00     0.060 A 
ATOM     46  C   UNL A   1      45.484  22.711  26.591  1.00  0.00     0.016 A 
ATOM     47  C   UNL A   1      46.367  23.280  24.418  1.00  0.00     0.016 A 
ATOM     48  C   UNL A   1      45.970  23.920  27.093  1.00  0.00     0.010 A 
ATOM     49  C   UNL A   1      46.666  24.553  24.882  1.00  0.00     0.010 A 
ATOM     50  C   UNL A   1      46.422  24.918  26.208  1.00  0.00    -0.014 A 
BRANCH  50  51
ATOM     51  C   UNL A   1      46.436  26.341  26.658  1.00  0.00     0.031 A 
ATOM     52  C   UNL A   1      47.785  27.137  26.887  1.00  0.00     0.074 A 
ATOM     53  C   UNL A   1      45.206  26.916  26.549  1.00  0.00     0.049 A 
ATOM     54  N   UNL A   1      48.037  28.328  27.398  1.00  0.00    -0.248 NA
ATOM     55  C   UNL A   1      49.047  26.469  26.542  1.00  0.00     0.031 C 
ATOM     56  C   UNL A   1      44.433  27.374  25.384  1.00  0.00     0.029 A 
ATOM     57  N   UNL A   1      44.279  27.124  27.545  1.00  0.00    -0.354 N 
ATOM     58  C   UNL A   1      49.426  28.646  27.206  1.00  0.00     0.074 A 
ATOM     59  C   UNL A   1      49.979  27.399  26.742  1.00  0.00     0.031 C 
ATOM     60  C   UNL A   1      43.401  28.145  25.741  1.00  0.00     0.029 A 
ATOM     61  C   UNL A   1      43.493  28.221  27.169  1.00  0.00     0.049 A 
ATOM     62  H   UNL A   1      44.185  26.596  28.371  1.00  0.00     0.167 HD
ATOM     63  C   UNL A   1      50.046  29.894  27.324  1.00  0.00     0.031 A 
ATOM     64  C   UNL A   1      42.547  28.839  27.877  1.00  0.00     0.031 A 
ATOM     65  C   UNL A   1      49.171  31.026  27.768  1.00  0.00     0.049 A 
ATOM     66  C   UNL A   1      43.269  29.978  28.584  1.00  0.00     0.074 A 
ATOM     67  C   UNL A   1      49.002  32.329  27.299  1.00  0.00     0.029 A 
ATOM     68  N   UNL A   1      48.153  30.865  28.727  1.00  0.00    -0.354 N 
ATOM     69  N   UNL A   1      44.529  30.365  28.393  1.00  0.00    -0.248 NA
ATOM     70  C   UNL A   1      42.536  30.895  29.443  1.00  0.00     0.031 C 
ATOM     71  C   UNL A   1      47.796  32.865  27.826  1.00  0.00     0.029 A 
ATOM     72  C   UNL A   1      47.215  31.904  28.648  1.00  0.00     0.049 A 
ATOM     73  H   UNL A   1      48.105  30.120  29.369  1.00  0.00     0.167 HD
ATOM     74  C   UNL A   1      44.813  31.446  29.235  1.00  0.00     0.074 A 
ATOM     75  C   UNL A   1      43.491  31.781  29.764  1.00  0.00     0.031 C 
ATOM     76  C   UNL A   1      46.041  32.029  29.525  1.00  0.00     0.031 A 
BRANCH  63  77
ATOM     77  C   UNL A   1      51.532  30.228  26.805  1.00  0.00    -0.014 A 
ATOM     78  C   UNL A   1      51.758  30.903  25.576  1.00  0.00     0.009 A 
ATOM     79  C   UNL A   1      52.744  29.921  27.457  1.00  0.00     0.009 A 
ATOM     80  C   UNL A   1      53.030  31.168  25.014  1.00  0.00     0.001 A 
ATOM     81  C   UNL A   1      54.031  30.194  26.920  1.00  0.00     0.001 A 
ATOM     82  C   UNL A   1      54.178  30.809  25.689  1.00  0.00     0.000 A 
ENDBRANCH  63  77
BRANCH  64  83
ATOM     83  C   UNL A   1      41.376  27.889  28.070  1.00  0.00    -0.014 A 
ATOM     84  C   UNL A   1      41.204  27.408  29.400  1.00  0.00     0.009 A 
ATOM     85  C   UNL A   1      40.188  28.223  27.381  1.00  0.00     0.009 A 
ATOM     86  C   UNL A   1      39.993  27.604  30.098  1.00  0.00     0.001 A 
ATOM     87  C   UNL A   1      38.982  28.436  28.091  1.00  0.00     0.001 A 
ATOM     88  C   UNL A   1      38.907  28.190  29.460  1.00  0.00     0.000 A 
ENDBRANCH  64  83
BRANCH  76  89
ATOM     89  C   UNL A   1      46.336  32.924  30.743  1.00  0.00    -0.014 A 
ATOM     90  C   UNL A   1      47.327  32.697  31.697  1.00  0.00     0.009 A 
ATOM     91  C   UNL A   1      45.685  34.188  30.837  1.00  0.00     0.009 A 
ATOM     92  C   UNL A   1      47.649  33.663  32.665  1.00  0.00     0.001 A 
ATOM     93  C   UNL A   1      46.021  35.166  31.769  1.00  0.00     0.001 A 
ATOM     94  C   UNL A   1      47.015  34.901  32.687  1.00  0.00     0.000 A 
ENDBRANCH  76  89
ENDBRANCH  50  51
ENDBRANCH  43  45
ENDBRANCH  42  43
ENDBRANCH  41  42
ENDBRANCH  40  41
ENDBRANCH  39  40
ENDBRANCH  38  39
ENDBRANCH  37  38
ENDBRANCH  36  37
ENDBRANCH   1  36
TORSDOF 24
ENDMDL
