MODEL 1
REMARK VINA RESULT:      -9.7      0.000      0.000
REMARK SMILES O=C(N[C@@H](C(=O)OCCOCCOCCOCCOC(=O)c1ccc(-c2c3nc(c(-c4ccccc4)c4ccc([nH]4)c(-c4ccccc4)c4nc(c(-c5ccccc5)c5ccc2[nH]5)C=C4)C=C3)cc1)c1ccccc1)c1ccc(Br)nc1
REMARK SMILES IDX 13 1 12 2 11 3 10 4 9 5 8 6 7 7 5 8 6 9 4 10 3 11 1 12 2 13
REMARK SMILES IDX 76 15 77 16 82 17 78 18 81 19 79 20 80 21 70 22 71 23 75 24
REMARK SMILES IDX 72 25 74 26 73 27 14 28 15 29 16 30 17 31 18 32 19 33 20 34
REMARK SMILES IDX 21 35 22 36 23 37 69 38 24 39 68 40 25 41 26 42 27 43 62 44
REMARK SMILES IDX 28 45 67 46 61 47 63 48 29 49 66 50 60 51 59 52 30 54 52 55
REMARK SMILES IDX 37 56 51 57 38 58 41 59 50 60 64 61 39 62 40 63 49 65 65 66
REMARK SMILES IDX 42 67 31 68 32 69 36 70 33 71 35 72 34 73 53 74 54 75 58 76
REMARK SMILES IDX 55 77 57 78 56 79 43 80 44 81 48 82 45 83 47 84 46 85
REMARK H PARENT 3 14 63 53 41 64
REMARK Flexibility Score: inf
ROOT
ATOM      1  O   UNL A   1      35.342  34.187  28.793  1.00  0.00    -0.377 OA
ENDROOT
BRANCH   1   2
ATOM      2  C   UNL A   1      35.326  33.016  28.003  1.00  0.00     0.188 C 
BRANCH   2   3
ATOM      3  C   UNL A   1      34.008  32.225  28.020  1.00  0.00     0.188 C 
BRANCH   3   4
ATOM      4  O   UNL A   1      33.868  31.034  27.262  1.00  0.00    -0.376 OA
BRANCH   4   5
ATOM      5  C   UNL A   1      32.593  30.450  27.037  1.00  0.00     0.202 C 
BRANCH   5   6
ATOM      6  C   UNL A   1      32.072  30.113  25.624  1.00  0.00     0.261 C 
BRANCH   6   7
ATOM      7  O   UNL A   1      32.324  28.786  25.125  1.00  0.00    -0.461 OA
BRANCH   7   8
ATOM      8  C   UNL A   1      32.629  28.706  23.805  1.00  0.00     0.333 C 
ATOM      9  O   UNL A   1      33.589  29.284  23.301  1.00  0.00    -0.249 OA
BRANCH   8  10
ATOM     10  C   UNL A   1      31.660  27.802  22.975  1.00  0.00     0.223 C 
BRANCH  10  11
ATOM     11  N   UNL A   1      32.100  27.121  21.737  1.00  0.00    -0.335 N 
ATOM     12  O   UNL A   1      32.899  25.516  20.379  1.00  0.00    -0.269 OA
ATOM     13  C   UNL A   1      32.584  25.866  21.511  1.00  0.00     0.253 C 
ATOM     14  H   UNL A   1      32.030  27.676  20.927  1.00  0.00     0.165 HD
BRANCH  13  15
ATOM     15  C   UNL A   1      32.790  24.954  22.633  1.00  0.00     0.058 A 
ATOM     16  C   UNL A   1      34.031  24.929  23.260  1.00  0.00     0.018 A 
ATOM     17  C   UNL A   1      31.765  24.167  23.131  1.00  0.00     0.126 A 
ATOM     18  C   UNL A   1      34.164  24.204  24.440  1.00  0.00     0.037 A 
ATOM     19  N   UNL A   1      31.861  23.476  24.286  1.00  0.00    -0.249 NA
ATOM     20  C   UNL A   1      33.051  23.529  24.929  1.00  0.00     0.106 A 
ATOM     21  Br  UNL A   1      33.168  22.681  26.618  1.00  0.00    -0.029 Br
ENDBRANCH  13  15
ENDBRANCH  10  11
BRANCH  10  22
ATOM     22  C   UNL A   1      30.324  28.518  22.743  1.00  0.00    -0.014 A 
ATOM     23  C   UNL A   1      30.327  29.709  21.996  1.00  0.00     0.006 A 
ATOM     24  C   UNL A   1      29.085  28.031  23.201  1.00  0.00     0.006 A 
ATOM     25  C   UNL A   1      29.145  30.394  21.725  1.00  0.00     0.000 A 
ATOM     26  C   UNL A   1      27.900  28.720  22.928  1.00  0.00     0.000 A 
ATOM     27  C   UNL A   1      27.931  29.901  22.194  1.00  0.00     0.000 A 
ENDBRANCH  10  22
ENDBRANCH   8  10
ENDBRANCH   7   8
ENDBRANCH   6   7
ENDBRANCH   5   6
ENDBRANCH   4   5
ENDBRANCH   3   4
ENDBRANCH   2   3
ENDBRANCH   1   2
BRANCH   1  28
ATOM     28  C   UNL A   1      34.124  34.909  28.880  1.00  0.00     0.188 C 
BRANCH  28  29
ATOM     29  C   UNL A   1      34.096  36.331  28.290  1.00  0.00     0.188 C 
BRANCH  29  30
ATOM     30  O   UNL A   1      33.408  37.277  29.097  1.00  0.00    -0.376 OA
BRANCH  30  31
ATOM     31  C   UNL A   1      32.780  36.842  30.294  1.00  0.00     0.202 C 
BRANCH  31  32
ATOM     32  C   UNL A   1      33.147  37.549  31.611  1.00  0.00     0.261 C 
BRANCH  32  33
ATOM     33  O   UNL A   1      33.612  36.718  32.685  1.00  0.00    -0.460 OA
BRANCH  33  34
ATOM     34  C   UNL A   1      33.267  35.415  32.677  1.00  0.00     0.338 C 
ATOM     35  O   UNL A   1      32.150  34.950  32.515  1.00  0.00    -0.246 OA
BRANCH  34  36
ATOM     36  C   UNL A   1      34.513  34.618  32.686  1.00  0.00     0.060 A 
ATOM     37  C   UNL A   1      34.476  33.315  33.202  1.00  0.00     0.016 A 
ATOM     38  C   UNL A   1      35.703  35.144  32.180  1.00  0.00     0.016 A 
ATOM     39  C   UNL A   1      35.640  32.549  33.250  1.00  0.00     0.010 A 
ATOM     40  C   UNL A   1      36.875  34.386  32.256  1.00  0.00     0.010 A 
ATOM     41  C   UNL A   1      36.856  33.100  32.826  1.00  0.00    -0.014 A 
BRANCH  41  42
ATOM     42  C   UNL A   1      38.127  32.427  33.185  1.00  0.00     0.031 A 
ATOM     43  C   UNL A   1      38.668  31.388  32.239  1.00  0.00     0.074 A 
ATOM     44  C   UNL A   1      38.807  32.746  34.300  1.00  0.00     0.049 A 
ATOM     45  N   UNL A   1      39.730  30.633  32.352  1.00  0.00    -0.248 NA
ATOM     46  C   UNL A   1      37.907  31.176  30.997  1.00  0.00     0.031 C 
ATOM     47  C   UNL A   1      38.424  33.774  35.264  1.00  0.00     0.029 A 
ATOM     48  N   UNL A   1      39.969  32.222  34.808  1.00  0.00    -0.354 N 
ATOM     49  C   UNL A   1      39.758  29.851  31.203  1.00  0.00     0.074 A 
ATOM     50  C   UNL A   1      38.593  30.199  30.422  1.00  0.00     0.031 C 
ATOM     51  C   UNL A   1      39.334  33.801  36.254  1.00  0.00     0.029 A 
ATOM     52  C   UNL A   1      40.338  32.767  36.013  1.00  0.00     0.049 A 
ATOM     53  H   UNL A   1      40.490  31.522  34.350  1.00  0.00     0.167 HD
ATOM     54  C   UNL A   1      40.673  28.928  30.829  1.00  0.00     0.031 A 
ATOM     55  C   UNL A   1      41.355  32.446  36.838  1.00  0.00     0.031 A 
ATOM     56  C   UNL A   1      41.821  28.566  31.614  1.00  0.00     0.049 A 
ATOM     57  C   UNL A   1      42.304  31.340  36.446  1.00  0.00     0.074 A 
ATOM     58  C   UNL A   1      42.810  27.644  31.320  1.00  0.00     0.029 A 
ATOM     59  N   UNL A   1      42.130  29.104  32.853  1.00  0.00    -0.354 N 
ATOM     60  N   UNL A   1      42.331  30.620  35.349  1.00  0.00    -0.248 NA
ATOM     61  C   UNL A   1      43.368  31.009  37.406  1.00  0.00     0.031 C 
ATOM     62  C   UNL A   1      43.681  27.576  32.412  1.00  0.00     0.029 A 
ATOM     63  C   UNL A   1      43.277  28.511  33.352  1.00  0.00     0.049 A 
ATOM     64  H   UNL A   1      41.611  29.805  33.311  1.00  0.00     0.167 HD
ATOM     65  C   UNL A   1      43.432  29.779  35.474  1.00  0.00     0.074 A 
ATOM     66  C   UNL A   1      44.054  30.090  36.744  1.00  0.00     0.031 C 
ATOM     67  C   UNL A   1      43.889  28.834  34.614  1.00  0.00     0.031 A 
BRANCH  54  68
ATOM     68  C   UNL A   1      40.443  28.213  29.526  1.00  0.00    -0.014 A 
ATOM     69  C   UNL A   1      41.009  28.675  28.327  1.00  0.00     0.009 A 
ATOM     70  C   UNL A   1      39.675  27.039  29.505  1.00  0.00     0.009 A 
ATOM     71  C   UNL A   1      40.784  27.993  27.129  1.00  0.00     0.001 A 
ATOM     72  C   UNL A   1      39.477  26.341  28.312  1.00  0.00     0.001 A 
ATOM     73  C   UNL A   1      40.023  26.823  27.124  1.00  0.00     0.000 A 
ENDBRANCH  54  68
BRANCH  55  74
ATOM     74  C   UNL A   1      41.524  33.152  38.137  1.00  0.00    -0.014 A 
ATOM     75  C   UNL A   1      40.854  32.710  39.288  1.00  0.00     0.009 A 
ATOM     76  C   UNL A   1      42.320  34.306  38.220  1.00  0.00     0.009 A 
ATOM     77  C   UNL A   1      40.950  33.427  40.484  1.00  0.00     0.001 A 
ATOM     78  C   UNL A   1      42.442  35.001  39.426  1.00  0.00     0.001 A 
ATOM     79  C   UNL A   1      41.747  34.568  40.553  1.00  0.00     0.000 A 
ENDBRANCH  55  74
BRANCH  67  80
ATOM     80  C   UNL A   1      45.149  28.104  34.990  1.00  0.00    -0.014 A 
ATOM     81  C   UNL A   1      46.413  28.557  34.580  1.00  0.00     0.009 A 
ATOM     82  C   UNL A   1      45.070  26.966  35.810  1.00  0.00     0.009 A 
ATOM     83  C   UNL A   1      47.567  27.863  34.952  1.00  0.00     0.001 A 
ATOM     84  C   UNL A   1      46.227  26.295  36.209  1.00  0.00     0.001 A 
ATOM     85  C   UNL A   1      47.473  26.737  35.771  1.00  0.00     0.000 A 
ENDBRANCH  67  80
ENDBRANCH  41  42
ENDBRANCH  34  36
ENDBRANCH  33  34
ENDBRANCH  32  33
ENDBRANCH  31  32
ENDBRANCH  30  31
ENDBRANCH  29  30
ENDBRANCH  28  29
ENDBRANCH   1  28
TORSDOF 23
ENDMDL
MODEL 2
REMARK VINA RESULT:      -9.0      4.562      8.062
REMARK SMILES O=C(N[C@@H](C(=O)OCCOCCOCCOCCOC(=O)c1ccc(-c2c3nc(c(-c4ccccc4)c4ccc([nH]4)c(-c4ccccc4)c4nc(c(-c5ccccc5)c5ccc2[nH]5)C=C4)C=C3)cc1)c1ccccc1)c1ccc(Br)nc1
REMARK SMILES IDX 13 1 12 2 11 3 10 4 9 5 8 6 7 7 5 8 6 9 4 10 3 11 1 12 2 13
REMARK SMILES IDX 76 15 77 16 82 17 78 18 81 19 79 20 80 21 70 22 71 23 75 24
REMARK SMILES IDX 72 25 74 26 73 27 14 28 15 29 16 30 17 31 18 32 19 33 20 34
REMARK SMILES IDX 21 35 22 36 23 37 69 38 24 39 68 40 25 41 26 42 27 43 62 44
REMARK SMILES IDX 28 45 67 46 61 47 63 48 29 49 66 50 60 51 59 52 30 54 52 55
REMARK SMILES IDX 37 56 51 57 38 58 41 59 50 60 64 61 39 62 40 63 49 65 65 66
REMARK SMILES IDX 42 67 31 68 32 69 36 70 33 71 35 72 34 73 53 74 54 75 58 76
REMARK SMILES IDX 55 77 57 78 56 79 43 80 44 81 48 82 45 83 47 84 46 85
REMARK H PARENT 3 14 63 53 41 64
REMARK Flexibility Score: inf
ROOT
ATOM      1  O   UNL A   1      35.565  33.526  29.632  1.00  0.00    -0.377 OA
ENDROOT
BRANCH   1   2
ATOM      2  C   UNL A   1      35.549  32.432  28.740  1.00  0.00     0.188 C 
BRANCH   2   3
ATOM      3  C   UNL A   1      34.157  31.997  28.251  1.00  0.00     0.188 C 
BRANCH   3   4
ATOM      4  O   UNL A   1      34.012  31.222  27.072  1.00  0.00    -0.376 OA
BRANCH   4   5
ATOM      5  C   UNL A   1      33.222  30.043  27.059  1.00  0.00     0.202 C 
BRANCH   5   6
ATOM      6  C   UNL A   1      32.145  29.777  25.986  1.00  0.00     0.261 C 
BRANCH   6   7
ATOM      7  O   UNL A   1      32.182  28.505  25.313  1.00  0.00    -0.461 OA
BRANCH   7   8
ATOM      8  C   UNL A   1      32.525  28.548  24.000  1.00  0.00     0.333 C 
ATOM      9  O   UNL A   1      33.481  29.193  23.576  1.00  0.00    -0.249 OA
BRANCH   8  10
ATOM     10  C   UNL A   1      31.606  27.693  23.068  1.00  0.00     0.223 C 
BRANCH  10  11
ATOM     11  N   UNL A   1      32.114  27.090  21.815  1.00  0.00    -0.335 N 
ATOM     12  O   UNL A   1      33.027  25.586  20.413  1.00  0.00    -0.269 OA
ATOM     13  C   UNL A   1      32.662  25.870  21.549  1.00  0.00     0.253 C 
ATOM     14  H   UNL A   1      32.043  27.678  21.029  1.00  0.00     0.165 HD
BRANCH  13  15
ATOM     15  C   UNL A   1      32.876  24.918  22.636  1.00  0.00     0.058 A 
ATOM     16  C   UNL A   1      34.087  24.939  23.320  1.00  0.00     0.018 A 
ATOM     17  C   UNL A   1      31.884  24.044  23.046  1.00  0.00     0.126 A 
ATOM     18  C   UNL A   1      34.214  24.166  24.468  1.00  0.00     0.037 A 
ATOM     19  N   UNL A   1      31.973  23.303  24.170  1.00  0.00    -0.249 NA
ATOM     20  C   UNL A   1      33.126  23.398  24.871  1.00  0.00     0.106 A 
ATOM     21  Br  UNL A   1      33.223  22.476  26.522  1.00  0.00    -0.029 Br
ENDBRANCH  13  15
ENDBRANCH  10  11
BRANCH  10  22
ATOM     22  C   UNL A   1      30.279  28.417  22.809  1.00  0.00    -0.014 A 
ATOM     23  C   UNL A   1      30.296  29.575  22.012  1.00  0.00     0.006 A 
ATOM     24  C   UNL A   1      29.036  27.969  23.293  1.00  0.00     0.006 A 
ATOM     25  C   UNL A   1      29.123  30.265  21.716  1.00  0.00     0.000 A 
ATOM     26  C   UNL A   1      27.859  28.663  22.995  1.00  0.00     0.000 A 
ATOM     27  C   UNL A   1      27.904  29.810  22.211  1.00  0.00     0.000 A 
ENDBRANCH  10  22
ENDBRANCH   8  10
ENDBRANCH   7   8
ENDBRANCH   6   7
ENDBRANCH   5   6
ENDBRANCH   4   5
ENDBRANCH   3   4
ENDBRANCH   2   3
ENDBRANCH   1   2
BRANCH   1  28
ATOM     28  C   UNL A   1      34.414  33.702  30.442  1.00  0.00     0.188 C 
BRANCH  28  29
ATOM     29  C   UNL A   1      34.477  34.775  31.545  1.00  0.00     0.188 C 
BRANCH  29  30
ATOM     30  O   UNL A   1      34.619  34.246  32.856  1.00  0.00    -0.376 OA
BRANCH  30  31
ATOM     31  C   UNL A   1      34.846  32.854  33.023  1.00  0.00     0.202 C 
BRANCH  31  32
ATOM     32  C   UNL A   1      36.288  32.374  33.266  1.00  0.00     0.261 C 
BRANCH  32  33
ATOM     33  O   UNL A   1      37.024  31.924  32.119  1.00  0.00    -0.460 OA
BRANCH  33  34
ATOM     34  C   UNL A   1      37.178  30.597  31.942  1.00  0.00     0.338 C 
ATOM     35  O   UNL A   1      36.303  29.746  31.953  1.00  0.00    -0.246 OA
BRANCH  34  36
ATOM     36  C   UNL A   1      38.573  30.357  31.515  1.00  0.00     0.060 A 
ATOM     37  C   UNL A   1      38.957  30.733  30.219  1.00  0.00     0.016 A 
ATOM     38  C   UNL A   1      39.499  29.777  32.385  1.00  0.00     0.016 A 
ATOM     39  C   UNL A   1      40.258  30.495  29.778  1.00  0.00     0.010 A 
ATOM     40  C   UNL A   1      40.794  29.511  31.931  1.00  0.00     0.010 A 
ATOM     41  C   UNL A   1      41.167  29.835  30.613  1.00  0.00    -0.014 A 
BRANCH  41  42
ATOM     42  C   UNL A   1      42.418  29.284  30.038  1.00  0.00     0.031 A 
ATOM     43  C   UNL A   1      43.664  30.126  30.121  1.00  0.00     0.074 A 
ATOM     44  C   UNL A   1      42.467  28.059  29.488  1.00  0.00     0.049 A 
ATOM     45  N   UNL A   1      44.862  29.887  29.655  1.00  0.00    -0.248 NA
ATOM     46  C   UNL A   1      43.538  31.412  30.828  1.00  0.00     0.031 C 
ATOM     47  C   UNL A   1      41.349  27.121  29.402  1.00  0.00     0.029 A 
ATOM     48  N   UNL A   1      43.509  27.398  28.889  1.00  0.00    -0.354 N 
ATOM     49  C   UNL A   1      45.627  30.994  30.002  1.00  0.00     0.074 A 
ATOM     50  C   UNL A   1      44.754  31.918  30.690  1.00  0.00     0.031 C 
ATOM     51  C   UNL A   1      41.766  26.005  28.778  1.00  0.00     0.029 A 
ATOM     52  C   UNL A   1      43.165  26.167  28.386  1.00  0.00     0.049 A 
ATOM     53  H   UNL A   1      44.419  27.770  28.827  1.00  0.00     0.167 HD
ATOM     54  C   UNL A   1      46.941  31.221  29.773  1.00  0.00     0.031 A 
ATOM     55  C   UNL A   1      43.891  25.287  27.668  1.00  0.00     0.031 A 
ATOM     56  C   UNL A   1      47.807  30.312  29.072  1.00  0.00     0.049 A 
ATOM     57  C   UNL A   1      45.327  25.610  27.336  1.00  0.00     0.074 A 
ATOM     58  C   UNL A   1      49.155  30.449  28.792  1.00  0.00     0.029 A 
ATOM     59  N   UNL A   1      47.406  29.100  28.533  1.00  0.00    -0.354 N 
ATOM     60  N   UNL A   1      46.045  26.651  27.685  1.00  0.00    -0.248 NA
ATOM     61  C   UNL A   1      46.053  24.629  26.515  1.00  0.00     0.031 C 
ATOM     62  C   UNL A   1      49.554  29.350  28.025  1.00  0.00     0.029 A 
ATOM     63  C   UNL A   1      48.473  28.493  27.894  1.00  0.00     0.049 A 
ATOM     64  H   UNL A   1      46.497  28.726  28.595  1.00  0.00     0.167 HD
ATOM     65  C   UNL A   1      47.313  26.432  27.158  1.00  0.00     0.074 A 
ATOM     66  C   UNL A   1      47.269  25.153  26.480  1.00  0.00     0.031 C 
ATOM     67  C   UNL A   1      48.417  27.217  27.228  1.00  0.00     0.031 A 
BRANCH  54  68
ATOM     68  C   UNL A   1      47.513  32.527  30.253  1.00  0.00    -0.014 A 
ATOM     69  C   UNL A   1      47.496  33.674  29.445  1.00  0.00     0.009 A 
ATOM     70  C   UNL A   1      48.048  32.616  31.547  1.00  0.00     0.009 A 
ATOM     71  C   UNL A   1      48.032  34.877  29.912  1.00  0.00     0.001 A 
ATOM     72  C   UNL A   1      48.554  33.826  32.024  1.00  0.00     0.001 A 
ATOM     73  C   UNL A   1      48.555  34.953  31.204  1.00  0.00     0.000 A 
ENDBRANCH  54  68
BRANCH  55  74
ATOM     74  C   UNL A   1      43.275  24.023  27.180  1.00  0.00    -0.014 A 
ATOM     75  C   UNL A   1      43.138  22.914  28.029  1.00  0.00     0.009 A 
ATOM     76  C   UNL A   1      42.863  23.904  25.842  1.00  0.00     0.009 A 
ATOM     77  C   UNL A   1      42.635  21.705  27.542  1.00  0.00     0.001 A 
ATOM     78  C   UNL A   1      42.329  22.704  25.366  1.00  0.00     0.001 A 
ATOM     79  C   UNL A   1      42.228  21.602  26.213  1.00  0.00     0.000 A 
ENDBRANCH  55  74
BRANCH  67  80
ATOM     80  C   UNL A   1      49.682  26.696  26.602  1.00  0.00    -0.014 A 
ATOM     81  C   UNL A   1      50.552  25.844  27.301  1.00  0.00     0.009 A 
ATOM     82  C   UNL A   1      49.983  27.029  25.272  1.00  0.00     0.009 A 
ATOM     83  C   UNL A   1      51.716  25.369  26.691  1.00  0.00     0.001 A 
ATOM     84  C   UNL A   1      51.127  26.524  24.653  1.00  0.00     0.001 A 
ATOM     85  C   UNL A   1      51.999  25.704  25.367  1.00  0.00     0.000 A 
ENDBRANCH  67  80
ENDBRANCH  41  42
ENDBRANCH  34  36
ENDBRANCH  33  34
ENDBRANCH  32  33
ENDBRANCH  31  32
ENDBRANCH  30  31
ENDBRANCH  29  30
ENDBRANCH  28  29
ENDBRANCH   1  28
TORSDOF 23
ENDMDL
MODEL 3
REMARK VINA RESULT:      -8.8      6.956     10.349
REMARK SMILES O=C(N[C@@H](C(=O)OCCOCCOCCOCCOC(=O)c1ccc(-c2c3nc(c(-c4ccccc4)c4ccc([nH]4)c(-c4ccccc4)c4nc(c(-c5ccccc5)c5ccc2[nH]5)C=C4)C=C3)cc1)c1ccccc1)c1ccc(Br)nc1
REMARK SMILES IDX 13 1 12 2 11 3 10 4 9 5 8 6 7 7 5 8 6 9 4 10 3 11 1 12 2 13
REMARK SMILES IDX 76 15 77 16 82 17 78 18 81 19 79 20 80 21 70 22 71 23 75 24
REMARK SMILES IDX 72 25 74 26 73 27 14 28 15 29 16 30 17 31 18 32 19 33 20 34
REMARK SMILES IDX 21 35 22 36 23 37 69 38 24 39 68 40 25 41 26 42 27 43 62 44
REMARK SMILES IDX 28 45 67 46 61 47 63 48 29 49 66 50 60 51 59 52 30 54 52 55
REMARK SMILES IDX 37 56 51 57 38 58 41 59 50 60 64 61 39 62 40 63 49 65 65 66
REMARK SMILES IDX 42 67 31 68 32 69 36 70 33 71 35 72 34 73 53 74 54 75 58 76
REMARK SMILES IDX 55 77 57 78 56 79 43 80 44 81 48 82 45 83 47 84 46 85
REMARK H PARENT 3 14 63 53 41 64
REMARK Flexibility Score: inf
ROOT
ATOM      1  O   UNL A   1      39.645  29.232  27.284  1.00  0.00    -0.377 OA
ENDROOT
BRANCH   1   2
ATOM      2  C   UNL A   1      38.556  29.046  28.163  1.00  0.00     0.188 C 
BRANCH   2   3
ATOM      3  C   UNL A   1      37.162  29.181  27.528  1.00  0.00     0.188 C 
BRANCH   3   4
ATOM      4  O   UNL A   1      36.071  29.694  28.276  1.00  0.00    -0.376 OA
BRANCH   4   5
ATOM      5  C   UNL A   1      34.802  29.903  27.676  1.00  0.00     0.202 C 
BRANCH   5   6
ATOM      6  C   UNL A   1      34.278  29.028  26.516  1.00  0.00     0.261 C 
BRANCH   6   7
ATOM      7  O   UNL A   1      33.247  29.587  25.680  1.00  0.00    -0.461 OA
BRANCH   7   8
ATOM      8  C   UNL A   1      32.080  28.895  25.652  1.00  0.00     0.333 C 
ATOM      9  O   UNL A   1      31.410  28.665  26.656  1.00  0.00    -0.249 OA
BRANCH   8  10
ATOM     10  C   UNL A   1      31.647  28.423  24.225  1.00  0.00     0.223 C 
BRANCH  10  11
ATOM     11  N   UNL A   1      32.585  28.445  23.080  1.00  0.00    -0.335 N 
ATOM     12  O   UNL A   1      34.039  27.718  21.526  1.00  0.00    -0.269 OA
ATOM     13  C   UNL A   1      33.304  27.458  22.473  1.00  0.00     0.253 C 
ATOM     14  H   UNL A   1      32.713  29.337  22.684  1.00  0.00     0.165 HD
BRANCH  13  15
ATOM     15  C   UNL A   1      33.250  26.095  22.994  1.00  0.00     0.058 A 
ATOM     16  C   UNL A   1      34.054  25.757  24.077  1.00  0.00     0.018 A 
ATOM     17  C   UNL A   1      32.372  25.154  22.483  1.00  0.00     0.126 A 
ATOM     18  C   UNL A   1      33.861  24.521  24.685  1.00  0.00     0.037 A 
ATOM     19  N   UNL A   1      32.148  23.960  23.070  1.00  0.00    -0.249 NA
ATOM     20  C   UNL A   1      32.880  23.679  24.174  1.00  0.00     0.106 A 
ATOM     21  Br  UNL A   1      32.488  22.071  25.094  1.00  0.00    -0.029 Br
ENDBRANCH  13  15
ENDBRANCH  10  11
BRANCH  10  22
ATOM     22  C   UNL A   1      30.310  29.061  23.830  1.00  0.00    -0.014 A 
ATOM     23  C   UNL A   1      30.154  30.446  24.008  1.00  0.00     0.006 A 
ATOM     24  C   UNL A   1      29.239  28.345  23.262  1.00  0.00     0.006 A 
ATOM     25  C   UNL A   1      28.974  31.092  23.644  1.00  0.00     0.000 A 
ATOM     26  C   UNL A   1      28.056  28.995  22.898  1.00  0.00     0.000 A 
ATOM     27  C   UNL A   1      27.924  30.365  23.092  1.00  0.00     0.000 A 
ENDBRANCH  10  22
ENDBRANCH   8  10
ENDBRANCH   7   8
ENDBRANCH   6   7
ENDBRANCH   5   6
ENDBRANCH   4   5
ENDBRANCH   3   4
ENDBRANCH   2   3
ENDBRANCH   1   2
BRANCH   1  28
ATOM     28  C   UNL A   1      40.402  28.077  26.958  1.00  0.00     0.188 C 
BRANCH  28  29
ATOM     29  C   UNL A   1      40.086  26.780  27.727  1.00  0.00     0.188 C 
BRANCH  29  30
ATOM     30  O   UNL A   1      40.010  25.625  26.902  1.00  0.00    -0.376 OA
BRANCH  30  31
ATOM     31  C   UNL A   1      39.504  24.415  27.446  1.00  0.00     0.202 C 
BRANCH  31  32
ATOM     32  C   UNL A   1      40.321  23.126  27.246  1.00  0.00     0.261 C 
BRANCH  32  33
ATOM     33  O   UNL A   1      41.580  23.044  27.933  1.00  0.00    -0.460 OA
BRANCH  33  34
ATOM     34  C   UNL A   1      42.702  22.942  27.194  1.00  0.00     0.338 C 
ATOM     35  O   UNL A   1      43.068  21.979  26.538  1.00  0.00    -0.246 OA
BRANCH  34  36
ATOM     36  C   UNL A   1      43.326  24.281  27.133  1.00  0.00     0.060 A 
ATOM     37  C   UNL A   1      43.480  24.898  25.883  1.00  0.00     0.016 A 
ATOM     38  C   UNL A   1      43.745  24.930  28.296  1.00  0.00     0.016 A 
ATOM     39  C   UNL A   1      44.090  26.148  25.790  1.00  0.00     0.010 A 
ATOM     40  C   UNL A   1      44.383  26.170  28.199  1.00  0.00     0.010 A 
ATOM     41  C   UNL A   1      44.592  26.766  26.942  1.00  0.00    -0.014 A 
BRANCH  41  42
ATOM     42  C   UNL A   1      45.524  27.911  26.808  1.00  0.00     0.031 A 
ATOM     43  C   UNL A   1      46.990  27.612  26.632  1.00  0.00     0.074 A 
ATOM     44  C   UNL A   1      45.089  29.183  26.806  1.00  0.00     0.049 A 
ATOM     45  N   UNL A   1      48.001  28.436  26.540  1.00  0.00    -0.248 NA
ATOM     46  C   UNL A   1      47.361  26.190  26.548  1.00  0.00     0.031 C 
ATOM     47  C   UNL A   1      43.694  29.604  26.905  1.00  0.00     0.029 A 
ATOM     48  N   UNL A   1      45.792  30.359  26.722  1.00  0.00    -0.354 N 
ATOM     49  C   UNL A   1      49.127  27.632  26.398  1.00  0.00     0.074 A 
ATOM     50  C   UNL A   1      48.679  26.259  26.447  1.00  0.00     0.031 C 
ATOM     51  C   UNL A   1      43.643  30.948  26.883  1.00  0.00     0.029 A 
ATOM     52  C   UNL A   1      45.003  31.479  26.810  1.00  0.00     0.049 A 
ATOM     53  H   UNL A   1      46.770  30.396  26.608  1.00  0.00     0.167 HD
ATOM     54  C   UNL A   1      50.417  28.003  26.237  1.00  0.00     0.031 A 
ATOM     55  C   UNL A   1      45.345  32.783  26.853  1.00  0.00     0.031 A 
ATOM     56  C   UNL A   1      50.867  29.369  26.208  1.00  0.00     0.049 A 
ATOM     57  C   UNL A   1      46.802  33.167  26.775  1.00  0.00     0.074 A 
ATOM     58  C   UNL A   1      52.155  29.849  26.046  1.00  0.00     0.029 A 
ATOM     59  N   UNL A   1      50.042  30.472  26.353  1.00  0.00    -0.354 N 
ATOM     60  N   UNL A   1      47.856  32.401  26.623  1.00  0.00    -0.248 NA
ATOM     61  C   UNL A   1      47.114  34.602  26.870  1.00  0.00     0.031 C 
ATOM     62  C   UNL A   1      52.117  31.242  26.159  1.00  0.00     0.029 A 
ATOM     63  C   UNL A   1      50.796  31.633  26.315  1.00  0.00     0.049 A 
ATOM     64  H   UNL A   1      49.064  30.438  26.466  1.00  0.00     0.167 HD
ATOM     65  C   UNL A   1      48.947  33.261  26.568  1.00  0.00     0.074 A 
ATOM     66  C   UNL A   1      48.425  34.606  26.686  1.00  0.00     0.031 C 
ATOM     67  C   UNL A   1      50.264  32.965  26.429  1.00  0.00     0.031 A 
BRANCH  54  68
ATOM     68  C   UNL A   1      51.444  26.910  26.121  1.00  0.00    -0.014 A 
ATOM     69  C   UNL A   1      51.803  26.372  24.875  1.00  0.00     0.009 A 
ATOM     70  C   UNL A   1      52.085  26.436  27.276  1.00  0.00     0.009 A 
ATOM     71  C   UNL A   1      52.761  25.359  24.792  1.00  0.00     0.001 A 
ATOM     72  C   UNL A   1      53.065  25.445  27.187  1.00  0.00     0.001 A 
ATOM     73  C   UNL A   1      53.395  24.901  25.948  1.00  0.00     0.000 A 
ENDBRANCH  54  68
BRANCH  55  74
ATOM     74  C   UNL A   1      44.300  33.831  27.007  1.00  0.00    -0.014 A 
ATOM     75  C   UNL A   1      43.728  34.447  25.884  1.00  0.00     0.009 A 
ATOM     76  C   UNL A   1      43.904  34.257  28.286  1.00  0.00     0.009 A 
ATOM     77  C   UNL A   1      42.808  35.488  26.037  1.00  0.00     0.001 A 
ATOM     78  C   UNL A   1      42.958  35.274  28.436  1.00  0.00     0.001 A 
ATOM     79  C   UNL A   1      42.422  35.898  27.311  1.00  0.00     0.000 A 
ENDBRANCH  55  74
BRANCH  67  80
ATOM     80  C   UNL A   1      51.230  34.116  26.346  1.00  0.00    -0.014 A 
ATOM     81  C   UNL A   1      51.554  34.718  25.120  1.00  0.00     0.009 A 
ATOM     82  C   UNL A   1      51.789  34.636  27.525  1.00  0.00     0.009 A 
ATOM     83  C   UNL A   1      52.447  35.791  25.074  1.00  0.00     0.001 A 
ATOM     84  C   UNL A   1      52.653  35.730  27.480  1.00  0.00     0.001 A 
ATOM     85  C   UNL A   1      52.991  36.300  26.254  1.00  0.00     0.000 A 
ENDBRANCH  67  80
ENDBRANCH  41  42
ENDBRANCH  34  36
ENDBRANCH  33  34
ENDBRANCH  32  33
ENDBRANCH  31  32
ENDBRANCH  30  31
ENDBRANCH  29  30
ENDBRANCH  28  29
ENDBRANCH   1  28
TORSDOF 23
ENDMDL
