MODEL 1
REMARK VINA RESULT:      -7.0      0.000      0.000
REMARK SMILES O=C(OCCOCCOCCOCCOC(=O)[C@@H]1CC=CC[C@H]1C(=O)Nc1ccc(C(=O)N2CCOCC2)c(Cl)c1)c1ccc(-c2c3nc(c(-c4ccccc4)c4ccc([nH]4)c(-c4ccccc4)c4nc(c(-c5ccccc5)c5ccc2[nH]5)C=C4)C=C3)cc1
REMARK SMILES IDX 10 1 9 2 8 3 7 4 6 5 5 6 4 7 3 8 2 9 1 10 42 11 43 12 89 13
REMARK SMILES IDX 44 14 88 15 45 16 46 17 47 18 82 19 48 20 87 21 81 22 83 23
REMARK SMILES IDX 49 24 86 25 80 26 79 27 50 29 72 30 57 31 71 32 58 33 61 34
REMARK SMILES IDX 70 35 84 36 59 37 60 38 69 40 85 41 62 42 51 43 52 44 56 45
REMARK SMILES IDX 53 46 55 47 54 48 73 49 74 50 78 51 75 52 77 53 76 54 63 55
REMARK SMILES IDX 64 56 68 57 65 58 67 59 66 60 11 61 12 62 13 63 14 64 15 65
REMARK SMILES IDX 16 66 17 67 18 68 19 69 23 70 20 71 22 72 21 73 24 74 25 75
REMARK SMILES IDX 26 76 27 78 28 79 41 80 29 81 39 82 30 83 40 84 31 85 32 86
REMARK SMILES IDX 33 87 34 88 38 89 35 90 37 91 36 92
REMARK H PARENT 83 28 61 39 26 77
REMARK Flexibility Score: inf
ROOT
ATOM      1  C   UNL A   1      45.486  31.516  26.487  1.00  0.00     0.188 C 
ENDROOT
BRANCH   1   2
ATOM      2  O   UNL A   1      45.737  30.147  26.199  1.00  0.00    -0.377 OA
BRANCH   2   3
ATOM      3  C   UNL A   1      44.770  29.229  26.692  1.00  0.00     0.188 C 
BRANCH   3   4
ATOM      4  C   UNL A   1      44.861  27.860  26.027  1.00  0.00     0.188 C 
BRANCH   4   5
ATOM      5  O   UNL A   1      43.896  27.772  24.972  1.00  0.00    -0.376 OA
BRANCH   5   6
ATOM      6  C   UNL A   1      42.813  26.875  25.210  1.00  0.00     0.202 C 
BRANCH   6   7
ATOM      7  C   UNL A   1      41.642  27.524  25.939  1.00  0.00     0.261 C 
BRANCH   7   8
ATOM      8  O   UNL A   1      40.695  26.564  26.418  1.00  0.00    -0.460 OA
BRANCH   8   9
ATOM      9  C   UNL A   1      40.760  25.784  27.523  1.00  0.00     0.338 C 
ATOM     10  O   UNL A   1      39.803  25.036  27.736  1.00  0.00    -0.246 OA
BRANCH   9  11
ATOM     11  C   UNL A   1      41.890  25.758  28.521  1.00  0.00     0.060 A 
ATOM     12  C   UNL A   1      42.420  26.844  29.232  1.00  0.00     0.016 A 
ATOM     13  C   UNL A   1      42.471  24.494  28.754  1.00  0.00     0.016 A 
ATOM     14  C   UNL A   1      43.509  26.704  30.088  1.00  0.00     0.010 A 
ATOM     15  C   UNL A   1      43.583  24.343  29.584  1.00  0.00     0.010 A 
ATOM     16  C   UNL A   1      44.131  25.467  30.206  1.00  0.00    -0.014 A 
BRANCH  16  17
ATOM     17  C   UNL A   1      45.516  25.436  30.701  1.00  0.00     0.031 A 
ATOM     18  C   UNL A   1      45.699  25.201  32.170  1.00  0.00     0.074 A 
ATOM     19  C   UNL A   1      46.556  25.542  29.863  1.00  0.00     0.049 A 
ATOM     20  N   UNL A   1      46.791  25.216  32.887  1.00  0.00    -0.248 NA
ATOM     21  C   UNL A   1      44.478  24.892  32.938  1.00  0.00     0.031 C 
ATOM     22  C   UNL A   1      46.465  25.639  28.407  1.00  0.00     0.029 A 
ATOM     23  N   UNL A   1      47.898  25.585  30.127  1.00  0.00    -0.354 N 
ATOM     24  C   UNL A   1      46.382  24.945  34.186  1.00  0.00     0.074 A 
ATOM     25  C   UNL A   1      44.951  24.759  34.164  1.00  0.00     0.031 C 
ATOM     26  C   UNL A   1      47.705  25.758  27.904  1.00  0.00     0.029 A 
ATOM     27  C   UNL A   1      48.662  25.797  29.007  1.00  0.00     0.049 A 
ATOM     28  H   UNL A   1      48.276  25.477  31.029  1.00  0.00     0.167 HD
ATOM     29  C   UNL A   1      47.137  24.889  35.306  1.00  0.00     0.031 A 
ATOM     30  C   UNL A   1      49.982  26.044  28.908  1.00  0.00     0.031 A 
ATOM     31  C   UNL A   1      48.547  25.140  35.305  1.00  0.00     0.049 A 
ATOM     32  C   UNL A   1      50.793  26.087  30.176  1.00  0.00     0.074 A 
ATOM     33  C   UNL A   1      49.421  25.194  36.373  1.00  0.00     0.029 A 
ATOM     34  N   UNL A   1      49.286  25.397  34.158  1.00  0.00    -0.354 N 
ATOM     35  N   UNL A   1      50.401  25.880  31.413  1.00  0.00    -0.248 NA
ATOM     36  C   UNL A   1      52.220  26.408  30.042  1.00  0.00     0.031 C 
ATOM     37  C   UNL A   1      50.683  25.534  35.871  1.00  0.00     0.029 A 
ATOM     38  C   UNL A   1      50.604  25.636  34.489  1.00  0.00     0.049 A 
ATOM     39  H   UNL A   1      48.922  25.408  33.243  1.00  0.00     0.167 HD
ATOM     40  C   UNL A   1      51.531  26.033  32.204  1.00  0.00     0.074 A 
ATOM     41  C   UNL A   1      52.627  26.338  31.304  1.00  0.00     0.031 C 
ATOM     42  C   UNL A   1      51.658  25.932  33.551  1.00  0.00     0.031 A 
BRANCH  29  43
ATOM     43  C   UNL A   1      46.403  24.662  36.596  1.00  0.00    -0.014 A 
ATOM     44  C   UNL A   1      45.963  25.733  37.392  1.00  0.00     0.009 A 
ATOM     45  C   UNL A   1      46.237  23.352  37.069  1.00  0.00     0.009 A 
ATOM     46  C   UNL A   1      45.421  25.495  38.659  1.00  0.00     0.001 A 
ATOM     47  C   UNL A   1      45.672  23.116  38.324  1.00  0.00     0.001 A 
ATOM     48  C   UNL A   1      45.280  24.188  39.124  1.00  0.00     0.000 A 
ENDBRANCH  29  43
BRANCH  30  49
ATOM     49  C   UNL A   1      50.579  26.335  27.578  1.00  0.00    -0.014 A 
ATOM     50  C   UNL A   1      51.207  25.329  26.829  1.00  0.00     0.009 A 
ATOM     51  C   UNL A   1      50.484  27.625  27.031  1.00  0.00     0.009 A 
ATOM     52  C   UNL A   1      51.730  25.613  25.563  1.00  0.00     0.001 A 
ATOM     53  C   UNL A   1      50.985  27.900  25.756  1.00  0.00     0.001 A 
ATOM     54  C   UNL A   1      51.612  26.894  25.025  1.00  0.00     0.000 A 
ENDBRANCH  30  49
BRANCH  42  55
ATOM     55  C   UNL A   1      53.029  26.124  34.126  1.00  0.00    -0.014 A 
ATOM     56  C   UNL A   1      53.922  25.048  34.241  1.00  0.00     0.009 A 
ATOM     57  C   UNL A   1      53.462  27.418  34.453  1.00  0.00     0.009 A 
ATOM     58  C   UNL A   1      55.226  25.268  34.687  1.00  0.00     0.001 A 
ATOM     59  C   UNL A   1      54.772  27.636  34.876  1.00  0.00     0.001 A 
ATOM     60  C   UNL A   1      55.652  26.561  34.995  1.00  0.00     0.000 A 
ENDBRANCH  42  55
ENDBRANCH  16  17
ENDBRANCH   9  11
ENDBRANCH   8   9
ENDBRANCH   7   8
ENDBRANCH   6   7
ENDBRANCH   5   6
ENDBRANCH   4   5
ENDBRANCH   3   4
ENDBRANCH   2   3
ENDBRANCH   1   2
BRANCH   1  61
ATOM     61  C   UNL A   1      46.097  32.120  27.758  1.00  0.00     0.188 C 
BRANCH  61  62
ATOM     62  O   UNL A   1      45.137  32.493  28.739  1.00  0.00    -0.376 OA
BRANCH  62  63
ATOM     63  C   UNL A   1      45.047  31.620  29.860  1.00  0.00     0.202 C 
BRANCH  63  64
ATOM     64  C   UNL A   1      43.848  30.655  29.820  1.00  0.00     0.261 C 
BRANCH  64  65
ATOM     65  O   UNL A   1      42.907  30.741  30.914  1.00  0.00    -0.463 OA
BRANCH  65  66
ATOM     66  C   UNL A   1      41.611  30.956  30.610  1.00  0.00     0.310 C 
ATOM     67  O   UNL A   1      41.151  32.078  30.423  1.00  0.00    -0.252 OA
BRANCH  66  68
ATOM     68  C   UNL A   1      40.783  29.678  30.470  1.00  0.00     0.116 C 
ATOM     69  C   UNL A   1      39.961  29.564  29.163  1.00  0.00     0.043 C 
ATOM     70  C   UNL A   1      39.897  29.417  31.710  1.00  0.00     0.097 C 
ATOM     71  C   UNL A   1      38.948  28.452  29.189  1.00  0.00    -0.030 C 
ATOM     72  C   UNL A   1      39.214  28.041  31.644  1.00  0.00     0.041 C 
ATOM     73  C   UNL A   1      38.625  27.760  30.292  1.00  0.00    -0.030 C 
BRANCH  70  74
ATOM     74  C   UNL A   1      40.445  29.725  33.116  1.00  0.00     0.228 C 
ATOM     75  O   UNL A   1      41.478  29.148  33.484  1.00  0.00    -0.274 OA
ATOM     76  N   UNL A   1      39.947  30.687  33.950  1.00  0.00    -0.326 N 
ATOM     77  H   UNL A   1      40.338  30.731  34.853  1.00  0.00     0.169 HD
BRANCH  76  78
ATOM     78  C   UNL A   1      38.948  31.612  33.660  1.00  0.00     0.042 A 
ATOM     79  C   UNL A   1      37.620  31.373  33.976  1.00  0.00     0.027 A 
ATOM     80  C   UNL A   1      39.295  32.750  32.949  1.00  0.00     0.047 A 
ATOM     81  C   UNL A   1      36.618  32.080  33.328  1.00  0.00     0.017 A 
ATOM     82  C   UNL A   1      38.294  33.500  32.323  1.00  0.00     0.055 A 
ATOM     83  C   UNL A   1      36.951  33.105  32.438  1.00  0.00     0.058 A 
ATOM     84  Cl  UNL A   1      38.870  34.801  31.355  1.00  0.00    -0.083 Cl
BRANCH  83  85
ATOM     85  C   UNL A   1      35.819  33.603  31.622  1.00  0.00     0.255 C 
ATOM     86  O   UNL A   1      35.076  34.475  32.062  1.00  0.00    -0.269 OA
ATOM     87  N   UNL A   1      35.752  33.144  30.332  1.00  0.00    -0.334 N 
ATOM     88  C   UNL A   1      34.642  32.277  29.953  1.00  0.00     0.148 C 
ATOM     89  C   UNL A   1      36.117  34.074  29.273  1.00  0.00     0.148 C 
ATOM     90  C   UNL A   1      35.018  31.518  28.679  1.00  0.00     0.181 C 
ATOM     91  C   UNL A   1      36.457  33.288  28.009  1.00  0.00     0.181 C 
ATOM     92  O   UNL A   1      35.365  32.433  27.621  1.00  0.00    -0.378 OA
ENDBRANCH  83  85
ENDBRANCH  76  78
ENDBRANCH  70  74
ENDBRANCH  66  68
ENDBRANCH  65  66
ENDBRANCH  64  65
ENDBRANCH  63  64
ENDBRANCH  62  63
ENDBRANCH  61  62
ENDBRANCH   1  61
TORSDOF 23
ENDMDL
MODEL 2
REMARK VINA RESULT:      -7.0      5.531     12.102
REMARK SMILES O=C(OCCOCCOCCOCCOC(=O)[C@@H]1CC=CC[C@H]1C(=O)Nc1ccc(C(=O)N2CCOCC2)c(Cl)c1)c1ccc(-c2c3nc(c(-c4ccccc4)c4ccc([nH]4)c(-c4ccccc4)c4nc(c(-c5ccccc5)c5ccc2[nH]5)C=C4)C=C3)cc1
REMARK SMILES IDX 10 1 9 2 8 3 7 4 6 5 5 6 4 7 3 8 2 9 1 10 42 11 43 12 89 13
REMARK SMILES IDX 44 14 88 15 45 16 46 17 47 18 82 19 48 20 87 21 81 22 83 23
REMARK SMILES IDX 49 24 86 25 80 26 79 27 50 29 72 30 57 31 71 32 58 33 61 34
REMARK SMILES IDX 70 35 84 36 59 37 60 38 69 40 85 41 62 42 51 43 52 44 56 45
REMARK SMILES IDX 53 46 55 47 54 48 73 49 74 50 78 51 75 52 77 53 76 54 63 55
REMARK SMILES IDX 64 56 68 57 65 58 67 59 66 60 11 61 12 62 13 63 14 64 15 65
REMARK SMILES IDX 16 66 17 67 18 68 19 69 23 70 20 71 22 72 21 73 24 74 25 75
REMARK SMILES IDX 26 76 27 78 28 79 41 80 29 81 39 82 30 83 40 84 31 85 32 86
REMARK SMILES IDX 33 87 34 88 38 89 35 90 37 91 36 92
REMARK H PARENT 83 28 61 39 26 77
REMARK Flexibility Score: inf
ROOT
ATOM      1  C   UNL A   1      43.686  39.595  33.187  1.00  0.00     0.188 C 
ENDROOT
BRANCH   1   2
ATOM      2  O   UNL A   1      42.926  38.890  34.159  1.00  0.00    -0.377 OA
BRANCH   2   3
ATOM      3  C   UNL A   1      43.643  37.922  34.915  1.00  0.00     0.188 C 
BRANCH   3   4
ATOM      4  C   UNL A   1      44.199  38.481  36.218  1.00  0.00     0.188 C 
BRANCH   4   5
ATOM      5  O   UNL A   1      43.555  37.845  37.329  1.00  0.00    -0.376 OA
BRANCH   5   6
ATOM      6  C   UNL A   1      43.514  38.612  38.531  1.00  0.00     0.202 C 
BRANCH   6   7
ATOM      7  C   UNL A   1      42.389  38.196  39.473  1.00  0.00     0.261 C 
BRANCH   7   8
ATOM      8  O   UNL A   1      41.730  37.001  39.043  1.00  0.00    -0.460 OA
BRANCH   8   9
ATOM      9  C   UNL A   1      40.437  36.828  38.677  1.00  0.00     0.338 C 
ATOM     10  O   UNL A   1      39.581  37.379  39.372  1.00  0.00    -0.246 OA
BRANCH   9  11
ATOM     11  C   UNL A   1      39.952  36.013  37.503  1.00  0.00     0.060 A 
ATOM     12  C   UNL A   1      39.001  34.984  37.521  1.00  0.00     0.016 A 
ATOM     13  C   UNL A   1      40.530  36.333  36.257  1.00  0.00     0.016 A 
ATOM     14  C   UNL A   1      38.675  34.262  36.376  1.00  0.00     0.010 A 
ATOM     15  C   UNL A   1      40.238  35.596  35.108  1.00  0.00     0.010 A 
ATOM     16  C   UNL A   1      39.348  34.524  35.188  1.00  0.00    -0.014 A 
BRANCH  16  17
ATOM     17  C   UNL A   1      39.356  33.476  34.156  1.00  0.00     0.031 A 
ATOM     18  C   UNL A   1      40.427  32.432  34.267  1.00  0.00     0.074 A 
ATOM     19  C   UNL A   1      38.408  33.425  33.210  1.00  0.00     0.049 A 
ATOM     20  N   UNL A   1      40.725  31.455  33.454  1.00  0.00    -0.248 NA
ATOM     21  C   UNL A   1      41.272  32.492  35.474  1.00  0.00     0.031 C 
ATOM     22  C   UNL A   1      37.259  34.323  33.112  1.00  0.00     0.029 A 
ATOM     23  N   UNL A   1      38.270  32.573  32.149  1.00  0.00    -0.354 N 
ATOM     24  C   UNL A   1      41.804  30.806  34.040  1.00  0.00     0.074 A 
ATOM     25  C   UNL A   1      42.104  31.485  35.277  1.00  0.00     0.031 C 
ATOM     26  C   UNL A   1      36.542  33.989  32.026  1.00  0.00     0.029 A 
ATOM     27  C   UNL A   1      37.214  32.892  31.333  1.00  0.00     0.049 A 
ATOM     28  H   UNL A   1      38.868  31.808  31.985  1.00  0.00     0.167 HD
ATOM     29  C   UNL A   1      42.502  29.750  33.566  1.00  0.00     0.031 A 
ATOM     30  C   UNL A   1      36.873  32.378  30.137  1.00  0.00     0.031 A 
ATOM     31  C   UNL A   1      42.220  29.136  32.302  1.00  0.00     0.049 A 
ATOM     32  C   UNL A   1      37.726  31.275  29.568  1.00  0.00     0.074 A 
ATOM     33  C   UNL A   1      42.892  28.113  31.663  1.00  0.00     0.029 A 
ATOM     34  N   UNL A   1      41.169  29.514  31.477  1.00  0.00    -0.354 N 
ATOM     35  N   UNL A   1      38.777  30.690  30.097  1.00  0.00    -0.248 NA
ATOM     36  C   UNL A   1      37.360  30.768  28.240  1.00  0.00     0.031 C 
ATOM     37  C   UNL A   1      42.274  27.908  30.424  1.00  0.00     0.029 A 
ATOM     38  C   UNL A   1      41.185  28.763  30.320  1.00  0.00     0.049 A 
ATOM     39  H   UNL A   1      40.510  30.214  31.687  1.00  0.00     0.167 HD
ATOM     40  C   UNL A   1      39.192  29.740  29.175  1.00  0.00     0.074 A 
ATOM     41  C   UNL A   1      38.270  29.818  28.058  1.00  0.00     0.031 C 
ATOM     42  C   UNL A   1      40.238  28.878  29.239  1.00  0.00     0.031 A 
BRANCH  29  43
ATOM     43  C   UNL A   1      43.686  29.312  34.379  1.00  0.00    -0.014 A 
ATOM     44  C   UNL A   1      43.747  28.036  34.964  1.00  0.00     0.009 A 
ATOM     45  C   UNL A   1      44.712  30.231  34.646  1.00  0.00     0.009 A 
ATOM     46  C   UNL A   1      44.786  27.710  35.840  1.00  0.00     0.001 A 
ATOM     47  C   UNL A   1      45.762  29.893  35.502  1.00  0.00     0.001 A 
ATOM     48  C   UNL A   1      45.789  28.640  36.111  1.00  0.00     0.000 A 
ENDBRANCH  29  43
BRANCH  30  49
ATOM     49  C   UNL A   1      35.724  32.953  29.388  1.00  0.00    -0.014 A 
ATOM     50  C   UNL A   1      35.788  34.243  28.842  1.00  0.00     0.009 A 
ATOM     51  C   UNL A   1      34.564  32.189  29.180  1.00  0.00     0.009 A 
ATOM     52  C   UNL A   1      34.712  34.754  28.108  1.00  0.00     0.001 A 
ATOM     53  C   UNL A   1      33.501  32.691  28.426  1.00  0.00     0.001 A 
ATOM     54  C   UNL A   1      33.575  33.976  27.894  1.00  0.00     0.000 A 
ENDBRANCH  30  49
BRANCH  42  55
ATOM     55  C   UNL A   1      40.421  27.936  28.087  1.00  0.00    -0.014 A 
ATOM     56  C   UNL A   1      41.254  28.267  27.008  1.00  0.00     0.009 A 
ATOM     57  C   UNL A   1      39.837  26.661  28.142  1.00  0.00     0.009 A 
ATOM     58  C   UNL A   1      41.488  27.336  25.995  1.00  0.00     0.001 A 
ATOM     59  C   UNL A   1      40.092  25.727  27.140  1.00  0.00     0.001 A 
ATOM     60  C   UNL A   1      40.914  26.066  26.067  1.00  0.00     0.000 A 
ENDBRANCH  42  55
ENDBRANCH  16  17
ENDBRANCH   9  11
ENDBRANCH   8   9
ENDBRANCH   7   8
ENDBRANCH   6   7
ENDBRANCH   5   6
ENDBRANCH   4   5
ENDBRANCH   3   4
ENDBRANCH   2   3
ENDBRANCH   1   2
BRANCH   1  61
ATOM     61  C   UNL A   1      43.317  41.054  32.889  1.00  0.00     0.188 C 
BRANCH  61  62
ATOM     62  O   UNL A   1      42.599  41.231  31.672  1.00  0.00    -0.376 OA
BRANCH  62  63
ATOM     63  C   UNL A   1      43.338  41.835  30.616  1.00  0.00     0.202 C 
BRANCH  63  64
ATOM     64  C   UNL A   1      43.496  40.952  29.365  1.00  0.00     0.261 C 
BRANCH  64  65
ATOM     65  O   UNL A   1      44.686  40.135  29.291  1.00  0.00    -0.463 OA
BRANCH  65  66
ATOM     66  C   UNL A   1      44.637  39.027  28.523  1.00  0.00     0.310 C 
ATOM     67  O   UNL A   1      44.075  38.998  27.434  1.00  0.00    -0.252 OA
BRANCH  66  68
ATOM     68  C   UNL A   1      45.387  37.830  29.109  1.00  0.00     0.116 C 
ATOM     69  C   UNL A   1      46.064  38.080  30.478  1.00  0.00     0.043 C 
ATOM     70  C   UNL A   1      46.383  37.212  28.099  1.00  0.00     0.097 C 
ATOM     71  C   UNL A   1      47.022  36.992  30.879  1.00  0.00    -0.030 C 
ATOM     72  C   UNL A   1      46.991  35.902  28.625  1.00  0.00     0.041 C 
ATOM     73  C   UNL A   1      47.425  36.009  30.059  1.00  0.00    -0.030 C 
BRANCH  70  74
ATOM     74  C   UNL A   1      45.996  37.115  26.611  1.00  0.00     0.228 C 
ATOM     75  O   UNL A   1      46.709  37.692  25.779  1.00  0.00    -0.274 OA
ATOM     76  N   UNL A   1      44.990  36.329  26.121  1.00  0.00    -0.326 N 
ATOM     77  H   UNL A   1      44.794  36.415  25.159  1.00  0.00     0.169 HD
BRANCH  76  78
ATOM     78  C   UNL A   1      44.214  35.419  26.833  1.00  0.00     0.042 A 
ATOM     79  C   UNL A   1      43.098  35.819  27.550  1.00  0.00     0.027 A 
ATOM     80  C   UNL A   1      44.641  34.102  26.897  1.00  0.00     0.047 A 
ATOM     81  C   UNL A   1      42.599  35.009  28.559  1.00  0.00     0.017 A 
ATOM     82  C   UNL A   1      44.119  33.258  27.883  1.00  0.00     0.055 A 
ATOM     83  C   UNL A   1      43.156  33.747  28.781  1.00  0.00     0.058 A 
ATOM     84  Cl  UNL A   1      44.837  31.695  27.944  1.00  0.00    -0.083 Cl
BRANCH  83  85
ATOM     85  C   UNL A   1      42.719  33.094  30.037  1.00  0.00     0.255 C 
ATOM     86  O   UNL A   1      41.838  32.240  30.016  1.00  0.00    -0.269 OA
ATOM     87  N   UNL A   1      43.445  33.393  31.161  1.00  0.00    -0.334 N 
ATOM     88  C   UNL A   1      42.801  34.145  32.231  1.00  0.00     0.148 C 
ATOM     89  C   UNL A   1      44.344  32.366  31.668  1.00  0.00     0.148 C 
ATOM     90  C   UNL A   1      43.880  34.768  33.119  1.00  0.00     0.181 C 
ATOM     91  C   UNL A   1      45.390  33.015  32.571  1.00  0.00     0.181 C 
ATOM     92  O   UNL A   1      44.766  33.756  33.637  1.00  0.00    -0.378 OA
ENDBRANCH  83  85
ENDBRANCH  76  78
ENDBRANCH  70  74
ENDBRANCH  66  68
ENDBRANCH  65  66
ENDBRANCH  64  65
ENDBRANCH  63  64
ENDBRANCH  62  63
ENDBRANCH  61  62
ENDBRANCH   1  61
TORSDOF 23
ENDMDL
MODEL 3
REMARK VINA RESULT:      -6.9      3.715     11.616
REMARK SMILES O=C(OCCOCCOCCOCCOC(=O)[C@@H]1CC=CC[C@H]1C(=O)Nc1ccc(C(=O)N2CCOCC2)c(Cl)c1)c1ccc(-c2c3nc(c(-c4ccccc4)c4ccc([nH]4)c(-c4ccccc4)c4nc(c(-c5ccccc5)c5ccc2[nH]5)C=C4)C=C3)cc1
REMARK SMILES IDX 10 1 9 2 8 3 7 4 6 5 5 6 4 7 3 8 2 9 1 10 42 11 43 12 89 13
REMARK SMILES IDX 44 14 88 15 45 16 46 17 47 18 82 19 48 20 87 21 81 22 83 23
REMARK SMILES IDX 49 24 86 25 80 26 79 27 50 29 72 30 57 31 71 32 58 33 61 34
REMARK SMILES IDX 70 35 84 36 59 37 60 38 69 40 85 41 62 42 51 43 52 44 56 45
REMARK SMILES IDX 53 46 55 47 54 48 73 49 74 50 78 51 75 52 77 53 76 54 63 55
REMARK SMILES IDX 64 56 68 57 65 58 67 59 66 60 11 61 12 62 13 63 14 64 15 65
REMARK SMILES IDX 16 66 17 67 18 68 19 69 23 70 20 71 22 72 21 73 24 74 25 75
REMARK SMILES IDX 26 76 27 78 28 79 41 80 29 81 39 82 30 83 40 84 31 85 32 86
REMARK SMILES IDX 33 87 34 88 38 89 35 90 37 91 36 92
REMARK H PARENT 83 28 61 39 26 77
REMARK Flexibility Score: inf
ROOT
ATOM      1  C   UNL A   1      49.905  26.995  31.378  1.00  0.00     0.188 C 
ENDROOT
BRANCH   1   2
ATOM      2  O   UNL A   1      50.221  27.169  32.752  1.00  0.00    -0.377 OA
BRANCH   2   3
ATOM      3  C   UNL A   1      51.213  26.293  33.270  1.00  0.00     0.188 C 
BRANCH   3   4
ATOM      4  C   UNL A   1      51.035  26.009  34.756  1.00  0.00     0.188 C 
BRANCH   4   5
ATOM      5  O   UNL A   1      49.692  25.575  35.006  1.00  0.00    -0.376 OA
BRANCH   5   6
ATOM      6  C   UNL A   1      49.543  24.633  36.066  1.00  0.00     0.202 C 
BRANCH   6   7
ATOM      7  C   UNL A   1      48.298  24.873  36.914  1.00  0.00     0.261 C 
BRANCH   7   8
ATOM      8  O   UNL A   1      47.372  25.764  36.286  1.00  0.00    -0.460 OA
BRANCH   8   9
ATOM      9  C   UNL A   1      46.190  25.480  35.689  1.00  0.00     0.338 C 
ATOM     10  O   UNL A   1      45.977  24.300  35.403  1.00  0.00    -0.246 OA
BRANCH   9  11
ATOM     11  C   UNL A   1      45.116  26.479  35.334  1.00  0.00     0.060 A 
ATOM     12  C   UNL A   1      43.741  26.371  35.586  1.00  0.00     0.016 A 
ATOM     13  C   UNL A   1      45.558  27.644  34.674  1.00  0.00     0.016 A 
ATOM     14  C   UNL A   1      42.835  27.337  35.157  1.00  0.00     0.010 A 
ATOM     15  C   UNL A   1      44.659  28.605  34.208  1.00  0.00     0.010 A 
ATOM     16  C   UNL A   1      43.290  28.416  34.407  1.00  0.00    -0.014 A 
BRANCH  16  17
ATOM     17  C   UNL A   1      42.315  29.135  33.573  1.00  0.00     0.031 A 
ATOM     18  C   UNL A   1      41.674  30.346  34.181  1.00  0.00     0.074 A 
ATOM     19  C   UNL A   1      42.073  28.762  32.309  1.00  0.00     0.049 A 
ATOM     20  N   UNL A   1      40.723  31.109  33.714  1.00  0.00    -0.248 NA
ATOM     21  C   UNL A   1      42.188  30.763  35.499  1.00  0.00     0.031 C 
ATOM     22  C   UNL A   1      42.752  27.678  31.601  1.00  0.00     0.029 A 
ATOM     23  N   UNL A   1      41.182  29.261  31.400  1.00  0.00    -0.354 N 
ATOM     24  C   UNL A   1      40.511  32.074  34.690  1.00  0.00     0.074 A 
ATOM     25  C   UNL A   1      41.434  31.813  35.768  1.00  0.00     0.031 C 
ATOM     26  C   UNL A   1      42.231  27.576  30.366  1.00  0.00     0.029 A 
ATOM     27  C   UNL A   1      41.152  28.552  30.226  1.00  0.00     0.049 A 
ATOM     28  H   UNL A   1      40.617  30.049  31.570  1.00  0.00     0.167 HD
ATOM     29  C   UNL A   1      39.602  33.073  34.695  1.00  0.00     0.031 A 
ATOM     30  C   UNL A   1      40.307  28.659  29.183  1.00  0.00     0.031 A 
ATOM     31  C   UNL A   1      38.656  33.268  33.636  1.00  0.00     0.049 A 
ATOM     32  C   UNL A   1      39.227  29.706  29.251  1.00  0.00     0.074 A 
ATOM     33  C   UNL A   1      37.630  34.187  33.546  1.00  0.00     0.029 A 
ATOM     34  N   UNL A   1      38.623  32.501  32.479  1.00  0.00    -0.354 N 
ATOM     35  N   UNL A   1      38.992  30.590  30.195  1.00  0.00    -0.248 NA
ATOM     36  C   UNL A   1      38.288  29.767  28.123  1.00  0.00     0.031 C 
ATOM     37  C   UNL A   1      36.944  33.941  32.351  1.00  0.00     0.029 A 
ATOM     38  C   UNL A   1      37.578  32.907  31.674  1.00  0.00     0.049 A 
ATOM     39  H   UNL A   1      39.252  31.775  32.265  1.00  0.00     0.167 HD
ATOM     40  C   UNL A   1      37.890  31.319  29.772  1.00  0.00     0.074 A 
ATOM     41  C   UNL A   1      37.509  30.781  28.480  1.00  0.00     0.031 C 
ATOM     42  C   UNL A   1      37.246  32.340  30.392  1.00  0.00     0.031 A 
BRANCH  29  43
ATOM     43  C   UNL A   1      39.543  33.917  35.935  1.00  0.00    -0.014 A 
ATOM     44  C   UNL A   1      38.740  33.562  37.032  1.00  0.00     0.009 A 
ATOM     45  C   UNL A   1      40.229  35.141  35.965  1.00  0.00     0.009 A 
ATOM     46  C   UNL A   1      38.584  34.441  38.108  1.00  0.00     0.001 A 
ATOM     47  C   UNL A   1      40.091  36.005  37.053  1.00  0.00     0.001 A 
ATOM     48  C   UNL A   1      39.257  35.662  38.115  1.00  0.00     0.000 A 
ENDBRANCH  29  43
BRANCH  30  49
ATOM     49  C   UNL A   1      40.415  27.708  28.046  1.00  0.00    -0.014 A 
ATOM     50  C   UNL A   1      41.160  28.028  26.901  1.00  0.00     0.009 A 
ATOM     51  C   UNL A   1      39.801  26.447  28.121  1.00  0.00     0.009 A 
ATOM     52  C   UNL A   1      41.282  27.106  25.857  1.00  0.00     0.001 A 
ATOM     53  C   UNL A   1      39.946  25.518  27.088  1.00  0.00     0.001 A 
ATOM     54  C   UNL A   1      40.683  25.851  25.954  1.00  0.00     0.000 A 
ENDBRANCH  30  49
BRANCH  42  55
ATOM     55  C   UNL A   1      36.087  32.958  29.668  1.00  0.00    -0.014 A 
ATOM     56  C   UNL A   1      36.236  34.159  28.959  1.00  0.00     0.009 A 
ATOM     57  C   UNL A   1      34.866  32.269  29.609  1.00  0.00     0.009 A 
ATOM     58  C   UNL A   1      35.171  34.665  28.212  1.00  0.00     0.001 A 
ATOM     59  C   UNL A   1      33.814  32.765  28.843  1.00  0.00     0.001 A 
ATOM     60  C   UNL A   1      33.966  33.964  28.147  1.00  0.00     0.000 A 
ENDBRANCH  42  55
ENDBRANCH  16  17
ENDBRANCH   9  11
ENDBRANCH   8   9
ENDBRANCH   7   8
ENDBRANCH   6   7
ENDBRANCH   5   6
ENDBRANCH   4   5
ENDBRANCH   3   4
ENDBRANCH   2   3
ENDBRANCH   1   2
BRANCH   1  61
ATOM     61  C   UNL A   1      49.894  28.230  30.468  1.00  0.00     0.188 C 
BRANCH  61  62
ATOM     62  O   UNL A   1      50.714  29.297  30.933  1.00  0.00    -0.376 OA
BRANCH  62  63
ATOM     63  C   UNL A   1      50.210  30.603  30.679  1.00  0.00     0.202 C 
BRANCH  63  64
ATOM     64  C   UNL A   1      48.675  30.711  30.722  1.00  0.00     0.261 C 
BRANCH  64  65
ATOM     65  O   UNL A   1      48.014  31.083  29.492  1.00  0.00    -0.463 OA
BRANCH  65  66
ATOM     66  C   UNL A   1      47.498  32.327  29.410  1.00  0.00     0.310 C 
ATOM     67  O   UNL A   1      48.190  33.320  29.210  1.00  0.00    -0.252 OA
BRANCH  66  68
ATOM     68  C   UNL A   1      45.975  32.380  29.537  1.00  0.00     0.116 C 
ATOM     69  C   UNL A   1      45.404  31.824  30.864  1.00  0.00     0.043 C 
ATOM     70  C   UNL A   1      45.264  31.752  28.316  1.00  0.00     0.097 C 
ATOM     71  C   UNL A   1      43.913  31.625  30.835  1.00  0.00    -0.030 C 
ATOM     72  C   UNL A   1      43.744  31.978  28.362  1.00  0.00     0.041 C 
ATOM     73  C   UNL A   1      43.168  31.709  29.723  1.00  0.00    -0.030 C 
BRANCH  70  74
ATOM     74  C   UNL A   1      45.839  31.969  26.904  1.00  0.00     0.228 C 
ATOM     75  O   UNL A   1      46.224  33.105  26.594  1.00  0.00    -0.274 OA
ATOM     76  N   UNL A   1      46.077  30.971  26.001  1.00  0.00    -0.326 N 
ATOM     77  H   UNL A   1      46.375  31.251  25.104  1.00  0.00     0.169 HD
BRANCH  76  78
ATOM     78  C   UNL A   1      45.947  29.601  26.212  1.00  0.00     0.042 A 
ATOM     79  C   UNL A   1      44.730  29.029  26.547  1.00  0.00     0.027 A 
ATOM     80  C   UNL A   1      47.091  28.821  26.178  1.00  0.00     0.047 A 
ATOM     81  C   UNL A   1      44.697  27.779  27.147  1.00  0.00     0.017 A 
ATOM     82  C   UNL A   1      47.066  27.541  26.742  1.00  0.00     0.055 A 
ATOM     83  C   UNL A   1      45.880  27.054  27.315  1.00  0.00     0.058 A 
ATOM     84  Cl  UNL A   1      48.587  26.736  26.765  1.00  0.00    -0.083 Cl
BRANCH  83  85
ATOM     85  C   UNL A   1      45.754  25.866  28.192  1.00  0.00     0.255 C 
ATOM     86  O   UNL A   1      46.019  25.950  29.387  1.00  0.00    -0.269 OA
ATOM     87  N   UNL A   1      45.199  24.749  27.625  1.00  0.00    -0.334 N 
ATOM     88  C   UNL A   1      46.035  23.568  27.439  1.00  0.00     0.148 C 
ATOM     89  C   UNL A   1      43.838  24.409  28.012  1.00  0.00     0.148 C 
ATOM     90  C   UNL A   1      45.389  22.663  26.389  1.00  0.00     0.181 C 
ATOM     91  C   UNL A   1      43.232  23.483  26.960  1.00  0.00     0.181 C 
ATOM     92  O   UNL A   1      44.046  22.309  26.773  1.00  0.00    -0.378 OA
ENDBRANCH  83  85
ENDBRANCH  76  78
ENDBRANCH  70  74
ENDBRANCH  66  68
ENDBRANCH  65  66
ENDBRANCH  64  65
ENDBRANCH  63  64
ENDBRANCH  62  63
ENDBRANCH  61  62
ENDBRANCH   1  61
TORSDOF 23
ENDMDL
