MODEL 1
REMARK VINA RESULT:      -9.4      0.000      0.000
REMARK SMILES O=C(C[C@H]1S/C(=[NH+]/N=C/c2cccc(Cl)c2)NC1=O)OCCOCCOCCOCCOC(=O)c1ccc(-c2c3nc(c(-c4ccccc4)c4ccc([nH]4)c(-c4ccccc4)c4nc(c(-c5ccccc5)c5ccc2[nH]5)C=C4)C=C3)cc1
REMARK SMILES IDX 25 1 24 2 23 3 22 4 21 5 20 6 2 7 1 8 3 9 4 10 5 11 18 12
REMARK SMILES IDX 6 13 17 14 19 15 7 16 8 19 9 20 10 21 11 22 16 23 12 24
REMARK SMILES IDX 14 25 13 26 15 27 26 28 27 29 28 30 29 31 30 32 31 33 32 34
REMARK SMILES IDX 33 35 34 36 35 37 36 38 82 39 37 40 81 41 38 42 39 43 40 44
REMARK SMILES IDX 75 45 41 46 80 47 74 48 76 49 42 50 79 51 73 52 72 53 43 55
REMARK SMILES IDX 65 56 50 57 64 58 51 59 54 60 63 61 77 62 52 63 53 64 62 66
REMARK SMILES IDX 78 67 55 68 44 69 45 70 49 71 46 72 48 73 47 74 66 75 67 76
REMARK SMILES IDX 71 77 68 78 70 79 69 80 56 81 57 82 61 83 58 84 60 85 59 86
REMARK H PARENT 17 17 7 18 76 54 54 65
REMARK Flexibility Score: inf
ROOT
ATOM      1  C   UNL A   1      37.146  22.825  25.285  1.00  0.00     0.188 C 
ENDROOT
BRANCH   1   2
ATOM      2  C   UNL A   1      35.821  22.549  26.002  1.00  0.00     0.188 C 
BRANCH   2   3
ATOM      3  O   UNL A   1      35.319  21.228  25.944  1.00  0.00    -0.376 OA
BRANCH   3   4
ATOM      4  C   UNL A   1      34.414  20.718  24.986  1.00  0.00     0.202 C 
BRANCH   4   5
ATOM      5  C   UNL A   1      33.023  20.219  25.351  1.00  0.00     0.261 C 
BRANCH   5   6
ATOM      6  O   UNL A   1      31.939  21.162  25.375  1.00  0.00    -0.463 OA
BRANCH   6   7
ATOM      7  C   UNL A   1      31.959  22.411  25.883  1.00  0.00     0.307 C 
ATOM      8  O   UNL A   1      32.039  22.577  27.097  1.00  0.00    -0.252 OA
BRANCH   7   9
ATOM      9  C   UNL A   1      31.696  23.575  24.976  1.00  0.00     0.150 C 
BRANCH   9  10
ATOM     10  C   UNL A   1      32.655  24.731  25.169  1.00  0.00     0.184 C 
ATOM     11  S   UNL A   1      33.335  25.328  23.575  1.00  0.00    -0.020 SA
ATOM     12  C   UNL A   1      31.835  25.894  25.692  1.00  0.00     0.322 C 
ATOM     13  C   UNL A   1      32.252  26.681  23.534  1.00  0.00     0.337 C 
ATOM     14  N   UNL A   1      31.625  26.827  24.724  1.00  0.00    -0.202 N 
ATOM     15  O   UNL A   1      31.338  25.950  26.809  1.00  0.00    -0.246 OA
ATOM     16  N   UNL A   1      32.092  27.468  22.523  1.00  0.00    -0.142 N 
ATOM     17  H   UNL A   1      31.027  27.592  24.887  1.00  0.00     0.316 HD
ATOM     18  H   UNL A   1      32.431  27.295  21.615  1.00  0.00     0.343 HD
BRANCH  16  19
ATOM     19  N   UNL A   1      31.370  28.598  22.905  1.00  0.00    -0.093 NA
ATOM     20  C   UNL A   1      30.214  28.694  22.335  1.00  0.00     0.166 C 
BRANCH  20  21
ATOM     21  C   UNL A   1      29.500  29.982  22.412  1.00  0.00    -0.002 A 
ATOM     22  C   UNL A   1      29.402  30.604  23.667  1.00  0.00     0.010 A 
ATOM     23  C   UNL A   1      28.996  30.603  21.272  1.00  0.00     0.030 A 
ATOM     24  C   UNL A   1      28.799  31.851  23.788  1.00  0.00     0.002 A 
ATOM     25  C   UNL A   1      28.376  31.846  21.408  1.00  0.00     0.041 A 
ATOM     26  C   UNL A   1      28.279  32.472  22.655  1.00  0.00     0.020 A 
ATOM     27  Cl  UNL A   1      27.719  32.629  20.023  1.00  0.00    -0.084 Cl
ENDBRANCH  20  21
ENDBRANCH  16  19
ENDBRANCH   9  10
ENDBRANCH   7   9
ENDBRANCH   6   7
ENDBRANCH   5   6
ENDBRANCH   4   5
ENDBRANCH   3   4
ENDBRANCH   2   3
ENDBRANCH   1   2
BRANCH   1  28
ATOM     28  O   UNL A   1      38.071  21.746  25.240  1.00  0.00    -0.377 OA
BRANCH  28  29
ATOM     29  C   UNL A   1      39.167  21.867  26.131  1.00  0.00     0.188 C 
BRANCH  29  30
ATOM     30  C   UNL A   1      39.999  20.576  26.316  1.00  0.00     0.188 C 
BRANCH  30  31
ATOM     31  O   UNL A   1      41.415  20.593  26.304  1.00  0.00    -0.376 OA
BRANCH  31  32
ATOM     32  C   UNL A   1      42.160  19.422  26.589  1.00  0.00     0.202 C 
BRANCH  32  33
ATOM     33  C   UNL A   1      43.204  18.839  25.614  1.00  0.00     0.261 C 
BRANCH  33  34
ATOM     34  O   UNL A   1      44.484  19.481  25.559  1.00  0.00    -0.460 OA
BRANCH  34  35
ATOM     35  C   UNL A   1      44.759  20.157  24.421  1.00  0.00     0.338 C 
ATOM     36  O   UNL A   1      44.501  19.816  23.276  1.00  0.00    -0.246 OA
BRANCH  35  37
ATOM     37  C   UNL A   1      45.231  21.512  24.778  1.00  0.00     0.060 A 
ATOM     38  C   UNL A   1      45.528  21.774  26.125  1.00  0.00     0.016 A 
ATOM     39  C   UNL A   1      45.412  22.504  23.812  1.00  0.00     0.016 A 
ATOM     40  C   UNL A   1      45.981  23.030  26.514  1.00  0.00     0.010 A 
ATOM     41  C   UNL A   1      45.826  23.781  24.209  1.00  0.00     0.010 A 
ATOM     42  C   UNL A   1      46.078  24.055  25.566  1.00  0.00    -0.014 A 
BRANCH  42  43
ATOM     43  C   UNL A   1      46.215  25.450  26.048  1.00  0.00     0.031 A 
ATOM     44  C   UNL A   1      44.987  26.133  26.589  1.00  0.00     0.074 A 
ATOM     45  C   UNL A   1      47.408  26.068  26.084  1.00  0.00     0.049 A 
ATOM     46  N   UNL A   1      44.858  27.337  27.084  1.00  0.00    -0.248 NA
ATOM     47  C   UNL A   1      43.740  25.349  26.575  1.00  0.00     0.031 C 
ATOM     48  C   UNL A   1      48.679  25.491  25.647  1.00  0.00     0.029 A 
ATOM     49  N   UNL A   1      47.740  27.326  26.519  1.00  0.00    -0.354 N 
ATOM     50  C   UNL A   1      43.519  27.451  27.442  1.00  0.00     0.074 A 
ATOM     51  C   UNL A   1      42.870  26.212  27.075  1.00  0.00     0.031 C 
ATOM     52  C   UNL A   1      49.654  26.400  25.830  1.00  0.00     0.029 A 
ATOM     53  C   UNL A   1      49.072  27.628  26.367  1.00  0.00     0.049 A 
ATOM     54  H   UNL A   1      47.086  27.954  26.903  1.00  0.00     0.167 HD
ATOM     55  C   UNL A   1      42.888  28.492  28.033  1.00  0.00     0.031 A 
ATOM     56  C   UNL A   1      49.736  28.774  26.614  1.00  0.00     0.031 A 
ATOM     57  C   UNL A   1      43.526  29.732  28.381  1.00  0.00     0.049 A 
ATOM     58  C   UNL A   1      48.985  29.953  27.181  1.00  0.00     0.074 A 
ATOM     59  C   UNL A   1      42.970  30.850  28.976  1.00  0.00     0.029 A 
ATOM     60  N   UNL A   1      44.863  30.019  28.158  1.00  0.00    -0.354 N 
ATOM     61  N   UNL A   1      47.724  30.043  27.531  1.00  0.00    -0.248 NA
ATOM     62  C   UNL A   1      49.757  31.185  27.398  1.00  0.00     0.031 C 
ATOM     63  C   UNL A   1      43.957  31.837  29.057  1.00  0.00     0.029 A 
ATOM     64  C   UNL A   1      45.144  31.308  28.578  1.00  0.00     0.049 A 
ATOM     65  H   UNL A   1      45.515  29.399  27.759  1.00  0.00     0.167 HD
ATOM     66  C   UNL A   1      47.561  31.329  28.036  1.00  0.00     0.074 A 
ATOM     67  C   UNL A   1      48.858  31.969  27.973  1.00  0.00     0.031 C 
ATOM     68  C   UNL A   1      46.440  31.930  28.506  1.00  0.00     0.031 A 
BRANCH  55  69
ATOM     69  C   UNL A   1      41.419  28.343  28.316  1.00  0.00    -0.014 A 
ATOM     70  C   UNL A   1      40.961  27.701  29.478  1.00  0.00     0.009 A 
ATOM     71  C   UNL A   1      40.481  28.895  27.431  1.00  0.00     0.009 A 
ATOM     72  C   UNL A   1      39.593  27.599  29.736  1.00  0.00     0.001 A 
ATOM     73  C   UNL A   1      39.114  28.817  27.706  1.00  0.00     0.001 A 
ATOM     74  C   UNL A   1      38.671  28.164  28.855  1.00  0.00     0.000 A 
ENDBRANCH  55  69
BRANCH  56  75
ATOM     75  C   UNL A   1      51.184  28.894  26.292  1.00  0.00    -0.014 A 
ATOM     76  C   UNL A   1      51.612  29.281  25.011  1.00  0.00     0.009 A 
ATOM     77  C   UNL A   1      52.152  28.558  27.253  1.00  0.00     0.009 A 
ATOM     78  C   UNL A   1      52.972  29.286  24.689  1.00  0.00     0.001 A 
ATOM     79  C   UNL A   1      53.512  28.599  26.938  1.00  0.00     0.001 A 
ATOM     80  C   UNL A   1      53.920  28.948  25.653  1.00  0.00     0.000 A 
ENDBRANCH  56  75
BRANCH  68  81
ATOM     81  C   UNL A   1      46.580  33.336  29.024  1.00  0.00    -0.014 A 
ATOM     82  C   UNL A   1      46.695  33.606  30.397  1.00  0.00     0.009 A 
ATOM     83  C   UNL A   1      46.613  34.409  28.118  1.00  0.00     0.009 A 
ATOM     84  C   UNL A   1      46.787  34.923  30.854  1.00  0.00     0.001 A 
ATOM     85  C   UNL A   1      46.742  35.722  28.576  1.00  0.00     0.001 A 
ATOM     86  C   UNL A   1      46.814  35.979  29.944  1.00  0.00     0.000 A 
ENDBRANCH  68  81
ENDBRANCH  42  43
ENDBRANCH  35  37
ENDBRANCH  34  35
ENDBRANCH  33  34
ENDBRANCH  32  33
ENDBRANCH  31  32
ENDBRANCH  30  31
ENDBRANCH  29  30
ENDBRANCH  28  29
ENDBRANCH   1  28
TORSDOF 23
ENDMDL
MODEL 2
REMARK VINA RESULT:      -8.9      3.939      5.613
REMARK SMILES O=C(C[C@H]1S/C(=[NH+]/N=C/c2cccc(Cl)c2)NC1=O)OCCOCCOCCOCCOC(=O)c1ccc(-c2c3nc(c(-c4ccccc4)c4ccc([nH]4)c(-c4ccccc4)c4nc(c(-c5ccccc5)c5ccc2[nH]5)C=C4)C=C3)cc1
REMARK SMILES IDX 25 1 24 2 23 3 22 4 21 5 20 6 2 7 1 8 3 9 4 10 5 11 18 12
REMARK SMILES IDX 6 13 17 14 19 15 7 16 8 19 9 20 10 21 11 22 16 23 12 24
REMARK SMILES IDX 14 25 13 26 15 27 26 28 27 29 28 30 29 31 30 32 31 33 32 34
REMARK SMILES IDX 33 35 34 36 35 37 36 38 82 39 37 40 81 41 38 42 39 43 40 44
REMARK SMILES IDX 75 45 41 46 80 47 74 48 76 49 42 50 79 51 73 52 72 53 43 55
REMARK SMILES IDX 65 56 50 57 64 58 51 59 54 60 63 61 77 62 52 63 53 64 62 66
REMARK SMILES IDX 78 67 55 68 44 69 45 70 49 71 46 72 48 73 47 74 66 75 67 76
REMARK SMILES IDX 71 77 68 78 70 79 69 80 56 81 57 82 61 83 58 84 60 85 59 86
REMARK H PARENT 17 17 7 18 76 54 54 65
REMARK Flexibility Score: inf
ROOT
ATOM      1  C   UNL A   1      36.287  23.591  24.563  1.00  0.00     0.188 C 
ENDROOT
BRANCH   1   2
ATOM      2  C   UNL A   1      35.501  23.273  23.288  1.00  0.00     0.188 C 
BRANCH   2   3
ATOM      3  O   UNL A   1      34.252  23.915  23.124  1.00  0.00    -0.376 OA
BRANCH   3   4
ATOM      4  C   UNL A   1      33.923  25.224  23.545  1.00  0.00     0.202 C 
BRANCH   4   5
ATOM      5  C   UNL A   1      33.230  26.231  22.637  1.00  0.00     0.261 C 
BRANCH   5   6
ATOM      6  O   UNL A   1      31.871  26.596  22.926  1.00  0.00    -0.463 OA
BRANCH   6   7
ATOM      7  C   UNL A   1      31.251  26.538  24.122  1.00  0.00     0.307 C 
ATOM      8  O   UNL A   1      30.472  25.619  24.364  1.00  0.00    -0.252 OA
BRANCH   7   9
ATOM      9  C   UNL A   1      31.375  27.693  25.069  1.00  0.00     0.150 C 
BRANCH   9  10
ATOM     10  C   UNL A   1      32.423  27.496  26.143  1.00  0.00     0.184 C 
ATOM     11  S   UNL A   1      33.984  28.372  25.744  1.00  0.00    -0.020 SA
ATOM     12  C   UNL A   1      31.907  28.188  27.389  1.00  0.00     0.322 C 
ATOM     13  C   UNL A   1      33.615  29.676  26.825  1.00  0.00     0.337 C 
ATOM     14  N   UNL A   1      32.559  29.362  27.610  1.00  0.00    -0.202 N 
ATOM     15  O   UNL A   1      30.959  27.801  28.059  1.00  0.00    -0.246 OA
ATOM     16  N   UNL A   1      34.280  30.781  26.902  1.00  0.00    -0.142 N 
ATOM     17  H   UNL A   1      32.266  29.971  28.326  1.00  0.00     0.316 HD
ATOM     18  H   UNL A   1      34.955  31.079  26.251  1.00  0.00     0.343 HD
BRANCH  16  19
ATOM     19  N   UNL A   1      33.901  31.489  28.043  1.00  0.00    -0.093 NA
ATOM     20  C   UNL A   1      34.454  32.653  28.140  1.00  0.00     0.166 C 
BRANCH  20  21
ATOM     21  C   UNL A   1      34.383  33.357  29.434  1.00  0.00    -0.002 A 
ATOM     22  C   UNL A   1      33.770  34.620  29.461  1.00  0.00     0.010 A 
ATOM     23  C   UNL A   1      34.842  32.767  30.607  1.00  0.00     0.030 A 
ATOM     24  C   UNL A   1      33.614  35.299  30.664  1.00  0.00     0.002 A 
ATOM     25  C   UNL A   1      34.698  33.466  31.807  1.00  0.00     0.041 A 
ATOM     26  C   UNL A   1      34.085  34.722  31.842  1.00  0.00     0.020 A 
ATOM     27  Cl  UNL A   1      35.280  32.775  33.273  1.00  0.00    -0.084 Cl
ENDBRANCH  20  21
ENDBRANCH  16  19
ENDBRANCH   9  10
ENDBRANCH   7   9
ENDBRANCH   6   7
ENDBRANCH   5   6
ENDBRANCH   4   5
ENDBRANCH   3   4
ENDBRANCH   2   3
ENDBRANCH   1   2
BRANCH   1  28
ATOM     28  O   UNL A   1      36.165  22.655  25.626  1.00  0.00    -0.377 OA
BRANCH  28  29
ATOM     29  C   UNL A   1      36.849  21.431  25.420  1.00  0.00     0.188 C 
BRANCH  29  30
ATOM     30  C   UNL A   1      38.381  21.500  25.627  1.00  0.00     0.188 C 
BRANCH  30  31
ATOM     31  O   UNL A   1      38.977  22.472  26.469  1.00  0.00    -0.376 OA
BRANCH  31  32
ATOM     32  C   UNL A   1      40.267  22.268  27.016  1.00  0.00     0.202 C 
BRANCH  32  33
ATOM     33  C   UNL A   1      41.131  23.420  27.569  1.00  0.00     0.261 C 
BRANCH  33  34
ATOM     34  O   UNL A   1      42.519  23.150  27.801  1.00  0.00    -0.460 OA
BRANCH  34  35
ATOM     35  C   UNL A   1      43.317  23.171  26.710  1.00  0.00     0.338 C 
ATOM     36  O   UNL A   1      43.338  22.363  25.793  1.00  0.00    -0.246 OA
BRANCH  35  37
ATOM     37  C   UNL A   1      44.027  24.467  26.668  1.00  0.00     0.060 A 
ATOM     38  C   UNL A   1      44.357  24.998  25.411  1.00  0.00     0.016 A 
ATOM     39  C   UNL A   1      44.341  25.170  27.833  1.00  0.00     0.016 A 
ATOM     40  C   UNL A   1      45.020  26.217  25.314  1.00  0.00     0.010 A 
ATOM     41  C   UNL A   1      45.047  26.376  27.738  1.00  0.00     0.010 A 
ATOM     42  C   UNL A   1      45.418  26.883  26.478  1.00  0.00    -0.014 A 
BRANCH  42  43
ATOM     43  C   UNL A   1      46.415  27.974  26.362  1.00  0.00     0.031 A 
ATOM     44  C   UNL A   1      45.925  29.393  26.477  1.00  0.00     0.074 A 
ATOM     45  C   UNL A   1      47.728  27.716  26.241  1.00  0.00     0.049 A 
ATOM     46  N   UNL A   1      46.602  30.511  26.428  1.00  0.00    -0.248 NA
ATOM     47  C   UNL A   1      44.477  29.572  26.680  1.00  0.00     0.031 C 
ATOM     48  C   UNL A   1      48.333  26.385  26.181  1.00  0.00     0.029 A 
ATOM     49  N   UNL A   1      48.794  28.575  26.153  1.00  0.00    -0.354 N 
ATOM     50  C   UNL A   1      45.664  31.522  26.598  1.00  0.00     0.074 A 
ATOM     51  C   UNL A   1      44.369  30.891  26.714  1.00  0.00     0.031 C 
ATOM     52  C   UNL A   1      49.666  26.519  26.058  1.00  0.00     0.029 A 
ATOM     53  C   UNL A   1      50.003  27.940  26.001  1.00  0.00     0.049 A 
ATOM     54  H   UNL A   1      48.702  29.554  26.194  1.00  0.00     0.167 HD
ATOM     55  C   UNL A   1      45.864  32.859  26.662  1.00  0.00     0.031 A 
ATOM     56  C   UNL A   1      51.235  28.452  25.814  1.00  0.00     0.031 A 
ATOM     57  C   UNL A   1      47.148  33.491  26.527  1.00  0.00     0.049 A 
ATOM     58  C   UNL A   1      51.415  29.950  25.790  1.00  0.00     0.074 A 
ATOM     59  C   UNL A   1      47.454  34.839  26.569  1.00  0.00     0.029 A 
ATOM     60  N   UNL A   1      48.340  32.816  26.317  1.00  0.00    -0.354 N 
ATOM     61  N   UNL A   1      50.524  30.895  25.970  1.00  0.00    -0.248 NA
ATOM     62  C   UNL A   1      52.777  30.447  25.551  1.00  0.00     0.031 C 
ATOM     63  C   UNL A   1      48.823  34.984  26.322  1.00  0.00     0.029 A 
ATOM     64  C   UNL A   1      49.380  33.722  26.199  1.00  0.00     0.049 A 
ATOM     65  H   UNL A   1      48.433  31.838  26.258  1.00  0.00     0.167 HD
ATOM     66  C   UNL A   1      51.223  32.095  25.894  1.00  0.00     0.074 A 
ATOM     67  C   UNL A   1      52.614  31.755  25.683  1.00  0.00     0.031 C 
ATOM     68  C   UNL A   1      50.758  33.366  25.986  1.00  0.00     0.031 A 
BRANCH  55  69
ATOM     69  C   UNL A   1      44.657  33.733  26.860  1.00  0.00    -0.014 A 
ATOM     70  C   UNL A   1      44.195  34.058  28.146  1.00  0.00     0.009 A 
ATOM     71  C   UNL A   1      44.003  34.278  25.745  1.00  0.00     0.009 A 
ATOM     72  C   UNL A   1      43.090  34.896  28.308  1.00  0.00     0.001 A 
ATOM     73  C   UNL A   1      42.916  35.139  25.911  1.00  0.00     0.001 A 
ATOM     74  C   UNL A   1      42.457  35.442  27.192  1.00  0.00     0.000 A 
ENDBRANCH  55  69
BRANCH  56  75
ATOM     75  C   UNL A   1      52.402  27.555  25.590  1.00  0.00    -0.014 A 
ATOM     76  C   UNL A   1      52.715  27.080  24.306  1.00  0.00     0.009 A 
ATOM     77  C   UNL A   1      53.175  27.116  26.678  1.00  0.00     0.009 A 
ATOM     78  C   UNL A   1      53.746  26.153  24.124  1.00  0.00     0.001 A 
ATOM     79  C   UNL A   1      54.228  26.219  26.488  1.00  0.00     0.001 A 
ATOM     80  C   UNL A   1      54.502  25.726  25.214  1.00  0.00     0.000 A 
ENDBRANCH  56  75
BRANCH  68  81
ATOM     81  C   UNL A   1      51.771  34.476  25.898  1.00  0.00    -0.014 A 
ATOM     82  C   UNL A   1      52.081  35.092  24.675  1.00  0.00     0.009 A 
ATOM     83  C   UNL A   1      52.415  34.922  27.063  1.00  0.00     0.009 A 
ATOM     84  C   UNL A   1      53.051  36.095  24.614  1.00  0.00     0.001 A 
ATOM     85  C   UNL A   1      53.358  35.951  27.004  1.00  0.00     0.001 A 
ATOM     86  C   UNL A   1      53.686  36.525  25.777  1.00  0.00     0.000 A 
ENDBRANCH  68  81
ENDBRANCH  42  43
ENDBRANCH  35  37
ENDBRANCH  34  35
ENDBRANCH  33  34
ENDBRANCH  32  33
ENDBRANCH  31  32
ENDBRANCH  30  31
ENDBRANCH  29  30
ENDBRANCH  28  29
ENDBRANCH   1  28
TORSDOF 23
ENDMDL
MODEL 3
REMARK VINA RESULT:      -8.6      4.620      7.354
REMARK SMILES O=C(C[C@H]1S/C(=[NH+]/N=C/c2cccc(Cl)c2)NC1=O)OCCOCCOCCOCCOC(=O)c1ccc(-c2c3nc(c(-c4ccccc4)c4ccc([nH]4)c(-c4ccccc4)c4nc(c(-c5ccccc5)c5ccc2[nH]5)C=C4)C=C3)cc1
REMARK SMILES IDX 25 1 24 2 23 3 22 4 21 5 20 6 2 7 1 8 3 9 4 10 5 11 18 12
REMARK SMILES IDX 6 13 17 14 19 15 7 16 8 19 9 20 10 21 11 22 16 23 12 24
REMARK SMILES IDX 14 25 13 26 15 27 26 28 27 29 28 30 29 31 30 32 31 33 32 34
REMARK SMILES IDX 33 35 34 36 35 37 36 38 82 39 37 40 81 41 38 42 39 43 40 44
REMARK SMILES IDX 75 45 41 46 80 47 74 48 76 49 42 50 79 51 73 52 72 53 43 55
REMARK SMILES IDX 65 56 50 57 64 58 51 59 54 60 63 61 77 62 52 63 53 64 62 66
REMARK SMILES IDX 78 67 55 68 44 69 45 70 49 71 46 72 48 73 47 74 66 75 67 76
REMARK SMILES IDX 71 77 68 78 70 79 69 80 56 81 57 82 61 83 58 84 60 85 59 86
REMARK H PARENT 17 17 7 18 76 54 54 65
REMARK Flexibility Score: inf
ROOT
ATOM      1  C   UNL A   1      36.178  23.593  24.878  1.00  0.00     0.188 C 
ENDROOT
BRANCH   1   2
ATOM      2  C   UNL A   1      35.345  23.129  23.680  1.00  0.00     0.188 C 
BRANCH   2   3
ATOM      3  O   UNL A   1      33.985  23.519  23.651  1.00  0.00    -0.376 OA
BRANCH   3   4
ATOM      4  C   UNL A   1      33.488  24.830  23.822  1.00  0.00     0.202 C 
BRANCH   4   5
ATOM      5  C   UNL A   1      32.751  25.582  22.722  1.00  0.00     0.261 C 
BRANCH   5   6
ATOM      6  O   UNL A   1      31.546  26.289  23.060  1.00  0.00    -0.463 OA
BRANCH   6   7
ATOM      7  C   UNL A   1      31.037  26.483  24.293  1.00  0.00     0.307 C 
ATOM      8  O   UNL A   1      30.172  25.725  24.724  1.00  0.00    -0.252 OA
BRANCH   7   9
ATOM      9  C   UNL A   1      31.397  27.727  25.048  1.00  0.00     0.150 C 
BRANCH   9  10
ATOM     10  C   UNL A   1      32.448  27.513  26.116  1.00  0.00     0.184 C 
ATOM     11  S   UNL A   1      34.007  28.395  25.727  1.00  0.00    -0.020 SA
ATOM     12  C   UNL A   1      31.934  28.187  27.374  1.00  0.00     0.322 C 
ATOM     13  C   UNL A   1      33.641  29.683  26.829  1.00  0.00     0.337 C 
ATOM     14  N   UNL A   1      32.586  29.358  27.611  1.00  0.00    -0.202 N 
ATOM     15  O   UNL A   1      30.988  27.790  28.040  1.00  0.00    -0.246 OA
ATOM     16  N   UNL A   1      34.306  30.786  26.921  1.00  0.00    -0.142 N 
ATOM     17  H   UNL A   1      32.295  29.955  28.337  1.00  0.00     0.316 HD
ATOM     18  H   UNL A   1      34.980  31.095  26.272  1.00  0.00     0.343 HD
BRANCH  16  19
ATOM     19  N   UNL A   1      33.930  31.477  28.072  1.00  0.00    -0.093 NA
ATOM     20  C   UNL A   1      34.456  32.655  28.168  1.00  0.00     0.166 C 
BRANCH  20  21
ATOM     21  C   UNL A   1      34.389  33.348  29.467  1.00  0.00    -0.002 A 
ATOM     22  C   UNL A   1      33.758  34.601  29.511  1.00  0.00     0.010 A 
ATOM     23  C   UNL A   1      34.872  32.756  30.631  1.00  0.00     0.030 A 
ATOM     24  C   UNL A   1      33.607  35.269  30.722  1.00  0.00     0.002 A 
ATOM     25  C   UNL A   1      34.732  33.445  31.838  1.00  0.00     0.041 A 
ATOM     26  C   UNL A   1      34.100  34.691  31.889  1.00  0.00     0.020 A 
ATOM     27  Cl  UNL A   1      35.341  32.753  33.291  1.00  0.00    -0.084 Cl
ENDBRANCH  20  21
ENDBRANCH  16  19
ENDBRANCH   9  10
ENDBRANCH   7   9
ENDBRANCH   6   7
ENDBRANCH   5   6
ENDBRANCH   4   5
ENDBRANCH   3   4
ENDBRANCH   2   3
ENDBRANCH   1   2
BRANCH   1  28
ATOM     28  O   UNL A   1      36.236  22.703  25.985  1.00  0.00    -0.377 OA
BRANCH  28  29
ATOM     29  C   UNL A   1      36.873  21.466  25.718  1.00  0.00     0.188 C 
BRANCH  29  30
ATOM     30  C   UNL A   1      38.375  21.573  25.360  1.00  0.00     0.188 C 
BRANCH  30  31
ATOM     31  O   UNL A   1      39.331  22.052  26.289  1.00  0.00    -0.376 OA
BRANCH  31  32
ATOM     32  C   UNL A   1      40.615  21.462  26.383  1.00  0.00     0.202 C 
BRANCH  32  33
ATOM     33  C   UNL A   1      41.888  22.275  26.694  1.00  0.00     0.261 C 
BRANCH  33  34
ATOM     34  O   UNL A   1      42.516  22.958  25.602  1.00  0.00    -0.460 OA
BRANCH  34  35
ATOM     35  C   UNL A   1      42.475  24.308  25.644  1.00  0.00     0.338 C 
ATOM     36  O   UNL A   1      41.521  25.010  25.943  1.00  0.00    -0.246 OA
BRANCH  35  37
ATOM     37  C   UNL A   1      43.851  24.829  25.490  1.00  0.00     0.060 A 
ATOM     38  C   UNL A   1      44.897  23.902  25.361  1.00  0.00     0.016 A 
ATOM     39  C   UNL A   1      44.115  26.200  25.441  1.00  0.00     0.016 A 
ATOM     40  C   UNL A   1      46.208  24.339  25.208  1.00  0.00     0.010 A 
ATOM     41  C   UNL A   1      45.440  26.639  25.330  1.00  0.00     0.010 A 
ATOM     42  C   UNL A   1      46.492  25.708  25.249  1.00  0.00    -0.014 A 
BRANCH  42  43
ATOM     43  C   UNL A   1      47.899  26.132  25.440  1.00  0.00     0.031 A 
ATOM     44  C   UNL A   1      48.481  26.040  26.825  1.00  0.00     0.074 A 
ATOM     45  C   UNL A   1      48.667  26.508  24.403  1.00  0.00     0.049 A 
ATOM     46  N   UNL A   1      49.687  26.332  27.239  1.00  0.00    -0.248 NA
ATOM     47  C   UNL A   1      47.582  25.549  27.884  1.00  0.00     0.031 C 
ATOM     48  C   UNL A   1      48.237  26.578  23.007  1.00  0.00     0.029 A 
ATOM     49  N   UNL A   1      49.982  26.898  24.372  1.00  0.00    -0.354 N 
ATOM     50  C   UNL A   1      49.692  26.055  28.601  1.00  0.00     0.074 A 
ATOM     51  C   UNL A   1      48.362  25.609  28.952  1.00  0.00     0.031 C 
ATOM     52  C   UNL A   1      49.272  26.995  22.255  1.00  0.00     0.029 A 
ATOM     53  C   UNL A   1      50.423  27.249  23.119  1.00  0.00     0.049 A 
ATOM     54  H   UNL A   1      50.556  26.925  25.171  1.00  0.00     0.167 HD
ATOM     55  C   UNL A   1      50.715  26.154  29.481  1.00  0.00     0.031 A 
ATOM     56  C   UNL A   1      51.614  27.740  22.724  1.00  0.00     0.031 A 
ATOM     57  C   UNL A   1      52.032  26.617  29.139  1.00  0.00     0.049 A 
ATOM     58  C   UNL A   1      52.707  27.934  23.746  1.00  0.00     0.074 A 
ATOM     59  C   UNL A   1      53.135  26.761  29.962  1.00  0.00     0.029 A 
ATOM     60  N   UNL A   1      52.422  27.017  27.871  1.00  0.00    -0.354 N 
ATOM     61  N   UNL A   1      52.704  27.652  25.027  1.00  0.00    -0.248 NA
ATOM     62  C   UNL A   1      53.972  28.503  23.259  1.00  0.00     0.031 C 
ATOM     63  C   UNL A   1      54.176  27.307  29.204  1.00  0.00     0.029 A 
ATOM     64  C   UNL A   1      53.742  27.435  27.895  1.00  0.00     0.049 A 
ATOM     65  H   UNL A   1      51.846  27.007  27.074  1.00  0.00     0.167 HD
ATOM     66  C   UNL A   1      53.974  27.983  25.490  1.00  0.00     0.074 A 
ATOM     67  C   UNL A   1      54.725  28.456  24.347  1.00  0.00     0.031 C 
ATOM     68  C   UNL A   1      54.474  27.905  26.748  1.00  0.00     0.031 A 
BRANCH  55  69
ATOM     69  C   UNL A   1      50.439  25.781  30.911  1.00  0.00    -0.014 A 
ATOM     70  C   UNL A   1      50.622  24.466  31.369  1.00  0.00     0.009 A 
ATOM     71  C   UNL A   1      50.038  26.769  31.823  1.00  0.00     0.009 A 
ATOM     72  C   UNL A   1      50.389  24.146  32.708  1.00  0.00     0.001 A 
ATOM     73  C   UNL A   1      49.834  26.452  33.168  1.00  0.00     0.001 A 
ATOM     74  C   UNL A   1      50.003  25.140  33.607  1.00  0.00     0.000 A 
ENDBRANCH  55  69
BRANCH  56  75
ATOM     75  C   UNL A   1      51.839  28.128  21.304  1.00  0.00    -0.014 A 
ATOM     76  C   UNL A   1      51.763  29.471  20.899  1.00  0.00     0.009 A 
ATOM     77  C   UNL A   1      52.070  27.143  20.331  1.00  0.00     0.009 A 
ATOM     78  C   UNL A   1      51.870  29.812  19.548  1.00  0.00     0.001 A 
ATOM     79  C   UNL A   1      52.213  27.490  18.985  1.00  0.00     0.001 A 
ATOM     80  C   UNL A   1      52.097  28.822  18.593  1.00  0.00     0.000 A 
ENDBRANCH  56  75
BRANCH  68  81
ATOM     81  C   UNL A   1      55.911  28.307  26.942  1.00  0.00    -0.014 A 
ATOM     82  C   UNL A   1      56.962  27.401  26.728  1.00  0.00     0.009 A 
ATOM     83  C   UNL A   1      56.219  29.621  27.330  1.00  0.00     0.009 A 
ATOM     84  C   UNL A   1      58.286  27.788  26.950  1.00  0.00     0.001 A 
ATOM     85  C   UNL A   1      57.545  30.015  27.516  1.00  0.00     0.001 A 
ATOM     86  C   UNL A   1      58.577  29.094  27.341  1.00  0.00     0.000 A 
ENDBRANCH  68  81
ENDBRANCH  42  43
ENDBRANCH  35  37
ENDBRANCH  34  35
ENDBRANCH  33  34
ENDBRANCH  32  33
ENDBRANCH  31  32
ENDBRANCH  30  31
ENDBRANCH  29  30
ENDBRANCH  28  29
ENDBRANCH   1  28
TORSDOF 23
ENDMDL
