MODEL 1
REMARK VINA RESULT:     -11.5      0.000      0.000
REMARK SMILES Cc1cccc(CC(=O)N2CCC3(CCC(=O)N([C@H](C)C(=O)OCCOCCOCCOCCOC(=O)c4ccc(-c5c6nc(c(-c7ccccc7)c7ccc([nH]7)c(-c7ccccc7)c7nc(c(-c8ccccc8)c8ccc5[nH]8)C=C7)C=C6)cc4)C3)CC2)c1
REMARK SMILES IDX 28 1 27 2 26 3 25 4 24 5 23 6 21 7 22 8 19 9 20 10 18 11
REMARK SMILES IDX 8 12 9 13 10 14 11 15 88 16 12 17 87 18 13 19 14 20 86 21
REMARK SMILES IDX 15 22 16 23 17 24 7 25 6 26 1 27 2 28 3 29 89 30 4 31 5 32
REMARK SMILES IDX 29 33 30 34 31 35 32 36 33 37 34 38 35 39 36 40 37 41 38 42
REMARK SMILES IDX 39 43 85 44 40 45 84 46 41 47 42 48 43 49 78 50 44 51 83 52
REMARK SMILES IDX 77 53 79 54 45 55 82 56 76 57 75 58 46 60 68 61 53 62 67 63
REMARK SMILES IDX 54 64 57 65 66 66 80 67 55 68 56 69 65 71 81 72 58 73 47 74
REMARK SMILES IDX 48 75 52 76 49 77 51 78 50 79 69 80 70 81 74 82 71 83 73 84
REMARK SMILES IDX 72 85 59 86 60 87 64 88 61 89 63 90 62 91
REMARK H PARENT 79 59 57 70
REMARK Flexibility Score: inf
ROOT
ATOM      1  C   UNL A   1      35.569  32.166  28.345  1.00  0.00     0.188 C 
ENDROOT
BRANCH   1   2
ATOM      2  C   UNL A   1      35.257  30.839  27.624  1.00  0.00     0.188 C 
BRANCH   2   3
ATOM      3  O   UNL A   1      33.967  30.260  27.705  1.00  0.00    -0.376 OA
BRANCH   3   4
ATOM      4  C   UNL A   1      32.995  30.752  26.791  1.00  0.00     0.202 C 
BRANCH   4   5
ATOM      5  C   UNL A   1      32.161  29.741  26.009  1.00  0.00     0.261 C 
BRANCH   5   6
ATOM      6  O   UNL A   1      32.553  28.420  26.371  1.00  0.00    -0.462 OA
BRANCH   6   7
ATOM      7  C   UNL A   1      33.251  27.715  25.458  1.00  0.00     0.328 C 
ATOM      8  O   UNL A   1      34.244  28.087  24.868  1.00  0.00    -0.250 OA
BRANCH   7   9
ATOM      9  C   UNL A   1      32.704  26.292  25.410  1.00  0.00     0.192 C 
ATOM     10  C   UNL A   1      31.634  26.064  26.462  1.00  0.00     0.044 C 
BRANCH   9  11
ATOM     11  N   UNL A   1      32.320  25.952  24.042  1.00  0.00    -0.329 N 
ATOM     12  C   UNL A   1      33.124  19.955  25.158  1.00  0.00     0.226 C 
ATOM     13  O   UNL A   1      32.853  19.495  26.274  1.00  0.00    -0.275 OA
ATOM     14  N   UNL A   1      32.258  20.845  24.545  1.00  0.00    -0.342 N 
ATOM     15  C   UNL A   1      31.528  21.770  25.394  1.00  0.00     0.120 C 
ATOM     16  C   UNL A   1      32.155  21.150  23.124  1.00  0.00     0.120 C 
ATOM     17  C   UNL A   1      32.116  23.164  25.170  1.00  0.00     0.030 C 
ATOM     18  C   UNL A   1      32.826  22.476  22.845  1.00  0.00     0.030 C 
ATOM     19  C   UNL A   1      32.150  23.580  23.662  1.00  0.00    -0.008 C 
ATOM     20  C   UNL A   1      30.705  23.834  23.126  1.00  0.00     0.019 C 
ATOM     21  C   UNL A   1      33.003  24.846  23.444  1.00  0.00     0.127 C 
ATOM     22  C   UNL A   1      30.092  25.100  23.707  1.00  0.00     0.101 C 
ATOM     23  C   UNL A   1      31.094  26.195  23.450  1.00  0.00     0.223 C 
ATOM     24  O   UNL A   1      30.943  26.938  22.489  1.00  0.00    -0.275 OA
BRANCH  12  25
ATOM     25  C   UNL A   1      34.541  19.751  24.619  1.00  0.00     0.135 C 
BRANCH  25  26
ATOM     26  C   UNL A   1      35.622  20.712  25.035  1.00  0.00    -0.038 A 
ATOM     27  C   UNL A   1      35.924  24.447  25.749  1.00  0.00     0.044 C 
ATOM     28  C   UNL A   1      36.284  23.009  25.513  1.00  0.00    -0.051 A 
ATOM     29  C   UNL A   1      37.624  22.627  25.395  1.00  0.00     0.003 A 
ATOM     30  C   UNL A   1      35.289  22.038  25.363  1.00  0.00     0.007 A 
ATOM     31  C   UNL A   1      37.965  21.294  25.158  1.00  0.00     0.001 A 
ATOM     32  C   UNL A   1      36.969  20.331  25.001  1.00  0.00     0.004 A 
ENDBRANCH  25  26
ENDBRANCH  12  25
ENDBRANCH   9  11
ENDBRANCH   7   9
ENDBRANCH   6   7
ENDBRANCH   5   6
ENDBRANCH   4   5
ENDBRANCH   3   4
ENDBRANCH   2   3
ENDBRANCH   1   2
BRANCH   1  33
ATOM     33  O   UNL A   1      35.562  33.392  27.624  1.00  0.00    -0.377 OA
BRANCH  33  34
ATOM     34  C   UNL A   1      34.658  34.422  28.013  1.00  0.00     0.188 C 
BRANCH  34  35
ATOM     35  C   UNL A   1      33.213  34.000  28.216  1.00  0.00     0.188 C 
BRANCH  35  36
ATOM     36  O   UNL A   1      32.751  34.591  29.427  1.00  0.00    -0.376 OA
BRANCH  36  37
ATOM     37  C   UNL A   1      32.902  36.001  29.556  1.00  0.00     0.202 C 
BRANCH  37  38
ATOM     38  C   UNL A   1      32.715  36.516  30.985  1.00  0.00     0.261 C 
BRANCH  38  39
ATOM     39  O   UNL A   1      34.005  36.765  31.580  1.00  0.00    -0.460 OA
BRANCH  39  40
ATOM     40  C   UNL A   1      34.290  36.018  32.681  1.00  0.00     0.338 C 
ATOM     41  O   UNL A   1      34.403  36.455  33.816  1.00  0.00    -0.246 OA
BRANCH  40  42
ATOM     42  C   UNL A   1      34.756  34.655  32.273  1.00  0.00     0.060 A 
ATOM     43  C   UNL A   1      34.429  33.537  33.060  1.00  0.00     0.016 A 
ATOM     44  C   UNL A   1      35.813  34.570  31.381  1.00  0.00     0.016 A 
ATOM     45  C   UNL A   1      35.283  32.417  33.094  1.00  0.00     0.010 A 
ATOM     46  C   UNL A   1      36.708  33.530  31.525  1.00  0.00     0.010 A 
ATOM     47  C   UNL A   1      36.489  32.452  32.398  1.00  0.00    -0.014 A 
BRANCH  47  48
ATOM     48  C   UNL A   1      37.659  31.560  32.604  1.00  0.00     0.031 A 
ATOM     49  C   UNL A   1      37.753  30.273  31.822  1.00  0.00     0.074 A 
ATOM     50  C   UNL A   1      38.778  32.074  33.178  1.00  0.00     0.049 A 
ATOM     51  N   UNL A   1      38.791  29.510  31.740  1.00  0.00    -0.248 NA
ATOM     52  C   UNL A   1      36.649  29.740  31.018  1.00  0.00     0.031 C 
ATOM     53  C   UNL A   1      40.160  31.719  32.845  1.00  0.00     0.029 A 
ATOM     54  N   UNL A   1      38.963  33.091  34.102  1.00  0.00    -0.354 N 
ATOM     55  C   UNL A   1      38.623  28.620  30.692  1.00  0.00     0.074 A 
ATOM     56  C   UNL A   1      37.246  28.773  30.310  1.00  0.00     0.031 C 
ATOM     57  C   UNL A   1      41.011  32.459  33.562  1.00  0.00     0.029 A 
ATOM     58  C   UNL A   1      40.261  33.053  34.619  1.00  0.00     0.049 A 
ATOM     59  H   UNL A   1      38.277  33.749  34.357  1.00  0.00     0.167 HD
ATOM     60  C   UNL A   1      39.709  27.947  30.197  1.00  0.00     0.031 A 
ATOM     61  C   UNL A   1      40.536  32.715  35.917  1.00  0.00     0.031 A 
ATOM     62  C   UNL A   1      40.902  28.162  31.028  1.00  0.00     0.049 A 
ATOM     63  C   UNL A   1      41.172  31.321  36.029  1.00  0.00     0.074 A 
ATOM     64  C   UNL A   1      42.186  28.615  30.782  1.00  0.00     0.029 A 
ATOM     65  N   UNL A   1      40.787  28.060  32.414  1.00  0.00    -0.354 N 
ATOM     66  N   UNL A   1      40.968  30.366  35.145  1.00  0.00    -0.248 NA
ATOM     67  C   UNL A   1      42.195  30.939  37.006  1.00  0.00     0.031 C 
ATOM     68  C   UNL A   1      42.809  28.845  32.035  1.00  0.00     0.029 A 
ATOM     69  C   UNL A   1      41.915  28.519  33.044  1.00  0.00     0.049 A 
ATOM     70  H   UNL A   1      39.997  27.702  32.880  1.00  0.00     0.167 HD
ATOM     71  C   UNL A   1      41.875  29.353  35.334  1.00  0.00     0.074 A 
ATOM     72  C   UNL A   1      42.578  29.729  36.549  1.00  0.00     0.031 C 
ATOM     73  C   UNL A   1      42.093  28.311  34.472  1.00  0.00     0.031 A 
BRANCH  60  74
ATOM     74  C   UNL A   1      39.794  27.214  28.857  1.00  0.00    -0.014 A 
ATOM     75  C   UNL A   1      39.288  25.899  28.749  1.00  0.00     0.009 A 
ATOM     76  C   UNL A   1      40.411  27.705  27.693  1.00  0.00     0.009 A 
ATOM     77  C   UNL A   1      39.416  25.118  27.587  1.00  0.00     0.001 A 
ATOM     78  C   UNL A   1      40.515  26.942  26.511  1.00  0.00     0.001 A 
ATOM     79  C   UNL A   1      40.028  25.644  26.462  1.00  0.00     0.000 A 
ENDBRANCH  60  74
BRANCH  61  80
ATOM     80  C   UNL A   1      39.738  33.571  36.853  1.00  0.00    -0.014 A 
ATOM     81  C   UNL A   1      39.888  33.170  38.206  1.00  0.00     0.009 A 
ATOM     82  C   UNL A   1      39.677  34.949  36.586  1.00  0.00     0.009 A 
ATOM     83  C   UNL A   1      40.352  34.081  39.164  1.00  0.00     0.001 A 
ATOM     84  C   UNL A   1      40.109  35.864  37.565  1.00  0.00     0.001 A 
ATOM     85  C   UNL A   1      40.524  35.418  38.822  1.00  0.00     0.000 A 
ENDBRANCH  61  80
BRANCH  73  86
ATOM     86  C   UNL A   1      42.518  26.915  34.883  1.00  0.00    -0.014 A 
ATOM     87  C   UNL A   1      41.649  25.968  35.430  1.00  0.00     0.009 A 
ATOM     88  C   UNL A   1      43.795  26.438  34.481  1.00  0.00     0.009 A 
ATOM     89  C   UNL A   1      42.034  24.628  35.572  1.00  0.00     0.001 A 
ATOM     90  C   UNL A   1      44.165  25.097  34.575  1.00  0.00     0.001 A 
ATOM     91  C   UNL A   1      43.279  24.190  35.127  1.00  0.00     0.000 A 
ENDBRANCH  73  86
ENDBRANCH  47  48
ENDBRANCH  40  42
ENDBRANCH  39  40
ENDBRANCH  38  39
ENDBRANCH  37  38
ENDBRANCH  36  37
ENDBRANCH  35  36
ENDBRANCH  34  35
ENDBRANCH  33  34
ENDBRANCH   1  33
TORSDOF 23
ENDMDL
MODEL 2
REMARK VINA RESULT:      -9.4      4.021      6.044
REMARK SMILES Cc1cccc(CC(=O)N2CCC3(CCC(=O)N([C@H](C)C(=O)OCCOCCOCCOCCOC(=O)c4ccc(-c5c6nc(c(-c7ccccc7)c7ccc([nH]7)c(-c7ccccc7)c7nc(c(-c8ccccc8)c8ccc5[nH]8)C=C7)C=C6)cc4)C3)CC2)c1
REMARK SMILES IDX 28 1 27 2 26 3 25 4 24 5 23 6 21 7 22 8 19 9 20 10 18 11
REMARK SMILES IDX 8 12 9 13 10 14 11 15 88 16 12 17 87 18 13 19 14 20 86 21
REMARK SMILES IDX 15 22 16 23 17 24 7 25 6 26 1 27 2 28 3 29 89 30 4 31 5 32
REMARK SMILES IDX 29 33 30 34 31 35 32 36 33 37 34 38 35 39 36 40 37 41 38 42
REMARK SMILES IDX 39 43 85 44 40 45 84 46 41 47 42 48 43 49 78 50 44 51 83 52
REMARK SMILES IDX 77 53 79 54 45 55 82 56 76 57 75 58 46 60 68 61 53 62 67 63
REMARK SMILES IDX 54 64 57 65 66 66 80 67 55 68 56 69 65 71 81 72 58 73 47 74
REMARK SMILES IDX 48 75 52 76 49 77 51 78 50 79 69 80 70 81 74 82 71 83 73 84
REMARK SMILES IDX 72 85 59 86 60 87 64 88 61 89 63 90 62 91
REMARK H PARENT 79 59 57 70
REMARK Flexibility Score: inf
ROOT
ATOM      1  C   UNL A   1      33.603  35.413  29.335  1.00  0.00     0.188 C 
ENDROOT
BRANCH   1   2
ATOM      2  C   UNL A   1      33.488  34.091  28.549  1.00  0.00     0.188 C 
BRANCH   2   3
ATOM      3  O   UNL A   1      34.526  33.678  27.677  1.00  0.00    -0.376 OA
BRANCH   3   4
ATOM      4  C   UNL A   1      34.976  32.337  27.822  1.00  0.00     0.202 C 
BRANCH   4   5
ATOM      5  C   UNL A   1      33.932  31.223  27.858  1.00  0.00     0.261 C 
BRANCH   5   6
ATOM      6  O   UNL A   1      33.592  30.848  26.527  1.00  0.00    -0.462 OA
BRANCH   6   7
ATOM      7  C   UNL A   1      33.222  29.567  26.325  1.00  0.00     0.328 C 
ATOM      8  O   UNL A   1      33.817  28.579  26.703  1.00  0.00    -0.250 OA
BRANCH   7   9
ATOM      9  C   UNL A   1      31.830  29.547  25.702  1.00  0.00     0.192 C 
ATOM     10  C   UNL A   1      31.146  30.899  25.810  1.00  0.00     0.044 C 
BRANCH   9  11
ATOM     11  N   UNL A   1      31.895  28.983  24.356  1.00  0.00    -0.329 N 
ATOM     12  C   UNL A   1      31.902  23.256  26.606  1.00  0.00     0.226 C 
ATOM     13  O   UNL A   1      31.250  22.995  27.625  1.00  0.00    -0.275 OA
ATOM     14  N   UNL A   1      31.343  24.037  25.607  1.00  0.00    -0.342 N 
ATOM     15  C   UNL A   1      30.436  25.098  26.007  1.00  0.00     0.120 C 
ATOM     16  C   UNL A   1      31.732  24.097  24.204  1.00  0.00     0.120 C 
ATOM     17  C   UNL A   1      31.153  26.429  25.775  1.00  0.00     0.030 C 
ATOM     18  C   UNL A   1      32.541  25.351  23.960  1.00  0.00     0.030 C 
ATOM     19  C   UNL A   1      31.707  26.583  24.320  1.00  0.00    -0.008 C 
ATOM     20  C   UNL A   1      30.537  26.754  23.299  1.00  0.00     0.019 C 
ATOM     21  C   UNL A   1      32.663  27.787  24.203  1.00  0.00     0.127 C 
ATOM     22  C   UNL A   1      29.850  28.104  23.435  1.00  0.00     0.101 C 
ATOM     23  C   UNL A   1      30.949  29.132  23.359  1.00  0.00     0.223 C 
ATOM     24  O   UNL A   1      31.169  29.702  22.297  1.00  0.00    -0.275 OA
BRANCH  12  25
ATOM     25  C   UNL A   1      33.401  22.953  26.611  1.00  0.00     0.135 C 
BRANCH  25  26
ATOM     26  C   UNL A   1      33.911  21.801  25.788  1.00  0.00    -0.038 A 
ATOM     27  C   UNL A   1      32.533  18.526  24.400  1.00  0.00     0.044 C 
ATOM     28  C   UNL A   1      33.485  19.622  24.781  1.00  0.00    -0.051 A 
ATOM     29  C   UNL A   1      34.864  19.441  24.633  1.00  0.00     0.003 A 
ATOM     30  C   UNL A   1      33.015  20.818  25.331  1.00  0.00     0.007 A 
ATOM     31  C   UNL A   1      35.757  20.450  25.002  1.00  0.00     0.001 A 
ATOM     32  C   UNL A   1      35.283  21.639  25.558  1.00  0.00     0.004 A 
ENDBRANCH  25  26
ENDBRANCH  12  25
ENDBRANCH   9  11
ENDBRANCH   7   9
ENDBRANCH   6   7
ENDBRANCH   5   6
ENDBRANCH   4   5
ENDBRANCH   3   4
ENDBRANCH   2   3
ENDBRANCH   1   2
BRANCH   1  33
ATOM     33  O   UNL A   1      32.632  35.748  30.318  1.00  0.00    -0.377 OA
BRANCH  33  34
ATOM     34  C   UNL A   1      33.062  36.077  31.636  1.00  0.00     0.188 C 
BRANCH  34  35
ATOM     35  C   UNL A   1      34.279  35.325  32.147  1.00  0.00     0.188 C 
BRANCH  35  36
ATOM     36  O   UNL A   1      33.861  34.012  32.512  1.00  0.00    -0.376 OA
BRANCH  36  37
ATOM     37  C   UNL A   1      34.619  32.924  31.992  1.00  0.00     0.202 C 
BRANCH  37  38
ATOM     38  C   UNL A   1      35.649  32.361  32.974  1.00  0.00     0.261 C 
BRANCH  38  39
ATOM     39  O   UNL A   1      36.930  32.980  32.734  1.00  0.00    -0.460 OA
BRANCH  39  40
ATOM     40  C   UNL A   1      38.009  32.249  33.126  1.00  0.00     0.338 C 
ATOM     41  O   UNL A   1      38.165  31.767  34.237  1.00  0.00    -0.246 OA
BRANCH  40  42
ATOM     42  C   UNL A   1      39.113  32.383  32.124  1.00  0.00     0.060 A 
ATOM     43  C   UNL A   1      38.837  32.245  30.752  1.00  0.00     0.016 A 
ATOM     44  C   UNL A   1      40.417  32.236  32.571  1.00  0.00     0.016 A 
ATOM     45  C   UNL A   1      39.826  31.765  29.871  1.00  0.00     0.010 A 
ATOM     46  C   UNL A   1      41.333  31.640  31.728  1.00  0.00     0.010 A 
ATOM     47  C   UNL A   1      41.059  31.360  30.379  1.00  0.00    -0.014 A 
BRANCH  47  48
ATOM     48  C   UNL A   1      42.061  30.503  29.697  1.00  0.00     0.031 A 
ATOM     49  C   UNL A   1      41.879  29.005  29.705  1.00  0.00     0.074 A 
ATOM     50  C   UNL A   1      42.887  31.069  28.778  1.00  0.00     0.049 A 
ATOM     51  N   UNL A   1      42.541  28.157  28.991  1.00  0.00    -0.248 NA
ATOM     52  C   UNL A   1      40.878  28.322  30.530  1.00  0.00     0.031 C 
ATOM     53  C   UNL A   1      43.369  30.438  27.547  1.00  0.00     0.029 A 
ATOM     54  N   UNL A   1      43.403  32.350  28.659  1.00  0.00    -0.354 N 
ATOM     55  C   UNL A   1      41.889  26.936  29.010  1.00  0.00     0.074 A 
ATOM     56  C   UNL A   1      40.885  27.082  30.028  1.00  0.00     0.031 C 
ATOM     57  C   UNL A   1      44.114  31.300  26.849  1.00  0.00     0.029 A 
ATOM     58  C   UNL A   1      44.444  32.374  27.726  1.00  0.00     0.049 A 
ATOM     59  H   UNL A   1      43.081  33.133  29.160  1.00  0.00     0.167 HD
ATOM     60  C   UNL A   1      42.203  25.987  28.072  1.00  0.00     0.031 A 
ATOM     61  C   UNL A   1      45.751  32.587  28.074  1.00  0.00     0.031 A 
ATOM     62  C   UNL A   1      43.372  26.385  27.274  1.00  0.00     0.049 A 
ATOM     63  C   UNL A   1      46.592  31.304  27.975  1.00  0.00     0.074 A 
ATOM     64  C   UNL A   1      43.617  26.528  25.920  1.00  0.00     0.029 A 
ATOM     65  N   UNL A   1      44.494  26.894  27.927  1.00  0.00    -0.354 N 
ATOM     66  N   UNL A   1      46.079  30.098  28.106  1.00  0.00    -0.248 NA
ATOM     67  C   UNL A   1      47.995  31.249  27.559  1.00  0.00     0.031 C 
ATOM     68  C   UNL A   1      44.865  27.188  25.776  1.00  0.00     0.029 A 
ATOM     69  C   UNL A   1      45.387  27.434  27.037  1.00  0.00     0.049 A 
ATOM     70  H   UNL A   1      44.628  26.869  28.902  1.00  0.00     0.167 HD
ATOM     71  C   UNL A   1      46.985  29.157  27.684  1.00  0.00     0.074 A 
ATOM     72  C   UNL A   1      48.190  29.922  27.412  1.00  0.00     0.031 C 
ATOM     73  C   UNL A   1      46.714  27.830  27.480  1.00  0.00     0.031 A 
BRANCH  60  74
ATOM     74  C   UNL A   1      41.377  24.752  27.712  1.00  0.00    -0.014 A 
ATOM     75  C   UNL A   1      41.823  23.473  28.118  1.00  0.00     0.009 A 
ATOM     76  C   UNL A   1      40.210  24.746  26.929  1.00  0.00     0.009 A 
ATOM     77  C   UNL A   1      41.181  22.280  27.745  1.00  0.00     0.001 A 
ATOM     78  C   UNL A   1      39.538  23.558  26.577  1.00  0.00     0.001 A 
ATOM     79  C   UNL A   1      40.030  22.323  26.975  1.00  0.00     0.000 A 
ENDBRANCH  60  74
BRANCH  61  80
ATOM     80  C   UNL A   1      45.875  33.850  28.871  1.00  0.00    -0.014 A 
ATOM     81  C   UNL A   1      45.830  33.610  30.268  1.00  0.00     0.009 A 
ATOM     82  C   UNL A   1      46.771  34.828  28.408  1.00  0.00     0.009 A 
ATOM     83  C   UNL A   1      46.887  34.022  31.090  1.00  0.00     0.001 A 
ATOM     84  C   UNL A   1      47.810  35.269  29.249  1.00  0.00     0.001 A 
ATOM     85  C   UNL A   1      47.912  34.798  30.560  1.00  0.00     0.000 A 
ENDBRANCH  61  80
BRANCH  73  86
ATOM     86  C   UNL A   1      47.704  26.698  27.678  1.00  0.00    -0.014 A 
ATOM     87  C   UNL A   1      48.355  26.044  26.631  1.00  0.00     0.009 A 
ATOM     88  C   UNL A   1      48.191  26.432  28.986  1.00  0.00     0.009 A 
ATOM     89  C   UNL A   1      49.426  25.172  26.875  1.00  0.00     0.001 A 
ATOM     90  C   UNL A   1      49.287  25.605  29.230  1.00  0.00     0.001 A 
ATOM     91  C   UNL A   1      49.903  24.970  28.167  1.00  0.00     0.000 A 
ENDBRANCH  73  86
ENDBRANCH  47  48
ENDBRANCH  40  42
ENDBRANCH  39  40
ENDBRANCH  38  39
ENDBRANCH  37  38
ENDBRANCH  36  37
ENDBRANCH  35  36
ENDBRANCH  34  35
ENDBRANCH  33  34
ENDBRANCH   1  33
TORSDOF 23
ENDMDL
MODEL 3
REMARK VINA RESULT:      -9.3      2.907      3.982
REMARK SMILES Cc1cccc(CC(=O)N2CCC3(CCC(=O)N([C@H](C)C(=O)OCCOCCOCCOCCOC(=O)c4ccc(-c5c6nc(c(-c7ccccc7)c7ccc([nH]7)c(-c7ccccc7)c7nc(c(-c8ccccc8)c8ccc5[nH]8)C=C7)C=C6)cc4)C3)CC2)c1
REMARK SMILES IDX 28 1 27 2 26 3 25 4 24 5 23 6 21 7 22 8 19 9 20 10 18 11
REMARK SMILES IDX 8 12 9 13 10 14 11 15 88 16 12 17 87 18 13 19 14 20 86 21
REMARK SMILES IDX 15 22 16 23 17 24 7 25 6 26 1 27 2 28 3 29 89 30 4 31 5 32
REMARK SMILES IDX 29 33 30 34 31 35 32 36 33 37 34 38 35 39 36 40 37 41 38 42
REMARK SMILES IDX 39 43 85 44 40 45 84 46 41 47 42 48 43 49 78 50 44 51 83 52
REMARK SMILES IDX 77 53 79 54 45 55 82 56 76 57 75 58 46 60 68 61 53 62 67 63
REMARK SMILES IDX 54 64 57 65 66 66 80 67 55 68 56 69 65 71 81 72 58 73 47 74
REMARK SMILES IDX 48 75 52 76 49 77 51 78 50 79 69 80 70 81 74 82 71 83 73 84
REMARK SMILES IDX 72 85 59 86 60 87 64 88 61 89 63 90 62 91
REMARK H PARENT 79 59 57 70
REMARK Flexibility Score: inf
ROOT
ATOM      1  C   UNL A   1      37.068  31.265  28.768  1.00  0.00     0.188 C 
ENDROOT
BRANCH   1   2
ATOM      2  C   UNL A   1      36.676  30.166  27.758  1.00  0.00     0.188 C 
BRANCH   2   3
ATOM      3  O   UNL A   1      35.411  29.534  27.835  1.00  0.00    -0.376 OA
BRANCH   3   4
ATOM      4  C   UNL A   1      34.299  30.289  27.372  1.00  0.00     0.202 C 
BRANCH   4   5
ATOM      5  C   UNL A   1      33.062  29.534  26.891  1.00  0.00     0.261 C 
BRANCH   5   6
ATOM      6  O   UNL A   1      33.380  28.155  26.732  1.00  0.00    -0.462 OA
BRANCH   6   7
ATOM      7  C   UNL A   1      33.410  27.674  25.472  1.00  0.00     0.328 C 
ATOM      8  O   UNL A   1      34.028  28.143  24.538  1.00  0.00    -0.250 OA
BRANCH   7   9
ATOM      9  C   UNL A   1      32.687  26.331  25.438  1.00  0.00     0.192 C 
ATOM     10  C   UNL A   1      31.562  26.272  26.456  1.00  0.00     0.044 C 
BRANCH   9  11
ATOM     11  N   UNL A   1      32.308  26.004  24.066  1.00  0.00    -0.329 N 
ATOM     12  C   UNL A   1      33.012  19.990  25.156  1.00  0.00     0.226 C 
ATOM     13  O   UNL A   1      32.725  19.529  26.267  1.00  0.00    -0.275 OA
ATOM     14  N   UNL A   1      32.164  20.897  24.541  1.00  0.00    -0.342 N 
ATOM     15  C   UNL A   1      31.442  21.828  25.390  1.00  0.00     0.120 C 
ATOM     16  C   UNL A   1      32.076  21.211  23.121  1.00  0.00     0.120 C 
ATOM     17  C   UNL A   1      32.053  23.214  25.178  1.00  0.00     0.030 C 
ATOM     18  C   UNL A   1      32.769  22.528  22.854  1.00  0.00     0.030 C 
ATOM     19  C   UNL A   1      32.105  23.637  23.672  1.00  0.00    -0.008 C 
ATOM     20  C   UNL A   1      30.667  23.917  23.127  1.00  0.00     0.019 C 
ATOM     21  C   UNL A   1      32.978  24.892  23.467  1.00  0.00     0.127 C 
ATOM     22  C   UNL A   1      30.070  25.188  23.710  1.00  0.00     0.101 C 
ATOM     23  C   UNL A   1      31.090  26.269  23.467  1.00  0.00     0.223 C 
ATOM     24  O   UNL A   1      30.957  27.020  22.508  1.00  0.00    -0.275 OA
BRANCH  12  25
ATOM     25  C   UNL A   1      34.430  19.767  24.625  1.00  0.00     0.135 C 
BRANCH  25  26
ATOM     26  C   UNL A   1      35.518  20.722  25.038  1.00  0.00    -0.038 A 
ATOM     27  C   UNL A   1      35.844  24.454  25.752  1.00  0.00     0.044 C 
ATOM     28  C   UNL A   1      36.195  23.014  25.515  1.00  0.00    -0.051 A 
ATOM     29  C   UNL A   1      37.533  22.625  25.391  1.00  0.00     0.003 A 
ATOM     30  C   UNL A   1      35.194  22.049  25.367  1.00  0.00     0.007 A 
ATOM     31  C   UNL A   1      37.865  21.290  25.153  1.00  0.00     0.001 A 
ATOM     32  C   UNL A   1      36.862  20.332  24.999  1.00  0.00     0.004 A 
ENDBRANCH  25  26
ENDBRANCH  12  25
ENDBRANCH   9  11
ENDBRANCH   7   9
ENDBRANCH   6   7
ENDBRANCH   5   6
ENDBRANCH   4   5
ENDBRANCH   3   4
ENDBRANCH   2   3
ENDBRANCH   1   2
BRANCH   1  33
ATOM     33  O   UNL A   1      36.629  32.603  28.577  1.00  0.00    -0.377 OA
BRANCH  33  34
ATOM     34  C   UNL A   1      36.001  33.290  29.656  1.00  0.00     0.188 C 
BRANCH  34  35
ATOM     35  C   UNL A   1      34.727  32.662  30.194  1.00  0.00     0.188 C 
BRANCH  35  36
ATOM     36  O   UNL A   1      34.388  33.331  31.406  1.00  0.00    -0.376 OA
BRANCH  36  37
ATOM     37  C   UNL A   1      34.785  34.693  31.526  1.00  0.00     0.202 C 
BRANCH  37  38
ATOM     38  C   UNL A   1      34.837  35.199  32.969  1.00  0.00     0.261 C 
BRANCH  38  39
ATOM     39  O   UNL A   1      36.077  34.786  33.579  1.00  0.00    -0.460 OA
BRANCH  39  40
ATOM     40  C   UNL A   1      35.960  33.839  34.549  1.00  0.00     0.338 C 
ATOM     41  O   UNL A   1      35.315  33.964  35.579  1.00  0.00    -0.246 OA
BRANCH  40  42
ATOM     42  C   UNL A   1      36.973  32.757  34.339  1.00  0.00     0.060 A 
ATOM     43  C   UNL A   1      38.202  32.803  35.021  1.00  0.00     0.016 A 
ATOM     44  C   UNL A   1      36.858  31.972  33.203  1.00  0.00     0.016 A 
ATOM     45  C   UNL A   1      39.354  32.227  34.451  1.00  0.00     0.010 A 
ATOM     46  C   UNL A   1      38.015  31.531  32.592  1.00  0.00     0.010 A 
ATOM     47  C   UNL A   1      39.285  31.672  33.174  1.00  0.00    -0.014 A 
BRANCH  47  48
ATOM     48  C   UNL A   1      40.427  31.368  32.276  1.00  0.00     0.031 A 
ATOM     49  C   UNL A   1      40.639  29.949  31.805  1.00  0.00     0.074 A 
ATOM     50  C   UNL A   1      41.016  32.389  31.600  1.00  0.00     0.049 A 
ATOM     51  N   UNL A   1      41.448  29.573  30.874  1.00  0.00    -0.248 NA
ATOM     52  C   UNL A   1      39.904  28.804  32.352  1.00  0.00     0.031 C 
ATOM     53  C   UNL A   1      41.562  32.323  30.242  1.00  0.00     0.029 A 
ATOM     54  N   UNL A   1      41.175  33.732  31.902  1.00  0.00    -0.354 N 
ATOM     55  C   UNL A   1      41.137  28.279  30.491  1.00  0.00     0.074 A 
ATOM     56  C   UNL A   1      40.199  27.829  31.484  1.00  0.00     0.031 C 
ATOM     57  C   UNL A   1      42.011  33.525  29.868  1.00  0.00     0.029 A 
ATOM     58  C   UNL A   1      42.110  34.320  31.046  1.00  0.00     0.049 A 
ATOM     59  H   UNL A   1      40.695  34.206  32.619  1.00  0.00     0.167 HD
ATOM     60  C   UNL A   1      41.623  27.788  29.309  1.00  0.00     0.031 A 
ATOM     61  C   UNL A   1      43.338  34.754  31.470  1.00  0.00     0.031 A 
ATOM     62  C   UNL A   1      42.594  28.708  28.701  1.00  0.00     0.049 A 
ATOM     63  C   UNL A   1      44.473  33.838  30.986  1.00  0.00     0.074 A 
ATOM     64  C   UNL A   1      42.704  29.324  27.467  1.00  0.00     0.029 A 
ATOM     65  N   UNL A   1      43.587  29.269  29.503  1.00  0.00    -0.354 N 
ATOM     66  N   UNL A   1      44.299  32.560  30.719  1.00  0.00    -0.248 NA
ATOM     67  C   UNL A   1      45.813  34.289  30.602  1.00  0.00     0.031 C 
ATOM     68  C   UNL A   1      43.726  30.304  27.564  1.00  0.00     0.029 A 
ATOM     69  C   UNL A   1      44.249  30.276  28.848  1.00  0.00     0.049 A 
ATOM     70  H   UNL A   1      43.787  28.979  30.423  1.00  0.00     0.167 HD
ATOM     71  C   UNL A   1      45.387  32.072  30.039  1.00  0.00     0.074 A 
ATOM     72  C   UNL A   1      46.333  33.175  30.047  1.00  0.00     0.031 C 
ATOM     73  C   UNL A   1      45.456  30.853  29.420  1.00  0.00     0.031 A 
BRANCH  60  74
ATOM     74  C   UNL A   1      41.122  26.552  28.560  1.00  0.00    -0.014 A 
ATOM     75  C   UNL A   1      39.833  26.564  27.979  1.00  0.00     0.009 A 
ATOM     76  C   UNL A   1      41.808  25.330  28.443  1.00  0.00     0.009 A 
ATOM     77  C   UNL A   1      39.257  25.441  27.362  1.00  0.00     0.001 A 
ATOM     78  C   UNL A   1      41.252  24.207  27.796  1.00  0.00     0.001 A 
ATOM     79  C   UNL A   1      39.972  24.258  27.266  1.00  0.00     0.000 A 
ENDBRANCH  60  74
BRANCH  61  80
ATOM     80  C   UNL A   1      43.183  35.692  32.627  1.00  0.00    -0.014 A 
ATOM     81  C   UNL A   1      43.688  35.144  33.834  1.00  0.00     0.009 A 
ATOM     82  C   UNL A   1      43.404  37.061  32.392  1.00  0.00     0.009 A 
ATOM     83  C   UNL A   1      44.687  35.816  34.551  1.00  0.00     0.001 A 
ATOM     84  C   UNL A   1      44.382  37.742  33.141  1.00  0.00     0.001 A 
ATOM     85  C   UNL A   1      45.079  37.091  34.161  1.00  0.00     0.000 A 
ENDBRANCH  61  80
BRANCH  73  86
ATOM     86  C   UNL A   1      46.715  30.021  29.269  1.00  0.00    -0.014 A 
ATOM     87  C   UNL A   1      47.997  30.564  29.175  1.00  0.00     0.009 A 
ATOM     88  C   UNL A   1      46.640  28.617  29.473  1.00  0.00     0.009 A 
ATOM     89  C   UNL A   1      49.137  29.754  29.274  1.00  0.00     0.001 A 
ATOM     90  C   UNL A   1      47.770  27.814  29.621  1.00  0.00     0.001 A 
ATOM     91  C   UNL A   1      49.024  28.387  29.516  1.00  0.00     0.000 A 
ENDBRANCH  73  86
ENDBRANCH  47  48
ENDBRANCH  40  42
ENDBRANCH  39  40
ENDBRANCH  38  39
ENDBRANCH  37  38
ENDBRANCH  36  37
ENDBRANCH  35  36
ENDBRANCH  34  35
ENDBRANCH  33  34
ENDBRANCH   1  33
TORSDOF 23
ENDMDL
