MODEL 1
REMARK VINA RESULT:      -9.3      0.000      0.000
REMARK SMILES COc1ccc(NC(=O)NCc2ccc(C(=O)OCCOCCOCCOCCOC(=O)c3ccc(-c4c5nc(c(-c6ccccc6)c6ccc([nH]6)c(-c6ccccc6)c6nc(c(-c7ccccc7)c7ccc4[nH]7)C=C6)C=C5)cc3)cc2)c(OC)c1
REMARK SMILES IDX 23 1 22 2 21 3 20 4 19 5 18 6 16 7 17 8 15 9 12 10 13 11
REMARK SMILES IDX 82 12 14 13 81 14 11 15 10 16 7 17 8 18 9 20 6 22 3 23 4 24
REMARK SMILES IDX 86 25 5 26 83 27 2 28 1 29 84 30 85 31 24 32 25 33 26 34
REMARK SMILES IDX 27 35 28 36 29 37 30 38 31 39 32 40 33 41 34 42 80 43 35 44
REMARK SMILES IDX 79 45 36 46 37 47 38 48 73 49 39 50 78 51 72 52 74 53 40 54
REMARK SMILES IDX 77 55 71 56 70 57 41 59 63 60 48 61 62 62 49 63 52 64 61 65
REMARK SMILES IDX 75 66 50 67 51 68 60 70 76 71 53 72 42 73 43 74 47 75 44 76
REMARK SMILES IDX 46 77 45 78 64 79 65 80 69 81 66 82 68 83 67 84 54 85 55 86
REMARK SMILES IDX 59 87 56 88 58 89 57 90
REMARK H PARENT 7 19 10 21 74 58 52 69
REMARK Flexibility Score: inf
ROOT
ATOM      1  C   UNL A   1      38.637  22.673  26.138  1.00  0.00     0.188 C 
ENDROOT
BRANCH   1   2
ATOM      2  C   UNL A   1      37.380  22.158  25.402  1.00  0.00     0.188 C 
BRANCH   2   3
ATOM      3  O   UNL A   1      37.265  20.743  25.361  1.00  0.00    -0.376 OA
BRANCH   3   4
ATOM      4  C   UNL A   1      36.061  20.178  24.871  1.00  0.00     0.202 C 
BRANCH   4   5
ATOM      5  C   UNL A   1      34.769  20.810  25.396  1.00  0.00     0.261 C 
BRANCH   5   6
ATOM      6  O   UNL A   1      33.934  21.372  24.380  1.00  0.00    -0.460 OA
BRANCH   6   7
ATOM      7  C   UNL A   1      32.609  21.093  24.425  1.00  0.00     0.338 C 
ATOM      8  O   UNL A   1      32.096  19.996  24.547  1.00  0.00    -0.246 OA
BRANCH   7   9
ATOM      9  C   UNL A   1      31.899  22.391  24.517  1.00  0.00     0.060 A 
ATOM     10  C   UNL A   1      30.361  24.729  24.686  1.00  0.00    -0.029 A 
ATOM     11  C   UNL A   1      30.685  24.211  23.434  1.00  0.00     0.006 A 
ATOM     12  C   UNL A   1      30.817  24.059  25.845  1.00  0.00     0.006 A 
ATOM     13  C   UNL A   1      31.455  23.039  23.351  1.00  0.00     0.016 A 
ATOM     14  C   UNL A   1      31.575  22.906  25.769  1.00  0.00     0.016 A 
BRANCH  10  15
ATOM     15  C   UNL A   1      29.687  26.035  24.980  1.00  0.00     0.153 C 
BRANCH  15  16
ATOM     16  N   UNL A   1      28.989  26.812  24.002  1.00  0.00    -0.334 N 
ATOM     17  N   UNL A   1      30.723  28.362  23.405  1.00  0.00    -0.305 N 
ATOM     18  C   UNL A   1      29.469  27.847  23.263  1.00  0.00     0.319 C 
ATOM     19  H   UNL A   1      30.826  29.248  22.989  1.00  0.00     0.172 HD
ATOM     20  O   UNL A   1      28.679  28.421  22.505  1.00  0.00    -0.248 OA
ATOM     21  H   UNL A   1      28.048  26.568  23.846  1.00  0.00     0.165 HD
BRANCH  17  22
ATOM     22  C   UNL A   1      31.907  27.903  24.020  1.00  0.00     0.085 A 
ATOM     23  C   UNL A   1      33.836  26.484  25.479  1.00  0.00     0.122 A 
ATOM     24  C   UNL A   1      33.798  26.395  24.087  1.00  0.00     0.049 A 
ATOM     25  C   UNL A   1      33.035  27.429  26.117  1.00  0.00     0.095 A 
ATOM     26  C   UNL A   1      32.857  27.129  23.356  1.00  0.00     0.034 A 
ATOM     27  C   UNL A   1      32.115  28.185  25.377  1.00  0.00     0.146 A 
BRANCH  23  28
ATOM     28  O   UNL A   1      34.697  25.619  26.095  1.00  0.00    -0.497 OA
ATOM     29  C   UNL A   1      35.104  24.481  25.340  1.00  0.00     0.278 C 
ENDBRANCH  23  28
BRANCH  27  30
ATOM     30  O   UNL A   1      31.329  29.149  25.962  1.00  0.00    -0.494 OA
ATOM     31  C   UNL A   1      31.893  30.458  25.839  1.00  0.00     0.278 C 
ENDBRANCH  27  30
ENDBRANCH  17  22
ENDBRANCH  15  16
ENDBRANCH  10  15
ENDBRANCH   7   9
ENDBRANCH   6   7
ENDBRANCH   5   6
ENDBRANCH   4   5
ENDBRANCH   3   4
ENDBRANCH   2   3
ENDBRANCH   1   2
BRANCH   1  32
ATOM     32  O   UNL A   1      39.888  22.034  25.919  1.00  0.00    -0.377 OA
BRANCH  32  33
ATOM     33  C   UNL A   1      40.455  21.215  26.939  1.00  0.00     0.188 C 
BRANCH  33  34
ATOM     34  C   UNL A   1      41.694  20.329  26.667  1.00  0.00     0.188 C 
BRANCH  34  35
ATOM     35  O   UNL A   1      42.401  20.658  25.485  1.00  0.00    -0.376 OA
BRANCH  35  36
ATOM     36  C   UNL A   1      43.445  21.608  25.586  1.00  0.00     0.202 C 
BRANCH  36  37
ATOM     37  C   UNL A   1      43.084  23.062  25.262  1.00  0.00     0.261 C 
BRANCH  37  38
ATOM     38  O   UNL A   1      44.181  23.930  24.935  1.00  0.00    -0.460 OA
BRANCH  38  39
ATOM     39  C   UNL A   1      45.032  24.263  25.929  1.00  0.00     0.338 C 
ATOM     40  O   UNL A   1      46.237  24.088  25.965  1.00  0.00    -0.246 OA
BRANCH  39  41
ATOM     41  C   UNL A   1      44.264  25.059  26.909  1.00  0.00     0.060 A 
ATOM     42  C   UNL A   1      44.353  26.457  26.888  1.00  0.00     0.016 A 
ATOM     43  C   UNL A   1      43.434  24.415  27.830  1.00  0.00     0.016 A 
ATOM     44  C   UNL A   1      43.626  27.217  27.806  1.00  0.00     0.010 A 
ATOM     45  C   UNL A   1      42.727  25.173  28.763  1.00  0.00     0.010 A 
ATOM     46  C   UNL A   1      42.843  26.575  28.775  1.00  0.00    -0.014 A 
BRANCH  46  47
ATOM     47  C   UNL A   1      42.307  27.341  29.925  1.00  0.00     0.031 A 
ATOM     48  C   UNL A   1      41.014  28.086  29.736  1.00  0.00     0.074 A 
ATOM     49  C   UNL A   1      42.947  27.380  31.106  1.00  0.00     0.049 A 
ATOM     50  N   UNL A   1      40.384  28.877  30.565  1.00  0.00    -0.248 NA
ATOM     51  C   UNL A   1      40.349  27.920  28.434  1.00  0.00     0.031 C 
ATOM     52  C   UNL A   1      44.179  26.665  31.430  1.00  0.00     0.029 A 
ATOM     53  N   UNL A   1      42.643  28.067  32.256  1.00  0.00    -0.354 N 
ATOM     54  C   UNL A   1      39.255  29.310  29.881  1.00  0.00     0.074 A 
ATOM     55  C   UNL A   1      39.302  28.720  28.562  1.00  0.00     0.031 C 
ATOM     56  C   UNL A   1      44.532  26.958  32.694  1.00  0.00     0.029 A 
ATOM     57  C   UNL A   1      43.574  27.911  33.253  1.00  0.00     0.049 A 
ATOM     58  H   UNL A   1      41.833  28.619  32.356  1.00  0.00     0.167 HD
ATOM     59  C   UNL A   1      38.262  30.122  30.313  1.00  0.00     0.031 A 
ATOM     60  C   UNL A   1      43.655  28.491  34.467  1.00  0.00     0.031 A 
ATOM     61  C   UNL A   1      38.225  30.722  31.619  1.00  0.00     0.049 A 
ATOM     62  C   UNL A   1      42.587  29.469  34.891  1.00  0.00     0.074 A 
ATOM     63  C   UNL A   1      37.254  31.546  32.159  1.00  0.00     0.029 A 
ATOM     64  N   UNL A   1      39.209  30.571  32.584  1.00  0.00    -0.354 N 
ATOM     65  N   UNL A   1      41.507  29.845  34.250  1.00  0.00    -0.248 NA
ATOM     66  C   UNL A   1      42.751  30.099  36.211  1.00  0.00     0.031 C 
ATOM     67  C   UNL A   1      37.684  31.949  33.427  1.00  0.00     0.029 A 
ATOM     68  C   UNL A   1      38.886  31.317  33.703  1.00  0.00     0.049 A 
ATOM     69  H   UNL A   1      40.015  30.015  32.486  1.00  0.00     0.167 HD
ATOM     70  C   UNL A   1      40.848  30.727  35.099  1.00  0.00     0.074 A 
ATOM     71  C   UNL A   1      41.644  30.823  36.305  1.00  0.00     0.031 C 
ATOM     72  C   UNL A   1      39.686  31.397  34.899  1.00  0.00     0.031 A 
BRANCH  59  73
ATOM     73  C   UNL A   1      37.158  30.442  29.345  1.00  0.00    -0.014 A 
ATOM     74  C   UNL A   1      36.199  29.482  28.985  1.00  0.00     0.009 A 
ATOM     75  C   UNL A   1      37.060  31.734  28.807  1.00  0.00     0.009 A 
ATOM     76  C   UNL A   1      35.186  29.801  28.077  1.00  0.00     0.001 A 
ATOM     77  C   UNL A   1      36.028  32.060  27.926  1.00  0.00     0.001 A 
ATOM     78  C   UNL A   1      35.099  31.090  27.553  1.00  0.00     0.000 A 
ENDBRANCH  59  73
BRANCH  60  79
ATOM     79  C   UNL A   1      44.802  28.191  35.365  1.00  0.00    -0.014 A 
ATOM     80  C   UNL A   1      45.897  29.066  35.445  1.00  0.00     0.009 A 
ATOM     81  C   UNL A   1      44.820  27.014  36.129  1.00  0.00     0.009 A 
ATOM     82  C   UNL A   1      46.996  28.753  36.249  1.00  0.00     0.001 A 
ATOM     83  C   UNL A   1      45.906  26.719  36.956  1.00  0.00     0.001 A 
ATOM     84  C   UNL A   1      46.998  27.583  37.008  1.00  0.00     0.000 A 
ENDBRANCH  60  79
BRANCH  72  85
ATOM     85  C   UNL A   1      39.175  32.262  36.017  1.00  0.00    -0.014 A 
ATOM     86  C   UNL A   1      39.564  33.605  36.141  1.00  0.00     0.009 A 
ATOM     87  C   UNL A   1      38.228  31.744  36.915  1.00  0.00     0.009 A 
ATOM     88  C   UNL A   1      39.033  34.403  37.157  1.00  0.00     0.001 A 
ATOM     89  C   UNL A   1      37.674  32.552  37.909  1.00  0.00     0.001 A 
ATOM     90  C   UNL A   1      38.082  33.879  38.033  1.00  0.00     0.000 A 
ENDBRANCH  72  85
ENDBRANCH  46  47
ENDBRANCH  39  41
ENDBRANCH  38  39
ENDBRANCH  37  38
ENDBRANCH  36  37
ENDBRANCH  35  36
ENDBRANCH  34  35
ENDBRANCH  33  34
ENDBRANCH  32  33
ENDBRANCH   1  32
TORSDOF 25
ENDMDL
MODEL 2
REMARK VINA RESULT:      -8.8      6.186      9.736
REMARK SMILES COc1ccc(NC(=O)NCc2ccc(C(=O)OCCOCCOCCOCCOC(=O)c3ccc(-c4c5nc(c(-c6ccccc6)c6ccc([nH]6)c(-c6ccccc6)c6nc(c(-c7ccccc7)c7ccc4[nH]7)C=C6)C=C5)cc3)cc2)c(OC)c1
REMARK SMILES IDX 23 1 22 2 21 3 20 4 19 5 18 6 16 7 17 8 15 9 12 10 13 11
REMARK SMILES IDX 82 12 14 13 81 14 11 15 10 16 7 17 8 18 9 20 6 22 3 23 4 24
REMARK SMILES IDX 86 25 5 26 83 27 2 28 1 29 84 30 85 31 24 32 25 33 26 34
REMARK SMILES IDX 27 35 28 36 29 37 30 38 31 39 32 40 33 41 34 42 80 43 35 44
REMARK SMILES IDX 79 45 36 46 37 47 38 48 73 49 39 50 78 51 72 52 74 53 40 54
REMARK SMILES IDX 77 55 71 56 70 57 41 59 63 60 48 61 62 62 49 63 52 64 61 65
REMARK SMILES IDX 75 66 50 67 51 68 60 70 76 71 53 72 42 73 43 74 47 75 44 76
REMARK SMILES IDX 46 77 45 78 64 79 65 80 69 81 66 82 68 83 67 84 54 85 55 86
REMARK SMILES IDX 59 87 56 88 58 89 57 90
REMARK H PARENT 7 19 10 21 74 58 52 69
REMARK Flexibility Score: inf
ROOT
ATOM      1  C   UNL A   1      38.462  23.644  26.596  1.00  0.00     0.188 C 
ENDROOT
BRANCH   1   2
ATOM      2  C   UNL A   1      37.186  23.172  25.864  1.00  0.00     0.188 C 
BRANCH   2   3
ATOM      3  O   UNL A   1      37.162  21.784  25.565  1.00  0.00    -0.376 OA
BRANCH   3   4
ATOM      4  C   UNL A   1      36.012  21.249  24.933  1.00  0.00     0.202 C 
BRANCH   4   5
ATOM      5  C   UNL A   1      34.688  21.943  25.266  1.00  0.00     0.261 C 
BRANCH   5   6
ATOM      6  O   UNL A   1      34.165  22.752  24.208  1.00  0.00    -0.460 OA
BRANCH   6   7
ATOM      7  C   UNL A   1      32.931  22.455  23.737  1.00  0.00     0.338 C 
ATOM      8  O   UNL A   1      32.469  21.347  23.539  1.00  0.00    -0.246 OA
BRANCH   7   9
ATOM      9  C   UNL A   1      32.164  23.724  23.713  1.00  0.00     0.060 A 
ATOM     10  C   UNL A   1      30.537  26.004  23.591  1.00  0.00    -0.029 A 
ATOM     11  C   UNL A   1      31.253  25.612  22.462  1.00  0.00     0.006 A 
ATOM     12  C   UNL A   1      30.648  25.239  24.775  1.00  0.00     0.006 A 
ATOM     13  C   UNL A   1      32.067  24.469  22.524  1.00  0.00     0.016 A 
ATOM     14  C   UNL A   1      31.448  24.113  24.841  1.00  0.00     0.016 A 
BRANCH  10  15
ATOM     15  C   UNL A   1      29.742  27.263  23.769  1.00  0.00     0.153 C 
BRANCH  15  16
ATOM     16  N   UNL A   1      29.347  28.118  22.691  1.00  0.00    -0.334 N 
ATOM     17  N   UNL A   1      31.147  29.706  22.756  1.00  0.00    -0.305 N 
ATOM     18  C   UNL A   1      30.002  29.208  22.210  1.00  0.00     0.319 C 
ATOM     19  H   UNL A   1      31.349  30.622  22.458  1.00  0.00     0.172 HD
ATOM     20  O   UNL A   1      29.459  29.842  21.300  1.00  0.00    -0.248 OA
ATOM     21  H   UNL A   1      28.499  27.890  22.246  1.00  0.00     0.165 HD
BRANCH  17  22
ATOM     22  C   UNL A   1      32.107  29.195  23.655  1.00  0.00     0.085 A 
ATOM     23  C   UNL A   1      33.519  27.698  25.559  1.00  0.00     0.122 A 
ATOM     24  C   UNL A   1      33.840  27.600  24.205  1.00  0.00     0.049 A 
ATOM     25  C   UNL A   1      32.627  28.685  25.971  1.00  0.00     0.095 A 
ATOM     26  C   UNL A   1      33.159  28.372  23.258  1.00  0.00     0.034 A 
ATOM     27  C   UNL A   1      31.968  29.479  25.021  1.00  0.00     0.146 A 
BRANCH  23  28
ATOM     28  O   UNL A   1      34.148  26.798  26.374  1.00  0.00    -0.497 OA
ATOM     29  C   UNL A   1      34.547  25.568  25.775  1.00  0.00     0.278 C 
ENDBRANCH  23  28
BRANCH  27  30
ATOM     30  O   UNL A   1      31.104  30.484  25.386  1.00  0.00    -0.494 OA
ATOM     31  C   UNL A   1      31.618  31.276  26.461  1.00  0.00     0.278 C 
ENDBRANCH  27  30
ENDBRANCH  17  22
ENDBRANCH  15  16
ENDBRANCH  10  15
ENDBRANCH   7   9
ENDBRANCH   6   7
ENDBRANCH   5   6
ENDBRANCH   4   5
ENDBRANCH   3   4
ENDBRANCH   2   3
ENDBRANCH   1   2
BRANCH   1  32
ATOM     32  O   UNL A   1      39.711  23.042  26.285  1.00  0.00    -0.377 OA
BRANCH  32  33
ATOM     33  C   UNL A   1      40.075  21.805  26.893  1.00  0.00     0.188 C 
BRANCH  33  34
ATOM     34  C   UNL A   1      41.167  20.896  26.280  1.00  0.00     0.188 C 
BRANCH  34  35
ATOM     35  O   UNL A   1      42.171  21.588  25.561  1.00  0.00    -0.376 OA
BRANCH  35  36
ATOM     36  C   UNL A   1      43.517  21.379  25.943  1.00  0.00     0.202 C 
BRANCH  36  37
ATOM     37  C   UNL A   1      44.211  22.536  26.673  1.00  0.00     0.261 C 
BRANCH  37  38
ATOM     38  O   UNL A   1      43.662  22.899  27.949  1.00  0.00    -0.460 OA
BRANCH  38  39
ATOM     39  C   UNL A   1      43.022  24.084  28.040  1.00  0.00     0.338 C 
ATOM     40  O   UNL A   1      41.902  24.292  28.475  1.00  0.00    -0.246 OA
BRANCH  39  41
ATOM     41  C   UNL A   1      43.999  25.134  27.685  1.00  0.00     0.060 A 
ATOM     42  C   UNL A   1      44.852  25.649  28.670  1.00  0.00     0.016 A 
ATOM     43  C   UNL A   1      44.085  25.586  26.366  1.00  0.00     0.016 A 
ATOM     44  C   UNL A   1      45.782  26.637  28.342  1.00  0.00     0.010 A 
ATOM     45  C   UNL A   1      44.998  26.589  26.043  1.00  0.00     0.010 A 
ATOM     46  C   UNL A   1      45.829  27.141  27.036  1.00  0.00    -0.014 A 
BRANCH  46  47
ATOM     47  C   UNL A   1      46.594  28.376  26.742  1.00  0.00     0.031 A 
ATOM     48  C   UNL A   1      48.065  28.246  26.459  1.00  0.00     0.074 A 
ATOM     49  C   UNL A   1      46.004  29.584  26.730  1.00  0.00     0.049 A 
ATOM     50  N   UNL A   1      48.955  29.180  26.244  1.00  0.00    -0.248 NA
ATOM     51  C   UNL A   1      48.603  26.876  26.418  1.00  0.00     0.031 C 
ATOM     52  C   UNL A   1      44.581  29.838  26.942  1.00  0.00     0.029 A 
ATOM     53  N   UNL A   1      46.545  30.831  26.536  1.00  0.00    -0.354 N 
ATOM     54  C   UNL A   1      50.158  28.511  26.054  1.00  0.00     0.074 A 
ATOM     55  C   UNL A   1      49.891  27.099  26.209  1.00  0.00     0.031 C 
ATOM     56  C   UNL A   1      44.362  31.163  26.876  1.00  0.00     0.029 A 
ATOM     57  C   UNL A   1      45.634  31.851  26.657  1.00  0.00     0.049 A 
ATOM     58  H   UNL A   1      47.497  30.980  26.330  1.00  0.00     0.167 HD
ATOM     59  C   UNL A   1      51.377  29.027  25.770  1.00  0.00     0.031 A 
ATOM     60  C   UNL A   1      45.812  33.186  26.620  1.00  0.00     0.031 A 
ATOM     61  C   UNL A   1      51.644  30.432  25.634  1.00  0.00     0.049 A 
ATOM     62  C   UNL A   1      47.198  33.741  26.398  1.00  0.00     0.074 A 
ATOM     63  C   UNL A   1      52.842  31.054  25.331  1.00  0.00     0.029 A 
ATOM     64  N   UNL A   1      50.701  31.434  25.805  1.00  0.00    -0.354 N 
ATOM     65  N   UNL A   1      48.322  33.101  26.186  1.00  0.00    -0.248 NA
ATOM     66  C   UNL A   1      47.335  35.206  26.408  1.00  0.00     0.031 C 
ATOM     67  C   UNL A   1      52.639  32.436  25.384  1.00  0.00     0.029 A 
ATOM     68  C   UNL A   1      51.299  32.672  25.650  1.00  0.00     0.049 A 
ATOM     69  H   UNL A   1      49.749  31.285  26.005  1.00  0.00     0.167 HD
ATOM     70  C   UNL A   1      49.291  34.081  26.005  1.00  0.00     0.074 A 
ATOM     71  C   UNL A   1      48.621  35.359  26.122  1.00  0.00     0.031 C 
ATOM     72  C   UNL A   1      50.617  33.936  25.762  1.00  0.00     0.031 A 
BRANCH  59  73
ATOM     73  C   UNL A   1      52.521  28.062  25.633  1.00  0.00    -0.014 A 
ATOM     74  C   UNL A   1      53.358  27.759  26.718  1.00  0.00     0.009 A 
ATOM     75  C   UNL A   1      52.746  27.424  24.403  1.00  0.00     0.009 A 
ATOM     76  C   UNL A   1      54.420  26.864  26.564  1.00  0.00     0.001 A 
ATOM     77  C   UNL A   1      53.788  26.506  24.261  1.00  0.00     0.001 A 
ATOM     78  C   UNL A   1      54.629  26.235  25.337  1.00  0.00     0.000 A 
ENDBRANCH  59  73
BRANCH  60  79
ATOM     79  C   UNL A   1      44.658  34.102  26.826  1.00  0.00    -0.014 A 
ATOM     80  C   UNL A   1      43.866  34.512  25.742  1.00  0.00     0.009 A 
ATOM     81  C   UNL A   1      44.359  34.594  28.106  1.00  0.00     0.009 A 
ATOM     82  C   UNL A   1      42.816  35.415  25.932  1.00  0.00     0.001 A 
ATOM     83  C   UNL A   1      43.290  35.472  28.299  1.00  0.00     0.001 A 
ATOM     84  C   UNL A   1      42.525  35.890  27.211  1.00  0.00     0.000 A 
ENDBRANCH  60  79
BRANCH  72  85
ATOM     85  C   UNL A   1      51.433  35.183  25.562  1.00  0.00    -0.014 A 
ATOM     86  C   UNL A   1      51.593  35.758  24.292  1.00  0.00     0.009 A 
ATOM     87  C   UNL A   1      51.984  35.836  26.677  1.00  0.00     0.009 A 
ATOM     88  C   UNL A   1      52.309  36.947  24.140  1.00  0.00     0.001 A 
ATOM     89  C   UNL A   1      52.671  37.041  26.527  1.00  0.00     0.001 A 
ATOM     90  C   UNL A   1      52.840  37.592  25.258  1.00  0.00     0.000 A 
ENDBRANCH  72  85
ENDBRANCH  46  47
ENDBRANCH  39  41
ENDBRANCH  38  39
ENDBRANCH  37  38
ENDBRANCH  36  37
ENDBRANCH  35  36
ENDBRANCH  34  35
ENDBRANCH  33  34
ENDBRANCH  32  33
ENDBRANCH   1  32
TORSDOF 25
ENDMDL
MODEL 3
REMARK VINA RESULT:      -8.6      4.797      8.971
REMARK SMILES COc1ccc(NC(=O)NCc2ccc(C(=O)OCCOCCOCCOCCOC(=O)c3ccc(-c4c5nc(c(-c6ccccc6)c6ccc([nH]6)c(-c6ccccc6)c6nc(c(-c7ccccc7)c7ccc4[nH]7)C=C6)C=C5)cc3)cc2)c(OC)c1
REMARK SMILES IDX 23 1 22 2 21 3 20 4 19 5 18 6 16 7 17 8 15 9 12 10 13 11
REMARK SMILES IDX 82 12 14 13 81 14 11 15 10 16 7 17 8 18 9 20 6 22 3 23 4 24
REMARK SMILES IDX 86 25 5 26 83 27 2 28 1 29 84 30 85 31 24 32 25 33 26 34
REMARK SMILES IDX 27 35 28 36 29 37 30 38 31 39 32 40 33 41 34 42 80 43 35 44
REMARK SMILES IDX 79 45 36 46 37 47 38 48 73 49 39 50 78 51 72 52 74 53 40 54
REMARK SMILES IDX 77 55 71 56 70 57 41 59 63 60 48 61 62 62 49 63 52 64 61 65
REMARK SMILES IDX 75 66 50 67 51 68 60 70 76 71 53 72 42 73 43 74 47 75 44 76
REMARK SMILES IDX 46 77 45 78 64 79 65 80 69 81 66 82 68 83 67 84 54 85 55 86
REMARK SMILES IDX 59 87 56 88 58 89 57 90
REMARK H PARENT 7 19 10 21 74 58 52 69
REMARK Flexibility Score: inf
ROOT
ATOM      1  C   UNL A   1      43.893  21.244  25.524  1.00  0.00     0.188 C 
ENDROOT
BRANCH   1   2
ATOM      2  C   UNL A   1      43.410  19.778  25.447  1.00  0.00     0.188 C 
BRANCH   2   3
ATOM      3  O   UNL A   1      42.604  19.369  26.542  1.00  0.00    -0.376 OA
BRANCH   3   4
ATOM      4  C   UNL A   1      41.648  20.282  27.054  1.00  0.00     0.202 C 
BRANCH   4   5
ATOM      5  C   UNL A   1      40.856  21.070  26.007  1.00  0.00     0.261 C 
BRANCH   5   6
ATOM      6  O   UNL A   1      39.474  21.252  26.328  1.00  0.00    -0.460 OA
BRANCH   6   7
ATOM      7  C   UNL A   1      38.555  20.775  25.455  1.00  0.00     0.338 C 
ATOM      8  O   UNL A   1      38.476  19.641  25.021  1.00  0.00    -0.246 OA
BRANCH   7   9
ATOM      9  C   UNL A   1      37.528  21.832  25.293  1.00  0.00     0.060 A 
ATOM     10  C   UNL A   1      35.710  23.912  24.814  1.00  0.00    -0.029 A 
ATOM     11  C   UNL A   1      36.791  24.129  25.665  1.00  0.00     0.006 A 
ATOM     12  C   UNL A   1      35.556  22.642  24.209  1.00  0.00     0.006 A 
ATOM     13  C   UNL A   1      37.701  23.087  25.904  1.00  0.00     0.016 A 
ATOM     14  C   UNL A   1      36.450  21.613  24.441  1.00  0.00     0.016 A 
BRANCH  10  15
ATOM     15  C   UNL A   1      34.559  24.837  24.554  1.00  0.00     0.153 C 
BRANCH  15  16
ATOM     16  N   UNL A   1      34.154  25.878  25.449  1.00  0.00    -0.334 N 
ATOM     17  N   UNL A   1      31.875  25.220  25.825  1.00  0.00    -0.305 N 
ATOM     18  C   UNL A   1      32.946  26.034  26.052  1.00  0.00     0.319 C 
ATOM     19  H   UNL A   1      31.025  25.608  26.133  1.00  0.00     0.172 HD
ATOM     20  O   UNL A   1      32.784  27.038  26.753  1.00  0.00    -0.248 OA
ATOM     21  H   UNL A   1      34.831  26.564  25.651  1.00  0.00     0.165 HD
BRANCH  17  22
ATOM     22  C   UNL A   1      31.720  23.944  25.245  1.00  0.00     0.085 A 
ATOM     23  C   UNL A   1      32.078  21.511  23.899  1.00  0.00     0.122 A 
ATOM     24  C   UNL A   1      32.073  21.551  25.293  1.00  0.00     0.049 A 
ATOM     25  C   UNL A   1      31.713  22.653  23.189  1.00  0.00     0.095 A 
ATOM     26  C   UNL A   1      31.860  22.759  25.966  1.00  0.00     0.034 A 
ATOM     27  C   UNL A   1      31.470  23.855  23.869  1.00  0.00     0.146 A 
BRANCH  23  28
ATOM     28  O   UNL A   1      32.434  20.309  23.351  1.00  0.00    -0.497 OA
ATOM     29  C   UNL A   1      33.019  19.357  24.235  1.00  0.00     0.278 C 
ENDBRANCH  23  28
BRANCH  27  30
ATOM     30  O   UNL A   1      31.078  24.996  23.210  1.00  0.00    -0.494 OA
ATOM     31  C   UNL A   1      31.960  25.332  22.135  1.00  0.00     0.278 C 
ENDBRANCH  27  30
ENDBRANCH  17  22
ENDBRANCH  15  16
ENDBRANCH  10  15
ENDBRANCH   7   9
ENDBRANCH   6   7
ENDBRANCH   5   6
ENDBRANCH   4   5
ENDBRANCH   3   4
ENDBRANCH   2   3
ENDBRANCH   1   2
BRANCH   1  32
ATOM     32  O   UNL A   1      45.280  21.532  25.400  1.00  0.00    -0.377 OA
BRANCH  32  33
ATOM     33  C   UNL A   1      45.811  22.725  25.972  1.00  0.00     0.188 C 
BRANCH  33  34
ATOM     34  C   UNL A   1      45.481  24.117  25.383  1.00  0.00     0.188 C 
BRANCH  34  35
ATOM     35  O   UNL A   1      44.273  24.683  25.858  1.00  0.00    -0.376 OA
BRANCH  35  36
ATOM     36  C   UNL A   1      43.228  24.882  24.925  1.00  0.00     0.202 C 
BRANCH  36  37
ATOM     37  C   UNL A   1      41.922  25.470  25.472  1.00  0.00     0.261 C 
BRANCH  37  38
ATOM     38  O   UNL A   1      41.162  24.619  26.345  1.00  0.00    -0.460 OA
BRANCH  38  39
ATOM     39  C   UNL A   1      40.716  25.151  27.503  1.00  0.00     0.338 C 
ATOM     40  O   UNL A   1      39.565  25.424  27.800  1.00  0.00    -0.246 OA
BRANCH  39  41
ATOM     41  C   UNL A   1      41.859  25.178  28.439  1.00  0.00     0.060 A 
ATOM     42  C   UNL A   1      42.269  26.396  28.997  1.00  0.00     0.016 A 
ATOM     43  C   UNL A   1      42.504  23.988  28.782  1.00  0.00     0.016 A 
ATOM     44  C   UNL A   1      43.344  26.429  29.887  1.00  0.00     0.010 A 
ATOM     45  C   UNL A   1      43.593  24.025  29.653  1.00  0.00     0.010 A 
ATOM     46  C   UNL A   1      44.037  25.249  30.185  1.00  0.00    -0.014 A 
BRANCH  46  47
ATOM     47  C   UNL A   1      45.342  25.309  30.884  1.00  0.00     0.031 A 
ATOM     48  C   UNL A   1      46.569  25.605  30.067  1.00  0.00     0.074 A 
ATOM     49  C   UNL A   1      45.442  25.104  32.209  1.00  0.00     0.049 A 
ATOM     50  N   UNL A   1      47.823  25.641  30.435  1.00  0.00    -0.248 NA
ATOM     51  C   UNL A   1      46.349  25.892  28.639  1.00  0.00     0.031 C 
ATOM     52  C   UNL A   1      44.325  24.855  33.118  1.00  0.00     0.029 A 
ATOM     53  N   UNL A   1      46.551  25.063  33.017  1.00  0.00    -0.354 N 
ATOM     54  C   UNL A   1      48.541  25.945  29.284  1.00  0.00     0.074 A 
ATOM     55  C   UNL A   1      47.588  26.051  28.202  1.00  0.00     0.031 C 
ATOM     56  C   UNL A   1      44.808  24.679  34.361  1.00  0.00     0.029 A 
ATOM     57  C   UNL A   1      46.268  24.763  34.327  1.00  0.00     0.049 A 
ATOM     58  H   UNL A   1      47.465  25.235  32.689  1.00  0.00     0.167 HD
ATOM     59  C   UNL A   1      49.875  26.124  29.142  1.00  0.00     0.031 A 
ATOM     60  C   UNL A   1      47.094  24.555  35.371  1.00  0.00     0.031 A 
ATOM     61  C   UNL A   1      50.823  26.000  30.215  1.00  0.00     0.049 A 
ATOM     62  C   UNL A   1      48.585  24.665  35.166  1.00  0.00     0.074 A 
ATOM     63  C   UNL A   1      52.194  26.179  30.176  1.00  0.00     0.029 A 
ATOM     64  N   UNL A   1      50.498  25.654  31.517  1.00  0.00    -0.354 N 
ATOM     65  N   UNL A   1      49.251  24.985  34.083  1.00  0.00    -0.248 NA
ATOM     66  C   UNL A   1      49.437  24.388  36.334  1.00  0.00     0.031 C 
ATOM     67  C   UNL A   1      52.707  25.875  31.440  1.00  0.00     0.029 A 
ATOM     68  C   UNL A   1      51.648  25.577  32.283  1.00  0.00     0.049 A 
ATOM     69  H   UNL A   1      49.585  25.488  31.847  1.00  0.00     0.167 HD
ATOM     70  C   UNL A   1      50.593  24.980  34.446  1.00  0.00     0.074 A 
ATOM     71  C   UNL A   1      50.647  24.635  35.851  1.00  0.00     0.031 C 
ATOM     72  C   UNL A   1      51.684  25.239  33.683  1.00  0.00     0.031 A 
BRANCH  59  73
ATOM     73  C   UNL A   1      50.388  26.430  27.763  1.00  0.00    -0.014 A 
ATOM     74  C   UNL A   1      50.766  25.408  26.879  1.00  0.00     0.009 A 
ATOM     75  C   UNL A   1      50.466  27.763  27.332  1.00  0.00     0.009 A 
ATOM     76  C   UNL A   1      51.247  25.717  25.604  1.00  0.00     0.001 A 
ATOM     77  C   UNL A   1      50.916  28.068  26.046  1.00  0.00     0.001 A 
ATOM     78  C   UNL A   1      51.316  27.046  25.188  1.00  0.00     0.000 A 
ENDBRANCH  59  73
BRANCH  60  79
ATOM     79  C   UNL A   1      46.542  24.190  36.703  1.00  0.00    -0.014 A 
ATOM     80  C   UNL A   1      46.197  25.185  37.632  1.00  0.00     0.009 A 
ATOM     81  C   UNL A   1      46.380  22.843  37.063  1.00  0.00     0.009 A 
ATOM     82  C   UNL A   1      45.729  24.836  38.902  1.00  0.00     0.001 A 
ATOM     83  C   UNL A   1      45.882  22.497  38.321  1.00  0.00     0.001 A 
ATOM     84  C   UNL A   1      45.567  23.494  39.244  1.00  0.00     0.000 A 
ENDBRANCH  60  79
BRANCH  72  85
ATOM     85  C   UNL A   1      53.030  25.204  34.352  1.00  0.00    -0.014 A 
ATOM     86  C   UNL A   1      53.811  24.038  34.367  1.00  0.00     0.009 A 
ATOM     87  C   UNL A   1      53.557  26.382  34.908  1.00  0.00     0.009 A 
ATOM     88  C   UNL A   1      55.081  24.047  34.946  1.00  0.00     0.001 A 
ATOM     89  C   UNL A   1      54.840  26.396  35.458  1.00  0.00     0.001 A 
ATOM     90  C   UNL A   1      55.598  25.226  35.483  1.00  0.00     0.000 A 
ENDBRANCH  72  85
ENDBRANCH  46  47
ENDBRANCH  39  41
ENDBRANCH  38  39
ENDBRANCH  37  38
ENDBRANCH  36  37
ENDBRANCH  35  36
ENDBRANCH  34  35
ENDBRANCH  33  34
ENDBRANCH  32  33
ENDBRANCH   1  32
TORSDOF 25
ENDMDL
