MODEL 1
REMARK VINA RESULT:      -8.1      0.000      0.000
REMARK SMILES CCOc1cc2nccc(Nc3ccc(C(=O)OCCOCCOCCOCCOC(=O)c4ccc(-c5c6nc(c(-c7ccccc7)c7ccc([nH]7)c(-c7ccccc7)c7nc(c(-c8ccccc8)c8ccc5[nH]8)C=C7)C=C6)cc4)cc3)c2cc1OCC
REMARK SMILES IDX 23 1 22 2 21 3 20 4 19 5 18 6 16 7 17 8 15 9 12 10 13 11
REMARK SMILES IDX 82 12 14 13 81 14 11 15 10 17 4 18 5 19 85 20 6 21 84 22
REMARK SMILES IDX 7 23 83 24 8 25 9 26 3 27 2 28 1 29 86 30 87 31 88 32 24 33
REMARK SMILES IDX 25 34 26 35 27 36 28 37 29 38 30 39 31 40 32 41 33 42 34 43
REMARK SMILES IDX 80 44 35 45 79 46 36 47 37 48 38 49 73 50 39 51 78 52 72 53
REMARK SMILES IDX 74 54 40 55 77 56 71 57 70 58 41 60 63 61 48 62 62 63 49 64
REMARK SMILES IDX 52 65 61 66 75 67 50 68 51 69 60 71 76 72 53 73 42 74 43 75
REMARK SMILES IDX 47 76 44 77 46 78 45 79 64 80 65 81 69 82 66 83 68 84 67 85
REMARK SMILES IDX 54 86 55 87 59 88 56 89 58 90 57 91
REMARK H PARENT 11 16 74 59 52 70
REMARK Flexibility Score: inf
ROOT
ATOM      1  C   UNL A   1      33.633  34.466  29.185  1.00  0.00     0.188 C 
ENDROOT
BRANCH   1   2
ATOM      2  C   UNL A   1      34.419  33.235  28.692  1.00  0.00     0.188 C 
BRANCH   2   3
ATOM      3  O   UNL A   1      35.701  33.527  28.148  1.00  0.00    -0.376 OA
BRANCH   3   4
ATOM      4  C   UNL A   1      36.804  33.413  29.036  1.00  0.00     0.202 C 
BRANCH   4   5
ATOM      5  C   UNL A   1      36.935  32.024  29.672  1.00  0.00     0.261 C 
BRANCH   5   6
ATOM      6  O   UNL A   1      38.051  31.266  29.185  1.00  0.00    -0.460 OA
BRANCH   6   7
ATOM      7  C   UNL A   1      37.749  30.218  28.390  1.00  0.00     0.338 C 
ATOM      8  O   UNL A   1      36.742  30.077  27.716  1.00  0.00    -0.246 OA
BRANCH   7   9
ATOM      9  C   UNL A   1      38.919  29.324  28.319  1.00  0.00     0.060 A 
ATOM     10  C   UNL A   1      41.033  27.518  28.075  1.00  0.00     0.038 A 
ATOM     11  C   UNL A   1      40.549  28.192  26.947  1.00  0.00     0.027 A 
ATOM     12  C   UNL A   1      40.507  27.822  29.335  1.00  0.00     0.027 A 
ATOM     13  C   UNL A   1      39.485  29.083  27.063  1.00  0.00     0.018 A 
ATOM     14  C   UNL A   1      39.457  28.730  29.464  1.00  0.00     0.018 A 
BRANCH  10  15
ATOM     15  N   UNL A   1      41.913  26.440  27.888  1.00  0.00    -0.355 N 
ATOM     16  H   UNL A   1      41.728  25.633  28.422  1.00  0.00     0.167 HD
BRANCH  15  17
ATOM     17  C   UNL A   1      43.040  26.369  27.023  1.00  0.00     0.050 A 
ATOM     18  C   UNL A   1      43.825  22.925  24.690  1.00  0.00     0.163 A 
ATOM     19  C   UNL A   1      44.686  24.029  24.675  1.00  0.00     0.079 A 
ATOM     20  C   UNL A   1      42.650  22.984  25.436  1.00  0.00     0.161 A 
ATOM     21  C   UNL A   1      44.417  25.180  25.411  1.00  0.00     0.076 A 
ATOM     22  C   UNL A   1      42.377  24.123  26.189  1.00  0.00     0.063 A 
ATOM     23  N   UNL A   1      45.294  26.195  25.354  1.00  0.00    -0.256 NA
ATOM     24  C   UNL A   1      43.254  25.226  26.211  1.00  0.00     0.028 A 
ATOM     25  C   UNL A   1      45.051  27.285  26.107  1.00  0.00     0.114 A 
ATOM     26  C   UNL A   1      43.959  27.417  26.941  1.00  0.00     0.047 A 
BRANCH  18  27
ATOM     27  O   UNL A   1      44.169  21.744  24.094  1.00  0.00    -0.490 OA
BRANCH  27  28
ATOM     28  C   UNL A   1      44.981  20.882  24.894  1.00  0.00     0.226 C 
ATOM     29  C   UNL A   1      44.789  19.469  24.363  1.00  0.00     0.049 C 
ENDBRANCH  27  28
ENDBRANCH  18  27
BRANCH  20  30
ATOM     30  O   UNL A   1      41.693  22.015  25.556  1.00  0.00    -0.490 OA
BRANCH  30  31
ATOM     31  C   UNL A   1      41.665  21.269  26.772  1.00  0.00     0.226 C 
ATOM     32  C   UNL A   1      41.977  19.790  26.587  1.00  0.00     0.049 C 
ENDBRANCH  30  31
ENDBRANCH  20  30
ENDBRANCH  15  17
ENDBRANCH  10  15
ENDBRANCH   7   9
ENDBRANCH   6   7
ENDBRANCH   5   6
ENDBRANCH   4   5
ENDBRANCH   3   4
ENDBRANCH   2   3
ENDBRANCH   1   2
BRANCH   1  33
ATOM     33  O   UNL A   1      34.067  35.141  30.355  1.00  0.00    -0.377 OA
BRANCH  33  34
ATOM     34  C   UNL A   1      33.165  35.985  31.059  1.00  0.00     0.188 C 
BRANCH  34  35
ATOM     35  C   UNL A   1      33.441  36.424  32.514  1.00  0.00     0.188 C 
BRANCH  35  36
ATOM     36  O   UNL A   1      34.774  36.208  32.959  1.00  0.00    -0.376 OA
BRANCH  36  37
ATOM     37  C   UNL A   1      34.994  35.022  33.709  1.00  0.00     0.202 C 
BRANCH  37  38
ATOM     38  C   UNL A   1      36.079  34.115  33.122  1.00  0.00     0.261 C 
BRANCH  38  39
ATOM     39  O   UNL A   1      36.160  32.806  33.710  1.00  0.00    -0.460 OA
BRANCH  39  40
ATOM     40  C   UNL A   1      37.082  32.613  34.679  1.00  0.00     0.338 C 
ATOM     41  O   UNL A   1      36.960  32.802  35.873  1.00  0.00    -0.246 OA
BRANCH  40  42
ATOM     42  C   UNL A   1      38.240  31.951  34.047  1.00  0.00     0.060 A 
ATOM     43  C   UNL A   1      39.537  32.346  34.402  1.00  0.00     0.016 A 
ATOM     44  C   UNL A   1      38.035  30.915  33.135  1.00  0.00     0.016 A 
ATOM     45  C   UNL A   1      40.638  31.703  33.834  1.00  0.00     0.010 A 
ATOM     46  C   UNL A   1      39.135  30.290  32.551  1.00  0.00     0.010 A 
ATOM     47  C   UNL A   1      40.441  30.692  32.884  1.00  0.00    -0.014 A 
BRANCH  47  48
ATOM     48  C   UNL A   1      41.577  30.148  32.106  1.00  0.00     0.031 A 
ATOM     49  C   UNL A   1      42.240  28.893  32.596  1.00  0.00     0.074 A 
ATOM     50  C   UNL A   1      42.048  30.786  31.020  1.00  0.00     0.049 A 
ATOM     51  N   UNL A   1      43.325  28.307  32.165  1.00  0.00    -0.248 NA
ATOM     52  C   UNL A   1      41.592  28.213  33.729  1.00  0.00     0.031 C 
ATOM     53  C   UNL A   1      41.473  31.989  30.424  1.00  0.00     0.029 A 
ATOM     54  N   UNL A   1      43.146  30.513  30.240  1.00  0.00    -0.354 N 
ATOM     55  C   UNL A   1      43.501  27.199  32.983  1.00  0.00     0.074 A 
ATOM     56  C   UNL A   1      42.419  27.200  33.944  1.00  0.00     0.031 C 
ATOM     57  C   UNL A   1      42.239  32.368  29.384  1.00  0.00     0.029 A 
ATOM     58  C   UNL A   1      43.377  31.458  29.272  1.00  0.00     0.049 A 
ATOM     59  H   UNL A   1      43.711  29.717  30.364  1.00  0.00     0.167 HD
ATOM     60  C   UNL A   1      44.480  26.265  32.942  1.00  0.00     0.031 A 
ATOM     61  C   UNL A   1      44.413  31.594  28.420  1.00  0.00     0.031 A 
ATOM     62  C   UNL A   1      45.567  26.275  32.002  1.00  0.00     0.049 A 
ATOM     63  C   UNL A   1      45.539  30.594  28.455  1.00  0.00     0.074 A 
ATOM     64  C   UNL A   1      46.590  25.354  31.862  1.00  0.00     0.029 A 
ATOM     65  N   UNL A   1      45.779  27.262  31.055  1.00  0.00    -0.354 N 
ATOM     66  N   UNL A   1      45.674  29.525  29.203  1.00  0.00    -0.248 NA
ATOM     67  C   UNL A   1      46.660  30.822  27.530  1.00  0.00     0.031 C 
ATOM     68  C   UNL A   1      47.458  25.820  30.869  1.00  0.00     0.029 A 
ATOM     69  C   UNL A   1      46.942  26.997  30.353  1.00  0.00     0.049 A 
ATOM     70  H   UNL A   1      45.192  28.038  30.904  1.00  0.00     0.167 HD
ATOM     71  C   UNL A   1      46.880  28.945  28.825  1.00  0.00     0.074 A 
ATOM     72  C   UNL A   1      47.430  29.771  27.771  1.00  0.00     0.031 C 
ATOM     73  C   UNL A   1      47.477  27.829  29.308  1.00  0.00     0.031 A 
BRANCH  60  74
ATOM     74  C   UNL A   1      44.442  25.179  33.977  1.00  0.00    -0.014 A 
ATOM     75  C   UNL A   1      44.814  25.423  35.308  1.00  0.00     0.009 A 
ATOM     76  C   UNL A   1      43.993  23.898  33.619  1.00  0.00     0.009 A 
ATOM     77  C   UNL A   1      44.761  24.398  36.254  1.00  0.00     0.001 A 
ATOM     78  C   UNL A   1      43.918  22.882  34.572  1.00  0.00     0.001 A 
ATOM     79  C   UNL A   1      44.309  23.131  35.887  1.00  0.00     0.000 A 
ENDBRANCH  60  74
BRANCH  61  80
ATOM     80  C   UNL A   1      44.470  32.754  27.491  1.00  0.00    -0.014 A 
ATOM     81  C   UNL A   1      45.182  33.913  27.832  1.00  0.00     0.009 A 
ATOM     82  C   UNL A   1      43.781  32.718  26.268  1.00  0.00     0.009 A 
ATOM     83  C   UNL A   1      45.181  35.022  26.982  1.00  0.00     0.001 A 
ATOM     84  C   UNL A   1      43.805  33.818  25.406  1.00  0.00     0.001 A 
ATOM     85  C   UNL A   1      44.496  34.971  25.769  1.00  0.00     0.000 A 
ENDBRANCH  61  80
BRANCH  73  86
ATOM     86  C   UNL A   1      48.784  27.416  28.689  1.00  0.00    -0.014 A 
ATOM     87  C   UNL A   1      48.822  26.588  27.557  1.00  0.00     0.009 A 
ATOM     88  C   UNL A   1      49.988  27.919  29.207  1.00  0.00     0.009 A 
ATOM     89  C   UNL A   1      50.044  26.254  26.968  1.00  0.00     0.001 A 
ATOM     90  C   UNL A   1      51.205  27.607  28.599  1.00  0.00     0.001 A 
ATOM     91  C   UNL A   1      51.233  26.769  27.485  1.00  0.00     0.000 A 
ENDBRANCH  73  86
ENDBRANCH  47  48
ENDBRANCH  40  42
ENDBRANCH  39  40
ENDBRANCH  38  39
ENDBRANCH  37  38
ENDBRANCH  36  37
ENDBRANCH  35  36
ENDBRANCH  34  35
ENDBRANCH  33  34
ENDBRANCH   1  33
TORSDOF 26
ENDMDL
MODEL 2
REMARK VINA RESULT:      -7.9      0.691      5.511
REMARK SMILES CCOc1cc2nccc(Nc3ccc(C(=O)OCCOCCOCCOCCOC(=O)c4ccc(-c5c6nc(c(-c7ccccc7)c7ccc([nH]7)c(-c7ccccc7)c7nc(c(-c8ccccc8)c8ccc5[nH]8)C=C7)C=C6)cc4)cc3)c2cc1OCC
REMARK SMILES IDX 23 1 22 2 21 3 20 4 19 5 18 6 16 7 17 8 15 9 12 10 13 11
REMARK SMILES IDX 82 12 14 13 81 14 11 15 10 17 4 18 5 19 85 20 6 21 84 22
REMARK SMILES IDX 7 23 83 24 8 25 9 26 3 27 2 28 1 29 86 30 87 31 88 32 24 33
REMARK SMILES IDX 25 34 26 35 27 36 28 37 29 38 30 39 31 40 32 41 33 42 34 43
REMARK SMILES IDX 80 44 35 45 79 46 36 47 37 48 38 49 73 50 39 51 78 52 72 53
REMARK SMILES IDX 74 54 40 55 77 56 71 57 70 58 41 60 63 61 48 62 62 63 49 64
REMARK SMILES IDX 52 65 61 66 75 67 50 68 51 69 60 71 76 72 53 73 42 74 43 75
REMARK SMILES IDX 47 76 44 77 46 78 45 79 64 80 65 81 69 82 66 83 68 84 67 85
REMARK SMILES IDX 54 86 55 87 59 88 56 89 58 90 57 91
REMARK H PARENT 11 16 74 59 52 70
REMARK Flexibility Score: inf
ROOT
ATOM      1  C   UNL A   1      33.398  34.430  29.716  1.00  0.00     0.188 C 
ENDROOT
BRANCH   1   2
ATOM      2  C   UNL A   1      34.311  33.380  29.051  1.00  0.00     0.188 C 
BRANCH   2   3
ATOM      3  O   UNL A   1      35.516  33.904  28.502  1.00  0.00    -0.376 OA
BRANCH   3   4
ATOM      4  C   UNL A   1      36.713  33.599  29.203  1.00  0.00     0.202 C 
BRANCH   4   5
ATOM      5  C   UNL A   1      36.848  32.116  29.568  1.00  0.00     0.261 C 
BRANCH   5   6
ATOM      6  O   UNL A   1      37.961  31.464  28.941  1.00  0.00    -0.460 OA
BRANCH   6   7
ATOM      7  C   UNL A   1      37.721  30.226  28.460  1.00  0.00     0.338 C 
ATOM      8  O   UNL A   1      36.670  29.808  28.002  1.00  0.00    -0.246 OA
BRANCH   7   9
ATOM      9  C   UNL A   1      38.994  29.483  28.408  1.00  0.00     0.060 A 
ATOM     10  C   UNL A   1      41.311  27.937  28.228  1.00  0.00     0.038 A 
ATOM     11  C   UNL A   1      40.653  28.358  27.065  1.00  0.00     0.027 A 
ATOM     12  C   UNL A   1      40.846  28.369  29.475  1.00  0.00     0.027 A 
ATOM     13  C   UNL A   1      39.490  29.117  27.152  1.00  0.00     0.018 A 
ATOM     14  C   UNL A   1      39.694  29.149  29.570  1.00  0.00     0.018 A 
BRANCH  10  15
ATOM     15  N   UNL A   1      42.314  26.960  28.117  1.00  0.00    -0.355 N 
ATOM     16  H   UNL A   1      42.473  26.411  28.919  1.00  0.00     0.167 HD
BRANCH  15  17
ATOM     17  C   UNL A   1      43.128  26.665  26.989  1.00  0.00     0.050 A 
ATOM     18  C   UNL A   1      43.221  22.794  25.278  1.00  0.00     0.163 A 
ATOM     19  C   UNL A   1      44.022  23.830  24.784  1.00  0.00     0.079 A 
ATOM     20  C   UNL A   1      42.325  23.056  26.312  1.00  0.00     0.161 A 
ATOM     21  C   UNL A   1      43.972  25.115  25.317  1.00  0.00     0.076 A 
ATOM     22  C   UNL A   1      42.276  24.333  26.864  1.00  0.00     0.063 A 
ATOM     23  N   UNL A   1      44.777  26.055  24.797  1.00  0.00    -0.256 NA
ATOM     24  C   UNL A   1      43.103  25.375  26.400  1.00  0.00     0.028 A 
ATOM     25  C   UNL A   1      44.757  27.284  25.350  1.00  0.00     0.114 A 
ATOM     26  C   UNL A   1      43.966  27.630  26.426  1.00  0.00     0.047 A 
BRANCH  18  27
ATOM     27  O   UNL A   1      43.386  21.503  24.860  1.00  0.00    -0.490 OA
BRANCH  27  28
ATOM     28  C   UNL A   1      44.445  20.793  25.506  1.00  0.00     0.226 C 
ATOM     29  C   UNL A   1      45.017  19.821  24.484  1.00  0.00     0.049 C 
ENDBRANCH  27  28
ENDBRANCH  18  27
BRANCH  20  30
ATOM     30  O   UNL A   1      41.462  22.177  26.905  1.00  0.00    -0.490 OA
BRANCH  30  31
ATOM     31  C   UNL A   1      40.527  21.506  26.061  1.00  0.00     0.226 C 
ATOM     32  C   UNL A   1      39.112  22.062  26.156  1.00  0.00     0.049 C 
ENDBRANCH  30  31
ENDBRANCH  20  30
ENDBRANCH  15  17
ENDBRANCH  10  15
ENDBRANCH   7   9
ENDBRANCH   6   7
ENDBRANCH   5   6
ENDBRANCH   4   5
ENDBRANCH   3   4
ENDBRANCH   2   3
ENDBRANCH   1   2
BRANCH   1  33
ATOM     33  O   UNL A   1      33.919  35.242  30.755  1.00  0.00    -0.377 OA
BRANCH  33  34
ATOM     34  C   UNL A   1      33.100  36.240  31.350  1.00  0.00     0.188 C 
BRANCH  34  35
ATOM     35  C   UNL A   1      33.364  36.752  32.783  1.00  0.00     0.188 C 
BRANCH  35  36
ATOM     36  O   UNL A   1      34.686  36.535  33.259  1.00  0.00    -0.376 OA
BRANCH  36  37
ATOM     37  C   UNL A   1      34.963  35.231  33.749  1.00  0.00     0.202 C 
BRANCH  37  38
ATOM     38  C   UNL A   1      36.229  34.606  33.155  1.00  0.00     0.261 C 
BRANCH  38  39
ATOM     39  O   UNL A   1      36.357  33.188  33.354  1.00  0.00    -0.460 OA
BRANCH  39  40
ATOM     40  C   UNL A   1      37.034  32.770  34.446  1.00  0.00     0.338 C 
ATOM     41  O   UNL A   1      36.664  32.783  35.603  1.00  0.00    -0.246 OA
BRANCH  40  42
ATOM     42  C   UNL A   1      38.267  32.115  33.965  1.00  0.00     0.060 A 
ATOM     43  C   UNL A   1      39.490  32.412  34.582  1.00  0.00     0.016 A 
ATOM     44  C   UNL A   1      38.198  31.180  32.932  1.00  0.00     0.016 A 
ATOM     45  C   UNL A   1      40.655  31.773  34.156  1.00  0.00     0.010 A 
ATOM     46  C   UNL A   1      39.367  30.560  32.492  1.00  0.00     0.010 A 
ATOM     47  C   UNL A   1      40.602  30.866  33.090  1.00  0.00    -0.014 A 
BRANCH  47  48
ATOM     48  C   UNL A   1      41.843  30.344  32.474  1.00  0.00     0.031 A 
ATOM     49  C   UNL A   1      42.421  31.082  31.300  1.00  0.00     0.074 A 
ATOM     50  C   UNL A   1      42.413  29.207  32.908  1.00  0.00     0.049 A 
ATOM     51  N   UNL A   1      43.412  30.748  30.518  1.00  0.00    -0.248 NA
ATOM     52  C   UNL A   1      41.788  32.367  30.962  1.00  0.00     0.031 C 
ATOM     53  C   UNL A   1      41.972  28.419  34.057  1.00  0.00     0.029 A 
ATOM     54  N   UNL A   1      43.483  28.505  32.407  1.00  0.00    -0.354 N 
ATOM     55  C   UNL A   1      43.513  31.771  29.585  1.00  0.00     0.074 A 
ATOM     56  C   UNL A   1      42.476  32.732  29.890  1.00  0.00     0.031 C 
ATOM     57  C   UNL A   1      42.749  27.325  34.158  1.00  0.00     0.029 A 
ATOM     58  C   UNL A   1      43.711  27.318  33.058  1.00  0.00     0.049 A 
ATOM     59  H   UNL A   1      44.031  28.822  31.654  1.00  0.00     0.167 HD
ATOM     60  C   UNL A   1      44.389  31.897  28.561  1.00  0.00     0.031 A 
ATOM     61  C   UNL A   1      44.573  26.321  32.771  1.00  0.00     0.031 A 
ATOM     62  C   UNL A   1      45.407  30.934  28.244  1.00  0.00     0.049 A 
ATOM     63  C   UNL A   1      45.475  26.443  31.571  1.00  0.00     0.074 A 
ATOM     64  C   UNL A   1      46.363  30.989  27.245  1.00  0.00     0.029 A 
ATOM     65  N   UNL A   1      45.588  29.734  28.911  1.00  0.00    -0.354 N 
ATOM     66  N   UNL A   1      45.594  27.434  30.720  1.00  0.00    -0.248 NA
ATOM     67  C   UNL A   1      46.361  25.303  31.287  1.00  0.00     0.031 C 
ATOM     68  C   UNL A   1      47.083  29.790  27.268  1.00  0.00     0.029 A 
ATOM     69  C   UNL A   1      46.615  29.018  28.318  1.00  0.00     0.049 A 
ATOM     70  H   UNL A   1      45.066  29.434  29.690  1.00  0.00     0.167 HD
ATOM     71  C   UNL A   1      46.577  27.047  29.818  1.00  0.00     0.074 A 
ATOM     72  C   UNL A   1      47.035  25.738  30.233  1.00  0.00     0.031 C 
ATOM     73  C   UNL A   1      47.058  27.716  28.742  1.00  0.00     0.031 A 
BRANCH  60  74
ATOM     74  C   UNL A   1      44.253  33.105  27.680  1.00  0.00    -0.014 A 
ATOM     75  C   UNL A   1      43.813  32.995  26.352  1.00  0.00     0.009 A 
ATOM     76  C   UNL A   1      44.536  34.377  28.201  1.00  0.00     0.009 A 
ATOM     77  C   UNL A   1      43.686  34.134  25.555  1.00  0.00     0.001 A 
ATOM     78  C   UNL A   1      44.384  35.516  27.410  1.00  0.00     0.001 A 
ATOM     79  C   UNL A   1      43.966  35.393  26.086  1.00  0.00     0.000 A 
ENDBRANCH  60  74
BRANCH  61  80
ATOM     80  C   UNL A   1      44.592  25.088  33.601  1.00  0.00    -0.014 A 
ATOM     81  C   UNL A   1      45.283  25.055  34.822  1.00  0.00     0.009 A 
ATOM     82  C   UNL A   1      43.947  23.923  33.157  1.00  0.00     0.009 A 
ATOM     83  C   UNL A   1      45.348  23.875  35.568  1.00  0.00     0.001 A 
ATOM     84  C   UNL A   1      43.989  22.752  33.918  1.00  0.00     0.001 A 
ATOM     85  C   UNL A   1      44.698  22.726  35.117  1.00  0.00     0.000 A 
ENDBRANCH  61  80
BRANCH  73  86
ATOM     86  C   UNL A   1      48.152  27.060  27.947  1.00  0.00    -0.014 A 
ATOM     87  C   UNL A   1      49.503  27.269  28.261  1.00  0.00     0.009 A 
ATOM     88  C   UNL A   1      47.822  26.168  26.914  1.00  0.00     0.009 A 
ATOM     89  C   UNL A   1      50.504  26.612  27.540  1.00  0.00     0.001 A 
ATOM     90  C   UNL A   1      48.823  25.493  26.214  1.00  0.00     0.001 A 
ATOM     91  C   UNL A   1      50.163  25.720  26.523  1.00  0.00     0.000 A 
ENDBRANCH  73  86
ENDBRANCH  47  48
ENDBRANCH  40  42
ENDBRANCH  39  40
ENDBRANCH  38  39
ENDBRANCH  37  38
ENDBRANCH  36  37
ENDBRANCH  35  36
ENDBRANCH  34  35
ENDBRANCH  33  34
ENDBRANCH   1  33
TORSDOF 26
ENDMDL
MODEL 3
REMARK VINA RESULT:      -7.3      4.556      8.891
REMARK SMILES CCOc1cc2nccc(Nc3ccc(C(=O)OCCOCCOCCOCCOC(=O)c4ccc(-c5c6nc(c(-c7ccccc7)c7ccc([nH]7)c(-c7ccccc7)c7nc(c(-c8ccccc8)c8ccc5[nH]8)C=C7)C=C6)cc4)cc3)c2cc1OCC
REMARK SMILES IDX 23 1 22 2 21 3 20 4 19 5 18 6 16 7 17 8 15 9 12 10 13 11
REMARK SMILES IDX 82 12 14 13 81 14 11 15 10 17 4 18 5 19 85 20 6 21 84 22
REMARK SMILES IDX 7 23 83 24 8 25 9 26 3 27 2 28 1 29 86 30 87 31 88 32 24 33
REMARK SMILES IDX 25 34 26 35 27 36 28 37 29 38 30 39 31 40 32 41 33 42 34 43
REMARK SMILES IDX 80 44 35 45 79 46 36 47 37 48 38 49 73 50 39 51 78 52 72 53
REMARK SMILES IDX 74 54 40 55 77 56 71 57 70 58 41 60 63 61 48 62 62 63 49 64
REMARK SMILES IDX 52 65 61 66 75 67 50 68 51 69 60 71 76 72 53 73 42 74 43 75
REMARK SMILES IDX 47 76 44 77 46 78 45 79 64 80 65 81 69 82 66 83 68 84 67 85
REMARK SMILES IDX 54 86 55 87 59 88 56 89 58 90 57 91
REMARK H PARENT 11 16 74 59 52 70
REMARK Flexibility Score: inf
ROOT
ATOM      1  C   UNL A   1      39.482  29.394  30.052  1.00  0.00     0.188 C 
ENDROOT
BRANCH   1   2
ATOM      2  C   UNL A   1      39.273  30.857  29.616  1.00  0.00     0.188 C 
BRANCH   2   3
ATOM      3  O   UNL A   1      37.971  31.373  29.870  1.00  0.00    -0.376 OA
BRANCH   3   4
ATOM      4  C   UNL A   1      37.884  32.767  30.126  1.00  0.00     0.202 C 
BRANCH   4   5
ATOM      5  C   UNL A   1      36.454  33.315  30.048  1.00  0.00     0.261 C 
BRANCH   5   6
ATOM      6  O   UNL A   1      35.494  32.363  29.569  1.00  0.00    -0.460 OA
BRANCH   6   7
ATOM      7  C   UNL A   1      35.046  32.561  28.311  1.00  0.00     0.338 C 
ATOM      8  O   UNL A   1      35.115  33.593  27.664  1.00  0.00    -0.246 OA
BRANCH   7   9
ATOM      9  C   UNL A   1      34.606  31.268  27.755  1.00  0.00     0.060 A 
ATOM     10  C   UNL A   1      33.906  28.838  26.575  1.00  0.00     0.038 A 
ATOM     11  C   UNL A   1      35.165  28.996  27.167  1.00  0.00     0.027 A 
ATOM     12  C   UNL A   1      32.973  29.877  26.656  1.00  0.00     0.027 A 
ATOM     13  C   UNL A   1      35.522  30.212  27.745  1.00  0.00     0.018 A 
ATOM     14  C   UNL A   1      33.314  31.090  27.253  1.00  0.00     0.018 A 
BRANCH  10  15
ATOM     15  N   UNL A   1      33.677  27.707  25.774  1.00  0.00    -0.355 N 
ATOM     16  H   UNL A   1      34.263  27.609  24.989  1.00  0.00     0.167 HD
BRANCH  15  17
ATOM     17  C   UNL A   1      32.703  26.687  25.956  1.00  0.00     0.050 A 
ATOM     18  C   UNL A   1      33.585  22.621  25.174  1.00  0.00     0.163 A 
ATOM     19  C   UNL A   1      32.309  23.026  25.584  1.00  0.00     0.079 A 
ATOM     20  C   UNL A   1      34.605  23.565  25.084  1.00  0.00     0.161 A 
ATOM     21  C   UNL A   1      32.019  24.356  25.879  1.00  0.00     0.076 A 
ATOM     22  C   UNL A   1      34.326  24.901  25.361  1.00  0.00     0.063 A 
ATOM     23  N   UNL A   1      30.770  24.669  26.257  1.00  0.00    -0.256 NA
ATOM     24  C   UNL A   1      33.037  25.326  25.739  1.00  0.00     0.028 A 
ATOM     25  C   UNL A   1      30.487  25.966  26.493  1.00  0.00     0.114 A 
ATOM     26  C   UNL A   1      31.401  26.990  26.359  1.00  0.00     0.047 A 
BRANCH  18  27
ATOM     27  O   UNL A   1      33.823  21.348  24.736  1.00  0.00    -0.490 OA
BRANCH  27  28
ATOM     28  C   UNL A   1      32.672  20.655  24.250  1.00  0.00     0.226 C 
ATOM     29  C   UNL A   1      33.032  19.178  24.196  1.00  0.00     0.049 C 
ENDBRANCH  27  28
ENDBRANCH  18  27
BRANCH  20  30
ATOM     30  O   UNL A   1      35.905  23.350  24.717  1.00  0.00    -0.490 OA
BRANCH  30  31
ATOM     31  C   UNL A   1      36.773  22.770  25.690  1.00  0.00     0.226 C 
ATOM     32  C   UNL A   1      37.376  21.441  25.252  1.00  0.00     0.049 C 
ENDBRANCH  30  31
ENDBRANCH  20  30
ENDBRANCH  15  17
ENDBRANCH  10  15
ENDBRANCH   7   9
ENDBRANCH   6   7
ENDBRANCH   5   6
ENDBRANCH   4   5
ENDBRANCH   3   4
ENDBRANCH   2   3
ENDBRANCH   1   2
BRANCH   1  33
ATOM     33  O   UNL A   1      40.411  28.587  29.346  1.00  0.00    -0.377 OA
BRANCH  33  34
ATOM     34  C   UNL A   1      40.327  28.488  27.930  1.00  0.00     0.188 C 
BRANCH  34  35
ATOM     35  C   UNL A   1      40.410  27.123  27.211  1.00  0.00     0.188 C 
BRANCH  35  36
ATOM     36  O   UNL A   1      39.833  26.038  27.924  1.00  0.00    -0.376 OA
BRANCH  36  37
ATOM     37  C   UNL A   1      39.457  24.912  27.144  1.00  0.00     0.202 C 
BRANCH  37  38
ATOM     38  C   UNL A   1      40.255  23.645  27.467  1.00  0.00     0.261 C 
BRANCH  38  39
ATOM     39  O   UNL A   1      41.246  23.286  26.490  1.00  0.00    -0.460 OA
BRANCH  39  40
ATOM     40  C   UNL A   1      42.501  23.048  26.933  1.00  0.00     0.338 C 
ATOM     41  O   UNL A   1      42.983  21.984  27.269  1.00  0.00    -0.246 OA
BRANCH  40  42
ATOM     42  C   UNL A   1      43.262  24.301  26.772  1.00  0.00     0.060 A 
ATOM     43  C   UNL A   1      43.414  24.855  25.493  1.00  0.00     0.016 A 
ATOM     44  C   UNL A   1      43.786  24.944  27.893  1.00  0.00     0.016 A 
ATOM     45  C   UNL A   1      44.104  26.058  25.335  1.00  0.00     0.010 A 
ATOM     46  C   UNL A   1      44.495  26.134  27.730  1.00  0.00     0.010 A 
ATOM     47  C   UNL A   1      44.672  26.686  26.450  1.00  0.00    -0.014 A 
BRANCH  47  48
ATOM     48  C   UNL A   1      45.591  27.836  26.288  1.00  0.00     0.031 A 
ATOM     49  C   UNL A   1      47.056  27.557  26.115  1.00  0.00     0.074 A 
ATOM     50  C   UNL A   1      45.143  29.102  26.352  1.00  0.00     0.049 A 
ATOM     51  N   UNL A   1      48.061  28.392  26.090  1.00  0.00    -0.248 NA
ATOM     52  C   UNL A   1      47.437  26.144  25.954  1.00  0.00     0.031 C 
ATOM     53  C   UNL A   1      43.745  29.504  26.482  1.00  0.00     0.029 A 
ATOM     54  N   UNL A   1      45.838  30.288  26.342  1.00  0.00    -0.354 N 
ATOM     55  C   UNL A   1      49.195  27.607  25.928  1.00  0.00     0.074 A 
ATOM     56  C   UNL A   1      48.757  26.229  25.872  1.00  0.00     0.031 C 
ATOM     57  C   UNL A   1      43.685  30.846  26.565  1.00  0.00     0.029 A 
ATOM     58  C   UNL A   1      45.041  31.390  26.537  1.00  0.00     0.049 A 
ATOM     59  H   UNL A   1      46.811  30.342  26.208  1.00  0.00     0.167 HD
ATOM     60  C   UNL A   1      50.488  27.998  25.837  1.00  0.00     0.031 A 
ATOM     61  C   UNL A   1      45.376  32.683  26.715  1.00  0.00     0.031 A 
ATOM     62  C   UNL A   1      50.926  29.364  25.913  1.00  0.00     0.049 A 
ATOM     63  C   UNL A   1      46.828  33.082  26.703  1.00  0.00     0.074 A 
ATOM     64  C   UNL A   1      52.212  29.862  25.801  1.00  0.00     0.029 A 
ATOM     65  N   UNL A   1      50.092  30.446  26.137  1.00  0.00    -0.354 N 
ATOM     66  N   UNL A   1      47.891  32.339  26.505  1.00  0.00    -0.248 NA
ATOM     67  C   UNL A   1      47.130  34.502  26.945  1.00  0.00     0.031 C 
ATOM     68  C   UNL A   1      52.163  31.242  26.021  1.00  0.00     0.029 A 
ATOM     69  C   UNL A   1      50.840  31.608  26.210  1.00  0.00     0.049 A 
ATOM     70  H   UNL A   1      49.113  30.397  26.232  1.00  0.00     0.167 HD
ATOM     71  C   UNL A   1      48.979  33.200  26.579  1.00  0.00     0.074 A 
ATOM     72  C   UNL A   1      48.449  34.525  26.823  1.00  0.00     0.031 C 
ATOM     73  C   UNL A   1      50.299  32.919  26.455  1.00  0.00     0.031 A 
BRANCH  60  74
ATOM     74  C   UNL A   1      51.525  26.923  25.693  1.00  0.00    -0.014 A 
ATOM     75  C   UNL A   1      52.032  26.242  26.809  1.00  0.00     0.009 A 
ATOM     76  C   UNL A   1      51.976  26.565  24.413  1.00  0.00     0.009 A 
ATOM     77  C   UNL A   1      52.991  25.239  26.648  1.00  0.00     0.001 A 
ATOM     78  C   UNL A   1      52.916  25.546  24.253  1.00  0.00     0.001 A 
ATOM     79  C   UNL A   1      53.428  24.890  25.370  1.00  0.00     0.000 A 
ENDBRANCH  60  74
BRANCH  61  80
ATOM     80  C   UNL A   1      44.322  33.699  26.975  1.00  0.00    -0.014 A 
ATOM     81  C   UNL A   1      43.747  34.423  25.920  1.00  0.00     0.009 A 
ATOM     82  C   UNL A   1      43.910  33.975  28.289  1.00  0.00     0.009 A 
ATOM     83  C   UNL A   1      42.800  35.419  26.177  1.00  0.00     0.001 A 
ATOM     84  C   UNL A   1      42.944  34.951  28.541  1.00  0.00     0.001 A 
ATOM     85  C   UNL A   1      42.397  35.679  27.486  1.00  0.00     0.000 A 
ENDBRANCH  61  80
BRANCH  73  86
ATOM     86  C   UNL A   1      51.266  34.065  26.556  1.00  0.00    -0.014 A 
ATOM     87  C   UNL A   1      51.865  34.405  27.778  1.00  0.00     0.009 A 
ATOM     88  C   UNL A   1      51.635  34.768  25.397  1.00  0.00     0.009 A 
ATOM     89  C   UNL A   1      52.797  35.443  27.842  1.00  0.00     0.001 A 
ATOM     90  C   UNL A   1      52.587  35.786  25.459  1.00  0.00     0.001 A 
ATOM     91  C   UNL A   1      53.163  36.127  26.682  1.00  0.00     0.000 A 
ENDBRANCH  73  86
ENDBRANCH  47  48
ENDBRANCH  40  42
ENDBRANCH  39  40
ENDBRANCH  38  39
ENDBRANCH  37  38
ENDBRANCH  36  37
ENDBRANCH  35  36
ENDBRANCH  34  35
ENDBRANCH  33  34
ENDBRANCH   1  33
TORSDOF 26
ENDMDL
