MODEL 1
REMARK VINA RESULT:      -9.1      0.000      0.000
REMARK SMILES O=C(OCCOCCOCCOCCOC(=O)[C@H]1[C@H](C(=O)NC2CC[NH+](Cc3ccccc3)CC2)[C@H]2C=C[C@@H]1C2)c1ccc(-c2c3nc(c(-c4ccccc4)c4ccc([nH]4)c(-c4ccccc4)c4nc(c(-c5ccccc5)c5ccc2[nH]5)C=C4)C=C3)cc1
REMARK SMILES IDX 10 1 9 2 8 3 7 4 6 5 5 6 4 7 3 8 2 9 1 10 41 11 42 12 88 13
REMARK SMILES IDX 43 14 87 15 44 16 45 17 46 18 81 19 47 20 86 21 80 22 82 23
REMARK SMILES IDX 48 24 85 25 79 26 78 27 49 29 71 30 56 31 70 32 57 33 60 34
REMARK SMILES IDX 69 35 83 36 58 37 59 38 68 40 84 41 61 42 50 43 51 44 55 45
REMARK SMILES IDX 52 46 54 47 53 48 72 49 73 50 77 51 74 52 76 53 75 54 62 55
REMARK SMILES IDX 63 56 67 57 64 58 66 59 65 60 11 61 12 62 13 63 14 64 15 65
REMARK SMILES IDX 16 66 17 67 18 68 19 69 39 70 36 71 38 72 40 73 37 74 20 75
REMARK SMILES IDX 21 76 22 77 23 79 24 80 35 81 25 82 34 83 26 84 27 86 28 87
REMARK SMILES IDX 29 88 33 89 30 90 32 91 31 92
REMARK H PARENT 82 28 60 39 22 78 26 85
REMARK Flexibility Score: inf
ROOT
ATOM      1  C   UNL A   1      32.558  29.423  27.118  1.00  0.00     0.188 C 
ENDROOT
BRANCH   1   2
ATOM      2  O   UNL A   1      33.818  29.960  26.747  1.00  0.00    -0.377 OA
BRANCH   2   3
ATOM      3  C   UNL A   1      34.479  30.710  27.758  1.00  0.00     0.188 C 
BRANCH   3   4
ATOM      4  C   UNL A   1      33.875  32.092  28.009  1.00  0.00     0.188 C 
BRANCH   4   5
ATOM      5  O   UNL A   1      34.876  33.108  27.932  1.00  0.00    -0.376 OA
BRANCH   5   6
ATOM      6  C   UNL A   1      34.438  34.465  27.995  1.00  0.00     0.202 C 
BRANCH   6   7
ATOM      7  C   UNL A   1      33.173  34.686  28.816  1.00  0.00     0.261 C 
BRANCH   7   8
ATOM      8  O   UNL A   1      33.411  35.368  30.051  1.00  0.00    -0.460 OA
BRANCH   8   9
ATOM      9  C   UNL A   1      33.619  34.851  31.285  1.00  0.00     0.338 C 
ATOM     10  O   UNL A   1      32.782  35.109  32.151  1.00  0.00    -0.246 OA
BRANCH   9  11
ATOM     11  C   UNL A   1      34.805  34.029  31.704  1.00  0.00     0.060 A 
ATOM     12  C   UNL A   1      34.785  32.750  32.272  1.00  0.00     0.016 A 
ATOM     13  C   UNL A   1      36.066  34.593  31.431  1.00  0.00     0.016 A 
ATOM     14  C   UNL A   1      35.946  32.043  32.544  1.00  0.00     0.010 A 
ATOM     15  C   UNL A   1      37.244  33.922  31.754  1.00  0.00     0.010 A 
ATOM     16  C   UNL A   1      37.174  32.654  32.337  1.00  0.00    -0.014 A 
BRANCH  16  17
ATOM     17  C   UNL A   1      38.331  32.092  33.040  1.00  0.00     0.031 A 
ATOM     18  C   UNL A   1      38.471  32.461  34.483  1.00  0.00     0.074 A 
ATOM     19  C   UNL A   1      39.140  31.210  32.438  1.00  0.00     0.049 A 
ATOM     20  N   UNL A   1      39.470  32.276  35.296  1.00  0.00    -0.248 NA
ATOM     21  C   UNL A   1      37.310  33.136  35.093  1.00  0.00     0.031 C 
ATOM     22  C   UNL A   1      38.944  30.661  31.096  1.00  0.00     0.029 A 
ATOM     23  N   UNL A   1      40.290  30.623  32.885  1.00  0.00    -0.354 N 
ATOM     24  C   UNL A   1      39.084  32.870  36.490  1.00  0.00     0.074 A 
ATOM     25  C   UNL A   1      37.757  33.403  36.307  1.00  0.00     0.031 C 
ATOM     26  C   UNL A   1      39.964  29.831  30.816  1.00  0.00     0.029 A 
ATOM     27  C   UNL A   1      40.912  29.867  31.925  1.00  0.00     0.049 A 
ATOM     28  H   UNL A   1      40.634  30.731  33.800  1.00  0.00     0.167 HD
ATOM     29  C   UNL A   1      39.807  32.986  37.626  1.00  0.00     0.031 A 
ATOM     30  C   UNL A   1      42.148  29.335  31.933  1.00  0.00     0.031 A 
ATOM     31  C   UNL A   1      41.138  32.460  37.735  1.00  0.00     0.049 A 
ATOM     32  C   UNL A   1      42.991  29.567  33.157  1.00  0.00     0.074 A 
ATOM     33  C   UNL A   1      42.028  32.550  38.784  1.00  0.00     0.029 A 
ATOM     34  N   UNL A   1      41.766  31.738  36.724  1.00  0.00    -0.354 N 
ATOM     35  N   UNL A   1      42.679  30.209  34.262  1.00  0.00    -0.248 NA
ATOM     36  C   UNL A   1      44.353  29.024  33.140  1.00  0.00     0.031 C 
ATOM     37  C   UNL A   1      43.219  31.934  38.382  1.00  0.00     0.029 A 
ATOM     38  C   UNL A   1      43.044  31.396  37.112  1.00  0.00     0.049 A 
ATOM     39  H   UNL A   1      41.358  31.507  35.859  1.00  0.00     0.167 HD
ATOM     40  C   UNL A   1      43.794  30.128  35.083  1.00  0.00     0.074 A 
ATOM     41  C   UNL A   1      44.789  29.370  34.345  1.00  0.00     0.031 C 
ATOM     42  C   UNL A   1      43.983  30.627  36.331  1.00  0.00     0.031 A 
BRANCH  29  43
ATOM     43  C   UNL A   1      39.208  33.815  38.726  1.00  0.00    -0.014 A 
ATOM     44  C   UNL A   1      39.415  35.202  38.818  1.00  0.00     0.009 A 
ATOM     45  C   UNL A   1      38.507  33.170  39.757  1.00  0.00     0.009 A 
ATOM     46  C   UNL A   1      38.993  35.910  39.948  1.00  0.00     0.001 A 
ATOM     47  C   UNL A   1      38.055  33.885  40.869  1.00  0.00     0.001 A 
ATOM     48  C   UNL A   1      38.317  35.250  40.973  1.00  0.00     0.000 A 
ENDBRANCH  29  43
BRANCH  30  49
ATOM     49  C   UNL A   1      42.657  28.636  30.723  1.00  0.00    -0.014 A 
ATOM     50  C   UNL A   1      43.276  29.342  29.683  1.00  0.00     0.009 A 
ATOM     51  C   UNL A   1      42.577  27.235  30.631  1.00  0.00     0.009 A 
ATOM     52  C   UNL A   1      43.800  28.662  28.578  1.00  0.00     0.001 A 
ATOM     53  C   UNL A   1      43.126  26.555  29.541  1.00  0.00     0.001 A 
ATOM     54  C   UNL A   1      43.733  27.270  28.512  1.00  0.00     0.000 A 
ENDBRANCH  30  49
BRANCH  42  55
ATOM     55  C   UNL A   1      45.291  30.316  36.995  1.00  0.00    -0.014 A 
ATOM     56  C   UNL A   1      46.409  31.143  36.827  1.00  0.00     0.009 A 
ATOM     57  C   UNL A   1      45.355  29.240  37.896  1.00  0.00     0.009 A 
ATOM     58  C   UNL A   1      47.577  30.891  37.546  1.00  0.00     0.001 A 
ATOM     59  C   UNL A   1      46.513  29.010  38.634  1.00  0.00     0.001 A 
ATOM     60  C   UNL A   1      47.624  29.832  38.457  1.00  0.00     0.000 A 
ENDBRANCH  42  55
ENDBRANCH  16  17
ENDBRANCH   9  11
ENDBRANCH   8   9
ENDBRANCH   7   8
ENDBRANCH   6   7
ENDBRANCH   5   6
ENDBRANCH   4   5
ENDBRANCH   3   4
ENDBRANCH   2   3
ENDBRANCH   1   2
BRANCH   1  61
ATOM     61  C   UNL A   1      32.242  27.967  26.692  1.00  0.00     0.188 C 
BRANCH  61  62
ATOM     62  O   UNL A   1      31.563  27.884  25.460  1.00  0.00    -0.376 OA
BRANCH  62  63
ATOM     63  C   UNL A   1      32.338  27.645  24.300  1.00  0.00     0.202 C 
BRANCH  63  64
ATOM     64  C   UNL A   1      33.801  27.154  24.365  1.00  0.00     0.261 C 
BRANCH  64  65
ATOM     65  O   UNL A   1      34.123  25.833  23.887  1.00  0.00    -0.463 OA
BRANCH  65  66
ATOM     66  C   UNL A   1      33.775  25.439  22.627  1.00  0.00     0.310 C 
ATOM     67  O   UNL A   1      33.562  26.208  21.717  1.00  0.00    -0.252 OA
BRANCH  66  68
ATOM     68  C   UNL A   1      33.744  23.893  22.569  1.00  0.00     0.119 C 
ATOM     69  C   UNL A   1      34.504  23.313  23.782  1.00  0.00     0.100 C 
ATOM     70  C   UNL A   1      32.391  23.097  22.650  1.00  0.00     0.027 C 
ATOM     71  C   UNL A   1      33.538  22.253  24.367  1.00  0.00     0.025 C 
ATOM     72  C   UNL A   1      31.623  23.467  23.888  1.00  0.00    -0.027 C 
ATOM     73  C   UNL A   1      32.806  21.706  23.153  1.00  0.00     0.017 C 
ATOM     74  C   UNL A   1      32.321  22.986  24.929  1.00  0.00    -0.027 C 
BRANCH  69  75
ATOM     75  C   UNL A   1      35.930  22.924  23.434  1.00  0.00     0.224 C 
ATOM     76  O   UNL A   1      36.431  23.360  22.391  1.00  0.00    -0.275 OA
ATOM     77  N   UNL A   1      36.698  22.062  24.147  1.00  0.00    -0.353 N 
ATOM     78  H   UNL A   1      37.408  21.638  23.612  1.00  0.00     0.163 HD
BRANCH  77  79
ATOM     79  C   UNL A   1      36.693  21.631  25.552  1.00  0.00     0.093 C 
ATOM     80  C   UNL A   1      36.598  22.851  26.466  1.00  0.00     0.086 C 
ATOM     81  C   UNL A   1      37.912  20.797  25.931  1.00  0.00     0.086 C 
ATOM     82  C   UNL A   1      37.880  23.662  26.391  1.00  0.00     0.264 C 
ATOM     83  C   UNL A   1      39.186  21.627  25.939  1.00  0.00     0.264 C 
ATOM     84  N   UNL A   1      39.064  22.866  26.722  1.00  0.00    -0.331 N 
ATOM     85  H   UNL A   1      38.932  22.563  27.688  1.00  0.00     0.348 HD
BRANCH  84  86
ATOM     86  C   UNL A   1      40.300  23.680  26.658  1.00  0.00     0.299 C 
BRANCH  86  87
ATOM     87  C   UNL A   1      40.121  25.149  26.999  1.00  0.00     0.006 A 
ATOM     88  C   UNL A   1      39.535  25.521  28.219  1.00  0.00     0.009 A 
ATOM     89  C   UNL A   1      40.633  26.155  26.166  1.00  0.00     0.009 A 
ATOM     90  C   UNL A   1      39.522  26.858  28.621  1.00  0.00     0.001 A 
ATOM     91  C   UNL A   1      40.643  27.486  26.580  1.00  0.00     0.001 A 
ATOM     92  C   UNL A   1      40.094  27.835  27.811  1.00  0.00     0.000 A 
ENDBRANCH  86  87
ENDBRANCH  84  86
ENDBRANCH  77  79
ENDBRANCH  69  75
ENDBRANCH  66  68
ENDBRANCH  65  66
ENDBRANCH  64  65
ENDBRANCH  63  64
ENDBRANCH  62  63
ENDBRANCH  61  62
ENDBRANCH   1  61
TORSDOF 24
ENDMDL
MODEL 2
REMARK VINA RESULT:      -8.9      1.886      6.551
REMARK SMILES O=C(OCCOCCOCCOCCOC(=O)[C@H]1[C@H](C(=O)NC2CC[NH+](Cc3ccccc3)CC2)[C@H]2C=C[C@@H]1C2)c1ccc(-c2c3nc(c(-c4ccccc4)c4ccc([nH]4)c(-c4ccccc4)c4nc(c(-c5ccccc5)c5ccc2[nH]5)C=C4)C=C3)cc1
REMARK SMILES IDX 10 1 9 2 8 3 7 4 6 5 5 6 4 7 3 8 2 9 1 10 41 11 42 12 88 13
REMARK SMILES IDX 43 14 87 15 44 16 45 17 46 18 81 19 47 20 86 21 80 22 82 23
REMARK SMILES IDX 48 24 85 25 79 26 78 27 49 29 71 30 56 31 70 32 57 33 60 34
REMARK SMILES IDX 69 35 83 36 58 37 59 38 68 40 84 41 61 42 50 43 51 44 55 45
REMARK SMILES IDX 52 46 54 47 53 48 72 49 73 50 77 51 74 52 76 53 75 54 62 55
REMARK SMILES IDX 63 56 67 57 64 58 66 59 65 60 11 61 12 62 13 63 14 64 15 65
REMARK SMILES IDX 16 66 17 67 18 68 19 69 39 70 36 71 38 72 40 73 37 74 20 75
REMARK SMILES IDX 21 76 22 77 23 79 24 80 35 81 25 82 34 83 26 84 27 86 28 87
REMARK SMILES IDX 29 88 33 89 30 90 32 91 31 92
REMARK H PARENT 82 28 60 39 22 78 26 85
REMARK Flexibility Score: inf
ROOT
ATOM      1  C   UNL A   1      33.454  30.782  27.512  1.00  0.00     0.188 C 
ENDROOT
BRANCH   1   2
ATOM      2  O   UNL A   1      34.715  30.778  28.163  1.00  0.00    -0.377 OA
BRANCH   2   3
ATOM      3  C   UNL A   1      35.024  31.955  28.898  1.00  0.00     0.188 C 
BRANCH   3   4
ATOM      4  C   UNL A   1      35.506  33.123  28.038  1.00  0.00     0.188 C 
BRANCH   4   5
ATOM      5  O   UNL A   1      34.919  34.352  28.471  1.00  0.00    -0.376 OA
BRANCH   5   6
ATOM      6  C   UNL A   1      33.517  34.350  28.738  1.00  0.00     0.202 C 
BRANCH   6   7
ATOM      7  C   UNL A   1      33.014  35.574  29.493  1.00  0.00     0.261 C 
BRANCH   7   8
ATOM      8  O   UNL A   1      32.542  35.274  30.810  1.00  0.00    -0.460 OA
BRANCH   8   9
ATOM      9  C   UNL A   1      33.235  35.218  31.972  1.00  0.00     0.338 C 
ATOM     10  O   UNL A   1      32.831  35.918  32.902  1.00  0.00    -0.246 OA
BRANCH   9  11
ATOM     11  C   UNL A   1      34.481  34.414  32.214  1.00  0.00     0.060 A 
ATOM     12  C   UNL A   1      34.575  33.185  32.876  1.00  0.00     0.016 A 
ATOM     13  C   UNL A   1      35.662  34.936  31.653  1.00  0.00     0.016 A 
ATOM     14  C   UNL A   1      35.768  32.484  32.969  1.00  0.00     0.010 A 
ATOM     15  C   UNL A   1      36.882  34.275  31.790  1.00  0.00     0.010 A 
ATOM     16  C   UNL A   1      36.930  33.057  32.475  1.00  0.00    -0.014 A 
BRANCH  16  17
ATOM     17  C   UNL A   1      38.203  32.536  32.980  1.00  0.00     0.031 A 
ATOM     18  C   UNL A   1      38.862  31.482  32.148  1.00  0.00     0.074 A 
ATOM     19  C   UNL A   1      38.782  33.066  34.066  1.00  0.00     0.049 A 
ATOM     20  N   UNL A   1      39.875  30.714  32.427  1.00  0.00    -0.248 NA
ATOM     21  C   UNL A   1      38.292  31.267  30.805  1.00  0.00     0.031 C 
ATOM     22  C   UNL A   1      38.286  34.225  34.808  1.00  0.00     0.029 A 
ATOM     23  N   UNL A   1      39.917  32.694  34.728  1.00  0.00    -0.354 N 
ATOM     24  C   UNL A   1      40.020  29.884  31.324  1.00  0.00     0.074 A 
ATOM     25  C   UNL A   1      39.009  30.250  30.363  1.00  0.00     0.031 C 
ATOM     26  C   UNL A   1      39.104  34.453  35.849  1.00  0.00     0.029 A 
ATOM     27  C   UNL A   1      40.120  33.407  35.882  1.00  0.00     0.049 A 
ATOM     28  H   UNL A   1      40.526  31.990  34.410  1.00  0.00     0.167 HD
ATOM     29  C   UNL A   1      40.906  28.877  31.159  1.00  0.00     0.031 A 
ATOM     30  C   UNL A   1      40.990  33.173  36.882  1.00  0.00     0.031 A 
ATOM     31  C   UNL A   1      41.869  28.541  32.167  1.00  0.00     0.049 A 
ATOM     32  C   UNL A   1      41.896  31.979  36.744  1.00  0.00     0.074 A 
ATOM     33  C   UNL A   1      42.788  27.514  32.189  1.00  0.00     0.029 A 
ATOM     34  N   UNL A   1      42.020  29.252  33.355  1.00  0.00    -0.354 N 
ATOM     35  N   UNL A   1      41.983  31.123  35.749  1.00  0.00    -0.248 NA
ATOM     36  C   UNL A   1      42.809  31.704  37.857  1.00  0.00     0.031 C 
ATOM     37  C   UNL A   1      43.454  27.567  33.419  1.00  0.00     0.029 A 
ATOM     38  C   UNL A   1      43.001  28.672  34.131  1.00  0.00     0.049 A 
ATOM     39  H   UNL A   1      41.502  30.051  33.604  1.00  0.00     0.167 HD
ATOM     40  C   UNL A   1      42.974  30.221  36.103  1.00  0.00     0.074 A 
ATOM     41  C   UNL A   1      43.460  30.640  37.405  1.00  0.00     0.031 C 
ATOM     42  C   UNL A   1      43.447  29.148  35.419  1.00  0.00     0.031 A 
BRANCH  29  43
ATOM     43  C   UNL A   1      40.745  28.030  29.927  1.00  0.00    -0.014 A 
ATOM     44  C   UNL A   1      39.646  27.173  29.745  1.00  0.00     0.009 A 
ATOM     45  C   UNL A   1      41.777  28.014  28.976  1.00  0.00     0.009 A 
ATOM     46  C   UNL A   1      39.619  26.272  28.676  1.00  0.00     0.001 A 
ATOM     47  C   UNL A   1      41.731  27.138  27.889  1.00  0.00     0.001 A 
ATOM     48  C   UNL A   1      40.663  26.254  27.751  1.00  0.00     0.000 A 
ENDBRANCH  29  43
BRANCH  30  49
ATOM     49  C   UNL A   1      40.959  34.024  38.100  1.00  0.00    -0.014 A 
ATOM     50  C   UNL A   1      41.748  35.178  38.200  1.00  0.00     0.009 A 
ATOM     51  C   UNL A   1      40.085  33.713  39.158  1.00  0.00     0.009 A 
ATOM     52  C   UNL A   1      41.664  35.998  39.331  1.00  0.00     0.001 A 
ATOM     53  C   UNL A   1      39.982  34.547  40.273  1.00  0.00     0.001 A 
ATOM     54  C   UNL A   1      40.776  35.688  40.361  1.00  0.00     0.000 A 
ENDBRANCH  30  49
BRANCH  42  55
ATOM     55  C   UNL A   1      44.583  28.392  36.042  1.00  0.00    -0.014 A 
ATOM     56  C   UNL A   1      45.891  28.893  36.018  1.00  0.00     0.009 A 
ATOM     57  C   UNL A   1      44.303  27.221  36.765  1.00  0.00     0.009 A 
ATOM     58  C   UNL A   1      46.906  28.225  36.703  1.00  0.00     0.001 A 
ATOM     59  C   UNL A   1      45.313  26.574  37.472  1.00  0.00     0.001 A 
ATOM     60  C   UNL A   1      46.613  27.073  37.437  1.00  0.00     0.000 A 
ENDBRANCH  42  55
ENDBRANCH  16  17
ENDBRANCH   9  11
ENDBRANCH   8   9
ENDBRANCH   7   8
ENDBRANCH   6   7
ENDBRANCH   5   6
ENDBRANCH   4   5
ENDBRANCH   3   4
ENDBRANCH   2   3
ENDBRANCH   1   2
BRANCH   1  61
ATOM     61  C   UNL A   1      33.150  29.630  26.523  1.00  0.00     0.188 C 
BRANCH  61  62
ATOM     62  O   UNL A   1      32.945  30.072  25.201  1.00  0.00    -0.376 OA
BRANCH  62  63
ATOM     63  C   UNL A   1      33.442  29.260  24.154  1.00  0.00     0.202 C 
BRANCH  63  64
ATOM     64  C   UNL A   1      34.236  27.962  24.416  1.00  0.00     0.261 C 
BRANCH  64  65
ATOM     65  O   UNL A   1      33.688  26.701  23.985  1.00  0.00    -0.463 OA
BRANCH  65  66
ATOM     66  C   UNL A   1      33.080  26.579  22.768  1.00  0.00     0.310 C 
ATOM     67  O   UNL A   1      33.611  26.870  21.720  1.00  0.00    -0.252 OA
BRANCH  66  68
ATOM     68  C   UNL A   1      31.663  25.989  22.965  1.00  0.00     0.119 C 
ATOM     69  C   UNL A   1      31.541  25.396  24.385  1.00  0.00     0.100 C 
ATOM     70  C   UNL A   1      30.382  26.898  22.904  1.00  0.00     0.027 C 
ATOM     71  C   UNL A   1      30.217  25.986  24.934  1.00  0.00     0.025 C 
ATOM     72  C   UNL A   1      30.482  28.034  23.882  1.00  0.00    -0.027 C 
ATOM     73  C   UNL A   1      29.331  26.115  23.707  1.00  0.00     0.017 C 
ATOM     74  C   UNL A   1      30.411  27.491  25.108  1.00  0.00    -0.027 C 
BRANCH  69  75
ATOM     75  C   UNL A   1      31.761  23.894  24.402  1.00  0.00     0.224 C 
ATOM     76  O   UNL A   1      31.023  23.174  23.719  1.00  0.00    -0.275 OA
ATOM     77  N   UNL A   1      32.673  23.248  25.172  1.00  0.00    -0.353 N 
ATOM     78  H   UNL A   1      32.438  22.309  25.350  1.00  0.00     0.163 HD
BRANCH  77  79
ATOM     79  C   UNL A   1      33.939  23.659  25.795  1.00  0.00     0.093 C 
ATOM     80  C   UNL A   1      35.059  23.631  24.756  1.00  0.00     0.086 C 
ATOM     81  C   UNL A   1      34.327  22.801  26.994  1.00  0.00     0.086 C 
ATOM     82  C   UNL A   1      35.358  22.197  24.350  1.00  0.00     0.264 C 
ATOM     83  C   UNL A   1      34.710  21.388  26.580  1.00  0.00     0.264 C 
ATOM     84  N   UNL A   1      35.702  21.353  25.496  1.00  0.00    -0.331 N 
ATOM     85  H   UNL A   1      36.551  21.757  25.892  1.00  0.00     0.348 HD
BRANCH  84  86
ATOM     86  C   UNL A   1      36.006  19.966  25.075  1.00  0.00     0.299 C 
BRANCH  86  87
ATOM     87  C   UNL A   1      34.806  19.153  24.618  1.00  0.00     0.006 A 
ATOM     88  C   UNL A   1      33.565  19.780  24.429  1.00  0.00     0.009 A 
ATOM     89  C   UNL A   1      34.935  17.800  24.272  1.00  0.00     0.009 A 
ATOM     90  C   UNL A   1      32.503  19.087  23.846  1.00  0.00     0.001 A 
ATOM     91  C   UNL A   1      33.882  17.116  23.666  1.00  0.00     0.001 A 
ATOM     92  C   UNL A   1      32.668  17.763  23.447  1.00  0.00     0.000 A 
ENDBRANCH  86  87
ENDBRANCH  84  86
ENDBRANCH  77  79
ENDBRANCH  69  75
ENDBRANCH  66  68
ENDBRANCH  65  66
ENDBRANCH  64  65
ENDBRANCH  63  64
ENDBRANCH  62  63
ENDBRANCH  61  62
ENDBRANCH   1  61
TORSDOF 24
ENDMDL
MODEL 3
REMARK VINA RESULT:      -8.9      5.037      9.977
REMARK SMILES O=C(OCCOCCOCCOCCOC(=O)[C@H]1[C@H](C(=O)NC2CC[NH+](Cc3ccccc3)CC2)[C@H]2C=C[C@@H]1C2)c1ccc(-c2c3nc(c(-c4ccccc4)c4ccc([nH]4)c(-c4ccccc4)c4nc(c(-c5ccccc5)c5ccc2[nH]5)C=C4)C=C3)cc1
REMARK SMILES IDX 10 1 9 2 8 3 7 4 6 5 5 6 4 7 3 8 2 9 1 10 41 11 42 12 88 13
REMARK SMILES IDX 43 14 87 15 44 16 45 17 46 18 81 19 47 20 86 21 80 22 82 23
REMARK SMILES IDX 48 24 85 25 79 26 78 27 49 29 71 30 56 31 70 32 57 33 60 34
REMARK SMILES IDX 69 35 83 36 58 37 59 38 68 40 84 41 61 42 50 43 51 44 55 45
REMARK SMILES IDX 52 46 54 47 53 48 72 49 73 50 77 51 74 52 76 53 75 54 62 55
REMARK SMILES IDX 63 56 67 57 64 58 66 59 65 60 11 61 12 62 13 63 14 64 15 65
REMARK SMILES IDX 16 66 17 67 18 68 19 69 39 70 36 71 38 72 40 73 37 74 20 75
REMARK SMILES IDX 21 76 22 77 23 79 24 80 35 81 25 82 34 83 26 84 27 86 28 87
REMARK SMILES IDX 29 88 33 89 30 90 32 91 31 92
REMARK H PARENT 82 28 60 39 22 78 26 85
REMARK Flexibility Score: inf
ROOT
ATOM      1  C   UNL A   1      38.204  20.192  24.873  1.00  0.00     0.188 C 
ENDROOT
BRANCH   1   2
ATOM      2  O   UNL A   1      39.173  20.677  25.790  1.00  0.00    -0.377 OA
BRANCH   2   3
ATOM      3  C   UNL A   1      40.228  19.774  26.094  1.00  0.00     0.188 C 
BRANCH   3   4
ATOM      4  C   UNL A   1      41.234  20.306  27.115  1.00  0.00     0.188 C 
BRANCH   4   5
ATOM      5  O   UNL A   1      42.548  19.820  26.837  1.00  0.00    -0.376 OA
BRANCH   5   6
ATOM      6  C   UNL A   1      42.796  19.314  25.525  1.00  0.00     0.202 C 
BRANCH   6   7
ATOM      7  C   UNL A   1      44.257  19.360  25.093  1.00  0.00     0.261 C 
BRANCH   7   8
ATOM      8  O   UNL A   1      44.846  20.658  25.221  1.00  0.00    -0.460 OA
BRANCH   8   9
ATOM      9  C   UNL A   1      44.450  21.832  24.674  1.00  0.00     0.338 C 
ATOM     10  O   UNL A   1      44.344  21.872  23.447  1.00  0.00    -0.246 OA
BRANCH   9  11
ATOM     11  C   UNL A   1      44.176  23.103  25.426  1.00  0.00     0.060 A 
ATOM     12  C   UNL A   1      44.075  24.392  24.891  1.00  0.00     0.016 A 
ATOM     13  C   UNL A   1      43.935  22.957  26.805  1.00  0.00     0.016 A 
ATOM     14  C   UNL A   1      43.732  25.490  25.667  1.00  0.00     0.010 A 
ATOM     15  C   UNL A   1      43.650  24.057  27.611  1.00  0.00     0.010 A 
ATOM     16  C   UNL A   1      43.576  25.329  27.035  1.00  0.00    -0.014 A 
BRANCH  16  17
ATOM     17  C   UNL A   1      43.674  26.531  27.868  1.00  0.00     0.031 A 
ATOM     18  C   UNL A   1      42.383  27.202  28.215  1.00  0.00     0.074 A 
ATOM     19  C   UNL A   1      44.852  26.925  28.372  1.00  0.00     0.049 A 
ATOM     20  N   UNL A   1      42.169  28.363  28.764  1.00  0.00    -0.248 NA
ATOM     21  C   UNL A   1      41.156  26.449  27.894  1.00  0.00     0.031 C 
ATOM     22  C   UNL A   1      46.116  26.203  28.231  1.00  0.00     0.029 A 
ATOM     23  N   UNL A   1      45.168  28.031  29.108  1.00  0.00    -0.354 N 
ATOM     24  C   UNL A   1      40.788  28.505  28.793  1.00  0.00     0.074 A 
ATOM     25  C   UNL A   1      40.212  27.310  28.227  1.00  0.00     0.031 C 
ATOM     26  C   UNL A   1      47.085  26.906  28.842  1.00  0.00     0.029 A 
ATOM     27  C   UNL A   1      46.514  28.156  29.334  1.00  0.00     0.049 A 
ATOM     28  H   UNL A   1      44.499  28.671  29.442  1.00  0.00     0.167 HD
ATOM     29  C   UNL A   1      40.077  29.569  29.225  1.00  0.00     0.031 A 
ATOM     30  C   UNL A   1      47.200  29.208  29.816  1.00  0.00     0.031 A 
ATOM     31  C   UNL A   1      40.712  30.743  29.750  1.00  0.00     0.049 A 
ATOM     32  C   UNL A   1      46.411  30.435  30.187  1.00  0.00     0.074 A 
ATOM     33  C   UNL A   1      40.146  31.930  30.165  1.00  0.00     0.029 A 
ATOM     34  N   UNL A   1      42.089  30.863  29.921  1.00  0.00    -0.354 N 
ATOM     35  N   UNL A   1      45.111  30.624  30.133  1.00  0.00    -0.248 NA
ATOM     36  C   UNL A   1      47.169  31.593  30.669  1.00  0.00     0.031 C 
ATOM     37  C   UNL A   1      41.188  32.791  30.531  1.00  0.00     0.029 A 
ATOM     38  C   UNL A   1      42.397  32.113  30.414  1.00  0.00     0.049 A 
ATOM     39  H   UNL A   1      42.746  30.158  29.720  1.00  0.00     0.167 HD
ATOM     40  C   UNL A   1      44.889  31.913  30.594  1.00  0.00     0.074 A 
ATOM     41  C   UNL A   1      46.194  32.456  30.928  1.00  0.00     0.031 C 
ATOM     42  C   UNL A   1      43.721  32.589  30.736  1.00  0.00     0.031 A 
BRANCH  29  43
ATOM     43  C   UNL A   1      38.592  29.525  29.000  1.00  0.00    -0.014 A 
ATOM     44  C   UNL A   1      38.015  29.795  27.747  1.00  0.00     0.009 A 
ATOM     45  C   UNL A   1      37.745  29.312  30.099  1.00  0.00     0.009 A 
ATOM     46  C   UNL A   1      36.628  29.920  27.617  1.00  0.00     0.001 A 
ATOM     47  C   UNL A   1      36.359  29.403  29.960  1.00  0.00     0.001 A 
ATOM     48  C   UNL A   1      35.802  29.727  28.724  1.00  0.00     0.000 A 
ENDBRANCH  29  43
BRANCH  30  49
ATOM     49  C   UNL A   1      48.685  29.157  29.874  1.00  0.00    -0.014 A 
ATOM     50  C   UNL A   1      49.472  29.862  28.955  1.00  0.00     0.009 A 
ATOM     51  C   UNL A   1      49.327  28.439  30.899  1.00  0.00     0.009 A 
ATOM     52  C   UNL A   1      50.868  29.848  29.058  1.00  0.00     0.001 A 
ATOM     53  C   UNL A   1      50.719  28.449  31.018  1.00  0.00     0.001 A 
ATOM     54  C   UNL A   1      51.489  29.150  30.094  1.00  0.00     0.000 A 
ENDBRANCH  30  49
BRANCH  42  55
ATOM     55  C   UNL A   1      43.799  33.964  31.330  1.00  0.00    -0.014 A 
ATOM     56  C   UNL A   1      43.832  34.158  32.717  1.00  0.00     0.009 A 
ATOM     57  C   UNL A   1      43.964  35.064  30.472  1.00  0.00     0.009 A 
ATOM     58  C   UNL A   1      44.020  35.439  33.237  1.00  0.00     0.001 A 
ATOM     59  C   UNL A   1      44.181  36.336  30.995  1.00  0.00     0.001 A 
ATOM     60  C   UNL A   1      44.205  36.523  32.376  1.00  0.00     0.000 A 
ENDBRANCH  42  55
ENDBRANCH  16  17
ENDBRANCH   9  11
ENDBRANCH   8   9
ENDBRANCH   7   8
ENDBRANCH   6   7
ENDBRANCH   5   6
ENDBRANCH   4   5
ENDBRANCH   3   4
ENDBRANCH   2   3
ENDBRANCH   1   2
BRANCH   1  61
ATOM     61  C   UNL A   1      36.865  20.963  24.763  1.00  0.00     0.188 C 
BRANCH  61  62
ATOM     62  O   UNL A   1      37.029  22.362  24.762  1.00  0.00    -0.376 OA
BRANCH  62  63
ATOM     63  C   UNL A   1      36.385  23.098  25.785  1.00  0.00     0.202 C 
BRANCH  63  64
ATOM     64  C   UNL A   1      35.477  22.432  26.842  1.00  0.00     0.261 C 
BRANCH  64  65
ATOM     65  O   UNL A   1      34.199  21.900  26.440  1.00  0.00    -0.463 OA
BRANCH  65  66
ATOM     66  C   UNL A   1      33.053  22.269  27.083  1.00  0.00     0.310 C 
ATOM     67  O   UNL A   1      32.946  22.330  28.287  1.00  0.00    -0.252 OA
BRANCH  66  68
ATOM     68  C   UNL A   1      31.972  22.619  26.031  1.00  0.00     0.119 C 
ATOM     69  C   UNL A   1      32.122  24.095  25.605  1.00  0.00     0.100 C 
ATOM     70  C   UNL A   1      31.928  21.902  24.633  1.00  0.00     0.027 C 
ATOM     71  C   UNL A   1      32.101  24.050  24.057  1.00  0.00     0.025 C 
ATOM     72  C   UNL A   1      33.243  22.038  23.917  1.00  0.00    -0.027 C 
ATOM     73  C   UNL A   1      31.174  22.892  23.731  1.00  0.00     0.017 C 
ATOM     74  C   UNL A   1      33.367  23.335  23.590  1.00  0.00    -0.027 C 
BRANCH  69  75
ATOM     75  C   UNL A   1      31.161  25.008  26.346  1.00  0.00     0.224 C 
ATOM     76  O   UNL A   1      30.097  24.540  26.768  1.00  0.00    -0.275 OA
ATOM     77  N   UNL A   1      31.339  26.340  26.532  1.00  0.00    -0.353 N 
ATOM     78  H   UNL A   1      30.496  26.829  26.676  1.00  0.00     0.163 HD
BRANCH  77  79
ATOM     79  C   UNL A   1      32.525  27.206  26.563  1.00  0.00     0.093 C 
ATOM     80  C   UNL A   1      32.098  28.662  26.743  1.00  0.00     0.086 C 
ATOM     81  C   UNL A   1      33.400  27.076  25.321  1.00  0.00     0.086 C 
ATOM     82  C   UNL A   1      31.383  29.154  25.496  1.00  0.00     0.264 C 
ATOM     83  C   UNL A   1      32.719  27.646  24.086  1.00  0.00     0.264 C 
ATOM     84  N   UNL A   1      32.199  29.005  24.289  1.00  0.00    -0.331 N 
ATOM     85  H   UNL A   1      33.022  29.591  24.439  1.00  0.00     0.348 HD
BRANCH  84  86
ATOM     86  C   UNL A   1      31.489  29.506  23.089  1.00  0.00     0.299 C 
BRANCH  86  87
ATOM     87  C   UNL A   1      29.983  29.635  23.240  1.00  0.00     0.006 A 
ATOM     88  C   UNL A   1      29.416  30.868  23.599  1.00  0.00     0.009 A 
ATOM     89  C   UNL A   1      29.128  28.571  22.918  1.00  0.00     0.009 A 
ATOM     90  C   UNL A   1      28.032  31.046  23.571  1.00  0.00     0.001 A 
ATOM     91  C   UNL A   1      27.747  28.758  22.865  1.00  0.00     0.001 A 
ATOM     92  C   UNL A   1      27.201  29.998  23.185  1.00  0.00     0.000 A 
ENDBRANCH  86  87
ENDBRANCH  84  86
ENDBRANCH  77  79
ENDBRANCH  69  75
ENDBRANCH  66  68
ENDBRANCH  65  66
ENDBRANCH  64  65
ENDBRANCH  63  64
ENDBRANCH  62  63
ENDBRANCH  61  62
ENDBRANCH   1  61
TORSDOF 24
ENDMDL
