MODEL 1
REMARK VINA RESULT:      -9.7      0.000      0.000
REMARK SMILES CC1(C)[C@H]2CC[C@]1(C)[C@H](NC(=O)CCC(=O)OCCOCCOCCOCCOC(=O)c1ccc(-c3c4nc(c(-c5ccccc5)c5ccc([nH]5)c(-c5ccccc5)c5nc(c(-c6ccccc6)c6ccc3[nH]6)C=C5)C=C4)cc1)C2
REMARK SMILES IDX 22 1 21 2 20 3 19 4 18 5 17 6 15 7 16 8 14 9 13 10 11 11
REMARK SMILES IDX 10 12 12 14 9 15 1 16 2 17 3 18 4 19 7 20 5 21 80 22 6 23
REMARK SMILES IDX 8 24 23 25 24 26 25 27 26 28 27 29 28 30 29 31 30 32 31 33
REMARK SMILES IDX 32 34 33 35 79 36 34 37 78 38 35 39 36 40 37 41 72 42 38 43
REMARK SMILES IDX 77 44 71 45 73 46 39 47 76 48 70 49 69 50 40 52 62 53 47 54
REMARK SMILES IDX 61 55 48 56 51 57 60 58 74 59 49 60 50 61 59 63 75 64 52 65
REMARK SMILES IDX 41 66 42 67 46 68 43 69 45 70 44 71 63 72 64 73 68 74 65 75
REMARK SMILES IDX 67 76 66 77 53 78 54 79 58 80 55 81 57 82 56 83
REMARK H PARENT 10 13 73 51 51 62
REMARK Flexibility Score: inf
ROOT
ATOM      1  C   UNL A   1      44.236  24.377  29.309  1.00  0.00     0.188 C 
ENDROOT
BRANCH   1   2
ATOM      2  C   UNL A   1      43.334  24.900  28.109  1.00  0.00     0.188 C 
BRANCH   2   3
ATOM      3  O   UNL A   1      43.551  24.287  26.798  1.00  0.00    -0.376 OA
BRANCH   3   4
ATOM      4  C   UNL A   1      43.446  22.852  26.656  1.00  0.00     0.202 C 
BRANCH   4   5
ATOM      5  C   UNL A   1      42.144  22.184  25.908  1.00  0.00     0.261 C 
BRANCH   5   6
ATOM      6  O   UNL A   1      41.838  20.705  25.893  1.00  0.00    -0.463 OA
BRANCH   6   7
ATOM      7  C   UNL A   1      40.505  20.293  25.887  1.00  0.00     0.306 C 
ATOM      8  O   UNL A   1      40.206  19.101  25.771  1.00  0.00    -0.252 OA
BRANCH   7   9
ATOM      9  C   UNL A   1      39.316  21.391  26.068  1.00  0.00     0.132 C 
BRANCH   9  10
ATOM     10  C   UNL A   1      37.884  21.631  25.394  1.00  0.00     0.111 C 
BRANCH  10  11
ATOM     11  C   UNL A   1      36.766  20.584  25.213  1.00  0.00     0.220 C 
ATOM     12  N   UNL A   1      35.470  20.878  25.571  1.00  0.00    -0.353 N 
ATOM     13  H   UNL A   1      34.882  20.152  25.882  1.00  0.00     0.163 HD
ATOM     14  O   UNL A   1      37.036  19.424  24.898  1.00  0.00    -0.275 OA
BRANCH  12  15
ATOM     15  C   UNL A   1      34.956  22.214  25.505  1.00  0.00     0.088 C 
ATOM     16  C   UNL A   1      31.018  23.363  24.862  1.00  0.00     0.012 C 
ATOM     17  C   UNL A   1      32.510  23.446  25.307  1.00  0.00    -0.025 C 
ATOM     18  C   UNL A   1      32.424  24.679  26.331  1.00  0.00     0.012 C 
ATOM     19  C   UNL A   1      32.653  22.195  26.161  1.00  0.00    -0.003 C 
ATOM     20  C   UNL A   1      33.933  22.766  24.409  1.00  0.00    -0.007 C 
ATOM     21  C   UNL A   1      32.560  21.008  25.161  1.00  0.00     0.005 C 
ATOM     22  C   UNL A   1      34.039  22.522  26.597  1.00  0.00     0.029 C 
ATOM     23  C   UNL A   1      33.214  21.533  23.853  1.00  0.00     0.010 C 
ATOM     24  C   UNL A   1      34.966  23.474  23.518  1.00  0.00     0.014 C 
ENDBRANCH  12  15
ENDBRANCH  10  11
ENDBRANCH   9  10
ENDBRANCH   7   9
ENDBRANCH   6   7
ENDBRANCH   5   6
ENDBRANCH   4   5
ENDBRANCH   3   4
ENDBRANCH   2   3
ENDBRANCH   1   2
BRANCH   1  25
ATOM     25  O   UNL A   1      44.801  25.257  30.289  1.00  0.00    -0.377 OA
BRANCH  25  26
ATOM     26  C   UNL A   1      46.136  25.737  30.127  1.00  0.00     0.188 C 
BRANCH  26  27
ATOM     27  C   UNL A   1      46.505  26.781  31.150  1.00  0.00     0.188 C 
BRANCH  27  28
ATOM     28  O   UNL A   1      47.882  26.726  31.463  1.00  0.00    -0.376 OA
BRANCH  28  29
ATOM     29  C   UNL A   1      48.408  25.564  32.091  1.00  0.00     0.202 C 
BRANCH  29  30
ATOM     30  C   UNL A   1      48.195  25.289  33.595  1.00  0.00     0.261 C 
BRANCH  30  31
ATOM     31  O   UNL A   1      46.858  25.300  34.152  1.00  0.00    -0.460 OA
BRANCH  31  32
ATOM     32  C   UNL A   1      46.581  25.915  35.311  1.00  0.00     0.338 C 
ATOM     33  O   UNL A   1      47.185  25.817  36.374  1.00  0.00    -0.246 OA
BRANCH  32  34
ATOM     34  C   UNL A   1      45.569  26.965  35.047  1.00  0.00     0.060 A 
ATOM     35  C   UNL A   1      44.258  26.742  35.494  1.00  0.00     0.016 A 
ATOM     36  C   UNL A   1      45.880  28.136  34.347  1.00  0.00     0.016 A 
ATOM     37  C   UNL A   1      43.243  27.645  35.191  1.00  0.00     0.010 A 
ATOM     38  C   UNL A   1      44.849  29.020  33.994  1.00  0.00     0.010 A 
ATOM     39  C   UNL A   1      43.520  28.735  34.359  1.00  0.00    -0.014 A 
BRANCH  39  40
ATOM     40  C   UNL A   1      42.389  29.272  33.556  1.00  0.00     0.031 A 
ATOM     41  C   UNL A   1      41.670  30.472  34.129  1.00  0.00     0.074 A 
ATOM     42  C   UNL A   1      42.084  28.820  32.328  1.00  0.00     0.049 A 
ATOM     43  N   UNL A   1      40.661  31.151  33.648  1.00  0.00    -0.248 NA
ATOM     44  C   UNL A   1      42.176  30.985  35.416  1.00  0.00     0.031 C 
ATOM     45  C   UNL A   1      42.776  27.748  31.615  1.00  0.00     0.029 A 
ATOM     46  N   UNL A   1      41.105  29.228  31.456  1.00  0.00    -0.354 N 
ATOM     47  C   UNL A   1      40.417  32.162  34.573  1.00  0.00     0.074 A 
ATOM     48  C   UNL A   1      41.359  31.997  35.653  1.00  0.00     0.031 C 
ATOM     49  C   UNL A   1      42.192  27.578  30.413  1.00  0.00     0.029 A 
ATOM     50  C   UNL A   1      41.065  28.502  30.290  1.00  0.00     0.049 A 
ATOM     51  H   UNL A   1      40.490  29.973  31.648  1.00  0.00     0.167 HD
ATOM     52  C   UNL A   1      39.494  33.148  34.532  1.00  0.00     0.031 A 
ATOM     53  C   UNL A   1      40.197  28.566  29.259  1.00  0.00     0.031 A 
ATOM     54  C   UNL A   1      38.538  33.298  33.473  1.00  0.00     0.049 A 
ATOM     55  C   UNL A   1      39.084  29.587  29.302  1.00  0.00     0.074 A 
ATOM     56  C   UNL A   1      37.526  34.232  33.351  1.00  0.00     0.029 A 
ATOM     57  N   UNL A   1      38.477  32.483  32.354  1.00  0.00    -0.354 N 
ATOM     58  N   UNL A   1      38.846  30.521  30.193  1.00  0.00    -0.248 NA
ATOM     59  C   UNL A   1      38.121  29.564  28.190  1.00  0.00     0.031 C 
ATOM     60  C   UNL A   1      36.815  33.945  32.182  1.00  0.00     0.029 A 
ATOM     61  C   UNL A   1      37.431  32.881  31.543  1.00  0.00     0.049 A 
ATOM     62  H   UNL A   1      39.087  31.735  32.164  1.00  0.00     0.167 HD
ATOM     63  C   UNL A   1      37.736  31.217  29.728  1.00  0.00     0.074 A 
ATOM     64  C   UNL A   1      37.357  30.609  28.470  1.00  0.00     0.031 C 
ATOM     65  C   UNL A   1      37.086  32.269  30.287  1.00  0.00     0.031 A 
BRANCH  52  66
ATOM     66  C   UNL A   1      39.446  34.099  35.693  1.00  0.00    -0.014 A 
ATOM     67  C   UNL A   1      40.069  35.357  35.637  1.00  0.00     0.009 A 
ATOM     68  C   UNL A   1      38.757  33.735  36.859  1.00  0.00     0.009 A 
ATOM     69  C   UNL A   1      40.026  36.216  36.737  1.00  0.00     0.001 A 
ATOM     70  C   UNL A   1      38.689  34.608  37.945  1.00  0.00     0.001 A 
ATOM     71  C   UNL A   1      39.331  35.845  37.886  1.00  0.00     0.000 A 
ENDBRANCH  52  66
BRANCH  53  72
ATOM     72  C   UNL A   1      40.297  27.615  28.116  1.00  0.00    -0.014 A 
ATOM     73  C   UNL A   1      39.649  26.369  28.151  1.00  0.00     0.009 A 
ATOM     74  C   UNL A   1      41.105  27.920  27.009  1.00  0.00     0.009 A 
ATOM     75  C   UNL A   1      39.839  25.440  27.124  1.00  0.00     0.001 A 
ATOM     76  C   UNL A   1      41.267  27.003  25.968  1.00  0.00     0.001 A 
ATOM     77  C   UNL A   1      40.645  25.758  26.033  1.00  0.00     0.000 A 
ENDBRANCH  53  72
BRANCH  65  78
ATOM     78  C   UNL A   1      35.943  32.870  29.516  1.00  0.00    -0.014 A 
ATOM     79  C   UNL A   1      34.755  32.161  29.290  1.00  0.00     0.009 A 
ATOM     80  C   UNL A   1      36.043  34.194  29.059  1.00  0.00     0.009 A 
ATOM     81  C   UNL A   1      33.705  32.753  28.585  1.00  0.00     0.001 A 
ATOM     82  C   UNL A   1      34.981  34.796  28.387  1.00  0.00     0.001 A 
ATOM     83  C   UNL A   1      33.816  34.072  28.141  1.00  0.00     0.000 A 
ENDBRANCH  65  78
ENDBRANCH  39  40
ENDBRANCH  32  34
ENDBRANCH  31  32
ENDBRANCH  30  31
ENDBRANCH  29  30
ENDBRANCH  28  29
ENDBRANCH  27  28
ENDBRANCH  26  27
ENDBRANCH  25  26
ENDBRANCH   1  25
TORSDOF 23
ENDMDL
MODEL 2
REMARK VINA RESULT:      -9.7      5.509     10.533
REMARK SMILES CC1(C)[C@H]2CC[C@]1(C)[C@H](NC(=O)CCC(=O)OCCOCCOCCOCCOC(=O)c1ccc(-c3c4nc(c(-c5ccccc5)c5ccc([nH]5)c(-c5ccccc5)c5nc(c(-c6ccccc6)c6ccc3[nH]6)C=C5)C=C4)cc1)C2
REMARK SMILES IDX 22 1 21 2 20 3 19 4 18 5 17 6 15 7 16 8 14 9 13 10 11 11
REMARK SMILES IDX 10 12 12 14 9 15 1 16 2 17 3 18 4 19 7 20 5 21 80 22 6 23
REMARK SMILES IDX 8 24 23 25 24 26 25 27 26 28 27 29 28 30 29 31 30 32 31 33
REMARK SMILES IDX 32 34 33 35 79 36 34 37 78 38 35 39 36 40 37 41 72 42 38 43
REMARK SMILES IDX 77 44 71 45 73 46 39 47 76 48 70 49 69 50 40 52 62 53 47 54
REMARK SMILES IDX 61 55 48 56 51 57 60 58 74 59 49 60 50 61 59 63 75 64 52 65
REMARK SMILES IDX 41 66 42 67 46 68 43 69 45 70 44 71 63 72 64 73 68 74 65 75
REMARK SMILES IDX 67 76 66 77 53 78 54 79 58 80 55 81 57 82 56 83
REMARK H PARENT 10 13 73 51 51 62
REMARK Flexibility Score: inf
ROOT
ATOM      1  C   UNL A   1      29.559  31.182  23.525  1.00  0.00     0.188 C 
ENDROOT
BRANCH   1   2
ATOM      2  C   UNL A   1      28.411  30.174  23.084  1.00  0.00     0.188 C 
BRANCH   2   3
ATOM      3  O   UNL A   1      28.832  28.866  22.580  1.00  0.00    -0.376 OA
BRANCH   3   4
ATOM      4  C   UNL A   1      30.229  28.628  22.297  1.00  0.00     0.202 C 
BRANCH   4   5
ATOM      5  C   UNL A   1      30.934  27.205  22.724  1.00  0.00     0.261 C 
BRANCH   5   6
ATOM      6  O   UNL A   1      32.388  26.872  22.489  1.00  0.00    -0.463 OA
BRANCH   6   7
ATOM      7  C   UNL A   1      33.357  27.821  22.820  1.00  0.00     0.306 C 
ATOM      8  O   UNL A   1      34.011  28.395  21.944  1.00  0.00    -0.252 OA
BRANCH   7   9
ATOM      9  C   UNL A   1      33.614  28.209  24.380  1.00  0.00     0.132 C 
BRANCH   9  10
ATOM     10  C   UNL A   1      33.525  27.423  25.771  1.00  0.00     0.111 C 
BRANCH  10  11
ATOM     11  C   UNL A   1      32.270  26.761  26.375  1.00  0.00     0.220 C 
ATOM     12  N   UNL A   1      31.743  25.621  25.812  1.00  0.00    -0.353 N 
ATOM     13  H   UNL A   1      30.774  25.460  25.874  1.00  0.00     0.163 HD
ATOM     14  O   UNL A   1      31.628  27.323  27.264  1.00  0.00    -0.275 OA
BRANCH  12  15
ATOM     15  C   UNL A   1      32.569  24.665  25.137  1.00  0.00     0.088 C 
ATOM     16  C   UNL A   1      32.230  20.528  25.248  1.00  0.00     0.012 C 
ATOM     17  C   UNL A   1      32.633  21.947  24.746  1.00  0.00    -0.025 C 
ATOM     18  C   UNL A   1      32.958  21.615  23.209  1.00  0.00     0.012 C 
ATOM     19  C   UNL A   1      31.296  22.673  24.748  1.00  0.00    -0.003 C 
ATOM     20  C   UNL A   1      33.175  23.335  25.783  1.00  0.00    -0.007 C 
ATOM     21  C   UNL A   1      30.923  22.830  26.250  1.00  0.00     0.005 C 
ATOM     22  C   UNL A   1      31.844  23.908  24.121  1.00  0.00     0.029 C 
ATOM     23  C   UNL A   1      32.280  23.012  26.984  1.00  0.00     0.010 C 
ATOM     24  C   UNL A   1      34.588  23.874  26.048  1.00  0.00     0.014 C 
ENDBRANCH  12  15
ENDBRANCH  10  11
ENDBRANCH   9  10
ENDBRANCH   7   9
ENDBRANCH   6   7
ENDBRANCH   5   6
ENDBRANCH   4   5
ENDBRANCH   3   4
ENDBRANCH   2   3
ENDBRANCH   1   2
BRANCH   1  25
ATOM     25  O   UNL A   1      29.970  31.331  24.889  1.00  0.00    -0.377 OA
BRANCH  25  26
ATOM     26  C   UNL A   1      31.116  30.625  25.367  1.00  0.00     0.188 C 
BRANCH  26  27
ATOM     27  C   UNL A   1      31.753  31.293  26.559  1.00  0.00     0.188 C 
BRANCH  27  28
ATOM     28  O   UNL A   1      33.037  30.761  26.815  1.00  0.00    -0.376 OA
BRANCH  28  29
ATOM     29  C   UNL A   1      33.913  31.450  27.698  1.00  0.00     0.202 C 
BRANCH  29  30
ATOM     30  C   UNL A   1      35.108  30.740  28.373  1.00  0.00     0.261 C 
BRANCH  30  31
ATOM     31  O   UNL A   1      35.699  31.299  29.571  1.00  0.00    -0.460 OA
BRANCH  31  32
ATOM     32  C   UNL A   1      36.228  30.519  30.526  1.00  0.00     0.338 C 
ATOM     33  O   UNL A   1      35.858  30.408  31.691  1.00  0.00    -0.246 OA
BRANCH  32  34
ATOM     34  C   UNL A   1      37.184  29.587  29.886  1.00  0.00     0.060 A 
ATOM     35  C   UNL A   1      37.825  28.640  30.700  1.00  0.00     0.016 A 
ATOM     36  C   UNL A   1      37.480  29.649  28.520  1.00  0.00     0.016 A 
ATOM     37  C   UNL A   1      38.805  27.802  30.176  1.00  0.00     0.010 A 
ATOM     38  C   UNL A   1      38.505  28.844  28.001  1.00  0.00     0.010 A 
ATOM     39  C   UNL A   1      39.213  27.970  28.848  1.00  0.00    -0.014 A 
BRANCH  39  40
ATOM     40  C   UNL A   1      40.606  27.568  28.517  1.00  0.00     0.031 A 
ATOM     41  C   UNL A   1      41.669  28.629  28.684  1.00  0.00     0.074 A 
ATOM     42  C   UNL A   1      40.949  26.305  28.210  1.00  0.00     0.049 A 
ATOM     43  N   UNL A   1      42.958  28.562  28.479  1.00  0.00    -0.248 NA
ATOM     44  C   UNL A   1      41.209  29.945  29.167  1.00  0.00     0.031 C 
ATOM     45  C   UNL A   1      40.038  25.166  28.133  1.00  0.00     0.029 A 
ATOM     46  N   UNL A   1      42.181  25.772  27.917  1.00  0.00    -0.354 N 
ATOM     47  C   UNL A   1      43.454  29.820  28.806  1.00  0.00     0.074 A 
ATOM     48  C   UNL A   1      42.333  30.639  29.196  1.00  0.00     0.031 C 
ATOM     49  C   UNL A   1      40.743  24.066  27.804  1.00  0.00     0.029 A 
ATOM     50  C   UNL A   1      42.146  24.433  27.613  1.00  0.00     0.049 A 
ATOM     51  H   UNL A   1      43.011  26.301  27.926  1.00  0.00     0.167 HD
ATOM     52  C   UNL A   1      44.732  30.262  28.790  1.00  0.00     0.031 A 
ATOM     53  C   UNL A   1      43.134  23.613  27.201  1.00  0.00     0.031 A 
ATOM     54  C   UNL A   1      45.846  29.458  28.376  1.00  0.00     0.049 A 
ATOM     55  C   UNL A   1      44.532  24.167  27.055  1.00  0.00     0.074 A 
ATOM     56  C   UNL A   1      47.177  29.816  28.274  1.00  0.00     0.029 A 
ATOM     57  N   UNL A   1      45.750  28.131  27.989  1.00  0.00    -0.354 N 
ATOM     58  N   UNL A   1      44.986  25.365  27.342  1.00  0.00    -0.248 NA
ATOM     59  C   UNL A   1      45.556  23.251  26.530  1.00  0.00     0.031 C 
ATOM     60  C   UNL A   1      47.880  28.719  27.770  1.00  0.00     0.029 A 
ATOM     61  C   UNL A   1      46.999  27.659  27.629  1.00  0.00     0.049 A 
ATOM     62  H   UNL A   1      44.920  27.603  27.974  1.00  0.00     0.167 HD
ATOM     63  C   UNL A   1      46.350  25.330  27.072  1.00  0.00     0.074 A 
ATOM     64  C   UNL A   1      46.652  23.990  26.613  1.00  0.00     0.031 C 
ATOM     65  C   UNL A   1      47.275  26.315  27.193  1.00  0.00     0.031 A 
BRANCH  52  66
ATOM     66  C   UNL A   1      44.974  31.692  29.180  1.00  0.00    -0.014 A 
ATOM     67  C   UNL A   1      44.864  32.735  28.246  1.00  0.00     0.009 A 
ATOM     68  C   UNL A   1      45.306  32.001  30.507  1.00  0.00     0.009 A 
ATOM     69  C   UNL A   1      45.111  34.055  28.629  1.00  0.00     0.001 A 
ATOM     70  C   UNL A   1      45.523  33.324  30.894  1.00  0.00     0.001 A 
ATOM     71  C   UNL A   1      45.433  34.349  29.953  1.00  0.00     0.000 A 
ENDBRANCH  52  66
BRANCH  53  72
ATOM     72  C   UNL A   1      42.851  22.193  26.846  1.00  0.00    -0.014 A 
ATOM     73  C   UNL A   1      42.073  21.377  27.683  1.00  0.00     0.009 A 
ATOM     74  C   UNL A   1      43.423  21.623  25.696  1.00  0.00     0.009 A 
ATOM     75  C   UNL A   1      41.906  20.019  27.398  1.00  0.00     0.001 A 
ATOM     76  C   UNL A   1      43.227  20.273  25.395  1.00  0.00     0.001 A 
ATOM     77  C   UNL A   1      42.481  19.469  26.254  1.00  0.00     0.000 A 
ENDBRANCH  53  72
BRANCH  65  78
ATOM     78  C   UNL A   1      48.706  25.968  26.890  1.00  0.00    -0.014 A 
ATOM     79  C   UNL A   1      49.278  26.234  25.637  1.00  0.00     0.009 A 
ATOM     80  C   UNL A   1      49.508  25.415  27.901  1.00  0.00     0.009 A 
ATOM     81  C   UNL A   1      50.616  25.915  25.393  1.00  0.00     0.001 A 
ATOM     82  C   UNL A   1      50.852  25.130  27.666  1.00  0.00     0.001 A 
ATOM     83  C   UNL A   1      51.402  25.370  26.408  1.00  0.00     0.000 A 
ENDBRANCH  65  78
ENDBRANCH  39  40
ENDBRANCH  32  34
ENDBRANCH  31  32
ENDBRANCH  30  31
ENDBRANCH  29  30
ENDBRANCH  28  29
ENDBRANCH  27  28
ENDBRANCH  26  27
ENDBRANCH  25  26
ENDBRANCH   1  25
TORSDOF 23
ENDMDL
MODEL 3
REMARK VINA RESULT:      -9.2      5.243     10.354
REMARK SMILES CC1(C)[C@H]2CC[C@]1(C)[C@H](NC(=O)CCC(=O)OCCOCCOCCOCCOC(=O)c1ccc(-c3c4nc(c(-c5ccccc5)c5ccc([nH]5)c(-c5ccccc5)c5nc(c(-c6ccccc6)c6ccc3[nH]6)C=C5)C=C4)cc1)C2
REMARK SMILES IDX 22 1 21 2 20 3 19 4 18 5 17 6 15 7 16 8 14 9 13 10 11 11
REMARK SMILES IDX 10 12 12 14 9 15 1 16 2 17 3 18 4 19 7 20 5 21 80 22 6 23
REMARK SMILES IDX 8 24 23 25 24 26 25 27 26 28 27 29 28 30 29 31 30 32 31 33
REMARK SMILES IDX 32 34 33 35 79 36 34 37 78 38 35 39 36 40 37 41 72 42 38 43
REMARK SMILES IDX 77 44 71 45 73 46 39 47 76 48 70 49 69 50 40 52 62 53 47 54
REMARK SMILES IDX 61 55 48 56 51 57 60 58 74 59 49 60 50 61 59 63 75 64 52 65
REMARK SMILES IDX 41 66 42 67 46 68 43 69 45 70 44 71 63 72 64 73 68 74 65 75
REMARK SMILES IDX 67 76 66 77 53 78 54 79 58 80 55 81 57 82 56 83
REMARK H PARENT 10 13 73 51 51 62
REMARK Flexibility Score: inf
ROOT
ATOM      1  C   UNL A   1      34.893  32.505  32.060  1.00  0.00     0.188 C 
ENDROOT
BRANCH   1   2
ATOM      2  C   UNL A   1      35.663  31.684  30.938  1.00  0.00     0.188 C 
BRANCH   2   3
ATOM      3  O   UNL A   1      36.440  32.454  29.965  1.00  0.00    -0.376 OA
BRANCH   3   4
ATOM      4  C   UNL A   1      35.879  32.731  28.663  1.00  0.00     0.202 C 
BRANCH   4   5
ATOM      5  C   UNL A   1      35.213  31.521  27.771  1.00  0.00     0.261 C 
BRANCH   5   6
ATOM      6  O   UNL A   1      33.962  31.669  26.938  1.00  0.00    -0.463 OA
BRANCH   6   7
ATOM      7  C   UNL A   1      33.149  30.551  26.742  1.00  0.00     0.306 C 
ATOM      8  O   UNL A   1      31.956  30.568  27.058  1.00  0.00    -0.252 OA
BRANCH   7   9
ATOM      9  C   UNL A   1      33.765  29.209  26.055  1.00  0.00     0.132 C 
BRANCH   9  10
ATOM     10  C   UNL A   1      33.451  27.643  26.150  1.00  0.00     0.111 C 
BRANCH  10  11
ATOM     11  C   UNL A   1      32.149  26.995  26.664  1.00  0.00     0.220 C 
ATOM     12  N   UNL A   1      31.560  25.965  25.968  1.00  0.00    -0.353 N 
ATOM     13  H   UNL A   1      30.582  25.859  26.005  1.00  0.00     0.163 HD
ATOM     14  O   UNL A   1      31.533  27.488  27.611  1.00  0.00    -0.275 OA
BRANCH  12  15
ATOM     15  C   UNL A   1      32.333  25.045  25.189  1.00  0.00     0.088 C 
ATOM     16  C   UNL A   1      32.003  20.906  25.130  1.00  0.00     0.012 C 
ATOM     17  C   UNL A   1      32.368  22.349  24.667  1.00  0.00    -0.025 C 
ATOM     18  C   UNL A   1      32.577  22.090  23.096  1.00  0.00     0.012 C 
ATOM     19  C   UNL A   1      31.035  23.069  24.803  1.00  0.00    -0.003 C 
ATOM     20  C   UNL A   1      32.986  23.688  25.725  1.00  0.00    -0.007 C 
ATOM     21  C   UNL A   1      30.775  23.154  26.334  1.00  0.00     0.005 C 
ATOM     22  C   UNL A   1      31.535  24.334  24.196  1.00  0.00     0.029 C 
ATOM     23  C   UNL A   1      32.184  23.306  26.972  1.00  0.00     0.010 C 
ATOM     24  C   UNL A   1      34.415  24.219  25.909  1.00  0.00     0.014 C 
ENDBRANCH  12  15
ENDBRANCH  10  11
ENDBRANCH   9  10
ENDBRANCH   7   9
ENDBRANCH   6   7
ENDBRANCH   5   6
ENDBRANCH   4   5
ENDBRANCH   3   4
ENDBRANCH   2   3
ENDBRANCH   1   2
BRANCH   1  25
ATOM     25  O   UNL A   1      33.982  33.566  31.750  1.00  0.00    -0.377 OA
BRANCH  25  26
ATOM     26  C   UNL A   1      33.972  34.750  32.547  1.00  0.00     0.188 C 
BRANCH  26  27
ATOM     27  C   UNL A   1      35.356  35.187  32.954  1.00  0.00     0.188 C 
BRANCH  27  28
ATOM     28  O   UNL A   1      35.563  34.999  34.340  1.00  0.00    -0.376 OA
BRANCH  28  29
ATOM     29  C   UNL A   1      36.394  33.934  34.782  1.00  0.00     0.202 C 
BRANCH  29  30
ATOM     30  C   UNL A   1      37.839  34.181  35.268  1.00  0.00     0.261 C 
BRANCH  30  31
ATOM     31  O   UNL A   1      38.829  33.129  35.163  1.00  0.00    -0.460 OA
BRANCH  31  32
ATOM     32  C   UNL A   1      38.494  31.834  35.256  1.00  0.00     0.338 C 
ATOM     33  O   UNL A   1      37.723  31.316  36.057  1.00  0.00    -0.246 OA
BRANCH  32  34
ATOM     34  C   UNL A   1      38.999  31.138  34.049  1.00  0.00     0.060 A 
ATOM     35  C   UNL A   1      39.826  30.019  34.233  1.00  0.00     0.016 A 
ATOM     36  C   UNL A   1      38.700  31.581  32.757  1.00  0.00     0.016 A 
ATOM     37  C   UNL A   1      40.410  29.383  33.142  1.00  0.00     0.010 A 
ATOM     38  C   UNL A   1      39.330  30.976  31.659  1.00  0.00     0.010 A 
ATOM     39  C   UNL A   1      40.239  29.920  31.861  1.00  0.00    -0.014 A 
BRANCH  39  40
ATOM     40  C   UNL A   1      41.318  29.659  30.873  1.00  0.00     0.031 A 
ATOM     41  C   UNL A   1      41.137  28.450  29.985  1.00  0.00     0.074 A 
ATOM     42  C   UNL A   1      42.344  30.503  30.669  1.00  0.00     0.049 A 
ATOM     43  N   UNL A   1      41.906  27.986  29.035  1.00  0.00    -0.248 NA
ATOM     44  C   UNL A   1      39.903  27.668  30.188  1.00  0.00     0.031 C 
ATOM     45  C   UNL A   1      42.569  31.762  31.377  1.00  0.00     0.029 A 
ATOM     46  N   UNL A   1      43.389  30.424  29.782  1.00  0.00    -0.354 N 
ATOM     47  C   UNL A   1      41.249  26.865  28.537  1.00  0.00     0.074 A 
ATOM     48  C   UNL A   1      40.037  26.699  29.300  1.00  0.00     0.031 C 
ATOM     49  C   UNL A   1      43.692  32.334  30.900  1.00  0.00     0.029 A 
ATOM     50  C   UNL A   1      44.281  31.465  29.882  1.00  0.00     0.049 A 
ATOM     51  H   UNL A   1      43.490  29.689  29.134  1.00  0.00     0.167 HD
ATOM     52  C   UNL A   1      41.616  26.042  27.528  1.00  0.00     0.031 A 
ATOM     53  C   UNL A   1      45.449  31.669  29.241  1.00  0.00     0.031 A 
ATOM     54  C   UNL A   1      42.835  26.188  26.786  1.00  0.00     0.049 A 
ATOM     55  C   UNL A   1      45.907  30.658  28.215  1.00  0.00     0.074 A 
ATOM     56  C   UNL A   1      43.330  25.385  25.775  1.00  0.00     0.029 A 
ATOM     57  N   UNL A   1      43.752  27.208  26.983  1.00  0.00    -0.354 N 
ATOM     58  N   UNL A   1      45.292  29.588  27.770  1.00  0.00    -0.248 NA
ATOM     59  C   UNL A   1      47.224  30.889  27.600  1.00  0.00     0.031 C 
ATOM     60  C   UNL A   1      44.578  25.888  25.400  1.00  0.00     0.029 A 
ATOM     61  C   UNL A   1      44.823  27.044  26.124  1.00  0.00     0.049 A 
ATOM     62  H   UNL A   1      43.656  27.938  27.635  1.00  0.00     0.167 HD
ATOM     63  C   UNL A   1      46.126  29.045  26.798  1.00  0.00     0.074 A 
ATOM     64  C   UNL A   1      47.283  29.911  26.708  1.00  0.00     0.031 C 
ATOM     65  C   UNL A   1      45.953  27.931  26.043  1.00  0.00     0.031 A 
BRANCH  52  66
ATOM     66  C   UNL A   1      40.710  24.885  27.217  1.00  0.00    -0.014 A 
ATOM     67  C   UNL A   1      39.517  25.062  26.497  1.00  0.00     0.009 A 
ATOM     68  C   UNL A   1      41.062  23.595  27.641  1.00  0.00     0.009 A 
ATOM     69  C   UNL A   1      38.682  23.973  26.234  1.00  0.00     0.001 A 
ATOM     70  C   UNL A   1      40.242  22.505  27.352  1.00  0.00     0.001 A 
ATOM     71  C   UNL A   1      39.048  22.696  26.656  1.00  0.00     0.000 A 
ENDBRANCH  52  66
BRANCH  53  72
ATOM     72  C   UNL A   1      46.306  32.844  29.567  1.00  0.00    -0.014 A 
ATOM     73  C   UNL A   1      45.915  34.147  29.216  1.00  0.00     0.009 A 
ATOM     74  C   UNL A   1      47.561  32.660  30.170  1.00  0.00     0.009 A 
ATOM     75  C   UNL A   1      46.775  35.229  29.427  1.00  0.00     0.001 A 
ATOM     76  C   UNL A   1      48.404  33.747  30.411  1.00  0.00     0.001 A 
ATOM     77  C   UNL A   1      48.017  35.029  30.026  1.00  0.00     0.000 A 
ENDBRANCH  53  72
BRANCH  65  78
ATOM     78  C   UNL A   1      47.002  27.620  25.012  1.00  0.00    -0.014 A 
ATOM     79  C   UNL A   1      48.126  26.838  25.317  1.00  0.00     0.009 A 
ATOM     80  C   UNL A   1      46.827  28.075  23.695  1.00  0.00     0.009 A 
ATOM     81  C   UNL A   1      49.073  26.553  24.332  1.00  0.00     0.001 A 
ATOM     82  C   UNL A   1      47.756  27.760  22.704  1.00  0.00     0.001 A 
ATOM     83  C   UNL A   1      48.884  27.007  23.026  1.00  0.00     0.000 A 
ENDBRANCH  65  78
ENDBRANCH  39  40
ENDBRANCH  32  34
ENDBRANCH  31  32
ENDBRANCH  30  31
ENDBRANCH  29  30
ENDBRANCH  28  29
ENDBRANCH  27  28
ENDBRANCH  26  27
ENDBRANCH  25  26
ENDBRANCH   1  25
TORSDOF 23
ENDMDL
