MODEL 1
REMARK VINA RESULT:      -9.2      0.000      0.000
REMARK SMILES CCCC[C@@H](C(=O)OCCOCCOCCOCCOC(=O)c1ccc(-c2c3nc(c(-c4ccccc4)c4ccc([nH]4)c(-c4ccccc4)c4nc(c(-c5ccccc5)c5ccc2[nH]5)C=C4)C=C3)cc1)[C@@H](O)c1cccc(C(F)(F)F)c1
REMARK SMILES IDX 13 1 12 2 11 3 10 4 9 5 8 6 6 7 7 8 5 9 4 10 3 11 2 12 1 13
REMARK SMILES IDX 71 14 72 15 73 17 74 18 82 19 75 20 77 21 76 22 78 23 79 24
REMARK SMILES IDX 80 25 81 26 14 27 15 28 16 29 17 30 18 31 19 32 20 33 21 34
REMARK SMILES IDX 22 35 23 36 24 37 70 38 25 39 69 40 26 41 27 42 28 43 63 44
REMARK SMILES IDX 29 45 68 46 62 47 64 48 30 49 67 50 61 51 60 52 31 54 53 55
REMARK SMILES IDX 38 56 52 57 39 58 42 59 51 60 65 61 40 62 41 63 50 65 66 66
REMARK SMILES IDX 43 67 32 68 33 69 37 70 34 71 36 72 35 73 54 74 55 75 59 76
REMARK SMILES IDX 56 77 58 78 57 79 44 80 45 81 49 82 46 83 48 84 47 85
REMARK H PARENT 72 16 64 53 42 64
REMARK Flexibility Score: inf
ROOT
ATOM      1  C   UNL A   1      30.342  28.287  23.691  1.00  0.00     0.188 C 
ENDROOT
BRANCH   1   2
ATOM      2  C   UNL A   1      31.421  27.330  23.166  1.00  0.00     0.188 C 
BRANCH   2   3
ATOM      3  O   UNL A   1      30.922  26.106  22.649  1.00  0.00    -0.376 OA
BRANCH   3   4
ATOM      4  C   UNL A   1      31.720  24.958  22.914  1.00  0.00     0.202 C 
BRANCH   4   5
ATOM      5  C   UNL A   1      30.983  23.720  23.449  1.00  0.00     0.261 C 
BRANCH   5   6
ATOM      6  O   UNL A   1      31.866  22.718  23.997  1.00  0.00    -0.463 OA
BRANCH   6   7
ATOM      7  C   UNL A   1      32.162  21.629  23.256  1.00  0.00     0.312 C 
ATOM      8  O   UNL A   1      31.749  21.448  22.117  1.00  0.00    -0.252 OA
BRANCH   7   9
ATOM      9  C   UNL A   1      33.105  20.658  23.970  1.00  0.00     0.132 C 
BRANCH   9  10
ATOM     10  C   UNL A   1      32.544  19.254  24.337  1.00  0.00     0.018 C 
BRANCH  10  11
ATOM     11  C   UNL A   1      32.516  18.154  23.274  1.00  0.00     0.001 C 
BRANCH  11  12
ATOM     12  C   UNL A   1      33.771  17.294  23.187  1.00  0.00    -0.003 C 
ATOM     13  C   UNL A   1      33.786  16.168  24.208  1.00  0.00     0.004 C 
ENDBRANCH  11  12
ENDBRANCH  10  11
ENDBRANCH   9  10
BRANCH   9  14
ATOM     14  C   UNL A   1      33.740  21.313  25.231  1.00  0.00     0.158 C 
BRANCH  14  15
ATOM     15  O   UNL A   1      33.171  20.741  26.416  1.00  0.00    -0.388 OA
ATOM     16  H   UNL A   1      32.268  20.439  26.228  1.00  0.00     0.211 HD
ENDBRANCH  14  15
BRANCH  14  17
ATOM     17  C   UNL A   1      35.245  21.183  25.341  1.00  0.00    -0.018 A 
ATOM     18  C   UNL A   1      35.916  20.058  24.855  1.00  0.00     0.006 A 
ATOM     19  C   UNL A   1      36.009  22.231  25.882  1.00  0.00     0.019 A 
ATOM     20  C   UNL A   1      37.311  20.008  24.863  1.00  0.00     0.001 A 
ATOM     21  C   UNL A   1      37.410  22.231  25.823  1.00  0.00     0.056 A 
ATOM     22  C   UNL A   1      38.054  21.097  25.321  1.00  0.00     0.013 A 
BRANCH  21  23
ATOM     23  C   UNL A   1      38.198  23.445  26.250  1.00  0.00     0.416 C 
ATOM     24  F   UNL A   1      39.383  23.129  26.837  1.00  0.00    -0.166 F 
ATOM     25  F   UNL A   1      38.502  24.264  25.203  1.00  0.00    -0.166 F 
ATOM     26  F   UNL A   1      37.534  24.232  27.146  1.00  0.00    -0.166 F 
ENDBRANCH  21  23
ENDBRANCH  14  17
ENDBRANCH   9  14
ENDBRANCH   7   9
ENDBRANCH   6   7
ENDBRANCH   5   6
ENDBRANCH   4   5
ENDBRANCH   3   4
ENDBRANCH   2   3
ENDBRANCH   1   2
BRANCH   1  27
ATOM     27  O   UNL A   1      30.743  29.518  24.268  1.00  0.00    -0.377 OA
BRANCH  27  28
ATOM     28  C   UNL A   1      31.977  29.556  24.977  1.00  0.00     0.188 C 
BRANCH  28  29
ATOM     29  C   UNL A   1      31.979  29.576  26.524  1.00  0.00     0.188 C 
BRANCH  29  30
ATOM     30  O   UNL A   1      32.362  30.808  27.118  1.00  0.00    -0.376 OA
BRANCH  30  31
ATOM     31  C   UNL A   1      31.552  31.942  26.839  1.00  0.00     0.202 C 
BRANCH  31  32
ATOM     32  C   UNL A   1      32.242  33.311  26.927  1.00  0.00     0.261 C 
BRANCH  32  33
ATOM     33  O   UNL A   1      32.295  33.902  28.237  1.00  0.00    -0.460 OA
BRANCH  33  34
ATOM     34  C   UNL A   1      33.359  34.680  28.533  1.00  0.00     0.338 C 
ATOM     35  O   UNL A   1      33.384  35.885  28.676  1.00  0.00    -0.246 OA
BRANCH  34  36
ATOM     36  C   UNL A   1      34.485  33.778  28.844  1.00  0.00     0.060 A 
ATOM     37  C   UNL A   1      34.218  32.520  29.402  1.00  0.00     0.016 A 
ATOM     38  C   UNL A   1      35.795  34.172  28.567  1.00  0.00     0.016 A 
ATOM     39  C   UNL A   1      35.270  31.661  29.712  1.00  0.00     0.010 A 
ATOM     40  C   UNL A   1      36.848  33.323  28.905  1.00  0.00     0.010 A 
ATOM     41  C   UNL A   1      36.591  32.078  29.508  1.00  0.00    -0.014 A 
BRANCH  41  42
ATOM     42  C   UNL A   1      37.704  31.321  30.122  1.00  0.00     0.031 A 
ATOM     43  C   UNL A   1      38.005  31.565  31.574  1.00  0.00     0.074 A 
ATOM     44  C   UNL A   1      38.425  30.432  29.419  1.00  0.00     0.049 A 
ATOM     45  N   UNL A   1      38.959  31.070  32.320  1.00  0.00    -0.248 NA
ATOM     46  C   UNL A   1      37.107  32.496  32.279  1.00  0.00     0.031 C 
ATOM     47  C   UNL A   1      38.196  30.063  28.023  1.00  0.00     0.029 A 
ATOM     48  N   UNL A   1      39.510  29.679  29.795  1.00  0.00    -0.354 N 
ATOM     49  C   UNL A   1      38.779  31.633  33.577  1.00  0.00     0.074 A 
ATOM     50  C   UNL A   1      37.646  32.528  33.487  1.00  0.00     0.031 C 
ATOM     51  C   UNL A   1      39.120  29.157  27.657  1.00  0.00     0.029 A 
ATOM     52  C   UNL A   1      40.024  28.912  28.779  1.00  0.00     0.049 A 
ATOM     53  H   UNL A   1      39.882  29.689  30.706  1.00  0.00     0.167 HD
ATOM     54  C   UNL A   1      39.488  31.421  34.709  1.00  0.00     0.031 A 
ATOM     55  C   UNL A   1      41.115  28.122  28.757  1.00  0.00     0.031 A 
ATOM     56  C   UNL A   1      40.631  30.553  34.794  1.00  0.00     0.049 A 
ATOM     57  C   UNL A   1      41.956  27.986  30.001  1.00  0.00     0.074 A 
ATOM     58  C   UNL A   1      41.422  30.272  35.894  1.00  0.00     0.029 A 
ATOM     59  N   UNL A   1      41.154  29.838  33.728  1.00  0.00    -0.354 N 
ATOM     60  N   UNL A   1      41.768  28.507  31.190  1.00  0.00    -0.248 NA
ATOM     61  C   UNL A   1      43.160  27.148  29.897  1.00  0.00     0.031 C 
ATOM     62  C   UNL A   1      42.460  29.431  35.479  1.00  0.00     0.029 A 
ATOM     63  C   UNL A   1      42.276  29.137  34.137  1.00  0.00     0.049 A 
ATOM     64  H   UNL A   1      40.783  29.828  32.817  1.00  0.00     0.167 HD
ATOM     65  C   UNL A   1      42.808  28.035  31.982  1.00  0.00     0.074 A 
ATOM     66  C   UNL A   1      43.618  27.176  31.142  1.00  0.00     0.031 C 
ATOM     67  C   UNL A   1      43.069  28.285  33.289  1.00  0.00     0.031 A 
BRANCH  54  68
ATOM     68  C   UNL A   1      39.067  32.181  35.936  1.00  0.00    -0.014 A 
ATOM     69  C   UNL A   1      39.605  33.443  36.232  1.00  0.00     0.009 A 
ATOM     70  C   UNL A   1      38.111  31.629  36.802  1.00  0.00     0.009 A 
ATOM     71  C   UNL A   1      39.222  34.120  37.393  1.00  0.00     0.001 A 
ATOM     72  C   UNL A   1      37.707  32.321  37.944  1.00  0.00     0.001 A 
ATOM     73  C   UNL A   1      38.270  33.561  38.245  1.00  0.00     0.000 A 
ENDBRANCH  54  68
BRANCH  55  74
ATOM     74  C   UNL A   1      41.498  27.407  27.509  1.00  0.00    -0.014 A 
ATOM     75  C   UNL A   1      41.098  26.080  27.294  1.00  0.00     0.009 A 
ATOM     76  C   UNL A   1      42.292  28.041  26.541  1.00  0.00     0.009 A 
ATOM     77  C   UNL A   1      41.505  25.394  26.148  1.00  0.00     0.001 A 
ATOM     78  C   UNL A   1      42.674  27.362  25.381  1.00  0.00     0.001 A 
ATOM     79  C   UNL A   1      42.289  26.037  25.190  1.00  0.00     0.000 A 
ENDBRANCH  55  74
BRANCH  67  80
ATOM     80  C   UNL A   1      44.252  27.590  33.906  1.00  0.00    -0.014 A 
ATOM     81  C   UNL A   1      45.519  28.190  33.941  1.00  0.00     0.009 A 
ATOM     82  C   UNL A   1      44.078  26.334  34.509  1.00  0.00     0.009 A 
ATOM     83  C   UNL A   1      46.596  27.532  34.540  1.00  0.00     0.001 A 
ATOM     84  C   UNL A   1      45.148  25.692  35.135  1.00  0.00     0.001 A 
ATOM     85  C   UNL A   1      46.408  26.287  35.141  1.00  0.00     0.000 A 
ENDBRANCH  67  80
ENDBRANCH  41  42
ENDBRANCH  34  36
ENDBRANCH  33  34
ENDBRANCH  32  33
ENDBRANCH  31  32
ENDBRANCH  30  31
ENDBRANCH  29  30
ENDBRANCH  28  29
ENDBRANCH  27  28
ENDBRANCH   1  27
TORSDOF 27
ENDMDL
MODEL 2
REMARK VINA RESULT:      -8.6      4.629      6.668
REMARK SMILES CCCC[C@@H](C(=O)OCCOCCOCCOCCOC(=O)c1ccc(-c2c3nc(c(-c4ccccc4)c4ccc([nH]4)c(-c4ccccc4)c4nc(c(-c5ccccc5)c5ccc2[nH]5)C=C4)C=C3)cc1)[C@@H](O)c1cccc(C(F)(F)F)c1
REMARK SMILES IDX 13 1 12 2 11 3 10 4 9 5 8 6 6 7 7 8 5 9 4 10 3 11 2 12 1 13
REMARK SMILES IDX 71 14 72 15 73 17 74 18 82 19 75 20 77 21 76 22 78 23 79 24
REMARK SMILES IDX 80 25 81 26 14 27 15 28 16 29 17 30 18 31 19 32 20 33 21 34
REMARK SMILES IDX 22 35 23 36 24 37 70 38 25 39 69 40 26 41 27 42 28 43 63 44
REMARK SMILES IDX 29 45 68 46 62 47 64 48 30 49 67 50 61 51 60 52 31 54 53 55
REMARK SMILES IDX 38 56 52 57 39 58 42 59 51 60 65 61 40 62 41 63 50 65 66 66
REMARK SMILES IDX 43 67 32 68 33 69 37 70 34 71 36 72 35 73 54 74 55 75 59 76
REMARK SMILES IDX 56 77 58 78 57 79 44 80 45 81 49 82 46 83 48 84 47 85
REMARK H PARENT 72 16 64 53 42 64
REMARK Flexibility Score: inf
ROOT
ATOM      1  C   UNL A   1      31.231  28.003  24.262  1.00  0.00     0.188 C 
ENDROOT
BRANCH   1   2
ATOM      2  C   UNL A   1      32.321  28.453  23.280  1.00  0.00     0.188 C 
BRANCH   2   3
ATOM      3  O   UNL A   1      33.187  27.416  22.845  1.00  0.00    -0.376 OA
BRANCH   3   4
ATOM      4  C   UNL A   1      33.721  26.591  23.873  1.00  0.00     0.202 C 
BRANCH   4   5
ATOM      5  C   UNL A   1      33.347  25.101  23.821  1.00  0.00     0.261 C 
BRANCH   5   6
ATOM      6  O   UNL A   1      34.342  24.238  24.411  1.00  0.00    -0.463 OA
BRANCH   6   7
ATOM      7  C   UNL A   1      35.003  23.363  23.622  1.00  0.00     0.312 C 
ATOM      8  O   UNL A   1      35.092  23.478  22.406  1.00  0.00    -0.252 OA
BRANCH   7   9
ATOM      9  C   UNL A   1      35.668  22.232  24.410  1.00  0.00     0.132 C 
BRANCH   9  10
ATOM     10  C   UNL A   1      34.801  21.489  25.466  1.00  0.00     0.018 C 
BRANCH  10  11
ATOM     11  C   UNL A   1      34.104  20.182  25.083  1.00  0.00     0.001 C 
BRANCH  11  12
ATOM     12  C   UNL A   1      32.630  20.306  24.721  1.00  0.00    -0.003 C 
ATOM     13  C   UNL A   1      32.004  21.594  25.230  1.00  0.00     0.004 C 
ENDBRANCH  11  12
ENDBRANCH  10  11
ENDBRANCH   9  10
BRANCH   9  14
ATOM     14  C   UNL A   1      36.997  22.708  25.066  1.00  0.00     0.158 C 
BRANCH  14  15
ATOM     15  O   UNL A   1      36.713  23.456  26.256  1.00  0.00    -0.388 OA
ATOM     16  H   UNL A   1      37.320  23.183  26.962  1.00  0.00     0.211 HD
ENDBRANCH  14  15
BRANCH  14  17
ATOM     17  C   UNL A   1      37.965  21.605  25.443  1.00  0.00    -0.018 A 
ATOM     18  C   UNL A   1      37.772  20.289  25.016  1.00  0.00     0.006 A 
ATOM     19  C   UNL A   1      39.122  21.901  26.184  1.00  0.00     0.019 A 
ATOM     20  C   UNL A   1      38.733  19.311  25.278  1.00  0.00     0.001 A 
ATOM     21  C   UNL A   1      40.133  20.951  26.384  1.00  0.00     0.056 A 
ATOM     22  C   UNL A   1      39.918  19.645  25.935  1.00  0.00     0.013 A 
BRANCH  21  23
ATOM     23  C   UNL A   1      41.440  21.343  27.028  1.00  0.00     0.416 C 
ATOM     24  F   UNL A   1      42.328  21.879  26.147  1.00  0.00    -0.166 F 
ATOM     25  F   UNL A   1      41.278  22.272  28.013  1.00  0.00    -0.166 F 
ATOM     26  F   UNL A   1      42.086  20.296  27.619  1.00  0.00    -0.166 F 
ENDBRANCH  21  23
ENDBRANCH  14  17
ENDBRANCH   9  14
ENDBRANCH   7   9
ENDBRANCH   6   7
ENDBRANCH   5   6
ENDBRANCH   4   5
ENDBRANCH   3   4
ENDBRANCH   2   3
ENDBRANCH   1   2
BRANCH   1  27
ATOM     27  O   UNL A   1      31.451  28.170  25.651  1.00  0.00    -0.377 OA
BRANCH  27  28
ATOM     28  C   UNL A   1      31.780  29.471  26.127  1.00  0.00     0.188 C 
BRANCH  28  29
ATOM     29  C   UNL A   1      33.007  29.669  27.049  1.00  0.00     0.188 C 
BRANCH  29  30
ATOM     30  O   UNL A   1      33.664  30.922  26.929  1.00  0.00    -0.376 OA
BRANCH  30  31
ATOM     31  C   UNL A   1      34.306  31.431  28.090  1.00  0.00     0.202 C 
BRANCH  31  32
ATOM     32  C   UNL A   1      35.820  31.190  28.194  1.00  0.00     0.261 C 
BRANCH  32  33
ATOM     33  O   UNL A   1      36.226  29.819  28.340  1.00  0.00    -0.460 OA
BRANCH  33  34
ATOM     34  C   UNL A   1      36.892  29.478  29.464  1.00  0.00     0.338 C 
ATOM     35  O   UNL A   1      36.449  29.373  30.590  1.00  0.00    -0.246 OA
BRANCH  34  36
ATOM     36  C   UNL A   1      38.249  29.062  29.058  1.00  0.00     0.060 A 
ATOM     37  C   UNL A   1      39.061  28.388  29.980  1.00  0.00     0.016 A 
ATOM     38  C   UNL A   1      38.705  29.327  27.766  1.00  0.00     0.016 A 
ATOM     39  C   UNL A   1      40.348  27.999  29.617  1.00  0.00     0.010 A 
ATOM     40  C   UNL A   1      40.003  28.963  27.413  1.00  0.00     0.010 A 
ATOM     41  C   UNL A   1      40.840  28.326  28.348  1.00  0.00    -0.014 A 
BRANCH  41  42
ATOM     42  C   UNL A   1      42.289  28.208  28.068  1.00  0.00     0.031 A 
ATOM     43  C   UNL A   1      43.167  29.382  28.397  1.00  0.00     0.074 A 
ATOM     44  C   UNL A   1      42.818  27.089  27.547  1.00  0.00     0.049 A 
ATOM     45  N   UNL A   1      44.449  29.544  28.195  1.00  0.00    -0.248 NA
ATOM     46  C   UNL A   1      42.507  30.531  29.041  1.00  0.00     0.031 C 
ATOM     47  C   UNL A   1      42.084  25.863  27.239  1.00  0.00     0.029 A 
ATOM     48  N   UNL A   1      44.111  26.811  27.178  1.00  0.00    -0.354 N 
ATOM     49  C   UNL A   1      44.747  30.811  28.681  1.00  0.00     0.074 A 
ATOM     50  C   UNL A   1      43.509  31.387  29.159  1.00  0.00     0.031 C 
ATOM     51  C   UNL A   1      42.939  24.964  26.720  1.00  0.00     0.029 A 
ATOM     52  C   UNL A   1      44.269  25.565  26.625  1.00  0.00     0.049 A 
ATOM     53  H   UNL A   1      44.853  27.446  27.300  1.00  0.00     0.167 HD
ATOM     54  C   UNL A   1      45.943  31.439  28.731  1.00  0.00     0.031 A 
ATOM     55  C   UNL A   1      45.360  24.988  26.085  1.00  0.00     0.031 A 
ATOM     56  C   UNL A   1      47.169  30.879  28.230  1.00  0.00     0.049 A 
ATOM     57  C   UNL A   1      46.660  25.751  26.051  1.00  0.00     0.074 A 
ATOM     58  C   UNL A   1      48.436  31.437  28.231  1.00  0.00     0.029 A 
ATOM     59  N   UNL A   1      47.276  29.636  27.626  1.00  0.00    -0.354 N 
ATOM     60  N   UNL A   1      46.936  26.940  26.529  1.00  0.00    -0.248 NA
ATOM     61  C   UNL A   1      47.801  25.084  25.405  1.00  0.00     0.031 C 
ATOM     62  C   UNL A   1      49.299  30.554  27.573  1.00  0.00     0.029 A 
ATOM     63  C   UNL A   1      48.583  29.420  27.223  1.00  0.00     0.049 A 
ATOM     64  H   UNL A   1      46.534  29.002  27.504  1.00  0.00     0.167 HD
ATOM     65  C   UNL A   1      48.285  27.151  26.271  1.00  0.00     0.074 A 
ATOM     66  C   UNL A   1      48.775  25.961  25.605  1.00  0.00     0.031 C 
ATOM     67  C   UNL A   1      49.053  28.230  26.563  1.00  0.00     0.031 A 
BRANCH  54  68
ATOM     68  C   UNL A   1      45.967  32.826  29.311  1.00  0.00    -0.014 A 
ATOM     69  C   UNL A   1      46.210  33.041  30.677  1.00  0.00     0.009 A 
ATOM     70  C   UNL A   1      45.752  33.932  28.476  1.00  0.00     0.009 A 
ATOM     71  C   UNL A   1      46.199  34.337  31.201  1.00  0.00     0.001 A 
ATOM     72  C   UNL A   1      45.772  35.227  28.996  1.00  0.00     0.001 A 
ATOM     73  C   UNL A   1      45.984  35.427  30.359  1.00  0.00     0.000 A 
ENDBRANCH  54  68
BRANCH  55  74
ATOM     74  C   UNL A   1      45.275  23.620  25.507  1.00  0.00    -0.014 A 
ATOM     75  C   UNL A   1      44.769  23.420  24.214  1.00  0.00     0.009 A 
ATOM     76  C   UNL A   1      45.672  22.503  26.258  1.00  0.00     0.009 A 
ATOM     77  C   UNL A   1      44.639  22.130  23.695  1.00  0.00     0.001 A 
ATOM     78  C   UNL A   1      45.570  21.215  25.726  1.00  0.00     0.001 A 
ATOM     79  C   UNL A   1      45.043  21.029  24.450  1.00  0.00     0.000 A 
ENDBRANCH  55  74
BRANCH  67  80
ATOM     80  C   UNL A   1      50.513  28.160  26.204  1.00  0.00    -0.014 A 
ATOM     81  C   UNL A   1      50.999  28.697  25.003  1.00  0.00     0.009 A 
ATOM     82  C   UNL A   1      51.421  27.594  27.113  1.00  0.00     0.009 A 
ATOM     83  C   UNL A   1      52.362  28.638  24.705  1.00  0.00     0.001 A 
ATOM     84  C   UNL A   1      52.787  27.565  26.827  1.00  0.00     0.001 A 
ATOM     85  C   UNL A   1      53.255  28.078  25.618  1.00  0.00     0.000 A 
ENDBRANCH  67  80
ENDBRANCH  41  42
ENDBRANCH  34  36
ENDBRANCH  33  34
ENDBRANCH  32  33
ENDBRANCH  31  32
ENDBRANCH  30  31
ENDBRANCH  29  30
ENDBRANCH  28  29
ENDBRANCH  27  28
ENDBRANCH   1  27
TORSDOF 27
ENDMDL
MODEL 3
REMARK VINA RESULT:      -8.4      4.120      6.022
REMARK SMILES CCCC[C@@H](C(=O)OCCOCCOCCOCCOC(=O)c1ccc(-c2c3nc(c(-c4ccccc4)c4ccc([nH]4)c(-c4ccccc4)c4nc(c(-c5ccccc5)c5ccc2[nH]5)C=C4)C=C3)cc1)[C@@H](O)c1cccc(C(F)(F)F)c1
REMARK SMILES IDX 13 1 12 2 11 3 10 4 9 5 8 6 6 7 7 8 5 9 4 10 3 11 2 12 1 13
REMARK SMILES IDX 71 14 72 15 73 17 74 18 82 19 75 20 77 21 76 22 78 23 79 24
REMARK SMILES IDX 80 25 81 26 14 27 15 28 16 29 17 30 18 31 19 32 20 33 21 34
REMARK SMILES IDX 22 35 23 36 24 37 70 38 25 39 69 40 26 41 27 42 28 43 63 44
REMARK SMILES IDX 29 45 68 46 62 47 64 48 30 49 67 50 61 51 60 52 31 54 53 55
REMARK SMILES IDX 38 56 52 57 39 58 42 59 51 60 65 61 40 62 41 63 50 65 66 66
REMARK SMILES IDX 43 67 32 68 33 69 37 70 34 71 36 72 35 73 54 74 55 75 59 76
REMARK SMILES IDX 56 77 58 78 57 79 44 80 45 81 49 82 46 83 48 84 47 85
REMARK H PARENT 72 16 64 53 42 64
REMARK Flexibility Score: inf
ROOT
ATOM      1  C   UNL A   1      31.997  25.211  26.340  1.00  0.00     0.188 C 
ENDROOT
BRANCH   1   2
ATOM      2  C   UNL A   1      32.743  24.227  27.253  1.00  0.00     0.188 C 
BRANCH   2   3
ATOM      3  O   UNL A   1      32.042  23.022  27.518  1.00  0.00    -0.376 OA
BRANCH   3   4
ATOM      4  C   UNL A   1      31.014  22.693  26.590  1.00  0.00     0.202 C 
BRANCH   4   5
ATOM      5  C   UNL A   1      31.378  21.676  25.497  1.00  0.00     0.261 C 
BRANCH   5   6
ATOM      6  O   UNL A   1      32.099  22.256  24.389  1.00  0.00    -0.463 OA
BRANCH   6   7
ATOM      7  C   UNL A   1      33.315  21.762  24.068  1.00  0.00     0.312 C 
ATOM      8  O   UNL A   1      33.672  20.618  24.320  1.00  0.00    -0.252 OA
BRANCH   7   9
ATOM      9  C   UNL A   1      34.189  22.768  23.316  1.00  0.00     0.132 C 
BRANCH   9  10
ATOM     10  C   UNL A   1      34.978  23.806  24.165  1.00  0.00     0.018 C 
BRANCH  10  11
ATOM     11  C   UNL A   1      36.505  23.726  24.222  1.00  0.00     0.001 C 
BRANCH  11  12
ATOM     12  C   UNL A   1      37.087  23.222  25.536  1.00  0.00    -0.003 C 
ATOM     13  C   UNL A   1      36.961  21.716  25.698  1.00  0.00     0.004 C 
ENDBRANCH  11  12
ENDBRANCH  10  11
ENDBRANCH   9  10
BRANCH   9  14
ATOM     14  C   UNL A   1      33.377  23.505  22.211  1.00  0.00     0.158 C 
BRANCH  14  15
ATOM     15  O   UNL A   1      32.181  22.771  21.915  1.00  0.00    -0.388 OA
ATOM     16  H   UNL A   1      32.210  21.912  22.364  1.00  0.00     0.211 HD
ENDBRANCH  14  15
BRANCH  14  17
ATOM     17  C   UNL A   1      32.968  24.925  22.545  1.00  0.00    -0.018 A 
ATOM     18  C   UNL A   1      33.835  26.001  22.338  1.00  0.00     0.006 A 
ATOM     19  C   UNL A   1      31.672  25.196  23.015  1.00  0.00     0.019 A 
ATOM     20  C   UNL A   1      33.400  27.311  22.544  1.00  0.00     0.001 A 
ATOM     21  C   UNL A   1      31.194  26.508  23.148  1.00  0.00     0.056 A 
ATOM     22  C   UNL A   1      32.080  27.565  22.923  1.00  0.00     0.013 A 
BRANCH  21  23
ATOM     23  C   UNL A   1      29.746  26.769  23.483  1.00  0.00     0.416 C 
ATOM     24  F   UNL A   1      28.945  25.694  23.255  1.00  0.00    -0.166 F 
ATOM     25  F   UNL A   1      29.566  27.103  24.792  1.00  0.00    -0.166 F 
ATOM     26  F   UNL A   1      29.204  27.798  22.768  1.00  0.00    -0.166 F 
ENDBRANCH  21  23
ENDBRANCH  14  17
ENDBRANCH   9  14
ENDBRANCH   7   9
ENDBRANCH   6   7
ENDBRANCH   5   6
ENDBRANCH   4   5
ENDBRANCH   3   4
ENDBRANCH   2   3
ENDBRANCH   1   2
BRANCH   1  27
ATOM     27  O   UNL A   1      31.534  26.433  26.887  1.00  0.00    -0.377 OA
BRANCH  27  28
ATOM     28  C   UNL A   1      32.321  27.602  26.680  1.00  0.00     0.188 C 
BRANCH  28  29
ATOM     29  C   UNL A   1      31.752  28.992  27.051  1.00  0.00     0.188 C 
BRANCH  29  30
ATOM     30  O   UNL A   1      32.299  30.087  26.332  1.00  0.00    -0.376 OA
BRANCH  30  31
ATOM     31  C   UNL A   1      32.132  31.381  26.894  1.00  0.00     0.202 C 
BRANCH  31  32
ATOM     32  C   UNL A   1      33.334  31.952  27.660  1.00  0.00     0.261 C 
BRANCH  32  33
ATOM     33  O   UNL A   1      34.225  30.984  28.237  1.00  0.00    -0.460 OA
BRANCH  33  34
ATOM     34  C   UNL A   1      35.056  31.400  29.218  1.00  0.00     0.338 C 
ATOM     35  O   UNL A   1      34.815  32.178  30.118  1.00  0.00    -0.246 OA
BRANCH  34  36
ATOM     36  C   UNL A   1      36.285  30.588  29.122  1.00  0.00     0.060 A 
ATOM     37  C   UNL A   1      36.813  30.009  30.284  1.00  0.00     0.016 A 
ATOM     38  C   UNL A   1      36.899  30.392  27.885  1.00  0.00     0.016 A 
ATOM     39  C   UNL A   1      37.978  29.249  30.213  1.00  0.00     0.010 A 
ATOM     40  C   UNL A   1      38.082  29.656  27.819  1.00  0.00     0.010 A 
ATOM     41  C   UNL A   1      38.642  29.109  28.988  1.00  0.00    -0.014 A 
BRANCH  41  42
ATOM     42  C   UNL A   1      40.027  28.588  28.958  1.00  0.00     0.031 A 
ATOM     43  C   UNL A   1      41.145  29.542  29.274  1.00  0.00     0.074 A 
ATOM     44  C   UNL A   1      40.291  27.304  28.669  1.00  0.00     0.049 A 
ATOM     45  N   UNL A   1      42.437  29.342  29.260  1.00  0.00    -0.248 NA
ATOM     46  C   UNL A   1      40.749  30.907  29.660  1.00  0.00     0.031 C 
ATOM     47  C   UNL A   1      39.295  26.268  28.401  1.00  0.00     0.029 A 
ATOM     48  N   UNL A   1      41.496  26.655  28.546  1.00  0.00    -0.354 N 
ATOM     49  C   UNL A   1      43.007  30.555  29.627  1.00  0.00     0.074 A 
ATOM     50  C   UNL A   1      41.923  31.492  29.829  1.00  0.00     0.031 C 
ATOM     51  C   UNL A   1      39.931  25.112  28.139  1.00  0.00     0.029 A 
ATOM     52  C   UNL A   1      41.375  25.337  28.183  1.00  0.00     0.049 A 
ATOM     53  H   UNL A   1      42.362  27.094  28.705  1.00  0.00     0.167 HD
ATOM     54  C   UNL A   1      44.314  30.862  29.789  1.00  0.00     0.031 A 
ATOM     55  C   UNL A   1      42.325  24.426  27.898  1.00  0.00     0.031 A 
ATOM     56  C   UNL A   1      45.393  29.940  29.561  1.00  0.00     0.049 A 
ATOM     57  C   UNL A   1      43.777  24.822  27.976  1.00  0.00     0.074 A 
ATOM     58  C   UNL A   1      46.753  30.154  29.693  1.00  0.00     0.029 A 
ATOM     59  N   UNL A   1      45.230  28.630  29.139  1.00  0.00    -0.354 N 
ATOM     60  N   UNL A   1      44.306  25.965  28.342  1.00  0.00    -0.248 NA
ATOM     61  C   UNL A   1      44.764  23.796  27.605  1.00  0.00     0.031 C 
ATOM     62  C   UNL A   1      47.417  28.990  29.293  1.00  0.00     0.029 A 
ATOM     63  C   UNL A   1      46.468  28.030  28.977  1.00  0.00     0.049 A 
ATOM     64  H   UNL A   1      44.365  28.190  28.979  1.00  0.00     0.167 HD
ATOM     65  C   UNL A   1      45.683  25.787  28.277  1.00  0.00     0.074 A 
ATOM     66  C   UNL A   1      45.908  24.421  27.848  1.00  0.00     0.031 C 
ATOM     67  C   UNL A   1      46.674  26.670  28.552  1.00  0.00     0.031 A 
BRANCH  54  68
ATOM     68  C   UNL A   1      44.643  32.273  30.189  1.00  0.00    -0.014 A 
ATOM     69  C   UNL A   1      44.725  33.302  29.237  1.00  0.00     0.009 A 
ATOM     70  C   UNL A   1      44.864  32.579  31.541  1.00  0.00     0.009 A 
ATOM     71  C   UNL A   1      45.061  34.600  29.627  1.00  0.00     0.001 A 
ATOM     72  C   UNL A   1      45.169  33.883  31.931  1.00  0.00     0.001 A 
ATOM     73  C   UNL A   1      45.278  34.890  30.973  1.00  0.00     0.000 A 
ENDBRANCH  54  68
BRANCH  55  74
ATOM     74  C   UNL A   1      41.943  23.048  27.486  1.00  0.00    -0.014 A 
ATOM     75  C   UNL A   1      41.582  22.772  26.159  1.00  0.00     0.009 A 
ATOM     76  C   UNL A   1      41.907  22.008  28.427  1.00  0.00     0.009 A 
ATOM     77  C   UNL A   1      41.170  21.490  25.787  1.00  0.00     0.001 A 
ATOM     78  C   UNL A   1      41.523  20.719  28.047  1.00  0.00     0.001 A 
ATOM     79  C   UNL A   1      41.145  20.464  26.731  1.00  0.00     0.000 A 
ENDBRANCH  55  74
BRANCH  67  80
ATOM     80  C   UNL A   1      48.092  26.180  28.439  1.00  0.00    -0.014 A 
ATOM     81  C   UNL A   1      48.779  25.661  29.547  1.00  0.00     0.009 A 
ATOM     82  C   UNL A   1      48.729  26.191  27.188  1.00  0.00     0.009 A 
ATOM     83  C   UNL A   1      50.088  25.193  29.409  1.00  0.00     0.001 A 
ATOM     84  C   UNL A   1      50.025  25.693  27.047  1.00  0.00     0.001 A 
ATOM     85  C   UNL A   1      50.707  25.204  28.160  1.00  0.00     0.000 A 
ENDBRANCH  67  80
ENDBRANCH  41  42
ENDBRANCH  34  36
ENDBRANCH  33  34
ENDBRANCH  32  33
ENDBRANCH  31  32
ENDBRANCH  30  31
ENDBRANCH  29  30
ENDBRANCH  28  29
ENDBRANCH  27  28
ENDBRANCH   1  27
TORSDOF 27
ENDMDL
