MODEL 1
REMARK VINA RESULT:      -9.1      0.000      0.000
REMARK SMILES CC(C)(C)[C@H](CCC(=O)OCCOCCOCCOCCOC(=O)c1ccc(-c2c3nc(c(-c4ccccc4)c4ccc([nH]4)c(-c4ccccc4)c4nc(c(-c5ccccc5)c5ccc2[nH]5)C=C4)C=C3)cc1)CC[NH+]1CCOCC1
REMARK SMILES IDX 14 1 13 2 12 3 11 4 10 5 8 6 9 7 7 8 6 9 5 10 2 11 1 12 3 13
REMARK SMILES IDX 4 14 73 15 74 16 75 17 76 18 80 19 77 21 79 22 78 23 15 24
REMARK SMILES IDX 16 25 17 26 18 27 19 28 20 29 21 30 22 31 23 32 24 33 25 34
REMARK SMILES IDX 26 35 72 36 27 37 71 38 28 39 29 40 30 41 65 42 31 43 70 44
REMARK SMILES IDX 64 45 66 46 32 47 69 48 63 49 62 50 33 52 55 53 40 54 54 55
REMARK SMILES IDX 41 56 44 57 53 58 67 59 42 60 43 61 52 63 68 64 45 65 34 66
REMARK SMILES IDX 35 67 39 68 36 69 38 70 37 71 56 72 57 73 61 74 58 75 60 76
REMARK SMILES IDX 59 77 46 78 47 79 51 80 48 81 50 82 49 83
REMARK H PARENT 75 20 66 51 44 62
REMARK Flexibility Score: inf
ROOT
ATOM      1  C   UNL A   1      29.906  25.891  25.801  1.00  0.00     0.188 C 
ENDROOT
BRANCH   1   2
ATOM      2  O   UNL A   1      29.700  26.129  24.401  1.00  0.00    -0.376 OA
BRANCH   2   3
ATOM      3  C   UNL A   1      30.433  25.319  23.478  1.00  0.00     0.202 C 
BRANCH   3   4
ATOM      4  C   UNL A   1      31.647  26.010  22.856  1.00  0.00     0.261 C 
BRANCH   4   5
ATOM      5  O   UNL A   1      32.811  25.183  23.043  1.00  0.00    -0.463 OA
BRANCH   5   6
ATOM      6  C   UNL A   1      33.099  24.300  22.063  1.00  0.00     0.305 C 
ATOM      7  O   UNL A   1      33.279  24.599  20.889  1.00  0.00    -0.252 OA
BRANCH   6   8
ATOM      8  C   UNL A   1      33.303  22.896  22.596  1.00  0.00     0.123 C 
BRANCH   8   9
ATOM      9  C   UNL A   1      34.390  22.621  23.649  1.00  0.00     0.016 C 
BRANCH   9  10
ATOM     10  C   UNL A   1      34.040  21.906  24.983  1.00  0.00     0.000 C 
BRANCH  10  11
ATOM     11  C   UNL A   1      33.544  22.833  26.178  1.00  0.00    -0.035 C 
ATOM     12  C   UNL A   1      32.005  22.930  26.271  1.00  0.00     0.011 C 
ATOM     13  C   UNL A   1      34.070  24.276  26.116  1.00  0.00     0.011 C 
ATOM     14  C   UNL A   1      34.064  22.232  27.506  1.00  0.00     0.011 C 
ENDBRANCH  10  11
BRANCH  10  15
ATOM     15  C   UNL A   1      33.016  20.752  24.709  1.00  0.00     0.065 C 
BRANCH  15  16
ATOM     16  C   UNL A   1      33.219  19.371  25.365  1.00  0.00     0.262 C 
BRANCH  16  17
ATOM     17  N   UNL A   1      32.526  18.165  24.908  1.00  0.00    -0.331 N 
ATOM     18  C   UNL A   1      33.064  16.934  25.508  1.00  0.00     0.291 C 
ATOM     19  C   UNL A   1      32.312  17.929  23.480  1.00  0.00     0.291 C 
ATOM     20  H   UNL A   1      31.594  18.399  25.252  1.00  0.00     0.348 HD
ATOM     21  C   UNL A   1      34.319  16.442  24.780  1.00  0.00     0.221 C 
ATOM     22  C   UNL A   1      33.508  17.319  22.737  1.00  0.00     0.221 C 
ATOM     23  O   UNL A   1      34.030  16.168  23.403  1.00  0.00    -0.370 OA
ENDBRANCH  16  17
ENDBRANCH  15  16
ENDBRANCH  10  15
ENDBRANCH   9  10
ENDBRANCH   8   9
ENDBRANCH   6   8
ENDBRANCH   5   6
ENDBRANCH   4   5
ENDBRANCH   3   4
ENDBRANCH   2   3
ENDBRANCH   1   2
BRANCH   1  24
ATOM     24  C   UNL A   1      31.188  26.471  26.420  1.00  0.00     0.188 C 
BRANCH  24  25
ATOM     25  O   UNL A   1      31.080  27.480  27.413  1.00  0.00    -0.377 OA
BRANCH  25  26
ATOM     26  C   UNL A   1      31.787  28.685  27.231  1.00  0.00     0.188 C 
BRANCH  26  27
ATOM     27  C   UNL A   1      31.832  29.115  25.757  1.00  0.00     0.188 C 
BRANCH  27  28
ATOM     28  O   UNL A   1      32.056  30.492  25.468  1.00  0.00    -0.376 OA
BRANCH  28  29
ATOM     29  C   UNL A   1      31.104  31.449  25.936  1.00  0.00     0.202 C 
BRANCH  29  30
ATOM     30  C   UNL A   1      31.453  32.319  27.155  1.00  0.00     0.261 C 
BRANCH  30  31
ATOM     31  O   UNL A   1      32.841  32.701  27.255  1.00  0.00    -0.460 OA
BRANCH  31  32
ATOM     32  C   UNL A   1      33.094  33.803  28.001  1.00  0.00     0.338 C 
ATOM     33  O   UNL A   1      32.439  34.830  28.052  1.00  0.00    -0.246 OA
BRANCH  32  34
ATOM     34  C   UNL A   1      34.287  33.607  28.843  1.00  0.00     0.060 A 
ATOM     35  C   UNL A   1      35.510  34.163  28.445  1.00  0.00     0.016 A 
ATOM     36  C   UNL A   1      34.232  32.722  29.920  1.00  0.00     0.016 A 
ATOM     37  C   UNL A   1      36.691  33.824  29.119  1.00  0.00     0.010 A 
ATOM     38  C   UNL A   1      35.414  32.378  30.585  1.00  0.00     0.010 A 
ATOM     39  C   UNL A   1      36.655  32.905  30.174  1.00  0.00    -0.014 A 
BRANCH  39  40
ATOM     40  C   UNL A   1      37.897  32.358  30.782  1.00  0.00     0.031 A 
ATOM     41  C   UNL A   1      38.522  31.133  30.178  1.00  0.00     0.074 A 
ATOM     42  C   UNL A   1      38.424  32.874  31.907  1.00  0.00     0.049 A 
ATOM     43  N   UNL A   1      39.489  30.386  30.644  1.00  0.00    -0.248 NA
ATOM     44  C   UNL A   1      37.999  30.705  28.871  1.00  0.00     0.031 C 
ATOM     45  C   UNL A   1      37.984  34.095  32.566  1.00  0.00     0.029 A 
ATOM     46  N   UNL A   1      39.399  32.376  32.742  1.00  0.00    -0.354 N 
ATOM     47  C   UNL A   1      39.712  29.419  29.676  1.00  0.00     0.074 A 
ATOM     48  C   UNL A   1      38.743  29.637  28.623  1.00  0.00     0.031 C 
ATOM     49  C   UNL A   1      38.585  34.186  33.765  1.00  0.00     0.029 A 
ATOM     50  C   UNL A   1      39.452  33.030  33.951  1.00  0.00     0.049 A 
ATOM     51  H   UNL A   1      39.997  31.633  32.498  1.00  0.00     0.167 HD
ATOM     52  C   UNL A   1      40.663  28.457  29.649  1.00  0.00     0.031 A 
ATOM     53  C   UNL A   1      40.076  32.703  35.100  1.00  0.00     0.031 A 
ATOM     54  C   UNL A   1      41.617  28.225  30.699  1.00  0.00     0.049 A 
ATOM     55  C   UNL A   1      40.974  31.499  35.139  1.00  0.00     0.074 A 
ATOM     56  C   UNL A   1      42.673  27.330  30.723  1.00  0.00     0.029 A 
ATOM     57  N   UNL A   1      41.611  28.872  31.922  1.00  0.00    -0.354 N 
ATOM     58  N   UNL A   1      41.253  30.650  34.181  1.00  0.00    -0.248 NA
ATOM     59  C   UNL A   1      41.671  31.227  36.406  1.00  0.00     0.031 C 
ATOM     60  C   UNL A   1      43.269  27.392  31.988  1.00  0.00     0.029 A 
ATOM     61  C   UNL A   1      42.611  28.358  32.731  1.00  0.00     0.049 A 
ATOM     62  H   UNL A   1      40.990  29.590  32.179  1.00  0.00     0.167 HD
ATOM     63  C   UNL A   1      42.206  29.787  34.706  1.00  0.00     0.074 A 
ATOM     64  C   UNL A   1      42.437  30.195  36.075  1.00  0.00     0.031 C 
ATOM     65  C   UNL A   1      42.850  28.768  34.089  1.00  0.00     0.031 A 
BRANCH  52  66
ATOM     66  C   UNL A   1      40.716  27.579  28.437  1.00  0.00    -0.014 A 
ATOM     67  C   UNL A   1      40.049  26.344  28.414  1.00  0.00     0.009 A 
ATOM     68  C   UNL A   1      41.403  28.008  27.291  1.00  0.00     0.009 A 
ATOM     69  C   UNL A   1      40.090  25.543  27.272  1.00  0.00     0.001 A 
ATOM     70  C   UNL A   1      41.426  27.213  26.146  1.00  0.00     0.001 A 
ATOM     71  C   UNL A   1      40.775  25.980  26.138  1.00  0.00     0.000 A 
ENDBRANCH  52  66
BRANCH  53  72
ATOM     72  C   UNL A   1      39.835  33.493  36.336  1.00  0.00    -0.014 A 
ATOM     73  C   UNL A   1      38.832  33.129  37.244  1.00  0.00     0.009 A 
ATOM     74  C   UNL A   1      40.583  34.656  36.580  1.00  0.00     0.009 A 
ATOM     75  C   UNL A   1      38.559  33.933  38.354  1.00  0.00     0.001 A 
ATOM     76  C   UNL A   1      40.321  35.447  37.700  1.00  0.00     0.001 A 
ATOM     77  C   UNL A   1      39.302  35.091  38.580  1.00  0.00     0.000 A 
ENDBRANCH  53  72
BRANCH  65  78
ATOM     78  C   UNL A   1      43.921  28.058  34.864  1.00  0.00    -0.014 A 
ATOM     79  C   UNL A   1      43.751  26.740  35.311  1.00  0.00     0.009 A 
ATOM     80  C   UNL A   1      45.142  28.707  35.105  1.00  0.00     0.009 A 
ATOM     81  C   UNL A   1      44.776  26.093  36.002  1.00  0.00     0.001 A 
ATOM     82  C   UNL A   1      46.174  28.051  35.775  1.00  0.00     0.001 A 
ATOM     83  C   UNL A   1      45.989  26.746  36.228  1.00  0.00     0.000 A 
ENDBRANCH  65  78
ENDBRANCH  39  40
ENDBRANCH  32  34
ENDBRANCH  31  32
ENDBRANCH  30  31
ENDBRANCH  29  30
ENDBRANCH  28  29
ENDBRANCH  27  28
ENDBRANCH  26  27
ENDBRANCH  25  26
ENDBRANCH  24  25
ENDBRANCH   1  24
TORSDOF 26
ENDMDL
MODEL 2
REMARK VINA RESULT:      -8.7      4.347      9.829
REMARK SMILES CC(C)(C)[C@H](CCC(=O)OCCOCCOCCOCCOC(=O)c1ccc(-c2c3nc(c(-c4ccccc4)c4ccc([nH]4)c(-c4ccccc4)c4nc(c(-c5ccccc5)c5ccc2[nH]5)C=C4)C=C3)cc1)CC[NH+]1CCOCC1
REMARK SMILES IDX 14 1 13 2 12 3 11 4 10 5 8 6 9 7 7 8 6 9 5 10 2 11 1 12 3 13
REMARK SMILES IDX 4 14 73 15 74 16 75 17 76 18 80 19 77 21 79 22 78 23 15 24
REMARK SMILES IDX 16 25 17 26 18 27 19 28 20 29 21 30 22 31 23 32 24 33 25 34
REMARK SMILES IDX 26 35 72 36 27 37 71 38 28 39 29 40 30 41 65 42 31 43 70 44
REMARK SMILES IDX 64 45 66 46 32 47 69 48 63 49 62 50 33 52 55 53 40 54 54 55
REMARK SMILES IDX 41 56 44 57 53 58 67 59 42 60 43 61 52 63 68 64 45 65 34 66
REMARK SMILES IDX 35 67 39 68 36 69 38 70 37 71 56 72 57 73 61 74 58 75 60 76
REMARK SMILES IDX 59 77 46 78 47 79 51 80 48 81 50 82 49 83
REMARK H PARENT 75 20 66 51 44 62
REMARK Flexibility Score: inf
ROOT
ATOM      1  C   UNL A   1      31.175  23.671  26.234  1.00  0.00     0.188 C 
ENDROOT
BRANCH   1   2
ATOM      2  O   UNL A   1      31.435  24.957  26.813  1.00  0.00    -0.376 OA
BRANCH   2   3
ATOM      3  C   UNL A   1      30.699  26.073  26.304  1.00  0.00     0.202 C 
BRANCH   3   4
ATOM      4  C   UNL A   1      31.080  27.418  26.923  1.00  0.00     0.261 C 
BRANCH   4   5
ATOM      5  O   UNL A   1      32.215  27.959  26.222  1.00  0.00    -0.463 OA
BRANCH   5   6
ATOM      6  C   UNL A   1      32.330  29.304  26.190  1.00  0.00     0.305 C 
ATOM      7  O   UNL A   1      32.727  29.991  27.122  1.00  0.00    -0.252 OA
BRANCH   6   8
ATOM      8  C   UNL A   1      32.031  29.874  24.817  1.00  0.00     0.123 C 
BRANCH   8   9
ATOM      9  C   UNL A   1      30.587  30.239  24.431  1.00  0.00     0.016 C 
BRANCH   9  10
ATOM     10  C   UNL A   1      29.758  29.316  23.497  1.00  0.00     0.000 C 
BRANCH  10  11
ATOM     11  C   UNL A   1      28.392  29.912  22.938  1.00  0.00    -0.035 C 
ATOM     12  C   UNL A   1      28.480  30.340  21.457  1.00  0.00     0.011 C 
ATOM     13  C   UNL A   1      27.873  31.132  23.716  1.00  0.00     0.011 C 
ATOM     14  C   UNL A   1      27.302  28.819  23.054  1.00  0.00     0.011 C 
ENDBRANCH  10  11
BRANCH  10  15
ATOM     15  C   UNL A   1      30.662  28.801  22.326  1.00  0.00     0.065 C 
BRANCH  15  16
ATOM     16  C   UNL A   1      31.133  27.332  22.305  1.00  0.00     0.262 C 
BRANCH  16  17
ATOM     17  N   UNL A   1      32.508  26.942  21.994  1.00  0.00    -0.331 N 
ATOM     18  C   UNL A   1      32.595  25.640  21.314  1.00  0.00     0.291 C 
ATOM     19  C   UNL A   1      33.546  26.997  23.024  1.00  0.00     0.291 C 
ATOM     20  H   UNL A   1      32.741  27.725  21.382  1.00  0.00     0.348 HD
ATOM     21  C   UNL A   1      32.529  24.471  22.304  1.00  0.00     0.221 C 
ATOM     22  C   UNL A   1      33.594  25.783  23.961  1.00  0.00     0.221 C 
ATOM     23  O   UNL A   1      33.607  24.546  23.246  1.00  0.00    -0.370 OA
ENDBRANCH  16  17
ENDBRANCH  15  16
ENDBRANCH  10  15
ENDBRANCH   9  10
ENDBRANCH   8   9
ENDBRANCH   6   8
ENDBRANCH   5   6
ENDBRANCH   4   5
ENDBRANCH   3   4
ENDBRANCH   2   3
ENDBRANCH   1   2
BRANCH   1  24
ATOM     24  C   UNL A   1      32.264  22.600  26.410  1.00  0.00     0.188 C 
BRANCH  24  25
ATOM     25  O   UNL A   1      32.998  22.556  27.625  1.00  0.00    -0.377 OA
BRANCH  25  26
ATOM     26  C   UNL A   1      34.313  22.049  27.602  1.00  0.00     0.188 C 
BRANCH  26  27
ATOM     27  C   UNL A   1      34.888  21.995  26.180  1.00  0.00     0.188 C 
BRANCH  27  28
ATOM     28  O   UNL A   1      36.248  21.600  26.023  1.00  0.00    -0.376 OA
BRANCH  28  29
ATOM     29  C   UNL A   1      36.574  20.681  24.977  1.00  0.00     0.202 C 
BRANCH  29  30
ATOM     30  C   UNL A   1      37.967  20.031  24.959  1.00  0.00     0.261 C 
BRANCH  30  31
ATOM     31  O   UNL A   1      38.637  19.987  26.236  1.00  0.00    -0.460 OA
BRANCH  31  32
ATOM     32  C   UNL A   1      39.970  20.223  26.207  1.00  0.00     0.338 C 
ATOM     33  O   UNL A   1      40.841  19.508  25.739  1.00  0.00    -0.246 OA
BRANCH  32  34
ATOM     34  C   UNL A   1      40.285  21.542  26.784  1.00  0.00     0.060 A 
ATOM     35  C   UNL A   1      39.825  22.701  26.145  1.00  0.00     0.016 A 
ATOM     36  C   UNL A   1      41.186  21.632  27.845  1.00  0.00     0.016 A 
ATOM     37  C   UNL A   1      40.277  23.961  26.559  1.00  0.00     0.010 A 
ATOM     38  C   UNL A   1      41.643  22.891  28.251  1.00  0.00     0.010 A 
ATOM     39  C   UNL A   1      41.214  24.062  27.595  1.00  0.00    -0.014 A 
BRANCH  39  40
ATOM     40  C   UNL A   1      41.876  25.350  27.931  1.00  0.00     0.031 A 
ATOM     41  C   UNL A   1      41.068  26.432  28.588  1.00  0.00     0.074 A 
ATOM     42  C   UNL A   1      43.150  25.606  27.581  1.00  0.00     0.049 A 
ATOM     43  N   UNL A   1      41.385  27.683  28.801  1.00  0.00    -0.248 NA
ATOM     44  C   UNL A   1      39.737  26.049  29.083  1.00  0.00     0.031 C 
ATOM     45  C   UNL A   1      44.081  24.643  27.012  1.00  0.00     0.029 A 
ATOM     46  N   UNL A   1      43.851  26.790  27.580  1.00  0.00    -0.354 N 
ATOM     47  C   UNL A   1      40.308  28.229  29.482  1.00  0.00     0.074 A 
ATOM     48  C   UNL A   1      39.304  27.192  29.596  1.00  0.00     0.031 C 
ATOM     49  C   UNL A   1      45.181  25.294  26.592  1.00  0.00     0.029 A 
ATOM     50  C   UNL A   1      45.026  26.716  26.868  1.00  0.00     0.049 A 
ATOM     51  H   UNL A   1      43.545  27.604  28.042  1.00  0.00     0.167 HD
ATOM     52  C   UNL A   1      40.180  29.474  29.998  1.00  0.00     0.031 A 
ATOM     53  C   UNL A   1      45.851  27.687  26.431  1.00  0.00     0.031 A 
ATOM     54  C   UNL A   1      41.165  30.513  29.874  1.00  0.00     0.049 A 
ATOM     55  C   UNL A   1      45.591  29.114  26.825  1.00  0.00     0.074 A 
ATOM     56  C   UNL A   1      41.161  31.777  30.437  1.00  0.00     0.029 A 
ATOM     57  N   UNL A   1      42.315  30.416  29.110  1.00  0.00    -0.354 N 
ATOM     58  N   UNL A   1      44.620  29.600  27.555  1.00  0.00    -0.248 NA
ATOM     59  C   UNL A   1      46.560  30.120  26.363  1.00  0.00     0.031 C 
ATOM     60  C   UNL A   1      42.280  32.469  29.962  1.00  0.00     0.029 A 
ATOM     61  C   UNL A   1      43.002  31.618  29.141  1.00  0.00     0.049 A 
ATOM     62  H   UNL A   1      42.602  29.614  28.619  1.00  0.00     0.167 HD
ATOM     63  C   UNL A   1      44.896  30.954  27.699  1.00  0.00     0.074 A 
ATOM     64  C   UNL A   1      46.109  31.219  26.956  1.00  0.00     0.031 C 
ATOM     65  C   UNL A   1      44.214  31.882  28.411  1.00  0.00     0.031 A 
BRANCH  52  66
ATOM     66  C   UNL A   1      38.920  29.778  30.749  1.00  0.00    -0.014 A 
ATOM     67  C   UNL A   1      37.805  30.323  30.092  1.00  0.00     0.009 A 
ATOM     68  C   UNL A   1      38.830  29.478  32.117  1.00  0.00     0.009 A 
ATOM     69  C   UNL A   1      36.630  30.585  30.798  1.00  0.00     0.001 A 
ATOM     70  C   UNL A   1      37.648  29.724  32.815  1.00  0.00     0.001 A 
ATOM     71  C   UNL A   1      36.552  30.282  32.157  1.00  0.00     0.000 A 
ENDBRANCH  52  66
BRANCH  53  72
ATOM     72  C   UNL A   1      46.979  27.359  25.520  1.00  0.00    -0.014 A 
ATOM     73  C   UNL A   1      48.165  26.795  26.009  1.00  0.00     0.009 A 
ATOM     74  C   UNL A   1      46.885  27.666  24.152  1.00  0.00     0.009 A 
ATOM     75  C   UNL A   1      49.248  26.578  25.153  1.00  0.00     0.001 A 
ATOM     76  C   UNL A   1      47.963  27.430  23.296  1.00  0.00     0.001 A 
ATOM     77  C   UNL A   1      49.147  26.896  23.799  1.00  0.00     0.000 A 
ENDBRANCH  53  72
BRANCH  65  78
ATOM     78  C   UNL A   1      44.796  33.263  28.485  1.00  0.00    -0.014 A 
ATOM     79  C   UNL A   1      45.768  33.598  29.437  1.00  0.00     0.009 A 
ATOM     80  C   UNL A   1      44.398  34.229  27.547  1.00  0.00     0.009 A 
ATOM     81  C   UNL A   1      46.315  34.882  29.463  1.00  0.00     0.001 A 
ATOM     82  C   UNL A   1      44.963  35.504  27.559  1.00  0.00     0.001 A 
ATOM     83  C   UNL A   1      45.918  35.832  28.521  1.00  0.00     0.000 A 
ENDBRANCH  65  78
ENDBRANCH  39  40
ENDBRANCH  32  34
ENDBRANCH  31  32
ENDBRANCH  30  31
ENDBRANCH  29  30
ENDBRANCH  28  29
ENDBRANCH  27  28
ENDBRANCH  26  27
ENDBRANCH  25  26
ENDBRANCH  24  25
ENDBRANCH   1  24
TORSDOF 26
ENDMDL
MODEL 3
REMARK VINA RESULT:      -8.5      2.968      8.319
REMARK SMILES CC(C)(C)[C@H](CCC(=O)OCCOCCOCCOCCOC(=O)c1ccc(-c2c3nc(c(-c4ccccc4)c4ccc([nH]4)c(-c4ccccc4)c4nc(c(-c5ccccc5)c5ccc2[nH]5)C=C4)C=C3)cc1)CC[NH+]1CCOCC1
REMARK SMILES IDX 14 1 13 2 12 3 11 4 10 5 8 6 9 7 7 8 6 9 5 10 2 11 1 12 3 13
REMARK SMILES IDX 4 14 73 15 74 16 75 17 76 18 80 19 77 21 79 22 78 23 15 24
REMARK SMILES IDX 16 25 17 26 18 27 19 28 20 29 21 30 22 31 23 32 24 33 25 34
REMARK SMILES IDX 26 35 72 36 27 37 71 38 28 39 29 40 30 41 65 42 31 43 70 44
REMARK SMILES IDX 64 45 66 46 32 47 69 48 63 49 62 50 33 52 55 53 40 54 54 55
REMARK SMILES IDX 41 56 44 57 53 58 67 59 42 60 43 61 52 63 68 64 45 65 34 66
REMARK SMILES IDX 35 67 39 68 36 69 38 70 37 71 56 72 57 73 61 74 58 75 60 76
REMARK SMILES IDX 59 77 46 78 47 79 51 80 48 81 50 82 49 83
REMARK H PARENT 75 20 66 51 44 62
REMARK Flexibility Score: inf
ROOT
ATOM      1  C   UNL A   1      31.023  24.819  26.060  1.00  0.00     0.188 C 
ENDROOT
BRANCH   1   2
ATOM      2  O   UNL A   1      31.643  25.824  26.874  1.00  0.00    -0.376 OA
BRANCH   2   3
ATOM      3  C   UNL A   1      31.094  27.143  26.830  1.00  0.00     0.202 C 
BRANCH   3   4
ATOM      4  C   UNL A   1      31.928  28.201  27.554  1.00  0.00     0.261 C 
BRANCH   4   5
ATOM      5  O   UNL A   1      33.184  28.366  26.869  1.00  0.00    -0.463 OA
BRANCH   5   6
ATOM      6  C   UNL A   1      33.143  28.935  25.645  1.00  0.00     0.305 C 
ATOM      7  O   UNL A   1      32.829  30.099  25.430  1.00  0.00    -0.252 OA
BRANCH   6   8
ATOM      8  C   UNL A   1      33.656  28.007  24.562  1.00  0.00     0.123 C 
BRANCH   8   9
ATOM      9  C   UNL A   1      33.435  28.355  23.080  1.00  0.00     0.016 C 
BRANCH   9  10
ATOM     10  C   UNL A   1      32.288  27.688  22.271  1.00  0.00     0.000 C 
BRANCH  10  11
ATOM     11  C   UNL A   1      32.376  26.110  22.082  1.00  0.00    -0.035 C 
ATOM     12  C   UNL A   1      31.232  25.352  22.790  1.00  0.00     0.011 C 
ATOM     13  C   UNL A   1      33.689  25.489  22.581  1.00  0.00     0.011 C 
ATOM     14  C   UNL A   1      32.288  25.798  20.568  1.00  0.00     0.011 C 
ENDBRANCH  10  11
BRANCH  10  15
ATOM     15  C   UNL A   1      30.905  28.102  22.878  1.00  0.00     0.065 C 
BRANCH  15  16
ATOM     16  C   UNL A   1      30.439  29.571  22.804  1.00  0.00     0.262 C 
BRANCH  16  17
ATOM     17  N   UNL A   1      29.065  29.984  23.090  1.00  0.00    -0.331 N 
ATOM     18  C   UNL A   1      28.148  29.746  21.964  1.00  0.00     0.291 C 
ATOM     19  C   UNL A   1      28.790  31.312  23.639  1.00  0.00     0.291 C 
ATOM     20  H   UNL A   1      28.892  29.362  23.880  1.00  0.00     0.348 HD
ATOM     21  C   UNL A   1      28.224  30.863  20.917  1.00  0.00     0.221 C 
ATOM     22  C   UNL A   1      28.734  32.443  22.604  1.00  0.00     0.221 C 
ATOM     23  O   UNL A   1      27.883  32.127  21.500  1.00  0.00    -0.370 OA
ENDBRANCH  16  17
ENDBRANCH  15  16
ENDBRANCH  10  15
ENDBRANCH   9  10
ENDBRANCH   8   9
ENDBRANCH   6   8
ENDBRANCH   5   6
ENDBRANCH   4   5
ENDBRANCH   3   4
ENDBRANCH   2   3
ENDBRANCH   1   2
BRANCH   1  24
ATOM     24  C   UNL A   1      31.399  23.358  26.358  1.00  0.00     0.188 C 
BRANCH  24  25
ATOM     25  O   UNL A   1      32.765  22.972  26.300  1.00  0.00    -0.377 OA
BRANCH  25  26
ATOM     26  C   UNL A   1      33.177  22.100  25.273  1.00  0.00     0.188 C 
BRANCH  26  27
ATOM     27  C   UNL A   1      34.453  22.590  24.573  1.00  0.00     0.188 C 
BRANCH  27  28
ATOM     28  O   UNL A   1      35.573  21.712  24.531  1.00  0.00    -0.376 OA
BRANCH  28  29
ATOM     29  C   UNL A   1      36.460  21.686  25.652  1.00  0.00     0.202 C 
BRANCH  29  30
ATOM     30  C   UNL A   1      37.963  21.923  25.424  1.00  0.00     0.261 C 
BRANCH  30  31
ATOM     31  O   UNL A   1      38.722  22.212  26.616  1.00  0.00    -0.460 OA
BRANCH  31  32
ATOM     32  C   UNL A   1      39.918  22.818  26.415  1.00  0.00     0.338 C 
ATOM     33  O   UNL A   1      40.903  22.352  25.869  1.00  0.00    -0.246 OA
BRANCH  32  34
ATOM     34  C   UNL A   1      39.893  24.207  26.906  1.00  0.00     0.060 A 
ATOM     35  C   UNL A   1      40.616  25.193  26.221  1.00  0.00     0.016 A 
ATOM     36  C   UNL A   1      39.311  24.491  28.142  1.00  0.00     0.016 A 
ATOM     37  C   UNL A   1      40.771  26.469  26.778  1.00  0.00     0.010 A 
ATOM     38  C   UNL A   1      39.475  25.764  28.701  1.00  0.00     0.010 A 
ATOM     39  C   UNL A   1      40.227  26.754  28.037  1.00  0.00    -0.014 A 
BRANCH  39  40
ATOM     40  C   UNL A   1      40.537  28.016  28.758  1.00  0.00     0.031 A 
ATOM     41  C   UNL A   1      41.698  28.041  29.711  1.00  0.00     0.074 A 
ATOM     42  C   UNL A   1      39.755  29.106  28.650  1.00  0.00     0.049 A 
ATOM     43  N   UNL A   1      42.036  28.965  30.574  1.00  0.00    -0.248 NA
ATOM     44  C   UNL A   1      42.603  26.882  29.675  1.00  0.00     0.031 C 
ATOM     45  C   UNL A   1      38.648  29.265  27.720  1.00  0.00     0.029 A 
ATOM     46  N   UNL A   1      39.729  30.260  29.401  1.00  0.00    -0.354 N 
ATOM     47  C   UNL A   1      43.209  28.514  31.160  1.00  0.00     0.074 A 
ATOM     48  C   UNL A   1      43.493  27.210  30.600  1.00  0.00     0.031 C 
ATOM     49  C   UNL A   1      37.965  30.379  28.038  1.00  0.00     0.029 A 
ATOM     50  C   UNL A   1      38.595  31.009  29.191  1.00  0.00     0.049 A 
ATOM     51  H   UNL A   1      40.448  30.521  30.022  1.00  0.00     0.167 HD
ATOM     52  C   UNL A   1      43.997  29.146  32.060  1.00  0.00     0.031 A 
ATOM     53  C   UNL A   1      38.085  32.044  29.886  1.00  0.00     0.031 A 
ATOM     54  C   UNL A   1      43.712  30.432  32.633  1.00  0.00     0.049 A 
ATOM     55  C   UNL A   1      38.863  32.621  31.036  1.00  0.00     0.074 A 
ATOM     56  C   UNL A   1      44.495  31.190  33.487  1.00  0.00     0.029 A 
ATOM     57  N   UNL A   1      42.537  31.137  32.433  1.00  0.00    -0.354 N 
ATOM     58  N   UNL A   1      40.022  32.243  31.515  1.00  0.00    -0.248 NA
ATOM     59  C   UNL A   1      38.280  33.786  31.718  1.00  0.00     0.031 C 
ATOM     60  C   UNL A   1      43.766  32.327  33.854  1.00  0.00     0.029 A 
ATOM     61  C   UNL A   1      42.549  32.296  33.191  1.00  0.00     0.049 A 
ATOM     62  H   UNL A   1      41.803  30.857  31.841  1.00  0.00     0.167 HD
ATOM     63  C   UNL A   1      40.339  33.163  32.506  1.00  0.00     0.074 A 
ATOM     64  C   UNL A   1      39.238  34.100  32.581  1.00  0.00     0.031 C 
ATOM     65  C   UNL A   1      41.461  33.234  33.261  1.00  0.00     0.031 A 
BRANCH  52  66
ATOM     66  C   UNL A   1      45.253  28.446  32.480  1.00  0.00    -0.014 A 
ATOM     67  C   UNL A   1      46.453  28.641  31.778  1.00  0.00     0.009 A 
ATOM     68  C   UNL A   1      45.249  27.618  33.613  1.00  0.00     0.009 A 
ATOM     69  C   UNL A   1      47.622  27.999  32.188  1.00  0.00     0.001 A 
ATOM     70  C   UNL A   1      46.423  26.993  34.031  1.00  0.00     0.001 A 
ATOM     71  C   UNL A   1      47.607  27.179  33.317  1.00  0.00     0.000 A 
ENDBRANCH  52  66
BRANCH  53  72
ATOM     72  C   UNL A   1      36.738  32.579  29.556  1.00  0.00    -0.014 A 
ATOM     73  C   UNL A   1      35.596  32.134  30.234  1.00  0.00     0.009 A 
ATOM     74  C   UNL A   1      36.590  33.507  28.511  1.00  0.00     0.009 A 
ATOM     75  C   UNL A   1      34.328  32.580  29.850  1.00  0.00     0.001 A 
ATOM     76  C   UNL A   1      35.324  33.965  28.142  1.00  0.00     0.001 A 
ATOM     77  C   UNL A   1      34.193  33.494  28.804  1.00  0.00     0.000 A 
ENDBRANCH  53  72
BRANCH  65  78
ATOM     78  C   UNL A   1      41.594  34.403  34.192  1.00  0.00    -0.014 A 
ATOM     79  C   UNL A   1      41.157  34.334  35.522  1.00  0.00     0.009 A 
ATOM     80  C   UNL A   1      42.216  35.578  33.738  1.00  0.00     0.009 A 
ATOM     81  C   UNL A   1      41.321  35.427  36.375  1.00  0.00     0.001 A 
ATOM     82  C   UNL A   1      42.401  36.660  34.599  1.00  0.00     0.001 A 
ATOM     83  C   UNL A   1      41.949  36.586  35.915  1.00  0.00     0.000 A 
ENDBRANCH  65  78
ENDBRANCH  39  40
ENDBRANCH  32  34
ENDBRANCH  31  32
ENDBRANCH  30  31
ENDBRANCH  29  30
ENDBRANCH  28  29
ENDBRANCH  27  28
ENDBRANCH  26  27
ENDBRANCH  25  26
ENDBRANCH  24  25
ENDBRANCH   1  24
TORSDOF 26
ENDMDL
