MODEL 1
REMARK VINA RESULT:      -8.7      0.000      0.000
REMARK SMILES O=C(CS(=O)(=O)NCc1ccc(N2CCOCC2)nc1)OCCOCCOCCOCCOC(=O)c1ccc(-c2c3nc(c(-c4ccccc4)c4ccc([nH]4)c(-c4ccccc4)c4nc(c(-c5ccccc5)c5ccc2[nH]5)C=C4)C=C3)cc1
REMARK SMILES IDX 25 1 24 2 23 3 22 4 21 5 2 6 1 7 3 8 4 9 5 10 6 11 7 12 8 14
REMARK SMILES IDX 9 15 10 16 20 17 11 18 19 19 12 20 13 21 14 22 18 23 15 24
REMARK SMILES IDX 17 25 16 26 26 27 27 28 28 29 29 30 30 31 31 32 32 33 33 34
REMARK SMILES IDX 34 35 35 36 36 37 37 38 83 39 38 40 82 41 39 42 40 43 41 44
REMARK SMILES IDX 76 45 42 46 81 47 75 48 77 49 43 50 80 51 74 52 73 53 44 55
REMARK SMILES IDX 66 56 51 57 65 58 52 59 55 60 64 61 78 62 53 63 54 64 63 66
REMARK SMILES IDX 79 67 56 68 45 69 46 70 50 71 47 72 49 73 48 74 67 75 68 76
REMARK SMILES IDX 72 77 69 78 71 79 70 80 57 81 58 82 62 83 59 84 61 85 60 86
REMARK H PARENT 7 13 77 54 55 65
REMARK Flexibility Score: inf
ROOT
ATOM      1  C   UNL A   1      34.502  30.052  27.698  1.00  0.00     0.188 C 
ENDROOT
BRANCH   1   2
ATOM      2  O   UNL A   1      33.937  29.172  26.747  1.00  0.00    -0.376 OA
BRANCH   2   3
ATOM      3  C   UNL A   1      32.827  29.479  25.931  1.00  0.00     0.202 C 
BRANCH   3   4
ATOM      4  C   UNL A   1      31.915  28.349  25.481  1.00  0.00     0.261 C 
BRANCH   4   5
ATOM      5  O   UNL A   1      32.275  27.004  25.864  1.00  0.00    -0.462 OA
BRANCH   5   6
ATOM      6  C   UNL A   1      33.023  26.063  25.276  1.00  0.00     0.322 C 
ATOM      7  O   UNL A   1      32.993  25.997  24.044  1.00  0.00    -0.251 OA
BRANCH   6   8
ATOM      8  C   UNL A   1      33.784  25.042  26.025  1.00  0.00     0.276 C 
BRANCH   8   9
ATOM      9  S   UNL A   1      33.226  23.391  25.830  1.00  0.00     0.222 S 
ATOM     10  O   UNL A   1      33.854  22.571  26.840  1.00  0.00    -0.212 OA
ATOM     11  O   UNL A   1      31.779  23.442  25.804  1.00  0.00    -0.212 OA
BRANCH   9  12
ATOM     12  N   UNL A   1      33.648  22.830  24.332  1.00  0.00    -0.210 NA
ATOM     13  H   UNL A   1      32.984  23.268  23.695  1.00  0.00     0.141 HD
BRANCH  12  14
ATOM     14  C   UNL A   1      34.947  22.946  23.653  1.00  0.00     0.135 C 
BRANCH  14  15
ATOM     15  C   UNL A   1      36.209  22.731  24.432  1.00  0.00    -0.015 A 
ATOM     16  C   UNL A   1      36.875  23.729  25.119  1.00  0.00     0.010 A 
ATOM     17  C   UNL A   1      36.780  21.464  24.515  1.00  0.00     0.118 A 
ATOM     18  C   UNL A   1      38.082  23.460  25.751  1.00  0.00     0.047 A 
ATOM     19  N   UNL A   1      37.929  21.169  25.182  1.00  0.00    -0.239 NA
ATOM     20  C   UNL A   1      38.580  22.166  25.815  1.00  0.00     0.128 A 
BRANCH  20  21
ATOM     21  N   UNL A   1      39.739  21.908  26.502  1.00  0.00    -0.352 N 
ATOM     22  C   UNL A   1      40.295  22.817  27.509  1.00  0.00     0.146 C 
ATOM     23  C   UNL A   1      40.379  20.594  26.471  1.00  0.00     0.146 C 
ATOM     24  C   UNL A   1      41.795  22.973  27.247  1.00  0.00     0.181 C 
ATOM     25  C   UNL A   1      41.894  20.814  26.310  1.00  0.00     0.181 C 
ATOM     26  O   UNL A   1      42.445  21.695  27.307  1.00  0.00    -0.378 OA
ENDBRANCH  20  21
ENDBRANCH  14  15
ENDBRANCH  12  14
ENDBRANCH   9  12
ENDBRANCH   8   9
ENDBRANCH   6   8
ENDBRANCH   5   6
ENDBRANCH   4   5
ENDBRANCH   3   4
ENDBRANCH   2   3
ENDBRANCH   1   2
BRANCH   1  27
ATOM     27  C   UNL A   1      34.080  31.519  27.530  1.00  0.00     0.188 C 
BRANCH  27  28
ATOM     28  O   UNL A   1      35.137  32.475  27.558  1.00  0.00    -0.377 OA
BRANCH  28  29
ATOM     29  C   UNL A   1      34.870  33.639  28.326  1.00  0.00     0.188 C 
BRANCH  29  30
ATOM     30  C   UNL A   1      33.416  33.786  28.841  1.00  0.00     0.188 C 
BRANCH  30  31
ATOM     31  O   UNL A   1      32.709  35.015  28.779  1.00  0.00    -0.376 OA
BRANCH  31  32
ATOM     32  C   UNL A   1      33.376  36.236  29.046  1.00  0.00     0.202 C 
BRANCH  32  33
ATOM     33  C   UNL A   1      32.988  37.104  30.255  1.00  0.00     0.261 C 
BRANCH  33  34
ATOM     34  O   UNL A   1      33.606  36.776  31.508  1.00  0.00    -0.460 OA
BRANCH  34  35
ATOM     35  C   UNL A   1      33.134  35.676  32.140  1.00  0.00     0.338 C 
ATOM     36  O   UNL A   1      31.975  35.298  32.207  1.00  0.00    -0.246 OA
BRANCH  35  37
ATOM     37  C   UNL A   1      34.286  34.856  32.577  1.00  0.00     0.060 A 
ATOM     38  C   UNL A   1      35.586  35.342  32.357  1.00  0.00     0.016 A 
ATOM     39  C   UNL A   1      34.093  33.639  33.232  1.00  0.00     0.016 A 
ATOM     40  C   UNL A   1      36.692  34.628  32.812  1.00  0.00     0.010 A 
ATOM     41  C   UNL A   1      35.205  32.895  33.634  1.00  0.00     0.010 A 
ATOM     42  C   UNL A   1      36.509  33.380  33.415  1.00  0.00    -0.014 A 
BRANCH  42  43
ATOM     43  C   UNL A   1      37.669  32.489  33.646  1.00  0.00     0.031 A 
ATOM     44  C   UNL A   1      38.488  32.704  34.885  1.00  0.00     0.074 A 
ATOM     45  C   UNL A   1      38.018  31.545  32.754  1.00  0.00     0.049 A 
ATOM     46  N   UNL A   1      39.613  32.142  35.241  1.00  0.00    -0.248 NA
ATOM     47  C   UNL A   1      37.979  33.699  35.845  1.00  0.00     0.031 C 
ATOM     48  C   UNL A   1      37.292  31.236  31.526  1.00  0.00     0.029 A 
ATOM     49  N   UNL A   1      39.097  30.694  32.733  1.00  0.00    -0.354 N 
ATOM     50  C   UNL A   1      39.963  32.737  36.445  1.00  0.00     0.074 A 
ATOM     51  C   UNL A   1      38.932  33.700  36.764  1.00  0.00     0.031 C 
ATOM     52  C   UNL A   1      37.968  30.287  30.852  1.00  0.00     0.029 A 
ATOM     53  C   UNL A   1      39.177  29.931  31.592  1.00  0.00     0.049 A 
ATOM     54  H   UNL A   1      39.752  30.638  33.467  1.00  0.00     0.167 HD
ATOM     55  C   UNL A   1      41.056  32.512  37.208  1.00  0.00     0.031 A 
ATOM     56  C   UNL A   1      40.132  29.070  31.183  1.00  0.00     0.031 A 
ATOM     57  C   UNL A   1      42.087  31.566  36.883  1.00  0.00     0.049 A 
ATOM     58  C   UNL A   1      41.357  28.871  32.042  1.00  0.00     0.074 A 
ATOM     59  C   UNL A   1      43.217  31.245  37.614  1.00  0.00     0.029 A 
ATOM     60  N   UNL A   1      42.123  30.802  35.729  1.00  0.00    -0.354 N 
ATOM     61  N   UNL A   1      41.646  29.394  33.209  1.00  0.00    -0.248 NA
ATOM     62  C   UNL A   1      42.398  27.974  31.515  1.00  0.00     0.031 C 
ATOM     63  C   UNL A   1      43.975  30.338  36.869  1.00  0.00     0.029 A 
ATOM     64  C   UNL A   1      43.280  30.044  35.706  1.00  0.00     0.049 A 
ATOM     65  H   UNL A   1      41.430  30.800  35.030  1.00  0.00     0.167 HD
ATOM     66  C   UNL A   1      42.890  28.881  33.557  1.00  0.00     0.074 A 
ATOM     67  C   UNL A   1      43.283  27.975  32.499  1.00  0.00     0.031 C 
ATOM     68  C   UNL A   1      43.653  29.149  34.644  1.00  0.00     0.031 A 
BRANCH  55  69
ATOM     69  C   UNL A   1      41.226  33.339  38.448  1.00  0.00    -0.014 A 
ATOM     70  C   UNL A   1      41.745  34.641  38.395  1.00  0.00     0.009 A 
ATOM     71  C   UNL A   1      40.789  32.827  39.681  1.00  0.00     0.009 A 
ATOM     72  C   UNL A   1      41.834  35.410  39.558  1.00  0.00     0.001 A 
ATOM     73  C   UNL A   1      40.855  33.607  40.835  1.00  0.00     0.001 A 
ATOM     74  C   UNL A   1      41.380  34.897  40.773  1.00  0.00     0.000 A 
ENDBRANCH  55  69
BRANCH  56  75
ATOM     75  C   UNL A   1      40.019  28.352  29.882  1.00  0.00    -0.014 A 
ATOM     76  C   UNL A   1      39.503  27.045  29.826  1.00  0.00     0.009 A 
ATOM     77  C   UNL A   1      40.470  28.944  28.692  1.00  0.00     0.009 A 
ATOM     78  C   UNL A   1      39.463  26.344  28.618  1.00  0.00     0.001 A 
ATOM     79  C   UNL A   1      40.395  28.255  27.478  1.00  0.00     0.001 A 
ATOM     80  C   UNL A   1      39.902  26.951  27.444  1.00  0.00     0.000 A 
ENDBRANCH  56  75
BRANCH  68  81
ATOM     81  C   UNL A   1      44.977  28.447  34.750  1.00  0.00    -0.014 A 
ATOM     82  C   UNL A   1      45.082  27.183  35.352  1.00  0.00     0.009 A 
ATOM     83  C   UNL A   1      46.125  29.033  34.194  1.00  0.00     0.009 A 
ATOM     84  C   UNL A   1      46.317  26.535  35.424  1.00  0.00     0.001 A 
ATOM     85  C   UNL A   1      47.352  28.369  34.237  1.00  0.00     0.001 A 
ATOM     86  C   UNL A   1      47.448  27.124  34.859  1.00  0.00     0.000 A 
ENDBRANCH  68  81
ENDBRANCH  42  43
ENDBRANCH  35  37
ENDBRANCH  34  35
ENDBRANCH  33  34
ENDBRANCH  32  33
ENDBRANCH  31  32
ENDBRANCH  30  31
ENDBRANCH  29  30
ENDBRANCH  28  29
ENDBRANCH  27  28
ENDBRANCH   1  27
TORSDOF 25
ENDMDL
MODEL 2
REMARK VINA RESULT:      -8.7      4.594      8.293
REMARK SMILES O=C(CS(=O)(=O)NCc1ccc(N2CCOCC2)nc1)OCCOCCOCCOCCOC(=O)c1ccc(-c2c3nc(c(-c4ccccc4)c4ccc([nH]4)c(-c4ccccc4)c4nc(c(-c5ccccc5)c5ccc2[nH]5)C=C4)C=C3)cc1
REMARK SMILES IDX 25 1 24 2 23 3 22 4 21 5 2 6 1 7 3 8 4 9 5 10 6 11 7 12 8 14
REMARK SMILES IDX 9 15 10 16 20 17 11 18 19 19 12 20 13 21 14 22 18 23 15 24
REMARK SMILES IDX 17 25 16 26 26 27 27 28 28 29 29 30 30 31 31 32 32 33 33 34
REMARK SMILES IDX 34 35 35 36 36 37 37 38 83 39 38 40 82 41 39 42 40 43 41 44
REMARK SMILES IDX 76 45 42 46 81 47 75 48 77 49 43 50 80 51 74 52 73 53 44 55
REMARK SMILES IDX 66 56 51 57 65 58 52 59 55 60 64 61 78 62 53 63 54 64 63 66
REMARK SMILES IDX 79 67 56 68 45 69 46 70 50 71 47 72 49 73 48 74 67 75 68 76
REMARK SMILES IDX 72 77 69 78 71 79 70 80 57 81 58 82 62 83 59 84 61 85 60 86
REMARK H PARENT 7 13 77 54 55 65
REMARK Flexibility Score: inf
ROOT
ATOM      1  C   UNL A   1      34.851  29.810  27.441  1.00  0.00     0.188 C 
ENDROOT
BRANCH   1   2
ATOM      2  O   UNL A   1      33.805  30.383  26.682  1.00  0.00    -0.376 OA
BRANCH   2   3
ATOM      3  C   UNL A   1      32.464  29.943  26.705  1.00  0.00     0.202 C 
BRANCH   3   4
ATOM      4  C   UNL A   1      32.069  28.755  25.842  1.00  0.00     0.261 C 
BRANCH   4   5
ATOM      5  O   UNL A   1      32.710  27.489  26.111  1.00  0.00    -0.462 OA
BRANCH   5   6
ATOM      6  C   UNL A   1      33.501  26.699  25.376  1.00  0.00     0.322 C 
ATOM      7  O   UNL A   1      34.064  25.763  25.949  1.00  0.00    -0.251 OA
BRANCH   6   8
ATOM      8  C   UNL A   1      33.817  26.957  23.956  1.00  0.00     0.276 C 
BRANCH   8   9
ATOM      9  S   UNL A   1      33.006  25.917  22.801  1.00  0.00     0.222 S 
ATOM     10  O   UNL A   1      31.587  26.175  22.866  1.00  0.00    -0.212 OA
ATOM     11  O   UNL A   1      33.671  26.112  21.528  1.00  0.00    -0.212 OA
BRANCH   9  12
ATOM     12  N   UNL A   1      33.290  24.331  23.178  1.00  0.00    -0.210 NA
ATOM     13  H   UNL A   1      34.306  24.252  23.215  1.00  0.00     0.141 HD
BRANCH  12  14
ATOM     14  C   UNL A   1      32.815  23.579  24.348  1.00  0.00     0.135 C 
BRANCH  14  15
ATOM     15  C   UNL A   1      33.060  22.103  24.427  1.00  0.00    -0.015 A 
ATOM     16  C   UNL A   1      34.060  21.522  25.185  1.00  0.00     0.010 A 
ATOM     17  C   UNL A   1      32.248  21.214  23.727  1.00  0.00     0.118 A 
ATOM     18  C   UNL A   1      34.267  20.150  25.140  1.00  0.00     0.047 A 
ATOM     19  N   UNL A   1      32.397  19.861  23.721  1.00  0.00    -0.239 NA
ATOM     20  C   UNL A   1      33.402  19.321  24.440  1.00  0.00     0.128 A 
BRANCH  20  21
ATOM     21  N   UNL A   1      33.583  17.962  24.463  1.00  0.00    -0.352 N 
ATOM     22  C   UNL A   1      32.473  17.006  24.535  1.00  0.00     0.146 C 
ATOM     23  C   UNL A   1      34.875  17.349  24.161  1.00  0.00     0.146 C 
ATOM     24  C   UNL A   1      32.810  15.951  25.593  1.00  0.00     0.181 C 
ATOM     25  C   UNL A   1      35.114  16.229  25.191  1.00  0.00     0.181 C 
ATOM     26  O   UNL A   1      34.033  15.281  25.253  1.00  0.00    -0.378 OA
ENDBRANCH  20  21
ENDBRANCH  14  15
ENDBRANCH  12  14
ENDBRANCH   9  12
ENDBRANCH   8   9
ENDBRANCH   6   8
ENDBRANCH   5   6
ENDBRANCH   4   5
ENDBRANCH   3   4
ENDBRANCH   2   3
ENDBRANCH   1   2
BRANCH   1  27
ATOM     27  C   UNL A   1      35.730  30.833  28.176  1.00  0.00     0.188 C 
BRANCH  27  28
ATOM     28  O   UNL A   1      35.467  32.201  27.880  1.00  0.00    -0.377 OA
BRANCH  28  29
ATOM     29  C   UNL A   1      35.416  33.059  29.011  1.00  0.00     0.188 C 
BRANCH  29  30
ATOM     30  C   UNL A   1      34.887  32.417  30.318  1.00  0.00     0.188 C 
BRANCH  30  31
ATOM     31  O   UNL A   1      34.008  33.102  31.198  1.00  0.00    -0.376 OA
BRANCH  31  32
ATOM     32  C   UNL A   1      34.529  33.898  32.248  1.00  0.00     0.202 C 
BRANCH  32  33
ATOM     33  C   UNL A   1      35.216  33.254  33.465  1.00  0.00     0.261 C 
BRANCH  33  34
ATOM     34  O   UNL A   1      36.625  33.485  33.605  1.00  0.00    -0.460 OA
BRANCH  34  35
ATOM     35  C   UNL A   1      37.356  32.457  34.097  1.00  0.00     0.338 C 
ATOM     36  O   UNL A   1      37.216  31.894  35.171  1.00  0.00    -0.246 OA
BRANCH  35  37
ATOM     37  C   UNL A   1      38.245  31.959  33.023  1.00  0.00     0.060 A 
ATOM     38  C   UNL A   1      39.192  30.968  33.333  1.00  0.00     0.016 A 
ATOM     39  C   UNL A   1      38.124  32.430  31.716  1.00  0.00     0.016 A 
ATOM     40  C   UNL A   1      40.002  30.431  32.336  1.00  0.00     0.010 A 
ATOM     41  C   UNL A   1      38.978  31.934  30.728  1.00  0.00     0.010 A 
ATOM     42  C   UNL A   1      39.928  30.941  31.036  1.00  0.00    -0.014 A 
BRANCH  42  43
ATOM     43  C   UNL A   1      40.963  30.585  30.039  1.00  0.00     0.031 A 
ATOM     44  C   UNL A   1      40.849  29.259  29.346  1.00  0.00     0.074 A 
ATOM     45  C   UNL A   1      42.007  31.396  29.790  1.00  0.00     0.049 A 
ATOM     46  N   UNL A   1      41.692  28.674  28.535  1.00  0.00    -0.248 NA
ATOM     47  C   UNL A   1      39.629  28.480  29.615  1.00  0.00     0.031 C 
ATOM     48  C   UNL A   1      42.215  32.711  30.390  1.00  0.00     0.029 A 
ATOM     49  N   UNL A   1      43.107  31.212  28.988  1.00  0.00    -0.354 N 
ATOM     50  C   UNL A   1      41.121  27.447  28.226  1.00  0.00     0.074 A 
ATOM     51  C   UNL A   1      39.860  27.371  28.929  1.00  0.00     0.031 C 
ATOM     52  C   UNL A   1      43.393  33.199  29.961  1.00  0.00     0.029 A 
ATOM     53  C   UNL A   1      44.027  32.231  29.068  1.00  0.00     0.049 A 
ATOM     54  H   UNL A   1      43.226  30.423  28.410  1.00  0.00     0.167 HD
ATOM     55  C   UNL A   1      41.614  26.465  27.438  1.00  0.00     0.031 A 
ATOM     56  C   UNL A   1      45.250  32.350  28.510  1.00  0.00     0.031 A 
ATOM     57  C   UNL A   1      42.874  26.536  26.751  1.00  0.00     0.049 A 
ATOM     58  C   UNL A   1      45.784  31.218  27.666  1.00  0.00     0.074 A 
ATOM     59  C   UNL A   1      43.441  25.602  25.902  1.00  0.00     0.029 A 
ATOM     60  N   UNL A   1      43.766  27.590  26.845  1.00  0.00    -0.354 N 
ATOM     61  N   UNL A   1      45.207  30.090  27.331  1.00  0.00    -0.248 NA
ATOM     62  C   UNL A   1      47.149  31.372  27.139  1.00  0.00     0.031 C 
ATOM     63  C   UNL A   1      44.710  26.059  25.538  1.00  0.00     0.029 A 
ATOM     64  C   UNL A   1      44.902  27.309  26.106  1.00  0.00     0.049 A 
ATOM     65  H   UNL A   1      43.616  28.415  27.361  1.00  0.00     0.167 HD
ATOM     66  C   UNL A   1      46.133  29.410  26.548  1.00  0.00     0.074 A 
ATOM     67  C   UNL A   1      47.291  30.267  26.423  1.00  0.00     0.031 C 
ATOM     68  C   UNL A   1      46.044  28.176  25.996  1.00  0.00     0.031 A 
BRANCH  55  69
ATOM     69  C   UNL A   1      40.815  25.201  27.313  1.00  0.00    -0.014 A 
ATOM     70  C   UNL A   1      39.659  25.140  26.521  1.00  0.00     0.009 A 
ATOM     71  C   UNL A   1      41.276  24.033  27.942  1.00  0.00     0.009 A 
ATOM     72  C   UNL A   1      38.972  23.934  26.373  1.00  0.00     0.001 A 
ATOM     73  C   UNL A   1      40.601  22.824  27.771  1.00  0.00     0.001 A 
ATOM     74  C   UNL A   1      39.449  22.776  26.989  1.00  0.00     0.000 A 
ENDBRANCH  55  69
BRANCH  56  75
ATOM     75  C   UNL A   1      46.095  33.555  28.750  1.00  0.00    -0.014 A 
ATOM     76  C   UNL A   1      46.040  34.655  27.876  1.00  0.00     0.009 A 
ATOM     77  C   UNL A   1      46.999  33.597  29.822  1.00  0.00     0.009 A 
ATOM     78  C   UNL A   1      46.883  35.755  28.058  1.00  0.00     0.001 A 
ATOM     79  C   UNL A   1      47.815  34.714  30.025  1.00  0.00     0.001 A 
ATOM     80  C   UNL A   1      47.765  35.786  29.136  1.00  0.00     0.000 A 
ENDBRANCH  56  75
BRANCH  68  81
ATOM     81  C   UNL A   1      47.221  27.688  25.200  1.00  0.00    -0.014 A 
ATOM     82  C   UNL A   1      48.288  27.017  25.820  1.00  0.00     0.009 A 
ATOM     83  C   UNL A   1      47.240  27.853  23.806  1.00  0.00     0.009 A 
ATOM     84  C   UNL A   1      49.364  26.551  25.064  1.00  0.00     0.001 A 
ATOM     85  C   UNL A   1      48.301  27.356  23.048  1.00  0.00     0.001 A 
ATOM     86  C   UNL A   1      49.366  26.713  23.679  1.00  0.00     0.000 A 
ENDBRANCH  68  81
ENDBRANCH  42  43
ENDBRANCH  35  37
ENDBRANCH  34  35
ENDBRANCH  33  34
ENDBRANCH  32  33
ENDBRANCH  31  32
ENDBRANCH  30  31
ENDBRANCH  29  30
ENDBRANCH  28  29
ENDBRANCH  27  28
ENDBRANCH   1  27
TORSDOF 25
ENDMDL
MODEL 3
REMARK VINA RESULT:      -8.6      1.662      6.275
REMARK SMILES O=C(CS(=O)(=O)NCc1ccc(N2CCOCC2)nc1)OCCOCCOCCOCCOC(=O)c1ccc(-c2c3nc(c(-c4ccccc4)c4ccc([nH]4)c(-c4ccccc4)c4nc(c(-c5ccccc5)c5ccc2[nH]5)C=C4)C=C3)cc1
REMARK SMILES IDX 25 1 24 2 23 3 22 4 21 5 2 6 1 7 3 8 4 9 5 10 6 11 7 12 8 14
REMARK SMILES IDX 9 15 10 16 20 17 11 18 19 19 12 20 13 21 14 22 18 23 15 24
REMARK SMILES IDX 17 25 16 26 26 27 27 28 28 29 29 30 30 31 31 32 32 33 33 34
REMARK SMILES IDX 34 35 35 36 36 37 37 38 83 39 38 40 82 41 39 42 40 43 41 44
REMARK SMILES IDX 76 45 42 46 81 47 75 48 77 49 43 50 80 51 74 52 73 53 44 55
REMARK SMILES IDX 66 56 51 57 65 58 52 59 55 60 64 61 78 62 53 63 54 64 63 66
REMARK SMILES IDX 79 67 56 68 45 69 46 70 50 71 47 72 49 73 48 74 67 75 68 76
REMARK SMILES IDX 72 77 69 78 71 79 70 80 57 81 58 82 62 83 59 84 61 85 60 86
REMARK H PARENT 7 13 77 54 55 65
REMARK Flexibility Score: inf
ROOT
ATOM      1  C   UNL A   1      31.207  25.921  25.754  1.00  0.00     0.188 C 
ENDROOT
BRANCH   1   2
ATOM      2  O   UNL A   1      31.987  25.454  24.671  1.00  0.00    -0.376 OA
BRANCH   2   3
ATOM      3  C   UNL A   1      33.342  25.072  24.765  1.00  0.00     0.202 C 
BRANCH   3   4
ATOM      4  C   UNL A   1      33.895  24.663  26.122  1.00  0.00     0.261 C 
BRANCH   4   5
ATOM      5  O   UNL A   1      33.590  23.334  26.596  1.00  0.00    -0.462 OA
BRANCH   5   6
ATOM      6  C   UNL A   1      32.437  22.681  26.787  1.00  0.00     0.322 C 
ATOM      7  O   UNL A   1      32.018  22.590  27.944  1.00  0.00    -0.251 OA
BRANCH   6   8
ATOM      8  C   UNL A   1      31.713  21.977  25.709  1.00  0.00     0.276 C 
BRANCH   8   9
ATOM      9  S   UNL A   1      32.628  20.744  24.864  1.00  0.00     0.222 S 
ATOM     10  O   UNL A   1      32.155  19.447  25.289  1.00  0.00    -0.212 OA
ATOM     11  O   UNL A   1      32.551  21.063  23.453  1.00  0.00    -0.212 OA
BRANCH   9  12
ATOM     12  N   UNL A   1      34.235  20.886  25.233  1.00  0.00    -0.210 NA
ATOM     13  H   UNL A   1      34.586  19.929  25.234  1.00  0.00     0.141 HD
BRANCH  12  14
ATOM     14  C   UNL A   1      35.263  21.658  24.520  1.00  0.00     0.135 C 
BRANCH  14  15
ATOM     15  C   UNL A   1      36.667  21.678  25.042  1.00  0.00    -0.015 A 
ATOM     16  C   UNL A   1      37.281  22.795  25.577  1.00  0.00     0.010 A 
ATOM     17  C   UNL A   1      37.442  20.520  25.027  1.00  0.00     0.118 A 
ATOM     18  C   UNL A   1      38.612  22.746  25.966  1.00  0.00     0.047 A 
ATOM     19  N   UNL A   1      38.729  20.438  25.462  1.00  0.00    -0.239 NA
ATOM     20  C   UNL A   1      39.317  21.550  25.947  1.00  0.00     0.128 A 
BRANCH  20  21
ATOM     21  N   UNL A   1      40.611  21.507  26.399  1.00  0.00    -0.352 N 
ATOM     22  C   UNL A   1      41.159  22.470  27.359  1.00  0.00     0.146 C 
ATOM     23  C   UNL A   1      41.474  20.352  26.159  1.00  0.00     0.146 C 
ATOM     24  C   UNL A   1      42.526  22.937  26.851  1.00  0.00     0.181 C 
ATOM     25  C   UNL A   1      42.862  20.880  25.752  1.00  0.00     0.181 C 
ATOM     26  O   UNL A   1      43.409  21.815  26.700  1.00  0.00    -0.378 OA
ENDBRANCH  20  21
ENDBRANCH  14  15
ENDBRANCH  12  14
ENDBRANCH   9  12
ENDBRANCH   8   9
ENDBRANCH   6   8
ENDBRANCH   5   6
ENDBRANCH   4   5
ENDBRANCH   3   4
ENDBRANCH   2   3
ENDBRANCH   1   2
BRANCH   1  27
ATOM     27  C   UNL A   1      31.085  27.450  25.831  1.00  0.00     0.188 C 
BRANCH  27  28
ATOM     28  O   UNL A   1      31.177  28.142  24.588  1.00  0.00    -0.377 OA
BRANCH  28  29
ATOM     29  C   UNL A   1      32.024  29.282  24.599  1.00  0.00     0.188 C 
BRANCH  29  30
ATOM     30  C   UNL A   1      31.492  30.505  25.389  1.00  0.00     0.188 C 
BRANCH  30  31
ATOM     31  O   UNL A   1      31.747  30.682  26.774  1.00  0.00    -0.376 OA
BRANCH  31  32
ATOM     32  C   UNL A   1      33.079  30.754  27.251  1.00  0.00     0.202 C 
BRANCH  32  33
ATOM     33  C   UNL A   1      33.696  32.096  27.684  1.00  0.00     0.261 C 
BRANCH  33  34
ATOM     34  O   UNL A   1      32.841  33.247  27.620  1.00  0.00    -0.460 OA
BRANCH  34  35
ATOM     35  C   UNL A   1      33.169  34.283  28.428  1.00  0.00     0.338 C 
ATOM     36  O   UNL A   1      32.533  35.307  28.617  1.00  0.00    -0.246 OA
BRANCH  35  37
ATOM     37  C   UNL A   1      34.347  33.892  29.235  1.00  0.00     0.060 A 
ATOM     38  C   UNL A   1      35.630  34.195  28.750  1.00  0.00     0.016 A 
ATOM     39  C   UNL A   1      34.192  33.272  30.475  1.00  0.00     0.016 A 
ATOM     40  C   UNL A   1      36.759  33.900  29.511  1.00  0.00     0.010 A 
ATOM     41  C   UNL A   1      35.328  32.922  31.210  1.00  0.00     0.010 A 
ATOM     42  C   UNL A   1      36.615  33.224  30.727  1.00  0.00    -0.014 A 
BRANCH  42  43
ATOM     43  C   UNL A   1      37.803  32.657  31.406  1.00  0.00     0.031 A 
ATOM     44  C   UNL A   1      38.481  31.477  30.774  1.00  0.00     0.074 A 
ATOM     45  C   UNL A   1      38.241  33.145  32.580  1.00  0.00     0.049 A 
ATOM     46  N   UNL A   1      39.451  30.733  31.238  1.00  0.00    -0.248 NA
ATOM     47  C   UNL A   1      37.987  31.068  29.447  1.00  0.00     0.031 C 
ATOM     48  C   UNL A   1      37.673  34.295  33.280  1.00  0.00     0.029 A 
ATOM     49  N   UNL A   1      39.248  32.710  33.407  1.00  0.00    -0.354 N 
ATOM     50  C   UNL A   1      39.661  29.753  30.279  1.00  0.00     0.074 A 
ATOM     51  C   UNL A   1      38.723  29.994  29.205  1.00  0.00     0.031 C 
ATOM     52  C   UNL A   1      38.319  34.450  34.450  1.00  0.00     0.029 A 
ATOM     53  C   UNL A   1      39.335  33.408  34.589  1.00  0.00     0.049 A 
ATOM     54  H   UNL A   1      39.850  31.965  33.176  1.00  0.00     0.167 HD
ATOM     55  C   UNL A   1      40.546  28.731  30.300  1.00  0.00     0.031 A 
ATOM     56  C   UNL A   1      40.122  33.207  35.666  1.00  0.00     0.031 A 
ATOM     57  C   UNL A   1      41.468  28.483  31.375  1.00  0.00     0.049 A 
ATOM     58  C   UNL A   1      41.073  32.035  35.671  1.00  0.00     0.074 A 
ATOM     59  C   UNL A   1      42.427  27.490  31.469  1.00  0.00     0.029 A 
ATOM     60  N   UNL A   1      41.535  29.221  32.543  1.00  0.00    -0.354 N 
ATOM     61  N   UNL A   1      41.305  31.151  34.731  1.00  0.00    -0.248 NA
ATOM     62  C   UNL A   1      41.857  31.823  36.898  1.00  0.00     0.031 C 
ATOM     63  C   UNL A   1      43.027  27.584  32.727  1.00  0.00     0.029 A 
ATOM     64  C   UNL A   1      42.489  28.677  33.386  1.00  0.00     0.049 A 
ATOM     65  H   UNL A   1      40.987  30.013  32.745  1.00  0.00     0.167 HD
ATOM     66  C   UNL A   1      42.266  30.291  35.249  1.00  0.00     0.074 A 
ATOM     67  C   UNL A   1      42.604  30.781  36.568  1.00  0.00     0.031 C 
ATOM     68  C   UNL A   1      42.809  29.181  34.694  1.00  0.00     0.031 A 
BRANCH  55  69
ATOM     69  C   UNL A   1      40.531  27.767  29.151  1.00  0.00    -0.014 A 
ATOM     70  C   UNL A   1      39.698  26.638  29.153  1.00  0.00     0.009 A 
ATOM     71  C   UNL A   1      41.312  28.038  28.016  1.00  0.00     0.009 A 
ATOM     72  C   UNL A   1      39.659  25.792  28.042  1.00  0.00     0.001 A 
ATOM     73  C   UNL A   1      41.251  27.206  26.898  1.00  0.00     0.001 A 
ATOM     74  C   UNL A   1      40.426  26.082  26.914  1.00  0.00     0.000 A 
ENDBRANCH  55  69
BRANCH  56  75
ATOM     75  C   UNL A   1      40.035  34.092  36.862  1.00  0.00    -0.014 A 
ATOM     76  C   UNL A   1      39.330  33.683  38.008  1.00  0.00     0.009 A 
ATOM     77  C   UNL A   1      40.612  35.372  36.855  1.00  0.00     0.009 A 
ATOM     78  C   UNL A   1      39.186  34.539  39.102  1.00  0.00     0.001 A 
ATOM     79  C   UNL A   1      40.499  36.213  37.965  1.00  0.00     0.001 A 
ATOM     80  C   UNL A   1      39.776  35.801  39.083  1.00  0.00     0.000 A 
ENDBRANCH  56  75
BRANCH  68  81
ATOM     81  C   UNL A   1      43.830  28.431  35.503  1.00  0.00    -0.014 A 
ATOM     82  C   UNL A   1      45.195  28.749  35.422  1.00  0.00     0.009 A 
ATOM     83  C   UNL A   1      43.416  27.432  36.398  1.00  0.00     0.009 A 
ATOM     84  C   UNL A   1      46.129  28.057  36.196  1.00  0.00     0.001 A 
ATOM     85  C   UNL A   1      44.347  26.765  37.195  1.00  0.00     0.001 A 
ATOM     86  C   UNL A   1      45.704  27.072  37.087  1.00  0.00     0.000 A 
ENDBRANCH  68  81
ENDBRANCH  42  43
ENDBRANCH  35  37
ENDBRANCH  34  35
ENDBRANCH  33  34
ENDBRANCH  32  33
ENDBRANCH  31  32
ENDBRANCH  30  31
ENDBRANCH  29  30
ENDBRANCH  28  29
ENDBRANCH  27  28
ENDBRANCH   1  27
TORSDOF 25
ENDMDL
