MODEL 1
REMARK VINA RESULT:      -9.7      0.000      0.000
REMARK SMILES O=C(C[C@H](C(=O)OCCOCCOCCOCCOC(=O)c1ccc(-c2c3nc(c(-c4ccccc4)c4ccc([nH]4)c(-c4ccccc4)c4nc(c(-c5ccccc5)c5ccc2[nH]5)C=C4)C=C3)cc1)c1ccccc1)Nc1ccc(Cl)cc1Cl
REMARK SMILES IDX 12 1 11 2 10 3 9 4 8 5 7 6 5 7 6 8 4 9 3 10 2 11 1 12 76 13
REMARK SMILES IDX 77 15 78 16 83 17 79 18 82 19 84 20 80 21 81 22 70 23 71 24
REMARK SMILES IDX 75 25 72 26 74 27 73 28 13 29 14 30 15 31 16 32 17 33 18 34
REMARK SMILES IDX 19 35 20 36 21 37 22 38 23 39 69 40 24 41 68 42 25 43 26 44
REMARK SMILES IDX 27 45 62 46 28 47 67 48 61 49 63 50 29 51 66 52 60 53 59 54
REMARK SMILES IDX 30 56 52 57 37 58 51 59 38 60 41 61 50 62 64 63 39 64 40 65
REMARK SMILES IDX 49 67 65 68 42 69 31 70 32 71 36 72 33 73 35 74 34 75 53 76
REMARK SMILES IDX 54 77 58 78 55 79 57 80 56 81 43 82 44 83 48 84 45 85 47 86
REMARK SMILES IDX 46 87
REMARK H PARENT 76 14 63 55 41 66
REMARK Flexibility Score: inf
ROOT
ATOM      1  C   UNL A   1      35.930  31.514  28.013  1.00  0.00     0.188 C 
ENDROOT
BRANCH   1   2
ATOM      2  C   UNL A   1      34.495  30.967  28.159  1.00  0.00     0.188 C 
BRANCH   2   3
ATOM      3  O   UNL A   1      33.565  31.075  27.086  1.00  0.00    -0.376 OA
BRANCH   3   4
ATOM      4  C   UNL A   1      32.551  30.097  26.898  1.00  0.00     0.202 C 
BRANCH   4   5
ATOM      5  C   UNL A   1      32.758  28.904  25.953  1.00  0.00     0.261 C 
BRANCH   5   6
ATOM      6  O   UNL A   1      31.686  28.698  25.024  1.00  0.00    -0.463 OA
BRANCH   6   7
ATOM      7  C   UNL A   1      31.998  28.051  23.861  1.00  0.00     0.314 C 
ATOM      8  O   UNL A   1      33.119  27.982  23.381  1.00  0.00    -0.252 OA
BRANCH   7   9
ATOM      9  C   UNL A   1      30.729  27.402  23.280  1.00  0.00     0.138 C 
BRANCH   9  10
ATOM     10  C   UNL A   1      30.224  26.263  24.156  1.00  0.00     0.120 C 
BRANCH  10  11
ATOM     11  C   UNL A   1      31.074  25.019  23.967  1.00  0.00     0.225 C 
ATOM     12  O   UNL A   1      30.595  24.032  23.417  1.00  0.00    -0.275 OA
ATOM     13  N   UNL A   1      32.314  25.066  24.594  1.00  0.00    -0.325 N 
ATOM     14  H   UNL A   1      32.580  25.906  25.033  1.00  0.00     0.169 HD
BRANCH  13  15
ATOM     15  C   UNL A   1      33.219  23.972  24.638  1.00  0.00     0.060 A 
ATOM     16  C   UNL A   1      34.194  23.931  23.627  1.00  0.00     0.029 A 
ATOM     17  C   UNL A   1      33.222  22.961  25.617  1.00  0.00     0.066 A 
ATOM     18  C   UNL A   1      35.212  22.971  23.657  1.00  0.00     0.023 A 
ATOM     19  C   UNL A   1      34.252  22.015  25.655  1.00  0.00     0.043 A 
ATOM     20  Cl  UNL A   1      31.884  22.667  26.680  1.00  0.00    -0.082 Cl
ATOM     21  C   UNL A   1      35.250  22.034  24.686  1.00  0.00     0.042 A 
ATOM     22  Cl  UNL A   1      36.514  20.869  24.738  1.00  0.00    -0.084 Cl
ENDBRANCH  13  15
ENDBRANCH  10  11
ENDBRANCH   9  10
BRANCH   9  23
ATOM     23  C   UNL A   1      29.664  28.400  22.799  1.00  0.00    -0.033 A 
ATOM     24  C   UNL A   1      30.058  29.540  22.074  1.00  0.00     0.004 A 
ATOM     25  C   UNL A   1      28.312  28.307  23.173  1.00  0.00     0.004 A 
ATOM     26  C   UNL A   1      29.153  30.576  21.806  1.00  0.00     0.000 A 
ATOM     27  C   UNL A   1      27.414  29.350  22.924  1.00  0.00     0.000 A 
ATOM     28  C   UNL A   1      27.837  30.490  22.248  1.00  0.00     0.000 A 
ENDBRANCH   9  23
ENDBRANCH   7   9
ENDBRANCH   6   7
ENDBRANCH   5   6
ENDBRANCH   4   5
ENDBRANCH   3   4
ENDBRANCH   2   3
ENDBRANCH   1   2
BRANCH   1  29
ATOM     29  O   UNL A   1      36.006  32.862  27.586  1.00  0.00    -0.377 OA
BRANCH  29  30
ATOM     30  C   UNL A   1      35.446  33.805  28.496  1.00  0.00     0.188 C 
BRANCH  30  31
ATOM     31  C   UNL A   1      34.297  34.707  27.989  1.00  0.00     0.188 C 
BRANCH  31  32
ATOM     32  O   UNL A   1      34.511  36.098  28.190  1.00  0.00    -0.376 OA
BRANCH  32  33
ATOM     33  C   UNL A   1      33.481  36.904  28.741  1.00  0.00     0.202 C 
BRANCH  33  34
ATOM     34  C   UNL A   1      32.705  36.378  29.961  1.00  0.00     0.261 C 
BRANCH  34  35
ATOM     35  O   UNL A   1      33.404  36.380  31.214  1.00  0.00    -0.460 OA
BRANCH  35  36
ATOM     36  C   UNL A   1      32.998  35.505  32.157  1.00  0.00     0.338 C 
ATOM     37  O   UNL A   1      31.850  35.197  32.431  1.00  0.00    -0.246 OA
BRANCH  36  38
ATOM     38  C   UNL A   1      34.198  34.811  32.668  1.00  0.00     0.060 A 
ATOM     39  C   UNL A   1      35.455  35.402  32.476  1.00  0.00     0.016 A 
ATOM     40  C   UNL A   1      34.084  33.596  33.349  1.00  0.00     0.016 A 
ATOM     41  C   UNL A   1      36.606  34.762  32.932  1.00  0.00     0.010 A 
ATOM     42  C   UNL A   1      35.241  32.940  33.778  1.00  0.00     0.010 A 
ATOM     43  C   UNL A   1      36.507  33.504  33.537  1.00  0.00    -0.014 A 
BRANCH  43  44
ATOM     44  C   UNL A   1      37.728  32.681  33.709  1.00  0.00     0.031 A 
ATOM     45  C   UNL A   1      38.548  32.886  34.953  1.00  0.00     0.074 A 
ATOM     46  C   UNL A   1      38.090  31.758  32.802  1.00  0.00     0.049 A 
ATOM     47  N   UNL A   1      39.675  32.326  35.308  1.00  0.00    -0.248 NA
ATOM     48  C   UNL A   1      38.024  33.858  35.928  1.00  0.00     0.031 C 
ATOM     49  C   UNL A   1      37.349  31.424  31.587  1.00  0.00     0.029 A 
ATOM     50  N   UNL A   1      39.186  30.933  32.768  1.00  0.00    -0.354 N 
ATOM     51  C   UNL A   1      40.000  32.885  36.538  1.00  0.00     0.074 A 
ATOM     52  C   UNL A   1      38.969  33.849  36.855  1.00  0.00     0.031 C 
ATOM     53  C   UNL A   1      38.020  30.468  30.919  1.00  0.00     0.029 A 
ATOM     54  C   UNL A   1      39.253  30.154  31.640  1.00  0.00     0.049 A 
ATOM     55  H   UNL A   1      39.860  30.904  33.485  1.00  0.00     0.167 HD
ATOM     56  C   UNL A   1      41.061  32.621  37.335  1.00  0.00     0.031 A 
ATOM     57  C   UNL A   1      40.214  29.304  31.227  1.00  0.00     0.031 A 
ATOM     58  C   UNL A   1      42.094  31.675  37.010  1.00  0.00     0.049 A 
ATOM     59  C   UNL A   1      41.434  29.094  32.089  1.00  0.00     0.074 A 
ATOM     60  C   UNL A   1      43.205  31.324  37.756  1.00  0.00     0.029 A 
ATOM     61  N   UNL A   1      42.150  30.939  35.837  1.00  0.00    -0.354 N 
ATOM     62  N   UNL A   1      41.720  29.610  33.260  1.00  0.00    -0.248 NA
ATOM     63  C   UNL A   1      42.461  28.177  31.571  1.00  0.00     0.031 C 
ATOM     64  C   UNL A   1      43.969  30.428  37.003  1.00  0.00     0.029 A 
ATOM     65  C   UNL A   1      43.294  30.161  35.822  1.00  0.00     0.049 A 
ATOM     66  H   UNL A   1      41.474  30.966  35.121  1.00  0.00     0.167 HD
ATOM     67  C   UNL A   1      42.939  29.053  33.634  1.00  0.00     0.074 A 
ATOM     68  C   UNL A   1      43.330  28.151  32.571  1.00  0.00     0.031 C 
ATOM     69  C   UNL A   1      43.669  29.268  34.757  1.00  0.00     0.031 A 
BRANCH  56  70
ATOM     70  C   UNL A   1      41.179  33.402  38.613  1.00  0.00    -0.014 A 
ATOM     71  C   UNL A   1      40.611  32.942  39.812  1.00  0.00     0.009 A 
ATOM     72  C   UNL A   1      41.895  34.609  38.622  1.00  0.00     0.009 A 
ATOM     73  C   UNL A   1      40.729  33.693  40.984  1.00  0.00     0.001 A 
ATOM     74  C   UNL A   1      42.038  35.342  39.801  1.00  0.00     0.001 A 
ATOM     75  C   UNL A   1      41.448  34.889  40.980  1.00  0.00     0.000 A 
ENDBRANCH  56  70
BRANCH  57  76
ATOM     76  C   UNL A   1      40.083  28.603  29.921  1.00  0.00    -0.014 A 
ATOM     77  C   UNL A   1      39.483  27.337  29.841  1.00  0.00     0.009 A 
ATOM     78  C   UNL A   1      40.588  29.186  28.747  1.00  0.00     0.009 A 
ATOM     79  C   UNL A   1      39.416  26.660  28.621  1.00  0.00     0.001 A 
ATOM     80  C   UNL A   1      40.491  28.521  27.524  1.00  0.00     0.001 A 
ATOM     81  C   UNL A   1      39.915  27.254  27.463  1.00  0.00     0.000 A 
ENDBRANCH  57  76
BRANCH  69  82
ATOM     82  C   UNL A   1      44.941  28.479  34.920  1.00  0.00    -0.014 A 
ATOM     83  C   UNL A   1      44.941  27.191  35.476  1.00  0.00     0.009 A 
ATOM     84  C   UNL A   1      46.153  29.019  34.460  1.00  0.00     0.009 A 
ATOM     85  C   UNL A   1      46.136  26.477  35.603  1.00  0.00     0.001 A 
ATOM     86  C   UNL A   1      47.338  28.290  34.555  1.00  0.00     0.001 A 
ATOM     87  C   UNL A   1      47.331  27.024  35.138  1.00  0.00     0.000 A 
ENDBRANCH  69  82
ENDBRANCH  43  44
ENDBRANCH  36  38
ENDBRANCH  35  36
ENDBRANCH  34  35
ENDBRANCH  33  34
ENDBRANCH  32  33
ENDBRANCH  31  32
ENDBRANCH  30  31
ENDBRANCH  29  30
ENDBRANCH   1  29
TORSDOF 24
ENDMDL
MODEL 2
REMARK VINA RESULT:      -9.6      4.175      7.839
REMARK SMILES O=C(C[C@H](C(=O)OCCOCCOCCOCCOC(=O)c1ccc(-c2c3nc(c(-c4ccccc4)c4ccc([nH]4)c(-c4ccccc4)c4nc(c(-c5ccccc5)c5ccc2[nH]5)C=C4)C=C3)cc1)c1ccccc1)Nc1ccc(Cl)cc1Cl
REMARK SMILES IDX 12 1 11 2 10 3 9 4 8 5 7 6 5 7 6 8 4 9 3 10 2 11 1 12 76 13
REMARK SMILES IDX 77 15 78 16 83 17 79 18 82 19 84 20 80 21 81 22 70 23 71 24
REMARK SMILES IDX 75 25 72 26 74 27 73 28 13 29 14 30 15 31 16 32 17 33 18 34
REMARK SMILES IDX 19 35 20 36 21 37 22 38 23 39 69 40 24 41 68 42 25 43 26 44
REMARK SMILES IDX 27 45 62 46 28 47 67 48 61 49 63 50 29 51 66 52 60 53 59 54
REMARK SMILES IDX 30 56 52 57 37 58 51 59 38 60 41 61 50 62 64 63 39 64 40 65
REMARK SMILES IDX 49 67 65 68 42 69 31 70 32 71 36 72 33 73 35 74 34 75 53 76
REMARK SMILES IDX 54 77 58 78 55 79 57 80 56 81 43 82 44 83 48 84 45 85 47 86
REMARK SMILES IDX 46 87
REMARK H PARENT 76 14 63 55 41 66
REMARK Flexibility Score: inf
ROOT
ATOM      1  C   UNL A   1      35.309  30.771  27.644  1.00  0.00     0.188 C 
ENDROOT
BRANCH   1   2
ATOM      2  C   UNL A   1      34.374  29.552  27.501  1.00  0.00     0.188 C 
BRANCH   2   3
ATOM      3  O   UNL A   1      32.962  29.704  27.604  1.00  0.00    -0.376 OA
BRANCH   3   4
ATOM      4  C   UNL A   1      32.124  29.538  26.468  1.00  0.00     0.202 C 
BRANCH   4   5
ATOM      5  C   UNL A   1      32.368  28.408  25.456  1.00  0.00     0.261 C 
BRANCH   5   6
ATOM      6  O   UNL A   1      31.578  27.234  25.684  1.00  0.00    -0.463 OA
BRANCH   6   7
ATOM      7  C   UNL A   1      30.482  27.068  24.886  1.00  0.00     0.314 C 
ATOM      8  O   UNL A   1      29.509  26.385  25.172  1.00  0.00    -0.252 OA
BRANCH   7   9
ATOM      9  C   UNL A   1      30.652  27.896  23.601  1.00  0.00     0.138 C 
BRANCH   9  10
ATOM     10  C   UNL A   1      30.909  27.011  22.387  1.00  0.00     0.120 C 
BRANCH  10  11
ATOM     11  C   UNL A   1      31.550  25.699  22.802  1.00  0.00     0.225 C 
ATOM     12  O   UNL A   1      30.871  24.679  22.852  1.00  0.00    -0.275 OA
ATOM     13  N   UNL A   1      32.863  25.813  23.248  1.00  0.00    -0.325 N 
ATOM     14  H   UNL A   1      33.298  26.694  23.188  1.00  0.00     0.169 HD
BRANCH  13  15
ATOM     15  C   UNL A   1      33.611  24.733  23.785  1.00  0.00     0.060 A 
ATOM     16  C   UNL A   1      34.206  24.951  25.040  1.00  0.00     0.029 A 
ATOM     17  C   UNL A   1      33.774  23.476  23.173  1.00  0.00     0.066 A 
ATOM     18  C   UNL A   1      34.851  23.908  25.714  1.00  0.00     0.023 A 
ATOM     19  C   UNL A   1      34.403  22.431  23.859  1.00  0.00     0.043 A 
ATOM     20  Cl  UNL A   1      33.434  23.186  21.498  1.00  0.00    -0.082 Cl
ATOM     21  C   UNL A   1      34.923  22.646  25.131  1.00  0.00     0.042 A 
ATOM     22  Cl  UNL A   1      35.692  21.357  25.969  1.00  0.00    -0.084 Cl
ENDBRANCH  13  15
ENDBRANCH  10  11
ENDBRANCH   9  10
BRANCH   9  23
ATOM     23  C   UNL A   1      29.605  29.005  23.411  1.00  0.00    -0.033 A 
ATOM     24  C   UNL A   1      29.931  30.332  23.748  1.00  0.00     0.004 A 
ATOM     25  C   UNL A   1      28.273  28.738  23.049  1.00  0.00     0.004 A 
ATOM     26  C   UNL A   1      28.947  31.329  23.795  1.00  0.00     0.000 A 
ATOM     27  C   UNL A   1      27.288  29.729  23.116  1.00  0.00     0.000 A 
ATOM     28  C   UNL A   1      27.623  31.023  23.499  1.00  0.00     0.000 A 
ENDBRANCH   9  23
ENDBRANCH   7   9
ENDBRANCH   6   7
ENDBRANCH   5   6
ENDBRANCH   4   5
ENDBRANCH   3   4
ENDBRANCH   2   3
ENDBRANCH   1   2
BRANCH   1  29
ATOM     29  O   UNL A   1      34.913  31.703  28.634  1.00  0.00    -0.377 OA
BRANCH  29  30
ATOM     30  C   UNL A   1      35.175  33.065  28.307  1.00  0.00     0.188 C 
BRANCH  30  31
ATOM     31  C   UNL A   1      34.088  34.113  28.642  1.00  0.00     0.188 C 
BRANCH  31  32
ATOM     32  O   UNL A   1      34.276  34.775  29.886  1.00  0.00    -0.376 OA
BRANCH  32  33
ATOM     33  C   UNL A   1      34.051  34.081  31.102  1.00  0.00     0.202 C 
BRANCH  33  34
ATOM     34  C   UNL A   1      35.245  33.833  32.042  1.00  0.00     0.261 C 
BRANCH  34  35
ATOM     35  O   UNL A   1      35.379  32.507  32.572  1.00  0.00    -0.460 OA
BRANCH  35  36
ATOM     36  C   UNL A   1      36.494  32.225  33.275  1.00  0.00     0.338 C 
ATOM     37  O   UNL A   1      36.650  32.326  34.481  1.00  0.00    -0.246 OA
BRANCH  36  38
ATOM     38  C   UNL A   1      37.445  31.564  32.358  1.00  0.00     0.060 A 
ATOM     39  C   UNL A   1      38.506  30.826  32.901  1.00  0.00     0.016 A 
ATOM     40  C   UNL A   1      37.281  31.654  30.974  1.00  0.00     0.016 A 
ATOM     41  C   UNL A   1      39.429  30.207  32.060  1.00  0.00     0.010 A 
ATOM     42  C   UNL A   1      38.225  31.059  30.132  1.00  0.00     0.010 A 
ATOM     43  C   UNL A   1      39.321  30.365  30.674  1.00  0.00    -0.014 A 
BRANCH  43  44
ATOM     44  C   UNL A   1      40.470  30.006  29.809  1.00  0.00     0.031 A 
ATOM     45  C   UNL A   1      40.433  28.677  29.104  1.00  0.00     0.074 A 
ATOM     46  C   UNL A   1      41.507  30.840  29.629  1.00  0.00     0.049 A 
ATOM     47  N   UNL A   1      41.332  28.118  28.335  1.00  0.00    -0.248 NA
ATOM     48  C   UNL A   1      39.217  27.869  29.294  1.00  0.00     0.031 C 
ATOM     49  C   UNL A   1      41.632  32.177  30.208  1.00  0.00     0.029 A 
ATOM     50  N   UNL A   1      42.660  30.677  28.904  1.00  0.00    -0.354 N 
ATOM     51  C   UNL A   1      40.796  26.891  27.963  1.00  0.00     0.074 A 
ATOM     52  C   UNL A   1      39.508  26.774  28.611  1.00  0.00     0.031 C 
ATOM     53  C   UNL A   1      42.806  32.708  29.822  1.00  0.00     0.029 A 
ATOM     54  C   UNL A   1      43.528  31.735  29.004  1.00  0.00     0.049 A 
ATOM     55  H   UNL A   1      42.847  29.874  28.364  1.00  0.00     0.167 HD
ATOM     56  C   UNL A   1      41.325  25.947  27.152  1.00  0.00     0.031 A 
ATOM     57  C   UNL A   1      44.774  31.887  28.510  1.00  0.00     0.031 A 
ATOM     58  C   UNL A   1      42.613  26.058  26.522  1.00  0.00     0.049 A 
ATOM     59  C   UNL A   1      45.380  30.780  27.685  1.00  0.00     0.074 A 
ATOM     60  C   UNL A   1      43.235  25.161  25.672  1.00  0.00     0.029 A 
ATOM     61  N   UNL A   1      43.481  27.125  26.685  1.00  0.00    -0.354 N 
ATOM     62  N   UNL A   1      44.856  29.636  27.319  1.00  0.00    -0.248 NA
ATOM     63  C   UNL A   1      46.752  30.993  27.200  1.00  0.00     0.031 C 
ATOM     64  C   UNL A   1      44.509  25.655  25.376  1.00  0.00     0.029 A 
ATOM     65  C   UNL A   1      44.649  26.896  25.979  1.00  0.00     0.049 A 
ATOM     66  H   UNL A   1      43.294  27.929  27.223  1.00  0.00     0.167 HD
ATOM     67  C   UNL A   1      45.818  29.009  26.533  1.00  0.00     0.074 A 
ATOM     68  C   UNL A   1      46.951  29.908  26.465  1.00  0.00     0.031 C 
ATOM     69  C   UNL A   1      45.768  27.800  25.920  1.00  0.00     0.031 A 
BRANCH  56  70
ATOM     70  C   UNL A   1      40.529  24.690  26.941  1.00  0.00    -0.014 A 
ATOM     71  C   UNL A   1      39.319  24.696  26.228  1.00  0.00     0.009 A 
ATOM     72  C   UNL A   1      41.013  23.472  27.443  1.00  0.00     0.009 A 
ATOM     73  C   UNL A   1      38.595  23.514  26.054  1.00  0.00     0.001 A 
ATOM     74  C   UNL A   1      40.305  22.287  27.240  1.00  0.00     0.001 A 
ATOM     75  C   UNL A   1      39.091  22.310  26.554  1.00  0.00     0.000 A 
ENDBRANCH  56  70
BRANCH  57  76
ATOM     76  C   UNL A   1      45.549  33.123  28.803  1.00  0.00    -0.014 A 
ATOM     77  C   UNL A   1      46.387  33.197  29.925  1.00  0.00     0.009 A 
ATOM     78  C   UNL A   1      45.429  34.250  27.973  1.00  0.00     0.009 A 
ATOM     79  C   UNL A   1      47.066  34.381  30.226  1.00  0.00     0.001 A 
ATOM     80  C   UNL A   1      46.134  35.421  28.257  1.00  0.00     0.001 A 
ATOM     81  C   UNL A   1      46.943  35.489  29.390  1.00  0.00     0.000 A 
ENDBRANCH  57  76
BRANCH  69  82
ATOM     82  C   UNL A   1      46.951  27.397  25.082  1.00  0.00    -0.014 A 
ATOM     83  C   UNL A   1      47.096  27.833  23.756  1.00  0.00     0.009 A 
ATOM     84  C   UNL A   1      47.964  26.607  25.650  1.00  0.00     0.009 A 
ATOM     85  C   UNL A   1      48.212  27.452  23.005  1.00  0.00     0.001 A 
ATOM     86  C   UNL A   1      49.094  26.259  24.910  1.00  0.00     0.001 A 
ATOM     87  C   UNL A   1      49.212  26.672  23.585  1.00  0.00     0.000 A 
ENDBRANCH  69  82
ENDBRANCH  43  44
ENDBRANCH  36  38
ENDBRANCH  35  36
ENDBRANCH  34  35
ENDBRANCH  33  34
ENDBRANCH  32  33
ENDBRANCH  31  32
ENDBRANCH  30  31
ENDBRANCH  29  30
ENDBRANCH   1  29
TORSDOF 24
ENDMDL
MODEL 3
REMARK VINA RESULT:      -9.3      0.586      5.676
REMARK SMILES O=C(C[C@H](C(=O)OCCOCCOCCOCCOC(=O)c1ccc(-c2c3nc(c(-c4ccccc4)c4ccc([nH]4)c(-c4ccccc4)c4nc(c(-c5ccccc5)c5ccc2[nH]5)C=C4)C=C3)cc1)c1ccccc1)Nc1ccc(Cl)cc1Cl
REMARK SMILES IDX 12 1 11 2 10 3 9 4 8 5 7 6 5 7 6 8 4 9 3 10 2 11 1 12 76 13
REMARK SMILES IDX 77 15 78 16 83 17 79 18 82 19 84 20 80 21 81 22 70 23 71 24
REMARK SMILES IDX 75 25 72 26 74 27 73 28 13 29 14 30 15 31 16 32 17 33 18 34
REMARK SMILES IDX 19 35 20 36 21 37 22 38 23 39 69 40 24 41 68 42 25 43 26 44
REMARK SMILES IDX 27 45 62 46 28 47 67 48 61 49 63 50 29 51 66 52 60 53 59 54
REMARK SMILES IDX 30 56 52 57 37 58 51 59 38 60 41 61 50 62 64 63 39 64 40 65
REMARK SMILES IDX 49 67 65 68 42 69 31 70 32 71 36 72 33 73 35 74 34 75 53 76
REMARK SMILES IDX 54 77 58 78 55 79 57 80 56 81 43 82 44 83 48 84 45 85 47 86
REMARK SMILES IDX 46 87
REMARK H PARENT 76 14 63 55 41 66
REMARK Flexibility Score: inf
ROOT
ATOM      1  C   UNL A   1      35.825  31.495  27.979  1.00  0.00     0.188 C 
ENDROOT
BRANCH   1   2
ATOM      2  C   UNL A   1      34.394  30.924  27.899  1.00  0.00     0.188 C 
BRANCH   2   3
ATOM      3  O   UNL A   1      33.772  30.699  26.638  1.00  0.00    -0.376 OA
BRANCH   3   4
ATOM      4  C   UNL A   1      32.467  30.141  26.556  1.00  0.00     0.202 C 
BRANCH   4   5
ATOM      5  C   UNL A   1      32.247  28.620  26.576  1.00  0.00     0.261 C 
BRANCH   5   6
ATOM      6  O   UNL A   1      31.295  28.153  25.611  1.00  0.00    -0.463 OA
BRANCH   6   7
ATOM      7  C   UNL A   1      31.792  27.745  24.406  1.00  0.00     0.314 C 
ATOM      8  O   UNL A   1      32.970  27.796  24.085  1.00  0.00    -0.252 OA
BRANCH   7   9
ATOM      9  C   UNL A   1      30.648  27.185  23.543  1.00  0.00     0.138 C 
BRANCH   9  10
ATOM     10  C   UNL A   1      30.153  25.840  24.062  1.00  0.00     0.120 C 
BRANCH  10  11
ATOM     11  C   UNL A   1      31.165  24.745  23.774  1.00  0.00     0.225 C 
ATOM     12  O   UNL A   1      30.851  23.801  23.055  1.00  0.00    -0.275 OA
ATOM     13  N   UNL A   1      32.346  24.844  24.501  1.00  0.00    -0.325 N 
ATOM     14  H   UNL A   1      32.475  25.635  25.071  1.00  0.00     0.169 HD
BRANCH  13  15
ATOM     15  C   UNL A   1      33.377  23.868  24.468  1.00  0.00     0.060 A 
ATOM     16  C   UNL A   1      34.437  24.114  23.578  1.00  0.00     0.029 A 
ATOM     17  C   UNL A   1      33.423  22.709  25.265  1.00  0.00     0.066 A 
ATOM     18  C   UNL A   1      35.565  23.284  23.565  1.00  0.00     0.023 A 
ATOM     19  C   UNL A   1      34.559  21.893  25.263  1.00  0.00     0.043 A 
ATOM     20  Cl  UNL A   1      32.044  22.085  26.110  1.00  0.00    -0.082 Cl
ATOM     21  C   UNL A   1      35.630  22.193  24.427  1.00  0.00     0.042 A 
ATOM     22  Cl  UNL A   1      37.025  21.187  24.431  1.00  0.00    -0.084 Cl
ENDBRANCH  13  15
ENDBRANCH  10  11
ENDBRANCH   9  10
BRANCH   9  23
ATOM     23  C   UNL A   1      29.558  28.206  23.185  1.00  0.00    -0.033 A 
ATOM     24  C   UNL A   1      29.917  29.542  22.923  1.00  0.00     0.004 A 
ATOM     25  C   UNL A   1      28.186  27.906  23.246  1.00  0.00     0.004 A 
ATOM     26  C   UNL A   1      28.944  30.544  22.808  1.00  0.00     0.000 A 
ATOM     27  C   UNL A   1      27.216  28.910  23.150  1.00  0.00     0.000 A 
ATOM     28  C   UNL A   1      27.595  30.231  22.941  1.00  0.00     0.000 A 
ENDBRANCH   9  23
ENDBRANCH   7   9
ENDBRANCH   6   7
ENDBRANCH   5   6
ENDBRANCH   4   5
ENDBRANCH   3   4
ENDBRANCH   2   3
ENDBRANCH   1   2
BRANCH   1  29
ATOM     29  O   UNL A   1      35.928  32.871  27.657  1.00  0.00    -0.377 OA
BRANCH  29  30
ATOM     30  C   UNL A   1      35.349  33.750  28.617  1.00  0.00     0.188 C 
BRANCH  30  31
ATOM     31  C   UNL A   1      34.227  34.703  28.144  1.00  0.00     0.188 C 
BRANCH  31  32
ATOM     32  O   UNL A   1      34.416  36.062  28.516  1.00  0.00    -0.376 OA
BRANCH  32  33
ATOM     33  C   UNL A   1      33.316  36.835  28.968  1.00  0.00     0.202 C 
BRANCH  33  34
ATOM     34  C   UNL A   1      32.552  36.370  30.220  1.00  0.00     0.261 C 
BRANCH  34  35
ATOM     35  O   UNL A   1      33.278  36.384  31.457  1.00  0.00    -0.460 OA
BRANCH  35  36
ATOM     36  C   UNL A   1      33.070  35.365  32.315  1.00  0.00     0.338 C 
ATOM     37  O   UNL A   1      32.006  35.014  32.798  1.00  0.00    -0.246 OA
BRANCH  36  38
ATOM     38  C   UNL A   1      34.330  34.598  32.413  1.00  0.00     0.060 A 
ATOM     39  C   UNL A   1      34.293  33.301  32.942  1.00  0.00     0.016 A 
ATOM     40  C   UNL A   1      35.535  35.147  31.969  1.00  0.00     0.016 A 
ATOM     41  C   UNL A   1      35.467  32.562  33.064  1.00  0.00     0.010 A 
ATOM     42  C   UNL A   1      36.717  34.417  32.120  1.00  0.00     0.010 A 
ATOM     43  C   UNL A   1      36.691  33.137  32.702  1.00  0.00    -0.014 A 
BRANCH  43  44
ATOM     44  C   UNL A   1      37.954  32.499  33.142  1.00  0.00     0.031 A 
ATOM     45  C   UNL A   1      38.553  31.439  32.258  1.00  0.00     0.074 A 
ATOM     46  C   UNL A   1      38.571  32.862  34.278  1.00  0.00     0.049 A 
ATOM     47  N   UNL A   1      39.619  30.705  32.445  1.00  0.00    -0.248 NA
ATOM     48  C   UNL A   1      37.851  31.170  30.991  1.00  0.00     0.031 C 
ATOM     49  C   UNL A   1      38.123  33.914  35.189  1.00  0.00     0.029 A 
ATOM     50  N   UNL A   1      39.712  32.373  34.862  1.00  0.00    -0.354 N 
ATOM     51  C   UNL A   1      39.708  29.882  31.329  1.00  0.00     0.074 A 
ATOM     52  C   UNL A   1      38.574  30.184  30.484  1.00  0.00     0.031 C 
ATOM     53  C   UNL A   1      38.979  33.985  36.224  1.00  0.00     0.029 A 
ATOM     54  C   UNL A   1      40.008  32.958  36.068  1.00  0.00     0.049 A 
ATOM     55  H   UNL A   1      40.266  31.669  34.453  1.00  0.00     0.167 HD
ATOM     56  C   UNL A   1      40.650  28.957  31.032  1.00  0.00     0.031 A 
ATOM     57  C   UNL A   1      40.985  32.677  36.953  1.00  0.00     0.031 A 
ATOM     58  C   UNL A   1      41.767  28.645  31.881  1.00  0.00     0.049 A 
ATOM     59  C   UNL A   1      41.969  31.578  36.642  1.00  0.00     0.074 A 
ATOM     60  C   UNL A   1      42.784  27.733  31.664  1.00  0.00     0.029 A 
ATOM     61  N   UNL A   1      42.006  29.227  33.115  1.00  0.00    -0.354 N 
ATOM     62  N   UNL A   1      42.058  30.822  35.574  1.00  0.00    -0.248 NA
ATOM     63  C   UNL A   1      42.993  31.299  37.660  1.00  0.00     0.031 C 
ATOM     64  C   UNL A   1      43.600  27.714  32.799  1.00  0.00     0.029 A 
ATOM     65  C   UNL A   1      43.135  28.670  33.689  1.00  0.00     0.049 A 
ATOM     66  H   UNL A   1      41.454  29.934  33.524  1.00  0.00     0.167 HD
ATOM     67  C   UNL A   1      43.166  30.006  35.776  1.00  0.00     0.074 A 
ATOM     68  C   UNL A   1      43.724  30.369  37.062  1.00  0.00     0.031 C 
ATOM     69  C   UNL A   1      43.678  29.043  34.969  1.00  0.00     0.031 A 
BRANCH  56  70
ATOM     70  C   UNL A   1      40.481  28.183  29.754  1.00  0.00    -0.014 A 
ATOM     71  C   UNL A   1      41.108  28.584  28.563  1.00  0.00     0.009 A 
ATOM     72  C   UNL A   1      39.701  27.016  29.750  1.00  0.00     0.009 A 
ATOM     73  C   UNL A   1      40.927  27.851  27.388  1.00  0.00     0.001 A 
ATOM     74  C   UNL A   1      39.548  26.267  28.582  1.00  0.00     0.001 A 
ATOM     75  C   UNL A   1      40.153  26.690  27.399  1.00  0.00     0.000 A 
ENDBRANCH  56  70
BRANCH  57  76
ATOM     76  C   UNL A   1      41.070  33.427  38.236  1.00  0.00    -0.014 A 
ATOM     77  C   UNL A   1      41.991  34.474  38.396  1.00  0.00     0.009 A 
ATOM     78  C   UNL A   1      40.250  33.076  39.320  1.00  0.00     0.009 A 
ATOM     79  C   UNL A   1      42.106  35.134  39.622  1.00  0.00     0.001 A 
ATOM     80  C   UNL A   1      40.344  33.760  40.534  1.00  0.00     0.001 A 
ATOM     81  C   UNL A   1      41.280  34.780  40.688  1.00  0.00     0.000 A 
ENDBRANCH  57  76
BRANCH  69  82
ATOM     82  C   UNL A   1      44.931  28.346  35.429  1.00  0.00    -0.014 A 
ATOM     83  C   UNL A   1      46.202  28.898  35.209  1.00  0.00     0.009 A 
ATOM     84  C   UNL A   1      44.830  27.138  36.139  1.00  0.00     0.009 A 
ATOM     85  C   UNL A   1      47.348  28.234  35.657  1.00  0.00     0.001 A 
ATOM     86  C   UNL A   1      45.972  26.497  36.617  1.00  0.00     0.001 A 
ATOM     87  C   UNL A   1      47.231  27.039  36.366  1.00  0.00     0.000 A 
ENDBRANCH  69  82
ENDBRANCH  43  44
ENDBRANCH  36  38
ENDBRANCH  35  36
ENDBRANCH  34  35
ENDBRANCH  33  34
ENDBRANCH  32  33
ENDBRANCH  31  32
ENDBRANCH  30  31
ENDBRANCH  29  30
ENDBRANCH   1  29
TORSDOF 24
ENDMDL
