MODEL 1
REMARK VINA RESULT:      -9.2      0.000      0.000
REMARK SMILES CN1C(=O)C[C@@H](C(=O)OCCOCCOCCOCCOC(=O)c2ccc(-c3c4nc(c(-c5ccccc5)c5ccc([nH]5)c(-c5ccccc5)c5nc(c(-c6ccccc6)c6ccc3[nH]6)C=C5)C=C4)cc2)C12CCN(c1ccc(Cl)cn1)CC2
REMARK SMILES IDX 16 1 15 2 14 3 13 4 12 5 11 6 10 7 9 8 7 9 8 10 6 11 1 12
REMARK SMILES IDX 2 13 3 14 72 15 4 16 5 17 73 18 84 19 74 20 83 21 75 22
REMARK SMILES IDX 76 23 77 24 82 25 78 26 81 27 79 28 80 29 17 30 18 31 19 32
REMARK SMILES IDX 20 33 21 34 22 35 23 36 24 37 25 38 71 39 26 40 70 41 27 42
REMARK SMILES IDX 28 43 29 44 64 45 30 46 69 47 63 48 65 49 31 50 68 51 62 52
REMARK SMILES IDX 61 53 32 55 54 56 39 57 53 58 40 59 43 60 52 61 66 62 41 63
REMARK SMILES IDX 42 64 51 66 67 67 44 68 33 69 34 70 38 71 35 72 37 73 36 74
REMARK SMILES IDX 55 75 56 76 60 77 57 78 59 79 58 80 45 81 46 82 50 83 47 84
REMARK SMILES IDX 49 85 48 86
REMARK H PARENT 65 54 43 65
REMARK Flexibility Score: inf
ROOT
ATOM      1  C   UNL A   1      35.487  31.536  29.286  1.00  0.00     0.188 C 
ENDROOT
BRANCH   1   2
ATOM      2  O   UNL A   1      35.389  30.170  28.879  1.00  0.00    -0.377 OA
BRANCH   2   3
ATOM      3  C   UNL A   1      35.657  29.795  27.538  1.00  0.00     0.188 C 
BRANCH   3   4
ATOM      4  C   UNL A   1      34.489  29.226  26.737  1.00  0.00     0.188 C 
BRANCH   4   5
ATOM      5  O   UNL A   1      33.186  29.408  27.244  1.00  0.00    -0.376 OA
BRANCH   5   6
ATOM      6  C   UNL A   1      32.340  28.272  27.390  1.00  0.00     0.202 C 
BRANCH   6   7
ATOM      7  C   UNL A   1      31.293  27.886  26.321  1.00  0.00     0.261 C 
BRANCH   7   8
ATOM      8  O   UNL A   1      31.735  27.053  25.208  1.00  0.00    -0.463 OA
BRANCH   8   9
ATOM      9  C   UNL A   1      32.181  25.827  25.551  1.00  0.00     0.311 C 
ATOM     10  O   UNL A   1      31.865  25.277  26.609  1.00  0.00    -0.252 OA
BRANCH   9  11
ATOM     11  C   UNL A   1      33.207  25.125  24.668  1.00  0.00     0.134 C 
ATOM     12  C   UNL A   1      32.834  24.687  20.928  1.00  0.00     0.147 C 
ATOM     13  N   UNL A   1      33.025  25.075  22.319  1.00  0.00    -0.339 N 
ATOM     14  C   UNL A   1      33.555  26.318  22.619  1.00  0.00     0.223 C 
ATOM     15  C   UNL A   1      33.052  24.138  23.467  1.00  0.00     0.060 C 
ATOM     16  O   UNL A   1      33.721  27.244  21.844  1.00  0.00    -0.275 OA
ATOM     17  C   UNL A   1      33.996  26.304  24.051  1.00  0.00     0.118 C 
ATOM     18  C   UNL A   1      31.823  23.220  23.416  1.00  0.00     0.051 C 
ATOM     19  C   UNL A   1      34.362  23.260  23.386  1.00  0.00     0.051 C 
ATOM     20  C   UNL A   1      31.918  21.912  24.177  1.00  0.00     0.120 C 
ATOM     21  C   UNL A   1      34.345  22.013  24.290  1.00  0.00     0.120 C 
ATOM     22  N   UNL A   1      33.178  21.230  23.918  1.00  0.00    -0.356 N 
BRANCH  22  23
ATOM     23  C   UNL A   1      33.114  19.891  24.325  1.00  0.00     0.128 A 
ATOM     24  C   UNL A   1      32.904  18.916  23.340  1.00  0.00     0.048 A 
ATOM     25  N   UNL A   1      33.105  19.570  25.636  1.00  0.00    -0.238 NA
ATOM     26  C   UNL A   1      32.624  17.599  23.696  1.00  0.00     0.026 A 
ATOM     27  C   UNL A   1      32.834  18.275  25.962  1.00  0.00     0.134 A 
ATOM     28  C   UNL A   1      32.569  17.274  25.039  1.00  0.00     0.059 A 
ATOM     29  Cl  UNL A   1      32.155  15.684  25.533  1.00  0.00    -0.083 Cl
ENDBRANCH  22  23
ENDBRANCH   9  11
ENDBRANCH   8   9
ENDBRANCH   7   8
ENDBRANCH   6   7
ENDBRANCH   5   6
ENDBRANCH   4   5
ENDBRANCH   3   4
ENDBRANCH   2   3
ENDBRANCH   1   2
BRANCH   1  30
ATOM     30  C   UNL A   1      36.168  32.540  28.354  1.00  0.00     0.188 C 
BRANCH  30  31
ATOM     31  O   UNL A   1      35.452  33.721  27.982  1.00  0.00    -0.376 OA
BRANCH  31  32
ATOM     32  C   UNL A   1      34.031  33.720  28.061  1.00  0.00     0.202 C 
BRANCH  32  33
ATOM     33  C   UNL A   1      33.432  34.598  29.156  1.00  0.00     0.261 C 
BRANCH  33  34
ATOM     34  O   UNL A   1      33.603  34.004  30.452  1.00  0.00    -0.460 OA
BRANCH  34  35
ATOM     35  C   UNL A   1      33.965  34.872  31.424  1.00  0.00     0.338 C 
ATOM     36  O   UNL A   1      33.399  35.898  31.751  1.00  0.00    -0.246 OA
BRANCH  35  37
ATOM     37  C   UNL A   1      35.101  34.315  32.178  1.00  0.00     0.060 A 
ATOM     38  C   UNL A   1      36.339  34.951  32.036  1.00  0.00     0.016 A 
ATOM     39  C   UNL A   1      34.977  33.147  32.936  1.00  0.00     0.016 A 
ATOM     40  C   UNL A   1      37.476  34.388  32.600  1.00  0.00     0.010 A 
ATOM     41  C   UNL A   1      36.121  32.575  33.493  1.00  0.00     0.010 A 
ATOM     42  C   UNL A   1      37.378  33.170  33.282  1.00  0.00    -0.014 A 
BRANCH  42  43
ATOM     43  C   UNL A   1      38.615  32.421  33.579  1.00  0.00     0.031 A 
ATOM     44  C   UNL A   1      39.081  31.394  32.584  1.00  0.00     0.074 A 
ATOM     45  C   UNL A   1      39.333  32.692  34.681  1.00  0.00     0.049 A 
ATOM     46  N   UNL A   1      40.122  30.606  32.631  1.00  0.00    -0.248 NA
ATOM     47  C   UNL A   1      38.259  31.236  31.372  1.00  0.00     0.031 C 
ATOM     48  C   UNL A   1      39.003  33.713  35.675  1.00  0.00     0.029 A 
ATOM     49  N   UNL A   1      40.492  32.128  35.144  1.00  0.00    -0.354 N 
ATOM     50  C   UNL A   1      40.076  29.855  31.463  1.00  0.00     0.074 A 
ATOM     51  C   UNL A   1      38.890  30.258  30.741  1.00  0.00     0.031 C 
ATOM     52  C   UNL A   1      39.940  33.697  36.639  1.00  0.00     0.029 A 
ATOM     53  C   UNL A   1      40.909  32.644  36.345  1.00  0.00     0.049 A 
ATOM     54  H   UNL A   1      40.979  31.421  34.661  1.00  0.00     0.167 HD
ATOM     55  C   UNL A   1      40.948  28.916  31.029  1.00  0.00     0.031 A 
ATOM     56  C   UNL A   1      41.945  32.284  37.126  1.00  0.00     0.031 A 
ATOM     57  C   UNL A   1      42.113  28.509  31.768  1.00  0.00     0.049 A 
ATOM     58  C   UNL A   1      42.849  31.171  36.666  1.00  0.00     0.074 A 
ATOM     59  C   UNL A   1      43.068  27.569  31.424  1.00  0.00     0.029 A 
ATOM     60  N   UNL A   1      42.475  29.018  33.006  1.00  0.00    -0.354 N 
ATOM     61  N   UNL A   1      42.807  30.478  35.553  1.00  0.00    -0.248 NA
ATOM     62  C   UNL A   1      43.947  30.798  37.567  1.00  0.00     0.031 C 
ATOM     63  C   UNL A   1      43.972  27.463  32.486  1.00  0.00     0.029 A 
ATOM     64  C   UNL A   1      43.621  28.388  33.458  1.00  0.00     0.049 A 
ATOM     65  H   UNL A   1      41.988  29.723  33.492  1.00  0.00     0.167 HD
ATOM     66  C   UNL A   1      43.888  29.606  35.607  1.00  0.00     0.074 A 
ATOM     67  C   UNL A   1      44.576  29.873  36.854  1.00  0.00     0.031 C 
ATOM     68  C   UNL A   1      44.282  28.671  34.707  1.00  0.00     0.031 A 
BRANCH  55  69
ATOM     69  C   UNL A   1      40.641  28.234  29.725  1.00  0.00    -0.014 A 
ATOM     70  C   UNL A   1      39.801  27.110  29.663  1.00  0.00     0.009 A 
ATOM     71  C   UNL A   1      41.188  28.737  28.534  1.00  0.00     0.009 A 
ATOM     72  C   UNL A   1      39.547  26.482  28.440  1.00  0.00     0.001 A 
ATOM     73  C   UNL A   1      40.908  28.126  27.310  1.00  0.00     0.001 A 
ATOM     74  C   UNL A   1      40.096  26.994  27.265  1.00  0.00     0.000 A 
ENDBRANCH  55  69
BRANCH  56  75
ATOM     75  C   UNL A   1      42.166  32.960  38.431  1.00  0.00    -0.014 A 
ATOM     76  C   UNL A   1      41.561  32.481  39.602  1.00  0.00     0.009 A 
ATOM     77  C   UNL A   1      42.981  34.102  38.509  1.00  0.00     0.009 A 
ATOM     78  C   UNL A   1      41.746  33.145  40.818  1.00  0.00     0.001 A 
ATOM     79  C   UNL A   1      43.190  34.744  39.731  1.00  0.00     0.001 A 
ATOM     80  C   UNL A   1      42.564  34.272  40.882  1.00  0.00     0.000 A 
ENDBRANCH  56  75
BRANCH  68  81
ATOM     81  C   UNL A   1      45.529  27.894  35.025  1.00  0.00    -0.014 A 
ATOM     82  C   UNL A   1      45.475  26.671  35.710  1.00  0.00     0.009 A 
ATOM     83  C   UNL A   1      46.774  28.378  34.592  1.00  0.00     0.009 A 
ATOM     84  C   UNL A   1      46.647  25.966  35.988  1.00  0.00     0.001 A 
ATOM     85  C   UNL A   1      47.940  27.655  34.842  1.00  0.00     0.001 A 
ATOM     86  C   UNL A   1      47.878  26.456  35.549  1.00  0.00     0.000 A 
ENDBRANCH  68  81
ENDBRANCH  42  43
ENDBRANCH  35  37
ENDBRANCH  34  35
ENDBRANCH  33  34
ENDBRANCH  32  33
ENDBRANCH  31  32
ENDBRANCH  30  31
ENDBRANCH   1  30
TORSDOF 21
ENDMDL
MODEL 2
REMARK VINA RESULT:      -8.7      1.912      6.189
REMARK SMILES CN1C(=O)C[C@@H](C(=O)OCCOCCOCCOCCOC(=O)c2ccc(-c3c4nc(c(-c5ccccc5)c5ccc([nH]5)c(-c5ccccc5)c5nc(c(-c6ccccc6)c6ccc3[nH]6)C=C5)C=C4)cc2)C12CCN(c1ccc(Cl)cn1)CC2
REMARK SMILES IDX 16 1 15 2 14 3 13 4 12 5 11 6 10 7 9 8 7 9 8 10 6 11 1 12
REMARK SMILES IDX 2 13 3 14 72 15 4 16 5 17 73 18 84 19 74 20 83 21 75 22
REMARK SMILES IDX 76 23 77 24 82 25 78 26 81 27 79 28 80 29 17 30 18 31 19 32
REMARK SMILES IDX 20 33 21 34 22 35 23 36 24 37 25 38 71 39 26 40 70 41 27 42
REMARK SMILES IDX 28 43 29 44 64 45 30 46 69 47 63 48 65 49 31 50 68 51 62 52
REMARK SMILES IDX 61 53 32 55 54 56 39 57 53 58 40 59 43 60 52 61 66 62 41 63
REMARK SMILES IDX 42 64 51 66 67 67 44 68 33 69 34 70 38 71 35 72 37 73 36 74
REMARK SMILES IDX 55 75 56 76 60 77 57 78 59 79 58 80 45 81 46 82 50 83 47 84
REMARK SMILES IDX 49 85 48 86
REMARK H PARENT 65 54 43 65
REMARK Flexibility Score: inf
ROOT
ATOM      1  C   UNL A   1      35.990  31.338  30.037  1.00  0.00     0.188 C 
ENDROOT
BRANCH   1   2
ATOM      2  O   UNL A   1      35.950  29.998  29.543  1.00  0.00    -0.377 OA
BRANCH   2   3
ATOM      3  C   UNL A   1      36.355  29.707  28.215  1.00  0.00     0.188 C 
BRANCH   3   4
ATOM      4  C   UNL A   1      35.248  29.395  27.212  1.00  0.00     0.188 C 
BRANCH   4   5
ATOM      5  O   UNL A   1      33.911  29.481  27.652  1.00  0.00    -0.376 OA
BRANCH   5   6
ATOM      6  C   UNL A   1      32.909  28.743  26.959  1.00  0.00     0.202 C 
BRANCH   6   7
ATOM      7  C   UNL A   1      31.586  29.392  26.496  1.00  0.00     0.261 C 
BRANCH   7   8
ATOM      8  O   UNL A   1      31.526  29.911  25.134  1.00  0.00    -0.463 OA
BRANCH   8   9
ATOM      9  C   UNL A   1      32.371  29.326  24.260  1.00  0.00     0.311 C 
ATOM     10  O   UNL A   1      33.540  29.695  24.116  1.00  0.00    -0.252 OA
BRANCH   9  11
ATOM     11  C   UNL A   1      31.852  28.242  23.323  1.00  0.00     0.134 C 
ATOM     12  C   UNL A   1      28.631  26.332  23.873  1.00  0.00     0.147 C 
ATOM     13  N   UNL A   1      29.735  27.242  23.600  1.00  0.00    -0.339 N 
ATOM     14  C   UNL A   1      29.490  28.451  22.972  1.00  0.00     0.223 C 
ATOM     15  C   UNL A   1      31.168  26.863  23.594  1.00  0.00     0.060 C 
ATOM     16  O   UNL A   1      28.400  28.958  22.771  1.00  0.00    -0.275 OA
ATOM     17  C   UNL A   1      30.797  28.993  22.476  1.00  0.00     0.118 C 
ATOM     18  C   UNL A   1      31.510  26.109  24.887  1.00  0.00     0.051 C 
ATOM     19  C   UNL A   1      31.449  25.926  22.355  1.00  0.00     0.051 C 
ATOM     20  C   UNL A   1      32.743  25.228  24.856  1.00  0.00     0.120 C 
ATOM     21  C   UNL A   1      32.789  25.169  22.425  1.00  0.00     0.120 C 
ATOM     22  N   UNL A   1      32.782  24.399  23.658  1.00  0.00    -0.356 N 
BRANCH  22  23
ATOM     23  C   UNL A   1      33.708  23.358  23.801  1.00  0.00     0.128 A 
ATOM     24  C   UNL A   1      33.253  22.148  24.344  1.00  0.00     0.048 A 
ATOM     25  N   UNL A   1      35.020  23.566  23.565  1.00  0.00    -0.238 NA
ATOM     26  C   UNL A   1      34.156  21.151  24.705  1.00  0.00     0.026 A 
ATOM     27  C   UNL A   1      35.886  22.575  23.920  1.00  0.00     0.134 A 
ATOM     28  C   UNL A   1      35.506  21.377  24.505  1.00  0.00     0.059 A 
ATOM     29  Cl  UNL A   1      36.665  20.213  25.000  1.00  0.00    -0.083 Cl
ENDBRANCH  22  23
ENDBRANCH   9  11
ENDBRANCH   8   9
ENDBRANCH   7   8
ENDBRANCH   6   7
ENDBRANCH   5   6
ENDBRANCH   4   5
ENDBRANCH   3   4
ENDBRANCH   2   3
ENDBRANCH   1   2
BRANCH   1  30
ATOM     30  C   UNL A   1      36.527  32.448  29.130  1.00  0.00     0.188 C 
BRANCH  30  31
ATOM     31  O   UNL A   1      35.716  33.605  28.914  1.00  0.00    -0.376 OA
BRANCH  31  32
ATOM     32  C   UNL A   1      34.357  33.584  29.336  1.00  0.00     0.202 C 
BRANCH  32  33
ATOM     33  C   UNL A   1      33.988  34.595  30.418  1.00  0.00     0.261 C 
BRANCH  33  34
ATOM     34  O   UNL A   1      34.318  34.103  31.726  1.00  0.00    -0.460 OA
BRANCH  34  35
ATOM     35  C   UNL A   1      35.122  34.918  32.446  1.00  0.00     0.338 C 
ATOM     36  O   UNL A   1      34.887  36.052  32.818  1.00  0.00    -0.246 OA
BRANCH  35  37
ATOM     37  C   UNL A   1      36.316  34.171  32.875  1.00  0.00     0.060 A 
ATOM     38  C   UNL A   1      37.558  34.636  32.429  1.00  0.00     0.016 A 
ATOM     39  C   UNL A   1      36.217  32.995  33.624  1.00  0.00     0.016 A 
ATOM     40  C   UNL A   1      38.705  33.893  32.676  1.00  0.00     0.010 A 
ATOM     41  C   UNL A   1      37.367  32.242  33.861  1.00  0.00     0.010 A 
ATOM     42  C   UNL A   1      38.604  32.667  33.343  1.00  0.00    -0.014 A 
BRANCH  42  43
ATOM     43  C   UNL A   1      39.752  31.739  33.303  1.00  0.00     0.031 A 
ATOM     44  C   UNL A   1      40.786  31.840  34.390  1.00  0.00     0.074 A 
ATOM     45  C   UNL A   1      39.837  30.796  32.352  1.00  0.00     0.049 A 
ATOM     46  N   UNL A   1      41.882  31.149  34.558  1.00  0.00    -0.248 NA
ATOM     47  C   UNL A   1      40.549  32.859  35.427  1.00  0.00     0.031 C 
ATOM     48  C   UNL A   1      38.855  30.572  31.292  1.00  0.00     0.029 A 
ATOM     49  N   UNL A   1      40.800  29.847  32.129  1.00  0.00    -0.354 N 
ATOM     50  C   UNL A   1      42.469  31.654  35.713  1.00  0.00     0.074 A 
ATOM     51  C   UNL A   1      41.625  32.727  36.187  1.00  0.00     0.031 C 
ATOM     52  C   UNL A   1      39.272  29.550  30.524  1.00  0.00     0.029 A 
ATOM     53  C   UNL A   1      40.563  29.077  31.019  1.00  0.00     0.049 A 
ATOM     54  H   UNL A   1      41.586  29.728  32.711  1.00  0.00     0.167 HD
ATOM     55  C   UNL A   1      43.607  31.254  36.324  1.00  0.00     0.031 A 
ATOM     56  C   UNL A   1      41.319  28.116  30.457  1.00  0.00     0.031 A 
ATOM     57  C   UNL A   1      44.449  30.197  35.829  1.00  0.00     0.049 A 
ATOM     58  C   UNL A   1      42.630  27.752  31.104  1.00  0.00     0.074 A 
ATOM     59  C   UNL A   1      45.624  29.706  36.368  1.00  0.00     0.029 A 
ATOM     60  N   UNL A   1      44.202  29.475  34.672  1.00  0.00    -0.354 N 
ATOM     61  N   UNL A   1      43.168  28.223  32.203  1.00  0.00    -0.248 NA
ATOM     62  C   UNL A   1      43.430  26.718  30.436  1.00  0.00     0.031 C 
ATOM     63  C   UNL A   1      46.123  28.729  35.500  1.00  0.00     0.029 A 
ATOM     64  C   UNL A   1      45.221  28.563  34.459  1.00  0.00     0.049 A 
ATOM     65  H   UNL A   1      43.418  29.593  34.087  1.00  0.00     0.167 HD
ATOM     66  C   UNL A   1      44.357  27.524  32.374  1.00  0.00     0.074 A 
ATOM     67  C   UNL A   1      44.449  26.585  31.275  1.00  0.00     0.031 C 
ATOM     68  C   UNL A   1      45.289  27.643  33.352  1.00  0.00     0.031 A 
BRANCH  55  69
ATOM     69  C   UNL A   1      44.029  31.998  37.561  1.00  0.00    -0.014 A 
ATOM     70  C   UNL A   1      44.866  33.123  37.492  1.00  0.00     0.009 A 
ATOM     71  C   UNL A   1      43.564  31.576  38.816  1.00  0.00     0.009 A 
ATOM     72  C   UNL A   1      45.260  33.786  38.658  1.00  0.00     0.001 A 
ATOM     73  C   UNL A   1      43.934  32.258  39.977  1.00  0.00     0.001 A 
ATOM     74  C   UNL A   1      44.789  33.356  39.898  1.00  0.00     0.000 A 
ENDBRANCH  55  69
BRANCH  56  75
ATOM     75  C   UNL A   1      40.874  27.453  29.203  1.00  0.00    -0.014 A 
ATOM     76  C   UNL A   1      40.031  26.332  29.242  1.00  0.00     0.009 A 
ATOM     77  C   UNL A   1      41.301  27.935  27.955  1.00  0.00     0.009 A 
ATOM     78  C   UNL A   1      39.648  25.694  28.059  1.00  0.00     0.001 A 
ATOM     79  C   UNL A   1      40.891  27.315  26.774  1.00  0.00     0.001 A 
ATOM     80  C   UNL A   1      40.073  26.188  26.827  1.00  0.00     0.000 A 
ENDBRANCH  56  75
BRANCH  68  81
ATOM     81  C   UNL A   1      46.468  26.712  33.293  1.00  0.00    -0.014 A 
ATOM     82  C   UNL A   1      47.631  27.049  32.586  1.00  0.00     0.009 A 
ATOM     83  C   UNL A   1      46.425  25.497  33.995  1.00  0.00     0.009 A 
ATOM     84  C   UNL A   1      48.715  26.170  32.552  1.00  0.00     0.001 A 
ATOM     85  C   UNL A   1      47.522  24.635  33.987  1.00  0.00     0.001 A 
ATOM     86  C   UNL A   1      48.662  24.967  33.257  1.00  0.00     0.000 A 
ENDBRANCH  68  81
ENDBRANCH  42  43
ENDBRANCH  35  37
ENDBRANCH  34  35
ENDBRANCH  33  34
ENDBRANCH  32  33
ENDBRANCH  31  32
ENDBRANCH  30  31
ENDBRANCH   1  30
TORSDOF 21
ENDMDL
MODEL 3
REMARK VINA RESULT:      -8.7      6.697     13.247
REMARK SMILES CN1C(=O)C[C@@H](C(=O)OCCOCCOCCOCCOC(=O)c2ccc(-c3c4nc(c(-c5ccccc5)c5ccc([nH]5)c(-c5ccccc5)c5nc(c(-c6ccccc6)c6ccc3[nH]6)C=C5)C=C4)cc2)C12CCN(c1ccc(Cl)cn1)CC2
REMARK SMILES IDX 16 1 15 2 14 3 13 4 12 5 11 6 10 7 9 8 7 9 8 10 6 11 1 12
REMARK SMILES IDX 2 13 3 14 72 15 4 16 5 17 73 18 84 19 74 20 83 21 75 22
REMARK SMILES IDX 76 23 77 24 82 25 78 26 81 27 79 28 80 29 17 30 18 31 19 32
REMARK SMILES IDX 20 33 21 34 22 35 23 36 24 37 25 38 71 39 26 40 70 41 27 42
REMARK SMILES IDX 28 43 29 44 64 45 30 46 69 47 63 48 65 49 31 50 68 51 62 52
REMARK SMILES IDX 61 53 32 55 54 56 39 57 53 58 40 59 43 60 52 61 66 62 41 63
REMARK SMILES IDX 42 64 51 66 67 67 44 68 33 69 34 70 38 71 35 72 37 73 36 74
REMARK SMILES IDX 55 75 56 76 60 77 57 78 59 79 58 80 45 81 46 82 50 83 47 84
REMARK SMILES IDX 49 85 48 86
REMARK H PARENT 65 54 43 65
REMARK Flexibility Score: inf
ROOT
ATOM      1  C   UNL A   1      47.583  24.780  26.447  1.00  0.00     0.188 C 
ENDROOT
BRANCH   1   2
ATOM      2  O   UNL A   1      46.378  25.514  26.226  1.00  0.00    -0.377 OA
BRANCH   2   3
ATOM      3  C   UNL A   1      46.216  26.301  25.057  1.00  0.00     0.188 C 
BRANCH   3   4
ATOM      4  C   UNL A   1      45.215  27.451  25.136  1.00  0.00     0.188 C 
BRANCH   4   5
ATOM      5  O   UNL A   1      44.590  27.701  26.375  1.00  0.00    -0.376 OA
BRANCH   5   6
ATOM      6  C   UNL A   1      44.723  28.990  26.964  1.00  0.00     0.202 C 
BRANCH   6   7
ATOM      7  C   UNL A   1      43.569  30.019  26.956  1.00  0.00     0.261 C 
BRANCH   7   8
ATOM      8  O   UNL A   1      43.919  31.428  26.811  1.00  0.00    -0.463 OA
BRANCH   8   9
ATOM      9  C   UNL A   1      44.067  32.104  27.969  1.00  0.00     0.311 C 
ATOM     10  O   UNL A   1      43.319  31.938  28.937  1.00  0.00    -0.252 OA
BRANCH   9  11
ATOM     11  C   UNL A   1      45.120  33.202  28.070  1.00  0.00     0.134 C 
ATOM     12  C   UNL A   1      46.354  34.657  31.338  1.00  0.00     0.147 C 
ATOM     13  N   UNL A   1      46.006  33.913  30.136  1.00  0.00    -0.339 N 
ATOM     14  C   UNL A   1      46.686  32.748  29.827  1.00  0.00     0.223 C 
ATOM     15  C   UNL A   1      45.237  34.459  28.991  1.00  0.00     0.060 C 
ATOM     16  O   UNL A   1      47.448  32.136  30.556  1.00  0.00    -0.275 OA
ATOM     17  C   UNL A   1      46.411  32.413  28.392  1.00  0.00     0.118 C 
ATOM     18  C   UNL A   1      43.952  35.124  29.501  1.00  0.00     0.051 C 
ATOM     19  C   UNL A   1      46.118  35.533  28.242  1.00  0.00     0.051 C 
ATOM     20  C   UNL A   1      43.303  36.144  28.586  1.00  0.00     0.120 C 
ATOM     21  C   UNL A   1      45.330  36.434  27.272  1.00  0.00     0.120 C 
ATOM     22  N   UNL A   1      44.281  37.079  28.045  1.00  0.00    -0.356 N 
BRANCH  22  23
ATOM     23  C   UNL A   1      43.648  38.205  27.503  1.00  0.00     0.128 A 
ATOM     24  C   UNL A   1      42.266  38.136  27.283  1.00  0.00     0.048 A 
ATOM     25  N   UNL A   1      44.372  39.259  27.070  1.00  0.00    -0.238 NA
ATOM     26  C   UNL A   1      41.614  39.133  26.559  1.00  0.00     0.026 A 
ATOM     27  C   UNL A   1      43.714  40.225  26.370  1.00  0.00     0.134 A 
ATOM     28  C   UNL A   1      42.359  40.194  26.075  1.00  0.00     0.059 A 
ATOM     29  Cl  UNL A   1      41.620  41.409  25.117  1.00  0.00    -0.083 Cl
ENDBRANCH  22  23
ENDBRANCH   9  11
ENDBRANCH   8   9
ENDBRANCH   7   8
ENDBRANCH   6   7
ENDBRANCH   5   6
ENDBRANCH   4   5
ENDBRANCH   3   4
ENDBRANCH   2   3
ENDBRANCH   1   2
BRANCH   1  30
ATOM     30  C   UNL A   1      48.216  24.796  27.840  1.00  0.00     0.188 C 
BRANCH  30  31
ATOM     31  O   UNL A   1      49.590  24.421  27.971  1.00  0.00    -0.376 OA
BRANCH  31  32
ATOM     32  C   UNL A   1      50.473  25.275  28.689  1.00  0.00     0.202 C 
BRANCH  32  33
ATOM     33  C   UNL A   1      50.379  25.189  30.211  1.00  0.00     0.261 C 
BRANCH  33  34
ATOM     34  O   UNL A   1      49.763  26.363  30.762  1.00  0.00    -0.460 OA
BRANCH  34  35
ATOM     35  C   UNL A   1      48.932  26.124  31.802  1.00  0.00     0.338 C 
ATOM     36  O   UNL A   1      49.076  25.313  32.697  1.00  0.00    -0.246 OA
BRANCH  35  37
ATOM     37  C   UNL A   1      47.850  27.123  31.800  1.00  0.00     0.060 A 
ATOM     38  C   UNL A   1      46.812  26.946  32.722  1.00  0.00     0.016 A 
ATOM     39  C   UNL A   1      47.808  28.158  30.862  1.00  0.00     0.016 A 
ATOM     40  C   UNL A   1      45.693  27.767  32.670  1.00  0.00     0.010 A 
ATOM     41  C   UNL A   1      46.678  28.975  30.802  1.00  0.00     0.010 A 
ATOM     42  C   UNL A   1      45.599  28.746  31.674  1.00  0.00    -0.014 A 
BRANCH  42  43
ATOM     43  C   UNL A   1      44.288  29.374  31.417  1.00  0.00     0.031 A 
ATOM     44  C   UNL A   1      43.300  28.632  30.560  1.00  0.00     0.074 A 
ATOM     45  C   UNL A   1      43.968  30.550  31.981  1.00  0.00     0.049 A 
ATOM     46  N   UNL A   1      42.099  28.983  30.184  1.00  0.00    -0.248 NA
ATOM     47  C   UNL A   1      43.727  27.313  30.060  1.00  0.00     0.031 C 
ATOM     48  C   UNL A   1      44.829  31.318  32.880  1.00  0.00     0.029 A 
ATOM     49  N   UNL A   1      42.827  31.300  31.880  1.00  0.00    -0.354 N 
ATOM     50  C   UNL A   1      41.631  27.936  29.399  1.00  0.00     0.074 A 
ATOM     51  C   UNL A   1      42.686  26.951  29.327  1.00  0.00     0.031 C 
ATOM     52  C   UNL A   1      44.184  32.440  33.243  1.00  0.00     0.029 A 
ATOM     53  C   UNL A   1      42.885  32.481  32.574  1.00  0.00     0.049 A 
ATOM     54  H   UNL A   1      42.040  31.017  31.359  1.00  0.00     0.167 HD
ATOM     55  C   UNL A   1      40.427  27.808  28.796  1.00  0.00     0.031 A 
ATOM     56  C   UNL A   1      41.995  33.489  32.639  1.00  0.00     0.031 A 
ATOM     57  C   UNL A   1      39.393  28.806  28.860  1.00  0.00     0.049 A 
ATOM     58  C   UNL A   1      40.699  33.364  31.883  1.00  0.00     0.074 A 
ATOM     59  C   UNL A   1      38.133  28.781  28.290  1.00  0.00     0.029 A 
ATOM     60  N   UNL A   1      39.509  30.014  29.531  1.00  0.00    -0.354 N 
ATOM     61  N   UNL A   1      40.258  32.364  31.156  1.00  0.00    -0.248 NA
ATOM     62  C   UNL A   1      39.776  34.503  31.964  1.00  0.00     0.031 C 
ATOM     63  C   UNL A   1      37.511  30.003  28.563  1.00  0.00     0.029 A 
ATOM     64  C   UNL A   1      38.355  30.759  29.363  1.00  0.00     0.049 A 
ATOM     65  H   UNL A   1      40.296  30.299  30.051  1.00  0.00     0.167 HD
ATOM     66  C   UNL A   1      38.995  32.741  30.717  1.00  0.00     0.074 A 
ATOM     67  C   UNL A   1      38.735  34.053  31.274  1.00  0.00     0.031 C 
ATOM     68  C   UNL A   1      38.125  32.065  29.926  1.00  0.00     0.031 A 
BRANCH  55  69
ATOM     69  C   UNL A   1      40.190  26.569  27.978  1.00  0.00    -0.014 A 
ATOM     70  C   UNL A   1      40.746  26.416  26.698  1.00  0.00     0.009 A 
ATOM     71  C   UNL A   1      39.410  25.528  28.506  1.00  0.00     0.009 A 
ATOM     72  C   UNL A   1      40.495  25.263  25.949  1.00  0.00     0.001 A 
ATOM     73  C   UNL A   1      39.186  24.363  27.768  1.00  0.00     0.001 A 
ATOM     74  C   UNL A   1      39.720  24.236  26.487  1.00  0.00     0.000 A 
ENDBRANCH  55  69
BRANCH  56  75
ATOM     75  C   UNL A   1      42.309  34.713  33.423  1.00  0.00    -0.014 A 
ATOM     76  C   UNL A   1      43.083  35.743  32.869  1.00  0.00     0.009 A 
ATOM     77  C   UNL A   1      41.841  34.851  34.740  1.00  0.00     0.009 A 
ATOM     78  C   UNL A   1      43.403  36.874  33.626  1.00  0.00     0.001 A 
ATOM     79  C   UNL A   1      42.135  35.996  35.483  1.00  0.00     0.001 A 
ATOM     80  C   UNL A   1      42.926  37.001  34.929  1.00  0.00     0.000 A 
ENDBRANCH  56  75
BRANCH  68  81
ATOM     81  C   UNL A   1      36.801  32.719  29.648  1.00  0.00    -0.014 A 
ATOM     82  C   UNL A   1      36.558  33.397  28.444  1.00  0.00     0.009 A 
ATOM     83  C   UNL A   1      35.766  32.616  30.591  1.00  0.00     0.009 A 
ATOM     84  C   UNL A   1      35.317  33.990  28.206  1.00  0.00     0.001 A 
ATOM     85  C   UNL A   1      34.517  33.181  30.338  1.00  0.00     0.001 A 
ATOM     86  C   UNL A   1      34.296  33.877  29.151  1.00  0.00     0.000 A 
ENDBRANCH  68  81
ENDBRANCH  42  43
ENDBRANCH  35  37
ENDBRANCH  34  35
ENDBRANCH  33  34
ENDBRANCH  32  33
ENDBRANCH  31  32
ENDBRANCH  30  31
ENDBRANCH   1  30
TORSDOF 21
ENDMDL
