MODEL 1
REMARK VINA RESULT:     -10.3      0.000      0.000
REMARK SMILES O=C(OCCOCCOCCOCCOC(=O)c1ccc(-c2c3nc(c(-c4ccccc4)c4ccc([nH]4)c(-c4ccccc4)c4nc(c(-c5ccccc5)c5ccc2[nH]5)C=C4)C=C3)cc1)C1=Cc2ccc(Cl)c(Cl)c2O[C@@H]1C(F)(F)F
REMARK SMILES IDX 10 1 9 2 8 3 7 4 6 5 5 6 4 7 3 8 2 9 1 10 66 11 67 12 77 13
REMARK SMILES IDX 68 14 76 15 69 16 75 17 70 18 73 19 71 20 74 21 72 22 78 23
REMARK SMILES IDX 79 24 80 25 81 26 11 27 12 28 13 29 14 30 15 31 16 32 17 33
REMARK SMILES IDX 18 34 19 35 65 36 20 37 64 38 21 39 22 40 23 41 58 42 24 43
REMARK SMILES IDX 63 44 57 45 59 46 25 47 62 48 56 49 55 50 26 52 48 53 33 54
REMARK SMILES IDX 47 55 34 56 37 57 46 58 60 59 35 60 36 61 45 63 61 64 38 65
REMARK SMILES IDX 27 66 28 67 32 68 29 69 31 70 30 71 49 72 50 73 54 74 51 75
REMARK SMILES IDX 53 76 52 77 39 78 40 79 44 80 41 81 43 82 42 83
REMARK H PARENT 59 51 37 62
REMARK Flexibility Score: inf
ROOT
ATOM      1  C   UNL A   1      39.691  20.288  25.855  1.00  0.00     0.188 C 
ENDROOT
BRANCH   1   2
ATOM      2  O   UNL A   1      38.610  21.155  25.594  1.00  0.00    -0.377 OA
BRANCH   2   3
ATOM      3  C   UNL A   1      38.856  22.475  26.027  1.00  0.00     0.188 C 
BRANCH   3   4
ATOM      4  C   UNL A   1      37.675  23.440  25.876  1.00  0.00     0.188 C 
BRANCH   4   5
ATOM      5  O   UNL A   1      36.290  23.031  26.039  1.00  0.00    -0.376 OA
BRANCH   5   6
ATOM      6  C   UNL A   1      35.556  21.670  26.494  1.00  0.00     0.202 C 
BRANCH   6   7
ATOM      7  C   UNL A   1      33.433  21.220  26.687  1.00  0.00     0.261 C 
BRANCH   7   8
ATOM      8  O   UNL A   1      32.285  21.892  25.899  1.00  0.00    -0.460 OA
BRANCH   8   9
ATOM      9  C   UNL A   1      32.358  23.228  25.894  1.00  0.00     0.338 C 
ATOM     10  O   UNL A   1      32.429  24.011  26.804  1.00  0.00    -0.246 OA
BRANCH   9  11
ATOM     11  C   UNL A   1      31.984  23.375  24.510  1.00  0.00     0.087 C 
ATOM     12  C   UNL A   1      30.650  24.022  24.389  1.00  0.00     0.027 C 
ATOM     13  C   UNL A   1      33.652  24.153  23.908  1.00  0.00     0.316 C 
ATOM     14  C   UNL A   1      30.412  25.721  23.803  1.00  0.00     0.019 A 
ATOM     15  O   UNL A   1      33.417  26.000  23.372  1.00  0.00    -0.474 OA
ATOM     16  C   UNL A   1      29.153  26.257  23.790  1.00  0.00     0.013 A 
ATOM     17  C   UNL A   1      31.749  26.747  23.386  1.00  0.00     0.148 A 
ATOM     18  C   UNL A   1      29.084  27.611  23.409  1.00  0.00     0.023 A 
ATOM     19  C   UNL A   1      31.586  28.077  23.073  1.00  0.00     0.102 A 
ATOM     20  C   UNL A   1      30.220  28.470  23.072  1.00  0.00     0.063 A 
ATOM     21  Cl  UNL A   1      32.874  29.159  22.792  1.00  0.00    -0.079 Cl
ATOM     22  Cl  UNL A   1      29.773  30.101  22.640  1.00  0.00    -0.083 Cl
BRANCH  13  23
ATOM     23  C   UNL A   1      34.237  22.893  23.098  1.00  0.00     0.430 C 
ATOM     24  F   UNL A   1      34.039  21.680  23.643  1.00  0.00    -0.167 F 
ATOM     25  F   UNL A   1      33.562  22.848  21.908  1.00  0.00    -0.167 F 
ATOM     26  F   UNL A   1      35.538  23.001  22.744  1.00  0.00    -0.167 F 
ENDBRANCH  13  23
ENDBRANCH   9  11
ENDBRANCH   8   9
ENDBRANCH   7   8
ENDBRANCH   6   7
ENDBRANCH   5   6
ENDBRANCH   4   5
ENDBRANCH   3   4
ENDBRANCH   2   3
ENDBRANCH   1   2
BRANCH   1  27
ATOM     27  C   UNL A   1      40.665  20.754  26.939  1.00  0.00     0.188 C 
BRANCH  27  28
ATOM     28  O   UNL A   1      41.957  20.189  27.083  1.00  0.00    -0.376 OA
BRANCH  28  29
ATOM     29  C   UNL A   1      42.854  20.110  25.984  1.00  0.00     0.202 C 
BRANCH  29  30
ATOM     30  C   UNL A   1      43.663  21.339  25.537  1.00  0.00     0.261 C 
BRANCH  30  31
ATOM     31  O   UNL A   1      42.928  22.569  25.491  1.00  0.00    -0.460 OA
BRANCH  31  32
ATOM     32  C   UNL A   1      43.668  23.690  25.359  1.00  0.00     0.338 C 
ATOM     33  O   UNL A   1      44.263  24.072  24.365  1.00  0.00    -0.246 OA
BRANCH  32  34
ATOM     34  C   UNL A   1      43.525  24.522  26.573  1.00  0.00     0.060 A 
ATOM     35  C   UNL A   1      42.564  24.147  27.526  1.00  0.00     0.016 A 
ATOM     36  C   UNL A   1      44.293  25.671  26.757  1.00  0.00     0.016 A 
ATOM     37  C   UNL A   1      42.339  24.939  28.650  1.00  0.00     0.010 A 
ATOM     38  C   UNL A   1      44.039  26.488  27.857  1.00  0.00     0.010 A 
ATOM     39  C   UNL A   1      43.030  26.146  28.780  1.00  0.00    -0.014 A 
BRANCH  39  40
ATOM     40  C   UNL A   1      42.520  27.195  29.689  1.00  0.00     0.031 A 
ATOM     41  C   UNL A   1      43.210  27.353  31.014  1.00  0.00     0.074 A 
ATOM     42  C   UNL A   1      41.455  27.949  29.379  1.00  0.00     0.049 A 
ATOM     43  N   UNL A   1      42.860  28.058  32.057  1.00  0.00    -0.248 NA
ATOM     44  C   UNL A   1      44.458  26.591  31.188  1.00  0.00     0.031 C 
ATOM     45  C   UNL A   1      40.745  27.930  28.104  1.00  0.00     0.029 A 
ATOM     46  N   UNL A   1      40.767  28.856  30.144  1.00  0.00    -0.354 N 
ATOM     47  C   UNL A   1      43.825  27.798  33.021  1.00  0.00     0.074 A 
ATOM     48  C   UNL A   1      44.763  26.859  32.447  1.00  0.00     0.031 C 
ATOM     49  C   UNL A   1      39.691  28.759  28.187  1.00  0.00     0.029 A 
ATOM     50  C   UNL A   1      39.631  29.325  29.536  1.00  0.00     0.049 A 
ATOM     51  H   UNL A   1      41.060  29.143  31.039  1.00  0.00     0.167 HD
ATOM     52  C   UNL A   1      43.914  28.286  34.280  1.00  0.00     0.031 A 
ATOM     53  C   UNL A   1      38.632  30.082  30.030  1.00  0.00     0.031 A 
ATOM     54  C   UNL A   1      42.958  29.193  34.853  1.00  0.00     0.049 A 
ATOM     55  C   UNL A   1      38.701  30.555  31.459  1.00  0.00     0.074 A 
ATOM     56  C   UNL A   1      42.959  29.767  36.111  1.00  0.00     0.029 A 
ATOM     57  N   UNL A   1      41.815  29.641  34.205  1.00  0.00    -0.354 N 
ATOM     58  N   UNL A   1      39.624  30.324  32.364  1.00  0.00    -0.248 NA
ATOM     59  C   UNL A   1      37.594  31.397  31.934  1.00  0.00     0.031 C 
ATOM     60  C   UNL A   1      41.779  30.504  36.250  1.00  0.00     0.029 A 
ATOM     61  C   UNL A   1      41.085  30.457  35.050  1.00  0.00     0.049 A 
ATOM     62  H   UNL A   1      41.563  29.412  33.282  1.00  0.00     0.167 HD
ATOM     63  C   UNL A   1      39.227  31.018  33.500  1.00  0.00     0.074 A 
ATOM     64  C   UNL A   1      37.981  31.680  33.172  1.00  0.00     0.031 C 
ATOM     65  C   UNL A   1      39.846  31.109  34.705  1.00  0.00     0.031 A 
BRANCH  52  66
ATOM     66  C   UNL A   1      45.046  27.778  35.132  1.00  0.00    -0.014 A 
ATOM     67  C   UNL A   1      46.294  28.421  35.167  1.00  0.00     0.009 A 
ATOM     68  C   UNL A   1      44.864  26.615  35.897  1.00  0.00     0.009 A 
ATOM     69  C   UNL A   1      47.351  27.878  35.901  1.00  0.00     0.001 A 
ATOM     70  C   UNL A   1      45.910  26.095  36.660  1.00  0.00     0.001 A 
ATOM     71  C   UNL A   1      47.157  26.716  36.648  1.00  0.00     0.000 A 
ENDBRANCH  52  66
BRANCH  53  72
ATOM     72  C   UNL A   1      37.466  30.404  29.168  1.00  0.00    -0.014 A 
ATOM     73  C   UNL A   1      36.553  29.409  28.792  1.00  0.00     0.009 A 
ATOM     74  C   UNL A   1      37.241  31.726  28.745  1.00  0.00     0.009 A 
ATOM     75  C   UNL A   1      35.445  29.727  28.002  1.00  0.00     0.001 A 
ATOM     76  C   UNL A   1      36.117  32.045  27.981  1.00  0.00     0.001 A 
ATOM     77  C   UNL A   1      35.222  31.046  27.606  1.00  0.00     0.000 A 
ENDBRANCH  53  72
BRANCH  65  78
ATOM     78  C   UNL A   1      39.222  31.997  35.747  1.00  0.00    -0.014 A 
ATOM     79  C   UNL A   1      39.450  33.380  35.772  1.00  0.00     0.009 A 
ATOM     80  C   UNL A   1      38.321  31.441  36.671  1.00  0.00     0.009 A 
ATOM     81  C   UNL A   1      38.806  34.185  36.715  1.00  0.00     0.001 A 
ATOM     82  C   UNL A   1      37.654  32.251  37.591  1.00  0.00     0.001 A 
ATOM     83  C   UNL A   1      37.903  33.621  37.617  1.00  0.00     0.000 A 
ENDBRANCH  65  78
ENDBRANCH  39  40
ENDBRANCH  32  34
ENDBRANCH  31  32
ENDBRANCH  30  31
ENDBRANCH  29  30
ENDBRANCH  28  29
ENDBRANCH  27  28
ENDBRANCH   1  27
TORSDOF 21
ENDMDL
MODEL 2
REMARK VINA RESULT:     -10.3      1.083      5.865
REMARK SMILES O=C(OCCOCCOCCOCCOC(=O)c1ccc(-c2c3nc(c(-c4ccccc4)c4ccc([nH]4)c(-c4ccccc4)c4nc(c(-c5ccccc5)c5ccc2[nH]5)C=C4)C=C3)cc1)C1=Cc2ccc(Cl)c(Cl)c2O[C@@H]1C(F)(F)F
REMARK SMILES IDX 10 1 9 2 8 3 7 4 6 5 5 6 4 7 3 8 2 9 1 10 66 11 67 12 77 13
REMARK SMILES IDX 68 14 76 15 69 16 75 17 70 18 73 19 71 20 74 21 72 22 78 23
REMARK SMILES IDX 79 24 80 25 81 26 11 27 12 28 13 29 14 30 15 31 16 32 17 33
REMARK SMILES IDX 18 34 19 35 65 36 20 37 64 38 21 39 22 40 23 41 58 42 24 43
REMARK SMILES IDX 63 44 57 45 59 46 25 47 62 48 56 49 55 50 26 52 48 53 33 54
REMARK SMILES IDX 47 55 34 56 37 57 46 58 60 59 35 60 36 61 45 63 61 64 38 65
REMARK SMILES IDX 27 66 28 67 32 68 29 69 31 70 30 71 49 72 50 73 54 74 51 75
REMARK SMILES IDX 53 76 52 77 39 78 40 79 44 80 41 81 43 82 42 83
REMARK H PARENT 59 51 37 62
REMARK Flexibility Score: inf
ROOT
ATOM      1  C   UNL A   1      40.060  21.077  26.145  1.00  0.00     0.188 C 
ENDROOT
BRANCH   1   2
ATOM      2  O   UNL A   1      38.809  21.709  25.996  1.00  0.00    -0.377 OA
BRANCH   2   3
ATOM      3  C   UNL A   1      38.815  23.041  26.462  1.00  0.00     0.188 C 
BRANCH   3   4
ATOM      4  C   UNL A   1      37.563  23.856  26.116  1.00  0.00     0.188 C 
BRANCH   4   5
ATOM      5  O   UNL A   1      36.266  23.251  25.864  1.00  0.00    -0.376 OA
BRANCH   5   6
ATOM      6  C   UNL A   1      35.541  21.889  26.328  1.00  0.00     0.202 C 
BRANCH   6   7
ATOM      7  C   UNL A   1      33.433  21.477  26.693  1.00  0.00     0.261 C 
BRANCH   7   8
ATOM      8  O   UNL A   1      32.238  22.269  26.115  1.00  0.00    -0.460 OA
BRANCH   8   9
ATOM      9  C   UNL A   1      32.517  23.559  25.893  1.00  0.00     0.338 C 
ATOM     10  O   UNL A   1      32.825  24.436  26.655  1.00  0.00    -0.246 OA
BRANCH   9  11
ATOM     11  C   UNL A   1      31.995  23.576  24.549  1.00  0.00     0.087 C 
ATOM     12  C   UNL A   1      30.626  24.159  24.521  1.00  0.00     0.027 C 
ATOM     13  C   UNL A   1      33.553  24.366  23.713  1.00  0.00     0.316 C 
ATOM     14  C   UNL A   1      30.249  25.792  23.832  1.00  0.00     0.019 A 
ATOM     15  O   UNL A   1      33.176  26.151  23.062  1.00  0.00    -0.474 OA
ATOM     16  C   UNL A   1      28.971  26.276  23.913  1.00  0.00     0.013 A 
ATOM     17  C   UNL A   1      31.485  26.832  23.196  1.00  0.00     0.148 A 
ATOM     18  C   UNL A   1      28.798  27.590  23.436  1.00  0.00     0.023 A 
ATOM     19  C   UNL A   1      31.227  28.124  22.799  1.00  0.00     0.102 A 
ATOM     20  C   UNL A   1      29.852  28.462  22.913  1.00  0.00     0.063 A 
ATOM     21  Cl  UNL A   1      32.427  29.228  22.298  1.00  0.00    -0.079 Cl
ATOM     22  Cl  UNL A   1      29.286  30.033  22.406  1.00  0.00    -0.083 Cl
BRANCH  13  23
ATOM     23  C   UNL A   1      34.109  23.067  22.946  1.00  0.00     0.430 C 
ATOM     24  F   UNL A   1      33.706  21.871  23.411  1.00  0.00    -0.167 F 
ATOM     25  F   UNL A   1      33.612  23.123  21.673  1.00  0.00    -0.167 F 
ATOM     26  F   UNL A   1      35.452  23.036  22.783  1.00  0.00    -0.167 F 
ENDBRANCH  13  23
ENDBRANCH   9  11
ENDBRANCH   8   9
ENDBRANCH   7   8
ENDBRANCH   6   7
ENDBRANCH   5   6
ENDBRANCH   4   5
ENDBRANCH   3   4
ENDBRANCH   2   3
ENDBRANCH   1   2
BRANCH   1  27
ATOM     27  C   UNL A   1      40.935  21.604  27.285  1.00  0.00     0.188 C 
BRANCH  27  28
ATOM     28  O   UNL A   1      42.343  21.440  27.289  1.00  0.00    -0.376 OA
BRANCH  28  29
ATOM     29  C   UNL A   1      43.095  21.491  26.085  1.00  0.00     0.202 C 
BRANCH  29  30
ATOM     30  C   UNL A   1      43.856  22.765  25.685  1.00  0.00     0.261 C 
BRANCH  30  31
ATOM     31  O   UNL A   1      43.037  23.920  25.461  1.00  0.00    -0.460 OA
BRANCH  31  32
ATOM     32  C   UNL A   1      43.661  25.112  25.574  1.00  0.00     0.338 C 
ATOM     33  O   UNL A   1      44.614  25.515  24.928  1.00  0.00    -0.246 OA
BRANCH  32  34
ATOM     34  C   UNL A   1      42.906  25.977  26.506  1.00  0.00     0.060 A 
ATOM     35  C   UNL A   1      43.374  27.282  26.731  1.00  0.00     0.016 A 
ATOM     36  C   UNL A   1      41.779  25.504  27.178  1.00  0.00     0.016 A 
ATOM     37  C   UNL A   1      42.741  28.108  27.657  1.00  0.00     0.010 A 
ATOM     38  C   UNL A   1      41.171  26.313  28.136  1.00  0.00     0.010 A 
ATOM     39  C   UNL A   1      41.679  27.598  28.409  1.00  0.00    -0.014 A 
BRANCH  39  40
ATOM     40  C   UNL A   1      41.281  28.263  29.668  1.00  0.00     0.031 A 
ATOM     41  C   UNL A   1      40.090  29.177  29.618  1.00  0.00     0.074 A 
ATOM     42  C   UNL A   1      41.974  28.106  30.806  1.00  0.00     0.049 A 
ATOM     43  N   UNL A   1      39.642  30.013  30.518  1.00  0.00    -0.248 NA
ATOM     44  C   UNL A   1      39.311  29.156  28.369  1.00  0.00     0.031 C 
ATOM     45  C   UNL A   1      43.104  27.201  30.992  1.00  0.00     0.029 A 
ATOM     46  N   UNL A   1      41.838  28.741  32.014  1.00  0.00    -0.354 N 
ATOM     47  C   UNL A   1      38.551  30.640  29.930  1.00  0.00     0.074 A 
ATOM     48  C   UNL A   1      38.416  30.103  28.595  1.00  0.00     0.031 C 
ATOM     49  C   UNL A   1      43.589  27.369  32.234  1.00  0.00     0.029 A 
ATOM     50  C   UNL A   1      42.831  28.426  32.906  1.00  0.00     0.049 A 
ATOM     51  H   UNL A   1      41.102  29.361  32.220  1.00  0.00     0.167 HD
ATOM     52  C   UNL A   1      37.743  31.592  30.451  1.00  0.00     0.031 A 
ATOM     53  C   UNL A   1      43.124  28.966  34.105  1.00  0.00     0.031 A 
ATOM     54  C   UNL A   1      37.907  32.143  31.768  1.00  0.00     0.049 A 
ATOM     55  C   UNL A   1      42.264  30.081  34.642  1.00  0.00     0.074 A 
ATOM     56  C   UNL A   1      37.135  33.096  32.407  1.00  0.00     0.029 A 
ATOM     57  N   UNL A   1      38.930  31.801  32.641  1.00  0.00    -0.354 N 
ATOM     58  N   UNL A   1      41.221  30.660  34.094  1.00  0.00    -0.248 NA
ATOM     59  C   UNL A   1      42.618  30.614  35.965  1.00  0.00     0.031 C 
ATOM     60  C   UNL A   1      37.734  33.384  33.637  1.00  0.00     0.029 A 
ATOM     61  C   UNL A   1      38.831  32.550  33.800  1.00  0.00     0.049 A 
ATOM     62  H   UNL A   1      39.623  31.125  32.462  1.00  0.00     0.167 HD
ATOM     63  C   UNL A   1      40.775  31.598  35.017  1.00  0.00     0.074 A 
ATOM     64  C   UNL A   1      41.659  31.511  36.161  1.00  0.00     0.031 C 
ATOM     65  C   UNL A   1      39.720  32.448  34.930  1.00  0.00     0.031 A 
BRANCH  52  66
ATOM     66  C   UNL A   1      36.664  32.139  29.556  1.00  0.00    -0.014 A 
ATOM     67  C   UNL A   1      36.893  33.229  28.700  1.00  0.00     0.009 A 
ATOM     68  C   UNL A   1      35.384  31.564  29.590  1.00  0.00     0.009 A 
ATOM     69  C   UNL A   1      35.848  33.768  27.945  1.00  0.00     0.001 A 
ATOM     70  C   UNL A   1      34.351  32.080  28.806  1.00  0.00     0.001 A 
ATOM     71  C   UNL A   1      34.579  33.191  27.997  1.00  0.00     0.000 A 
ENDBRANCH  52  66
BRANCH  53  72
ATOM     72  C   UNL A   1      44.309  28.477  34.856  1.00  0.00    -0.014 A 
ATOM     73  C   UNL A   1      45.575  29.040  34.645  1.00  0.00     0.009 A 
ATOM     74  C   UNL A   1      44.168  27.463  35.818  1.00  0.00     0.009 A 
ATOM     75  C   UNL A   1      46.679  28.591  35.375  1.00  0.00     0.001 A 
ATOM     76  C   UNL A   1      45.267  27.038  36.567  1.00  0.00     0.001 A 
ATOM     77  C   UNL A   1      46.522  27.599  36.342  1.00  0.00     0.000 A 
ENDBRANCH  53  72
BRANCH  65  78
ATOM     78  C   UNL A   1      39.421  33.318  36.121  1.00  0.00    -0.014 A 
ATOM     79  C   UNL A   1      38.478  32.945  37.088  1.00  0.00     0.009 A 
ATOM     80  C   UNL A   1      40.166  34.494  36.315  1.00  0.00     0.009 A 
ATOM     81  C   UNL A   1      38.269  33.745  38.216  1.00  0.00     0.001 A 
ATOM     82  C   UNL A   1      39.978  35.274  37.457  1.00  0.00     0.001 A 
ATOM     83  C   UNL A   1      39.025  34.903  38.402  1.00  0.00     0.000 A 
ENDBRANCH  65  78
ENDBRANCH  39  40
ENDBRANCH  32  34
ENDBRANCH  31  32
ENDBRANCH  30  31
ENDBRANCH  29  30
ENDBRANCH  28  29
ENDBRANCH  27  28
ENDBRANCH   1  27
TORSDOF 21
ENDMDL
MODEL 3
REMARK VINA RESULT:      -9.8      1.745      6.390
REMARK SMILES O=C(OCCOCCOCCOCCOC(=O)c1ccc(-c2c3nc(c(-c4ccccc4)c4ccc([nH]4)c(-c4ccccc4)c4nc(c(-c5ccccc5)c5ccc2[nH]5)C=C4)C=C3)cc1)C1=Cc2ccc(Cl)c(Cl)c2O[C@@H]1C(F)(F)F
REMARK SMILES IDX 10 1 9 2 8 3 7 4 6 5 5 6 4 7 3 8 2 9 1 10 66 11 67 12 77 13
REMARK SMILES IDX 68 14 76 15 69 16 75 17 70 18 73 19 71 20 74 21 72 22 78 23
REMARK SMILES IDX 79 24 80 25 81 26 11 27 12 28 13 29 14 30 15 31 16 32 17 33
REMARK SMILES IDX 18 34 19 35 65 36 20 37 64 38 21 39 22 40 23 41 58 42 24 43
REMARK SMILES IDX 63 44 57 45 59 46 25 47 62 48 56 49 55 50 26 52 48 53 33 54
REMARK SMILES IDX 47 55 34 56 37 57 46 58 60 59 35 60 36 61 45 63 61 64 38 65
REMARK SMILES IDX 27 66 28 67 32 68 29 69 31 70 30 71 49 72 50 73 54 74 51 75
REMARK SMILES IDX 53 76 52 77 39 78 40 79 44 80 41 81 43 82 42 83
REMARK H PARENT 59 51 37 62
REMARK Flexibility Score: inf
ROOT
ATOM      1  C   UNL A   1      43.686  22.558  24.886  1.00  0.00     0.188 C 
ENDROOT
BRANCH   1   2
ATOM      2  O   UNL A   1      43.308  21.201  24.951  1.00  0.00    -0.377 OA
BRANCH   2   3
ATOM      3  C   UNL A   1      43.098  20.759  26.274  1.00  0.00     0.188 C 
BRANCH   3   4
ATOM      4  C   UNL A   1      41.802  21.251  26.927  1.00  0.00     0.188 C 
BRANCH   4   5
ATOM      5  O   UNL A   1      40.669  21.750  26.166  1.00  0.00    -0.376 OA
BRANCH   5   6
ATOM      6  C   UNL A   1      39.162  21.241  25.912  1.00  0.00     0.202 C 
BRANCH   6   7
ATOM      7  C   UNL A   1      37.365  22.371  25.419  1.00  0.00     0.261 C 
BRANCH   7   8
ATOM      8  O   UNL A   1      36.128  21.830  24.666  1.00  0.00    -0.460 OA
BRANCH   8   9
ATOM      9  C   UNL A   1      35.533  22.750  23.898  1.00  0.00     0.338 C 
ATOM     10  O   UNL A   1      35.960  23.395  22.977  1.00  0.00    -0.246 OA
BRANCH   9  11
ATOM     11  C   UNL A   1      34.389  22.918  24.757  1.00  0.00     0.087 C 
ATOM     12  C   UNL A   1      34.510  24.165  25.560  1.00  0.00     0.027 C 
ATOM     13  C   UNL A   1      33.041  22.599  23.404  1.00  0.00     0.316 C 
ATOM     14  C   UNL A   1      33.504  25.645  25.269  1.00  0.00     0.019 A 
ATOM     15  O   UNL A   1      32.029  24.206  23.022  1.00  0.00    -0.474 OA
ATOM     16  C   UNL A   1      33.734  26.770  26.012  1.00  0.00     0.013 A 
ATOM     17  C   UNL A   1      32.347  25.732  23.977  1.00  0.00     0.148 A 
ATOM     18  C   UNL A   1      32.967  27.894  25.647  1.00  0.00     0.023 A 
ATOM     19  C   UNL A   1      31.681  26.894  23.664  1.00  0.00     0.102 A 
ATOM     20  C   UNL A   1      32.004  27.959  24.548  1.00  0.00     0.063 A 
ATOM     21  Cl  UNL A   1      30.641  27.069  22.322  1.00  0.00    -0.079 Cl
ATOM     22  Cl  UNL A   1      31.226  29.512  24.376  1.00  0.00    -0.083 Cl
BRANCH  13  23
ATOM     23  C   UNL A   1      32.554  21.141  23.876  1.00  0.00     0.430 C 
ATOM     24  F   UNL A   1      31.751  21.092  24.954  1.00  0.00    -0.167 F 
ATOM     25  F   UNL A   1      31.792  20.636  22.859  1.00  0.00    -0.167 F 
ATOM     26  F   UNL A   1      33.547  20.236  24.037  1.00  0.00    -0.167 F 
ENDBRANCH  13  23
ENDBRANCH   9  11
ENDBRANCH   8   9
ENDBRANCH   7   8
ENDBRANCH   6   7
ENDBRANCH   5   6
ENDBRANCH   4   5
ENDBRANCH   3   4
ENDBRANCH   2   3
ENDBRANCH   1   2
BRANCH   1  27
ATOM     27  C   UNL A   1      44.713  22.906  23.807  1.00  0.00     0.188 C 
BRANCH  27  28
ATOM     28  O   UNL A   1      46.108  22.873  24.058  1.00  0.00    -0.376 OA
BRANCH  28  29
ATOM     29  C   UNL A   1      46.690  23.654  25.091  1.00  0.00     0.202 C 
BRANCH  29  30
ATOM     30  C   UNL A   1      46.592  25.188  25.069  1.00  0.00     0.261 C 
BRANCH  30  31
ATOM     31  O   UNL A   1      45.425  25.734  25.697  1.00  0.00    -0.460 OA
BRANCH  31  32
ATOM     32  C   UNL A   1      45.205  27.049  25.484  1.00  0.00     0.338 C 
ATOM     33  O   UNL A   1      45.623  27.731  24.563  1.00  0.00    -0.246 OA
BRANCH  32  34
ATOM     34  C   UNL A   1      44.210  27.546  26.457  1.00  0.00     0.060 A 
ATOM     35  C   UNL A   1      44.213  28.915  26.773  1.00  0.00     0.016 A 
ATOM     36  C   UNL A   1      43.312  26.679  27.080  1.00  0.00     0.016 A 
ATOM     37  C   UNL A   1      43.345  29.418  27.739  1.00  0.00     0.010 A 
ATOM     38  C   UNL A   1      42.474  27.173  28.078  1.00  0.00     0.010 A 
ATOM     39  C   UNL A   1      42.522  28.533  28.440  1.00  0.00    -0.014 A 
BRANCH  39  40
ATOM     40  C   UNL A   1      41.932  28.942  29.734  1.00  0.00     0.031 A 
ATOM     41  C   UNL A   1      40.606  29.646  29.694  1.00  0.00     0.074 A 
ATOM     42  C   UNL A   1      42.566  28.742  30.899  1.00  0.00     0.049 A 
ATOM     43  N   UNL A   1      39.962  30.263  30.649  1.00  0.00    -0.248 NA
ATOM     44  C   UNL A   1      39.927  29.673  28.388  1.00  0.00     0.031 C 
ATOM     45  C   UNL A   1      43.821  28.017  31.069  1.00  0.00     0.029 A 
ATOM     46  N   UNL A   1      42.241  29.172  32.161  1.00  0.00    -0.354 N 
ATOM     47  C   UNL A   1      38.819  30.780  30.051  1.00  0.00     0.074 A 
ATOM     48  C   UNL A   1      38.868  30.420  28.652  1.00  0.00     0.031 C 
ATOM     49  C   UNL A   1      44.186  28.087  32.360  1.00  0.00     0.029 A 
ATOM     50  C   UNL A   1      43.213  28.901  33.091  1.00  0.00     0.049 A 
ATOM     51  H   UNL A   1      41.397  29.628  32.378  1.00  0.00     0.167 HD
ATOM     52  C   UNL A   1      37.825  31.504  30.614  1.00  0.00     0.031 A 
ATOM     53  C   UNL A   1      43.328  29.309  34.369  1.00  0.00     0.031 A 
ATOM     54  C   UNL A   1      37.804  31.886  32.000  1.00  0.00     0.049 A 
ATOM     55  C   UNL A   1      42.254  30.183  34.965  1.00  0.00     0.074 A 
ATOM     56  C   UNL A   1      36.837  32.601  32.683  1.00  0.00     0.029 A 
ATOM     57  N   UNL A   1      38.811  31.597  32.909  1.00  0.00    -0.354 N 
ATOM     58  N   UNL A   1      41.165  30.654  34.404  1.00  0.00    -0.248 NA
ATOM     59  C   UNL A   1      42.421  30.576  36.371  1.00  0.00     0.031 C 
ATOM     60  C   UNL A   1      37.295  32.808  33.988  1.00  0.00     0.029 A 
ATOM     61  C   UNL A   1      38.507  32.150  34.140  1.00  0.00     0.049 A 
ATOM     62  H   UNL A   1      39.621  31.075  32.708  1.00  0.00     0.167 HD
ATOM     63  C   UNL A   1      40.502  31.369  35.395  1.00  0.00     0.074 A 
ATOM     64  C   UNL A   1      41.311  31.268  36.593  1.00  0.00     0.031 C 
ATOM     65  C   UNL A   1      39.324  32.039  35.323  1.00  0.00     0.031 A 
BRANCH  52  66
ATOM     66  C   UNL A   1      36.729  31.987  29.703  1.00  0.00    -0.014 A 
ATOM     67  C   UNL A   1      36.756  33.266  29.124  1.00  0.00     0.009 A 
ATOM     68  C   UNL A   1      35.634  31.150  29.440  1.00  0.00     0.009 A 
ATOM     69  C   UNL A   1      35.683  33.718  28.353  1.00  0.00     0.001 A 
ATOM     70  C   UNL A   1      34.580  31.588  28.637  1.00  0.00     0.001 A 
ATOM     71  C   UNL A   1      34.597  32.877  28.108  1.00  0.00     0.000 A 
ENDBRANCH  52  66
BRANCH  53  72
ATOM     72  C   UNL A   1      44.528  28.921  35.154  1.00  0.00    -0.014 A 
ATOM     73  C   UNL A   1      45.785  29.466  34.862  1.00  0.00     0.009 A 
ATOM     74  C   UNL A   1      44.411  28.023  36.230  1.00  0.00     0.009 A 
ATOM     75  C   UNL A   1      46.903  29.114  35.623  1.00  0.00     0.001 A 
ATOM     76  C   UNL A   1      45.524  27.697  37.007  1.00  0.00     0.001 A 
ATOM     77  C   UNL A   1      46.770  28.239  36.700  1.00  0.00     0.000 A 
ENDBRANCH  53  72
BRANCH  65  78
ATOM     78  C   UNL A   1      38.800  32.672  36.583  1.00  0.00    -0.014 A 
ATOM     79  C   UNL A   1      37.976  31.971  37.475  1.00  0.00     0.009 A 
ATOM     80  C   UNL A   1      39.215  33.972  36.920  1.00  0.00     0.009 A 
ATOM     81  C   UNL A   1      37.558  32.568  38.668  1.00  0.00     0.001 A 
ATOM     82  C   UNL A   1      38.822  34.554  38.126  1.00  0.00     0.001 A 
ATOM     83  C   UNL A   1      37.989  33.854  38.995  1.00  0.00     0.000 A 
ENDBRANCH  65  78
ENDBRANCH  39  40
ENDBRANCH  32  34
ENDBRANCH  31  32
ENDBRANCH  30  31
ENDBRANCH  29  30
ENDBRANCH  28  29
ENDBRANCH  27  28
ENDBRANCH   1  27
TORSDOF 21
ENDMDL
