MODEL 1
REMARK VINA RESULT:      -8.5      0.000      0.000
REMARK SMILES CC(C)[N@@H+](C)Cc1cc2c(cc1Cl)C=C(C(=O)OCCOCCOCCOCCOC(=O)c1ccc(-c3c4nc(c(-c5ccccc5)c5ccc([nH]5)c(-c5ccccc5)c5nc(c(-c6ccccc6)c6ccc3[nH]6)C=C5)C=C4)cc1)[C@@H](C(F)(F)F)O2
REMARK SMILES IDX 23 1 22 2 21 3 20 4 19 5 18 6 16 7 17 8 15 9 7 10 8 11 12 12
REMARK SMILES IDX 9 13 11 14 13 15 10 16 86 17 14 18 81 19 6 20 4 21 5 22 2 24
REMARK SMILES IDX 1 25 3 26 82 27 83 28 84 29 85 30 24 31 25 32 26 33 27 34
REMARK SMILES IDX 28 35 29 36 30 37 31 38 32 39 33 40 34 41 80 42 35 43 79 44
REMARK SMILES IDX 36 45 37 46 38 47 73 48 39 49 78 50 72 51 74 52 40 53 77 54
REMARK SMILES IDX 71 55 70 56 41 58 63 59 48 60 62 61 49 62 52 63 61 64 75 65
REMARK SMILES IDX 50 66 51 67 60 69 76 70 53 71 42 72 43 73 47 74 44 75 46 76
REMARK SMILES IDX 45 77 64 78 65 79 69 80 66 81 68 82 67 83 54 84 55 85 59 86
REMARK SMILES IDX 56 87 58 88 57 89
REMARK H PARENT 4 23 74 57 52 68
REMARK Flexibility Score: inf
ROOT
ATOM      1  C   UNL A   1      32.540  36.262  30.327  1.00  0.00     0.188 C 
ENDROOT
BRANCH   1   2
ATOM      2  C   UNL A   1      33.139  35.100  29.513  1.00  0.00     0.188 C 
BRANCH   2   3
ATOM      3  O   UNL A   1      34.546  35.223  29.308  1.00  0.00    -0.376 OA
BRANCH   3   4
ATOM      4  C   UNL A   1      35.380  34.254  29.932  1.00  0.00     0.202 C 
BRANCH   4   5
ATOM      5  C   UNL A   1      34.745  32.885  30.214  1.00  0.00     0.261 C 
BRANCH   5   6
ATOM      6  O   UNL A   1      34.106  32.274  29.082  1.00  0.00    -0.460 OA
BRANCH   6   7
ATOM      7  C   UNL A   1      34.831  32.145  27.954  1.00  0.00     0.338 C 
ATOM      8  O   UNL A   1      35.629  32.945  27.501  1.00  0.00    -0.246 OA
BRANCH   7   9
ATOM      9  C   UNL A   1      34.607  30.784  27.426  1.00  0.00     0.087 C 
ATOM     10  C   UNL A   1      32.646  26.460  25.741  1.00  0.00     0.029 A 
ATOM     11  C   UNL A   1      33.913  26.887  26.179  1.00  0.00     0.058 A 
ATOM     12  C   UNL A   1      31.630  27.431  25.663  1.00  0.00     0.050 A 
ATOM     13  C   UNL A   1      34.164  28.217  26.516  1.00  0.00     0.128 A 
ATOM     14  C   UNL A   1      31.877  28.764  26.026  1.00  0.00     0.033 A 
ATOM     15  Cl  UNL A   1      30.018  27.059  25.162  1.00  0.00    -0.084 Cl
ATOM     16  C   UNL A   1      33.138  29.153  26.482  1.00  0.00     0.019 A 
ATOM     17  O   UNL A   1      35.445  28.495  26.891  1.00  0.00    -0.475 OA
ATOM     18  C   UNL A   1      33.373  30.492  26.995  1.00  0.00     0.027 C 
ATOM     19  C   UNL A   1      35.778  29.837  27.334  1.00  0.00     0.316 C 
BRANCH  10  20
ATOM     20  C   UNL A   1      32.406  24.985  25.476  1.00  0.00     0.300 C 
BRANCH  20  21
ATOM     21  N   UNL A   1      33.307  24.275  24.561  1.00  0.00    -0.332 N 
ATOM     22  C   UNL A   1      33.355  24.774  23.197  1.00  0.00     0.333 C 
ATOM     23  H   UNL A   1      34.181  24.570  24.995  1.00  0.00     0.348 HD
BRANCH  21  24
ATOM     24  C   UNL A   1      33.438  22.817  24.665  1.00  0.00     0.177 C 
ATOM     25  C   UNL A   1      33.713  22.175  23.302  1.00  0.00     0.075 C 
ATOM     26  C   UNL A   1      34.447  22.313  25.702  1.00  0.00     0.075 C 
ENDBRANCH  21  24
ENDBRANCH  20  21
ENDBRANCH  10  20
BRANCH  19  27
ATOM     27  C   UNL A   1      36.542  29.699  28.660  1.00  0.00     0.430 C 
ATOM     28  F   UNL A   1      35.685  29.564  29.703  1.00  0.00    -0.167 F 
ATOM     29  F   UNL A   1      37.350  28.617  28.683  1.00  0.00    -0.167 F 
ATOM     30  F   UNL A   1      37.312  30.784  28.907  1.00  0.00    -0.167 F 
ENDBRANCH  19  27
ENDBRANCH   7   9
ENDBRANCH   6   7
ENDBRANCH   5   6
ENDBRANCH   4   5
ENDBRANCH   3   4
ENDBRANCH   2   3
ENDBRANCH   1   2
BRANCH   1  31
ATOM     31  O   UNL A   1      32.362  35.941  31.698  1.00  0.00    -0.377 OA
BRANCH  31  32
ATOM     32  C   UNL A   1      33.430  36.258  32.591  1.00  0.00     0.188 C 
BRANCH  32  33
ATOM     33  C   UNL A   1      34.200  35.161  33.361  1.00  0.00     0.188 C 
BRANCH  33  34
ATOM     34  O   UNL A   1      35.592  35.436  33.510  1.00  0.00    -0.376 OA
BRANCH  34  35
ATOM     35  C   UNL A   1      36.431  34.328  33.811  1.00  0.00     0.202 C 
BRANCH  35  36
ATOM     36  C   UNL A   1      35.699  32.984  33.775  1.00  0.00     0.261 C 
BRANCH  36  37
ATOM     37  O   UNL A   1      36.521  31.856  33.437  1.00  0.00    -0.460 OA
BRANCH  37  38
ATOM     38  C   UNL A   1      37.603  31.613  34.211  1.00  0.00     0.338 C 
ATOM     39  O   UNL A   1      37.623  31.417  35.412  1.00  0.00    -0.246 OA
BRANCH  38  40
ATOM     40  C   UNL A   1      38.755  31.419  33.305  1.00  0.00     0.060 A 
ATOM     41  C   UNL A   1      39.859  30.671  33.718  1.00  0.00     0.016 A 
ATOM     42  C   UNL A   1      38.739  32.025  32.041  1.00  0.00     0.016 A 
ATOM     43  C   UNL A   1      40.934  30.493  32.849  1.00  0.00     0.010 A 
ATOM     44  C   UNL A   1      39.820  31.853  31.174  1.00  0.00     0.010 A 
ATOM     45  C   UNL A   1      40.910  31.060  31.562  1.00  0.00    -0.014 A 
BRANCH  45  46
ATOM     46  C   UNL A   1      41.910  30.618  30.563  1.00  0.00     0.031 A 
ATOM     47  C   UNL A   1      43.165  31.382  30.284  1.00  0.00     0.074 A 
ATOM     48  C   UNL A   1      41.654  29.470  29.907  1.00  0.00     0.049 A 
ATOM     49  N   UNL A   1      44.179  31.032  29.534  1.00  0.00    -0.248 NA
ATOM     50  C   UNL A   1      43.305  32.701  30.916  1.00  0.00     0.031 C 
ATOM     51  C   UNL A   1      40.448  28.659  30.085  1.00  0.00     0.029 A 
ATOM     52  N   UNL A   1      42.391  28.779  28.981  1.00  0.00    -0.354 N 
ATOM     53  C   UNL A   1      45.092  32.073  29.618  1.00  0.00     0.074 A 
ATOM     54  C   UNL A   1      44.491  33.090  30.458  1.00  0.00     0.031 C 
ATOM     55  C   UNL A   1      40.542  27.564  29.320  1.00  0.00     0.029 A 
ATOM     56  C   UNL A   1      41.799  27.605  28.581  1.00  0.00     0.049 A 
ATOM     57  H   UNL A   1      43.258  29.092  28.637  1.00  0.00     0.167 HD
ATOM     58  C   UNL A   1      46.322  32.157  29.055  1.00  0.00     0.031 A 
ATOM     59  C   UNL A   1      42.223  26.657  27.726  1.00  0.00     0.031 A 
ATOM     60  C   UNL A   1      46.897  31.148  28.199  1.00  0.00     0.049 A 
ATOM     61  C   UNL A   1      43.571  26.797  27.086  1.00  0.00     0.074 A 
ATOM     62  C   UNL A   1      48.159  31.124  27.631  1.00  0.00     0.029 A 
ATOM     63  N   UNL A   1      46.246  30.000  27.771  1.00  0.00    -0.354 N 
ATOM     64  N   UNL A   1      44.465  27.741  27.251  1.00  0.00    -0.248 NA
ATOM     65  C   UNL A   1      43.978  25.735  26.155  1.00  0.00     0.031 C 
ATOM     66  C   UNL A   1      48.246  30.003  26.802  1.00  0.00     0.029 A 
ATOM     67  C   UNL A   1      47.066  29.285  26.911  1.00  0.00     0.049 A 
ATOM     68  H   UNL A   1      45.338  29.732  28.039  1.00  0.00     0.167 HD
ATOM     69  C   UNL A   1      45.546  27.382  26.458  1.00  0.00     0.074 A 
ATOM     70  C   UNL A   1      45.205  26.122  25.830  1.00  0.00     0.031 C 
ATOM     71  C   UNL A   1      46.714  28.043  26.271  1.00  0.00     0.031 A 
BRANCH  58  72
ATOM     72  C   UNL A   1      47.157  33.376  29.343  1.00  0.00    -0.014 A 
ATOM     73  C   UNL A   1      48.019  33.390  30.453  1.00  0.00     0.009 A 
ATOM     74  C   UNL A   1      46.991  34.554  28.600  1.00  0.00     0.009 A 
ATOM     75  C   UNL A   1      48.681  34.562  30.822  1.00  0.00     0.001 A 
ATOM     76  C   UNL A   1      47.676  35.718  28.956  1.00  0.00     0.001 A 
ATOM     77  C   UNL A   1      48.511  35.725  30.073  1.00  0.00     0.000 A 
ENDBRANCH  58  72
BRANCH  59  78
ATOM     78  C   UNL A   1      41.361  25.473  27.479  1.00  0.00    -0.014 A 
ATOM     79  C   UNL A   1      40.248  25.567  26.627  1.00  0.00     0.009 A 
ATOM     80  C   UNL A   1      41.602  24.267  28.153  1.00  0.00     0.009 A 
ATOM     81  C   UNL A   1      39.378  24.485  26.475  1.00  0.00     0.001 A 
ATOM     82  C   UNL A   1      40.747  23.177  27.975  1.00  0.00     0.001 A 
ATOM     83  C   UNL A   1      39.631  23.290  27.147  1.00  0.00     0.000 A 
ENDBRANCH  59  78
BRANCH  71  84
ATOM     84  C   UNL A   1      47.722  27.429  25.337  1.00  0.00    -0.014 A 
ATOM     85  C   UNL A   1      48.758  26.631  25.849  1.00  0.00     0.009 A 
ATOM     86  C   UNL A   1      47.699  27.713  23.962  1.00  0.00     0.009 A 
ATOM     87  C   UNL A   1      49.759  26.143  25.007  1.00  0.00     0.001 A 
ATOM     88  C   UNL A   1      48.685  27.197  23.118  1.00  0.00     0.001 A 
ATOM     89  C   UNL A   1      49.719  26.421  23.643  1.00  0.00     0.000 A 
ENDBRANCH  71  84
ENDBRANCH  45  46
ENDBRANCH  38  40
ENDBRANCH  37  38
ENDBRANCH  36  37
ENDBRANCH  35  36
ENDBRANCH  34  35
ENDBRANCH  33  34
ENDBRANCH  32  33
ENDBRANCH  31  32
ENDBRANCH   1  31
TORSDOF 24
ENDMDL
MODEL 2
REMARK VINA RESULT:      -8.0      3.440      6.358
REMARK SMILES CC(C)[N@@H+](C)Cc1cc2c(cc1Cl)C=C(C(=O)OCCOCCOCCOCCOC(=O)c1ccc(-c3c4nc(c(-c5ccccc5)c5ccc([nH]5)c(-c5ccccc5)c5nc(c(-c6ccccc6)c6ccc3[nH]6)C=C5)C=C4)cc1)[C@@H](C(F)(F)F)O2
REMARK SMILES IDX 23 1 22 2 21 3 20 4 19 5 18 6 16 7 17 8 15 9 7 10 8 11 12 12
REMARK SMILES IDX 9 13 11 14 13 15 10 16 86 17 14 18 81 19 6 20 4 21 5 22 2 24
REMARK SMILES IDX 1 25 3 26 82 27 83 28 84 29 85 30 24 31 25 32 26 33 27 34
REMARK SMILES IDX 28 35 29 36 30 37 31 38 32 39 33 40 34 41 80 42 35 43 79 44
REMARK SMILES IDX 36 45 37 46 38 47 73 48 39 49 78 50 72 51 74 52 40 53 77 54
REMARK SMILES IDX 71 55 70 56 41 58 63 59 48 60 62 61 49 62 52 63 61 64 75 65
REMARK SMILES IDX 50 66 51 67 60 69 76 70 53 71 42 72 43 73 47 74 44 75 46 76
REMARK SMILES IDX 45 77 64 78 65 79 69 80 66 81 68 82 67 83 54 84 55 85 59 86
REMARK SMILES IDX 56 87 58 88 57 89
REMARK H PARENT 4 23 74 57 52 68
REMARK Flexibility Score: inf
ROOT
ATOM      1  C   UNL A   1      38.535  30.918  35.960  1.00  0.00     0.188 C 
ENDROOT
BRANCH   1   2
ATOM      2  C   UNL A   1      37.894  31.680  34.785  1.00  0.00     0.188 C 
BRANCH   2   3
ATOM      3  O   UNL A   1      37.138  30.838  33.914  1.00  0.00    -0.376 OA
BRANCH   3   4
ATOM      4  C   UNL A   1      37.343  31.001  32.516  1.00  0.00     0.202 C 
BRANCH   4   5
ATOM      5  C   UNL A   1      36.082  31.074  31.643  1.00  0.00     0.261 C 
BRANCH   5   6
ATOM      6  O   UNL A   1      36.049  30.137  30.556  1.00  0.00    -0.460 OA
BRANCH   6   7
ATOM      7  C   UNL A   1      36.508  30.554  29.361  1.00  0.00     0.338 C 
ATOM      8  O   UNL A   1      37.646  30.894  29.092  1.00  0.00    -0.246 OA
BRANCH   7   9
ATOM      9  C   UNL A   1      35.422  30.385  28.375  1.00  0.00     0.087 C 
ATOM     10  C   UNL A   1      32.476  28.935  24.552  1.00  0.00     0.029 A 
ATOM     11  C   UNL A   1      32.515  30.031  25.433  1.00  0.00     0.058 A 
ATOM     12  C   UNL A   1      33.419  27.910  24.758  1.00  0.00     0.050 A 
ATOM     13  C   UNL A   1      33.440  30.105  26.475  1.00  0.00     0.128 A 
ATOM     14  C   UNL A   1      34.365  27.997  25.790  1.00  0.00     0.033 A 
ATOM     15  Cl  UNL A   1      33.510  26.509  23.750  1.00  0.00    -0.084 Cl
ATOM     16  C   UNL A   1      34.396  29.110  26.633  1.00  0.00     0.019 A 
ATOM     17  O   UNL A   1      33.341  31.208  27.269  1.00  0.00    -0.475 OA
ATOM     18  C   UNL A   1      35.455  29.283  27.613  1.00  0.00     0.027 C 
ATOM     19  C   UNL A   1      34.313  31.407  28.330  1.00  0.00     0.316 C 
BRANCH  10  20
ATOM     20  C   UNL A   1      31.509  28.950  23.383  1.00  0.00     0.300 C 
BRANCH  20  21
ATOM     21  N   UNL A   1      30.075  28.785  23.648  1.00  0.00    -0.332 N 
ATOM     22  C   UNL A   1      29.594  27.416  23.723  1.00  0.00     0.333 C 
ATOM     23  H   UNL A   1      30.087  29.128  24.609  1.00  0.00     0.348 HD
BRANCH  21  24
ATOM     24  C   UNL A   1      29.118  29.720  23.046  1.00  0.00     0.177 C 
ATOM     25  C   UNL A   1      27.743  29.075  22.851  1.00  0.00     0.075 C 
ATOM     26  C   UNL A   1      28.975  31.072  23.752  1.00  0.00     0.075 C 
ENDBRANCH  21  24
ENDBRANCH  20  21
ENDBRANCH  10  20
BRANCH  19  27
ATOM     27  C   UNL A   1      34.831  32.847  28.204  1.00  0.00     0.430 C 
ATOM     28  F   UNL A   1      35.952  32.896  27.441  1.00  0.00    -0.167 F 
ATOM     29  F   UNL A   1      33.934  33.673  27.624  1.00  0.00    -0.167 F 
ATOM     30  F   UNL A   1      35.142  33.373  29.412  1.00  0.00    -0.167 F 
ENDBRANCH  19  27
ENDBRANCH   7   9
ENDBRANCH   6   7
ENDBRANCH   5   6
ENDBRANCH   4   5
ENDBRANCH   3   4
ENDBRANCH   2   3
ENDBRANCH   1   2
BRANCH   1  31
ATOM     31  O   UNL A   1      38.873  31.766  37.047  1.00  0.00    -0.377 OA
BRANCH  31  32
ATOM     32  C   UNL A   1      37.884  31.964  38.058  1.00  0.00     0.188 C 
BRANCH  32  33
ATOM     33  C   UNL A   1      37.696  33.331  38.753  1.00  0.00     0.188 C 
BRANCH  33  34
ATOM     34  O   UNL A   1      38.485  34.375  38.185  1.00  0.00    -0.376 OA
BRANCH  34  35
ATOM     35  C   UNL A   1      39.627  34.785  38.928  1.00  0.00     0.202 C 
BRANCH  35  36
ATOM     36  C   UNL A   1      40.932  34.706  38.129  1.00  0.00     0.261 C 
BRANCH  36  37
ATOM     37  O   UNL A   1      41.215  35.856  37.317  1.00  0.00    -0.460 OA
BRANCH  37  38
ATOM     38  C   UNL A   1      40.518  36.000  36.168  1.00  0.00     0.338 C 
ATOM     39  O   UNL A   1      39.658  36.826  35.923  1.00  0.00    -0.246 OA
BRANCH  38  40
ATOM     40  C   UNL A   1      41.129  35.097  35.169  1.00  0.00     0.060 A 
ATOM     41  C   UNL A   1      42.518  35.024  35.042  1.00  0.00     0.016 A 
ATOM     42  C   UNL A   1      40.297  34.343  34.331  1.00  0.00     0.016 A 
ATOM     43  C   UNL A   1      43.078  34.163  34.100  1.00  0.00     0.010 A 
ATOM     44  C   UNL A   1      40.859  33.485  33.382  1.00  0.00     0.010 A 
ATOM     45  C   UNL A   1      42.253  33.368  33.283  1.00  0.00    -0.014 A 
BRANCH  45  46
ATOM     46  C   UNL A   1      42.859  32.259  32.511  1.00  0.00     0.031 A 
ATOM     47  C   UNL A   1      42.992  30.873  33.056  1.00  0.00     0.074 A 
ATOM     48  C   UNL A   1      43.283  32.541  31.264  1.00  0.00     0.049 A 
ATOM     49  N   UNL A   1      43.379  29.789  32.434  1.00  0.00    -0.248 NA
ATOM     50  C   UNL A   1      42.658  30.672  34.472  1.00  0.00     0.031 C 
ATOM     51  C   UNL A   1      43.222  33.867  30.643  1.00  0.00     0.029 A 
ATOM     52  N   UNL A   1      43.826  31.740  30.294  1.00  0.00    -0.354 N 
ATOM     53  C   UNL A   1      43.314  28.768  33.370  1.00  0.00     0.074 A 
ATOM     54  C   UNL A   1      42.893  29.372  34.619  1.00  0.00     0.031 C 
ATOM     55  C   UNL A   1      43.678  33.780  29.386  1.00  0.00     0.029 A 
ATOM     56  C   UNL A   1      44.083  32.404  29.120  1.00  0.00     0.049 A 
ATOM     57  H   UNL A   1      44.014  30.783  30.427  1.00  0.00     0.167 HD
ATOM     58  C   UNL A   1      43.570  27.449  33.193  1.00  0.00     0.031 A 
ATOM     59  C   UNL A   1      44.577  31.958  27.950  1.00  0.00     0.031 A 
ATOM     60  C   UNL A   1      44.016  26.866  31.950  1.00  0.00     0.049 A 
ATOM     61  C   UNL A   1      44.890  30.501  27.795  1.00  0.00     0.074 A 
ATOM     62  C   UNL A   1      44.244  25.531  31.664  1.00  0.00     0.029 A 
ATOM     63  N   UNL A   1      44.318  27.578  30.798  1.00  0.00    -0.354 N 
ATOM     64  N   UNL A   1      44.731  29.529  28.661  1.00  0.00    -0.248 NA
ATOM     65  C   UNL A   1      45.434  30.072  26.499  1.00  0.00     0.031 C 
ATOM     66  C   UNL A   1      44.755  25.442  30.366  1.00  0.00     0.029 A 
ATOM     67  C   UNL A   1      44.774  26.713  29.815  1.00  0.00     0.049 A 
ATOM     68  H   UNL A   1      44.223  28.552  30.695  1.00  0.00     0.167 HD
ATOM     69  C   UNL A   1      45.141  28.372  28.013  1.00  0.00     0.074 A 
ATOM     70  C   UNL A   1      45.534  28.760  26.673  1.00  0.00     0.031 C 
ATOM     71  C   UNL A   1      45.185  27.105  28.491  1.00  0.00     0.031 A 
BRANCH  58  72
ATOM     72  C   UNL A   1      43.371  26.519  34.359  1.00  0.00    -0.014 A 
ATOM     73  C   UNL A   1      44.479  26.077  35.101  1.00  0.00     0.009 A 
ATOM     74  C   UNL A   1      42.109  25.975  34.638  1.00  0.00     0.009 A 
ATOM     75  C   UNL A   1      44.329  25.096  36.084  1.00  0.00     0.001 A 
ATOM     76  C   UNL A   1      41.957  25.013  35.640  1.00  0.00     0.001 A 
ATOM     77  C   UNL A   1      43.069  24.566  36.354  1.00  0.00     0.000 A 
ENDBRANCH  58  72
BRANCH  59  78
ATOM     78  C   UNL A   1      44.751  32.917  26.830  1.00  0.00    -0.014 A 
ATOM     79  C   UNL A   1      43.800  32.991  25.799  1.00  0.00     0.009 A 
ATOM     80  C   UNL A   1      45.906  33.708  26.746  1.00  0.00     0.009 A 
ATOM     81  C   UNL A   1      44.013  33.816  24.694  1.00  0.00     0.001 A 
ATOM     82  C   UNL A   1      46.102  34.556  25.654  1.00  0.00     0.001 A 
ATOM     83  C   UNL A   1      45.163  34.601  24.624  1.00  0.00     0.000 A 
ENDBRANCH  59  78
BRANCH  71  84
ATOM     84  C   UNL A   1      45.689  26.029  27.568  1.00  0.00    -0.014 A 
ATOM     85  C   UNL A   1      47.066  25.774  27.473  1.00  0.00     0.009 A 
ATOM     86  C   UNL A   1      44.809  25.328  26.727  1.00  0.00     0.009 A 
ATOM     87  C   UNL A   1      47.555  24.853  26.545  1.00  0.00     0.001 A 
ATOM     88  C   UNL A   1      45.299  24.384  25.822  1.00  0.00     0.001 A 
ATOM     89  C   UNL A   1      46.671  24.155  25.725  1.00  0.00     0.000 A 
ENDBRANCH  71  84
ENDBRANCH  45  46
ENDBRANCH  38  40
ENDBRANCH  37  38
ENDBRANCH  36  37
ENDBRANCH  35  36
ENDBRANCH  34  35
ENDBRANCH  33  34
ENDBRANCH  32  33
ENDBRANCH  31  32
ENDBRANCH   1  31
TORSDOF 24
ENDMDL
MODEL 3
REMARK VINA RESULT:      -7.7      3.982      8.086
REMARK SMILES CC(C)[N@@H+](C)Cc1cc2c(cc1Cl)C=C(C(=O)OCCOCCOCCOCCOC(=O)c1ccc(-c3c4nc(c(-c5ccccc5)c5ccc([nH]5)c(-c5ccccc5)c5nc(c(-c6ccccc6)c6ccc3[nH]6)C=C5)C=C4)cc1)[C@@H](C(F)(F)F)O2
REMARK SMILES IDX 23 1 22 2 21 3 20 4 19 5 18 6 16 7 17 8 15 9 7 10 8 11 12 12
REMARK SMILES IDX 9 13 11 14 13 15 10 16 86 17 14 18 81 19 6 20 4 21 5 22 2 24
REMARK SMILES IDX 1 25 3 26 82 27 83 28 84 29 85 30 24 31 25 32 26 33 27 34
REMARK SMILES IDX 28 35 29 36 30 37 31 38 32 39 33 40 34 41 80 42 35 43 79 44
REMARK SMILES IDX 36 45 37 46 38 47 73 48 39 49 78 50 72 51 74 52 40 53 77 54
REMARK SMILES IDX 71 55 70 56 41 58 63 59 48 60 62 61 49 62 52 63 61 64 75 65
REMARK SMILES IDX 50 66 51 67 60 69 76 70 53 71 42 72 43 73 47 74 44 75 46 76
REMARK SMILES IDX 45 77 64 78 65 79 69 80 66 81 68 82 67 83 54 84 55 85 59 86
REMARK SMILES IDX 56 87 58 88 57 89
REMARK H PARENT 4 23 74 57 52 68
REMARK Flexibility Score: inf
ROOT
ATOM      1  C   UNL A   1      38.885  29.549  28.827  1.00  0.00     0.188 C 
ENDROOT
BRANCH   1   2
ATOM      2  C   UNL A   1      37.834  29.953  27.776  1.00  0.00     0.188 C 
BRANCH   2   3
ATOM      3  O   UNL A   1      36.594  29.262  27.926  1.00  0.00    -0.376 OA
BRANCH   3   4
ATOM      4  C   UNL A   1      35.452  30.043  28.254  1.00  0.00     0.202 C 
BRANCH   4   5
ATOM      5  C   UNL A   1      34.371  30.166  27.170  1.00  0.00     0.261 C 
BRANCH   5   6
ATOM      6  O   UNL A   1      33.636  28.959  26.916  1.00  0.00    -0.460 OA
BRANCH   6   7
ATOM      7  C   UNL A   1      32.989  28.860  25.739  1.00  0.00     0.338 C 
ATOM      8  O   UNL A   1      32.654  29.775  25.009  1.00  0.00    -0.246 OA
BRANCH   7   9
ATOM      9  C   UNL A   1      32.885  27.427  25.399  1.00  0.00     0.087 C 
ATOM     10  C   UNL A   1      33.772  22.602  24.247  1.00  0.00     0.029 A 
ATOM     11  C   UNL A   1      32.656  23.459  24.204  1.00  0.00     0.058 A 
ATOM     12  C   UNL A   1      34.961  23.121  24.793  1.00  0.00     0.050 A 
ATOM     13  C   UNL A   1      32.714  24.766  24.686  1.00  0.00     0.128 A 
ATOM     14  C   UNL A   1      35.026  24.444  25.254  1.00  0.00     0.033 A 
ATOM     15  Cl  UNL A   1      36.420  22.200  24.898  1.00  0.00    -0.084 Cl
ATOM     16  C   UNL A   1      33.909  25.279  25.174  1.00  0.00     0.019 A 
ATOM     17  O   UNL A   1      31.550  25.471  24.610  1.00  0.00    -0.475 OA
ATOM     18  C   UNL A   1      33.998  26.689  25.515  1.00  0.00     0.027 C 
ATOM     19  C   UNL A   1      31.538  26.865  25.017  1.00  0.00     0.316 C 
BRANCH  10  20
ATOM     20  C   UNL A   1      33.677  21.221  23.626  1.00  0.00     0.300 C 
BRANCH  20  21
ATOM     21  N   UNL A   1      33.614  20.051  24.509  1.00  0.00    -0.332 N 
ATOM     22  C   UNL A   1      34.891  19.514  24.949  1.00  0.00     0.333 C 
ATOM     23  H   UNL A   1      33.220  20.529  25.319  1.00  0.00     0.348 HD
BRANCH  21  24
ATOM     24  C   UNL A   1      32.587  19.028  24.279  1.00  0.00     0.177 C 
ATOM     25  C   UNL A   1      32.001  19.123  22.868  1.00  0.00     0.075 C 
ATOM     26  C   UNL A   1      33.005  17.586  24.585  1.00  0.00     0.075 C 
ENDBRANCH  21  24
ENDBRANCH  20  21
ENDBRANCH  10  20
BRANCH  19  27
ATOM     27  C   UNL A   1      30.855  27.658  23.892  1.00  0.00     0.430 C 
ATOM     28  F   UNL A   1      30.082  28.651  24.398  1.00  0.00    -0.167 F 
ATOM     29  F   UNL A   1      31.742  28.247  23.060  1.00  0.00    -0.167 F 
ATOM     30  F   UNL A   1      30.056  26.868  23.138  1.00  0.00    -0.167 F 
ENDBRANCH  19  27
ENDBRANCH   7   9
ENDBRANCH   6   7
ENDBRANCH   5   6
ENDBRANCH   4   5
ENDBRANCH   3   4
ENDBRANCH   2   3
ENDBRANCH   1   2
BRANCH   1  31
ATOM     31  O   UNL A   1      39.315  28.204  28.687  1.00  0.00    -0.377 OA
BRANCH  31  32
ATOM     32  C   UNL A   1      39.728  27.778  27.389  1.00  0.00     0.188 C 
BRANCH  32  33
ATOM     33  C   UNL A   1      40.436  26.422  27.165  1.00  0.00     0.188 C 
BRANCH  33  34
ATOM     34  O   UNL A   1      39.536  25.338  26.938  1.00  0.00    -0.376 OA
BRANCH  34  35
ATOM     35  C   UNL A   1      39.785  24.141  27.665  1.00  0.00     0.202 C 
BRANCH  35  36
ATOM     36  C   UNL A   1      40.422  23.036  26.816  1.00  0.00     0.261 C 
BRANCH  36  37
ATOM     37  O   UNL A   1      41.837  23.168  26.614  1.00  0.00    -0.460 OA
BRANCH  37  38
ATOM     38  C   UNL A   1      42.625  23.221  27.712  1.00  0.00     0.338 C 
ATOM     39  O   UNL A   1      42.799  22.345  28.540  1.00  0.00    -0.246 OA
BRANCH  38  40
ATOM     40  C   UNL A   1      43.412  24.469  27.626  1.00  0.00     0.060 A 
ATOM     41  C   UNL A   1      43.989  25.019  28.773  1.00  0.00     0.016 A 
ATOM     42  C   UNL A   1      43.541  25.111  26.388  1.00  0.00     0.016 A 
ATOM     43  C   UNL A   1      44.733  26.193  28.674  1.00  0.00     0.010 A 
ATOM     44  C   UNL A   1      44.281  26.292  26.290  1.00  0.00     0.010 A 
ATOM     45  C   UNL A   1      44.907  26.823  27.428  1.00  0.00    -0.014 A 
BRANCH  45  46
ATOM     46  C   UNL A   1      45.930  27.884  27.294  1.00  0.00     0.031 A 
ATOM     47  C   UNL A   1      47.394  27.589  27.207  1.00  0.00     0.074 A 
ATOM     48  C   UNL A   1      45.490  29.156  27.237  1.00  0.00     0.049 A 
ATOM     49  N   UNL A   1      48.376  28.416  26.953  1.00  0.00    -0.248 NA
ATOM     50  C   UNL A   1      47.815  26.200  27.435  1.00  0.00     0.031 C 
ATOM     51  C   UNL A   1      44.085  29.556  27.337  1.00  0.00     0.029 A 
ATOM     52  N   UNL A   1      46.165  30.335  27.062  1.00  0.00    -0.354 N 
ATOM     53  C   UNL A   1      49.532  27.651  26.967  1.00  0.00     0.074 A 
ATOM     54  C   UNL A   1      49.134  26.297  27.299  1.00  0.00     0.031 C 
ATOM     55  C   UNL A   1      43.999  30.885  27.189  1.00  0.00     0.029 A 
ATOM     56  C   UNL A   1      45.340  31.432  27.008  1.00  0.00     0.049 A 
ATOM     57  H   UNL A   1      47.145  30.391  26.984  1.00  0.00     0.167 HD
ATOM     58  C   UNL A   1      50.803  28.046  26.711  1.00  0.00     0.031 A 
ATOM     59  C   UNL A   1      45.623  32.734  26.818  1.00  0.00     0.031 A 
ATOM     60  C   UNL A   1      51.188  29.403  26.408  1.00  0.00     0.049 A 
ATOM     61  C   UNL A   1      47.043  33.148  26.578  1.00  0.00     0.074 A 
ATOM     62  C   UNL A   1      52.444  29.883  26.079  1.00  0.00     0.029 A 
ATOM     63  N   UNL A   1      50.334  30.496  26.416  1.00  0.00    -0.354 N 
ATOM     64  N   UNL A   1      48.115  32.397  26.497  1.00  0.00    -0.248 NA
ATOM     65  C   UNL A   1      47.294  34.582  26.385  1.00  0.00     0.031 C 
ATOM     66  C   UNL A   1      52.365  31.273  25.961  1.00  0.00     0.029 A 
ATOM     67  C   UNL A   1      51.045  31.654  26.142  1.00  0.00     0.049 A 
ATOM     68  H   UNL A   1      49.366  30.454  26.590  1.00  0.00     0.167 HD
ATOM     69  C   UNL A   1      49.165  33.264  26.230  1.00  0.00     0.074 A 
ATOM     70  C   UNL A   1      48.598  34.594  26.140  1.00  0.00     0.031 C 
ATOM     71  C   UNL A   1      50.481  32.978  26.075  1.00  0.00     0.031 A 
BRANCH  58  72
ATOM     72  C   UNL A   1      51.892  27.007  26.730  1.00  0.00    -0.014 A 
ATOM     73  C   UNL A   1      52.777  26.939  27.819  1.00  0.00     0.009 A 
ATOM     74  C   UNL A   1      52.127  26.190  25.615  1.00  0.00     0.009 A 
ATOM     75  C   UNL A   1      53.884  26.088  27.782  1.00  0.00     0.001 A 
ATOM     76  C   UNL A   1      53.220  25.319  25.592  1.00  0.00     0.001 A 
ATOM     77  C   UNL A   1      54.103  25.278  26.669  1.00  0.00     0.000 A 
ENDBRANCH  58  72
BRANCH  59  78
ATOM     78  C   UNL A   1      44.510  33.718  26.805  1.00  0.00    -0.014 A 
ATOM     79  C   UNL A   1      43.855  34.037  25.604  1.00  0.00     0.009 A 
ATOM     80  C   UNL A   1      44.150  34.397  27.977  1.00  0.00     0.009 A 
ATOM     81  C   UNL A   1      42.881  35.036  25.572  1.00  0.00     0.001 A 
ATOM     82  C   UNL A   1      43.153  35.374  27.948  1.00  0.00     0.001 A 
ATOM     83  C   UNL A   1      42.528  35.701  26.745  1.00  0.00     0.000 A 
ENDBRANCH  59  78
BRANCH  71  84
ATOM     84  C   UNL A   1      51.417  34.123  25.802  1.00  0.00    -0.014 A 
ATOM     85  C   UNL A   1      51.995  34.827  26.871  1.00  0.00     0.009 A 
ATOM     86  C   UNL A   1      51.658  34.563  24.490  1.00  0.00     0.009 A 
ATOM     87  C   UNL A   1      52.780  35.957  26.634  1.00  0.00     0.001 A 
ATOM     88  C   UNL A   1      52.470  35.675  24.256  1.00  0.00     0.001 A 
ATOM     89  C   UNL A   1      53.021  36.376  25.327  1.00  0.00     0.000 A 
ENDBRANCH  71  84
ENDBRANCH  45  46
ENDBRANCH  38  40
ENDBRANCH  37  38
ENDBRANCH  36  37
ENDBRANCH  35  36
ENDBRANCH  34  35
ENDBRANCH  33  34
ENDBRANCH  32  33
ENDBRANCH  31  32
ENDBRANCH   1  31
TORSDOF 24
ENDMDL
