MODEL 1
REMARK VINA RESULT:      -9.1      0.000      0.000
REMARK SMILES O=C(OCCOCCOCCOCCOC(=O)c1cncc(Nc2cccnc2)n1)c1ccc(-c2c3nc(c(-c4ccccc4)c4ccc([nH]4)c(-c4ccccc4)c4nc(c(-c5ccccc5)c5ccc2[nH]5)C=C4)C=C3)cc1
REMARK SMILES IDX 9 1 8 2 7 3 6 4 5 5 4 6 3 7 2 8 1 9 31 10 32 11 78 12 33 13
REMARK SMILES IDX 77 14 34 15 35 16 36 17 71 18 37 19 76 20 70 21 72 22 38 23
REMARK SMILES IDX 75 24 69 25 68 26 39 28 61 29 46 30 60 31 47 32 50 33 59 34
REMARK SMILES IDX 73 35 48 36 49 37 58 39 74 40 51 41 40 42 41 43 45 44 42 45
REMARK SMILES IDX 44 46 43 47 62 48 63 49 67 50 64 51 66 52 65 53 52 54 53 55
REMARK SMILES IDX 57 56 54 57 56 58 55 59 10 60 11 61 12 62 13 63 14 64 15 65
REMARK SMILES IDX 16 66 17 67 18 68 19 69 30 70 20 71 22 72 21 73 23 74 24 76
REMARK SMILES IDX 25 77 29 78 26 79 28 80 27 81
REMARK H PARENT 72 27 50 38 23 75
REMARK Flexibility Score: inf
ROOT
ATOM      1  O   UNL A   1      31.105  26.793  26.962  1.00  0.00    -0.377 OA
ENDROOT
BRANCH   1   2
ATOM      2  C   UNL A   1      31.625  28.054  26.532  1.00  0.00     0.188 C 
BRANCH   2   3
ATOM      3  C   UNL A   1      33.122  28.259  26.771  1.00  0.00     0.188 C 
BRANCH   3   4
ATOM      4  O   UNL A   1      33.374  29.528  27.386  1.00  0.00    -0.376 OA
BRANCH   4   5
ATOM      5  C   UNL A   1      33.079  30.666  26.575  1.00  0.00     0.202 C 
BRANCH   5   6
ATOM      6  C   UNL A   1      32.072  31.638  27.192  1.00  0.00     0.261 C 
BRANCH   6   7
ATOM      7  O   UNL A   1      32.502  33.004  27.096  1.00  0.00    -0.460 OA
BRANCH   7   8
ATOM      8  C   UNL A   1      33.093  33.758  28.056  1.00  0.00     0.338 C 
ATOM      9  O   UNL A   1      32.487  34.740  28.482  1.00  0.00    -0.246 OA
BRANCH   8  10
ATOM     10  C   UNL A   1      34.426  33.451  28.665  1.00  0.00     0.060 A 
ATOM     11  C   UNL A   1      35.663  33.872  28.173  1.00  0.00     0.016 A 
ATOM     12  C   UNL A   1      34.420  32.704  29.857  1.00  0.00     0.016 A 
ATOM     13  C   UNL A   1      36.856  33.476  28.760  1.00  0.00     0.010 A 
ATOM     14  C   UNL A   1      35.614  32.326  30.478  1.00  0.00     0.010 A 
ATOM     15  C   UNL A   1      36.836  32.669  29.891  1.00  0.00    -0.014 A 
BRANCH  15  16
ATOM     16  C   UNL A   1      38.097  32.014  30.274  1.00  0.00     0.031 A 
ATOM     17  C   UNL A   1      38.841  32.585  31.445  1.00  0.00     0.074 A 
ATOM     18  C   UNL A   1      38.456  30.848  29.711  1.00  0.00     0.049 A 
ATOM     19  N   UNL A   1      39.966  32.200  31.983  1.00  0.00    -0.248 NA
ATOM     20  C   UNL A   1      38.217  33.742  32.114  1.00  0.00     0.031 C 
ATOM     21  C   UNL A   1      37.694  30.138  28.681  1.00  0.00     0.029 A 
ATOM     22  N   UNL A   1      39.524  30.033  29.961  1.00  0.00    -0.354 N 
ATOM     23  C   UNL A   1      40.203  33.093  33.022  1.00  0.00     0.074 A 
ATOM     24  C   UNL A   1      39.110  34.035  33.043  1.00  0.00     0.031 C 
ATOM     25  C   UNL A   1      38.306  28.972  28.413  1.00  0.00     0.029 A 
ATOM     26  C   UNL A   1      39.531  28.890  29.201  1.00  0.00     0.049 A 
ATOM     27  H   UNL A   1      40.222  30.245  30.623  1.00  0.00     0.167 HD
ATOM     28  C   UNL A   1      41.254  33.127  33.873  1.00  0.00     0.031 A 
ATOM     29  C   UNL A   1      40.448  27.906  29.139  1.00  0.00     0.031 A 
ATOM     30  C   UNL A   1      42.331  32.179  33.821  1.00  0.00     0.049 A 
ATOM     31  C   UNL A   1      41.663  28.023  30.020  1.00  0.00     0.074 A 
ATOM     32  C   UNL A   1      43.492  32.140  34.568  1.00  0.00     0.029 A 
ATOM     33  N   UNL A   1      42.363  31.089  32.961  1.00  0.00    -0.354 N 
ATOM     34  N   UNL A   1      41.935  28.923  30.936  1.00  0.00    -0.248 NA
ATOM     35  C   UNL A   1      42.702  27.002  29.847  1.00  0.00     0.031 C 
ATOM     36  C   UNL A   1      44.252  31.051  34.122  1.00  0.00     0.029 A 
ATOM     37  C   UNL A   1      43.534  30.378  33.142  1.00  0.00     0.049 A 
ATOM     38  H   UNL A   1      41.656  30.857  32.316  1.00  0.00     0.167 HD
ATOM     39  C   UNL A   1      43.167  28.567  31.466  1.00  0.00     0.074 A 
ATOM     40  C   UNL A   1      43.579  27.358  30.777  1.00  0.00     0.031 C 
ATOM     41  C   UNL A   1      43.897  29.178  32.432  1.00  0.00     0.031 A 
BRANCH  28  42
ATOM     42  C   UNL A   1      41.309  34.284  34.828  1.00  0.00    -0.014 A 
ATOM     43  C   UNL A   1      40.752  34.216  36.115  1.00  0.00     0.009 A 
ATOM     44  C   UNL A   1      41.860  35.500  34.392  1.00  0.00     0.009 A 
ATOM     45  C   UNL A   1      40.697  35.355  36.923  1.00  0.00     0.001 A 
ATOM     46  C   UNL A   1      41.829  36.629  35.213  1.00  0.00     0.001 A 
ATOM     47  C   UNL A   1      41.233  36.560  36.471  1.00  0.00     0.000 A 
ENDBRANCH  28  42
BRANCH  29  48
ATOM     48  C   UNL A   1      40.275  26.772  28.193  1.00  0.00    -0.014 A 
ATOM     49  C   UNL A   1      39.583  25.613  28.574  1.00  0.00     0.009 A 
ATOM     50  C   UNL A   1      40.805  26.844  26.893  1.00  0.00     0.009 A 
ATOM     51  C   UNL A   1      39.439  24.546  27.680  1.00  0.00     0.001 A 
ATOM     52  C   UNL A   1      40.634  25.791  25.993  1.00  0.00     0.001 A 
ATOM     53  C   UNL A   1      39.958  24.638  26.389  1.00  0.00     0.000 A 
ENDBRANCH  29  48
BRANCH  41  54
ATOM     54  C   UNL A   1      45.186  28.517  32.823  1.00  0.00    -0.014 A 
ATOM     55  C   UNL A   1      45.230  27.546  33.834  1.00  0.00     0.009 A 
ATOM     56  C   UNL A   1      46.362  28.842  32.130  1.00  0.00     0.009 A 
ATOM     57  C   UNL A   1      46.440  26.935  34.166  1.00  0.00     0.001 A 
ATOM     58  C   UNL A   1      47.563  28.207  32.443  1.00  0.00     0.001 A 
ATOM     59  C   UNL A   1      47.603  27.263  33.467  1.00  0.00     0.000 A 
ENDBRANCH  41  54
ENDBRANCH  15  16
ENDBRANCH   8  10
ENDBRANCH   7   8
ENDBRANCH   6   7
ENDBRANCH   5   6
ENDBRANCH   4   5
ENDBRANCH   3   4
ENDBRANCH   2   3
ENDBRANCH   1   2
BRANCH   1  60
ATOM     60  C   UNL A   1      30.641  25.917  25.938  1.00  0.00     0.188 C 
BRANCH  60  61
ATOM     61  C   UNL A   1      30.935  24.410  26.084  1.00  0.00     0.188 C 
BRANCH  61  62
ATOM     62  O   UNL A   1      31.643  24.093  27.271  1.00  0.00    -0.376 OA
BRANCH  62  63
ATOM     63  C   UNL A   1      32.050  22.742  27.441  1.00  0.00     0.202 C 
BRANCH  63  64
ATOM     64  C   UNL A   1      33.544  22.406  27.619  1.00  0.00     0.261 C 
BRANCH  64  65
ATOM     65  O   UNL A   1      34.430  22.799  26.566  1.00  0.00    -0.458 OA
BRANCH  65  66
ATOM     66  C   UNL A   1      34.832  21.874  25.659  1.00  0.00     0.358 C 
ATOM     67  O   UNL A   1      35.796  21.135  25.752  1.00  0.00    -0.244 OA
BRANCH  66  68
ATOM     68  C   UNL A   1      33.779  21.827  24.614  1.00  0.00     0.169 A 
ATOM     69  C   UNL A   1      33.134  20.628  24.354  1.00  0.00     0.147 A 
ATOM     70  N   UNL A   1      33.637  22.935  23.823  1.00  0.00    -0.220 NA
ATOM     71  N   UNL A   1      32.290  20.480  23.306  1.00  0.00    -0.258 NA
ATOM     72  C   UNL A   1      32.835  22.788  22.742  1.00  0.00     0.149 A 
ATOM     73  C   UNL A   1      32.173  21.573  22.509  1.00  0.00     0.158 A 
BRANCH  72  74
ATOM     74  N   UNL A   1      32.760  23.852  21.837  1.00  0.00    -0.338 N 
ATOM     75  H   UNL A   1      32.848  23.629  20.883  1.00  0.00     0.168 HD
BRANCH  74  76
ATOM     76  C   UNL A   1      32.573  25.203  22.150  1.00  0.00     0.058 A 
ATOM     77  C   UNL A   1      31.289  25.742  22.242  1.00  0.00     0.029 A 
ATOM     78  C   UNL A   1      33.636  26.050  22.452  1.00  0.00     0.137 A 
ATOM     79  C   UNL A   1      31.118  27.090  22.544  1.00  0.00     0.022 A 
ATOM     80  N   UNL A   1      33.504  27.367  22.747  1.00  0.00    -0.263 NA
ATOM     81  C   UNL A   1      32.246  27.859  22.773  1.00  0.00     0.111 A 
ENDBRANCH  74  76
ENDBRANCH  72  74
ENDBRANCH  66  68
ENDBRANCH  65  66
ENDBRANCH  64  65
ENDBRANCH  63  64
ENDBRANCH  62  63
ENDBRANCH  61  62
ENDBRANCH  60  61
ENDBRANCH   1  60
TORSDOF 22
ENDMDL
MODEL 2
REMARK VINA RESULT:      -9.1      2.010      3.112
REMARK SMILES O=C(OCCOCCOCCOCCOC(=O)c1cncc(Nc2cccnc2)n1)c1ccc(-c2c3nc(c(-c4ccccc4)c4ccc([nH]4)c(-c4ccccc4)c4nc(c(-c5ccccc5)c5ccc2[nH]5)C=C4)C=C3)cc1
REMARK SMILES IDX 9 1 8 2 7 3 6 4 5 5 4 6 3 7 2 8 1 9 31 10 32 11 78 12 33 13
REMARK SMILES IDX 77 14 34 15 35 16 36 17 71 18 37 19 76 20 70 21 72 22 38 23
REMARK SMILES IDX 75 24 69 25 68 26 39 28 61 29 46 30 60 31 47 32 50 33 59 34
REMARK SMILES IDX 73 35 48 36 49 37 58 39 74 40 51 41 40 42 41 43 45 44 42 45
REMARK SMILES IDX 44 46 43 47 62 48 63 49 67 50 64 51 66 52 65 53 52 54 53 55
REMARK SMILES IDX 57 56 54 57 56 58 55 59 10 60 11 61 12 62 13 63 14 64 15 65
REMARK SMILES IDX 16 66 17 67 18 68 19 69 30 70 20 71 22 72 21 73 23 74 24 76
REMARK SMILES IDX 25 77 29 78 26 79 28 80 27 81
REMARK H PARENT 72 27 50 38 23 75
REMARK Flexibility Score: inf
ROOT
ATOM      1  O   UNL A   1      31.495  26.369  26.836  1.00  0.00    -0.377 OA
ENDROOT
BRANCH   1   2
ATOM      2  C   UNL A   1      31.418  27.656  27.454  1.00  0.00     0.188 C 
BRANCH   2   3
ATOM      3  C   UNL A   1      32.142  28.781  26.712  1.00  0.00     0.188 C 
BRANCH   3   4
ATOM      4  O   UNL A   1      32.353  29.908  27.571  1.00  0.00    -0.376 OA
BRANCH   4   5
ATOM      5  C   UNL A   1      32.777  31.103  26.912  1.00  0.00     0.202 C 
BRANCH   5   6
ATOM      6  C   UNL A   1      31.881  32.317  27.166  1.00  0.00     0.261 C 
BRANCH   6   7
ATOM      7  O   UNL A   1      32.618  33.549  27.162  1.00  0.00    -0.460 OA
BRANCH   7   8
ATOM      8  C   UNL A   1      33.128  34.215  28.228  1.00  0.00     0.338 C 
ATOM      9  O   UNL A   1      32.488  35.161  28.686  1.00  0.00    -0.246 OA
BRANCH   8  10
ATOM     10  C   UNL A   1      34.409  33.850  28.912  1.00  0.00     0.060 A 
ATOM     11  C   UNL A   1      35.682  34.289  28.546  1.00  0.00     0.016 A 
ATOM     12  C   UNL A   1      34.306  33.023  30.046  1.00  0.00     0.016 A 
ATOM     13  C   UNL A   1      36.824  33.839  29.193  1.00  0.00     0.010 A 
ATOM     14  C   UNL A   1      35.447  32.589  30.728  1.00  0.00     0.010 A 
ATOM     15  C   UNL A   1      36.712  32.956  30.260  1.00  0.00    -0.014 A 
BRANCH  15  16
ATOM     16  C   UNL A   1      37.935  32.260  30.691  1.00  0.00     0.031 A 
ATOM     17  C   UNL A   1      38.585  32.732  31.959  1.00  0.00     0.074 A 
ATOM     18  C   UNL A   1      38.334  31.138  30.070  1.00  0.00     0.049 A 
ATOM     19  N   UNL A   1      39.661  32.296  32.554  1.00  0.00    -0.248 NA
ATOM     20  C   UNL A   1      37.914  33.841  32.663  1.00  0.00     0.031 C 
ATOM     21  C   UNL A   1      37.654  30.516  28.931  1.00  0.00     0.029 A 
ATOM     22  N   UNL A   1      39.375  30.295  30.341  1.00  0.00    -0.354 N 
ATOM     23  C   UNL A   1      39.818  33.103  33.674  1.00  0.00     0.074 A 
ATOM     24  C   UNL A   1      38.730  34.052  33.680  1.00  0.00     0.031 C 
ATOM     25  C   UNL A   1      38.281  29.368  28.623  1.00  0.00     0.029 A 
ATOM     26  C   UNL A   1      39.439  29.214  29.497  1.00  0.00     0.049 A 
ATOM     27  H   UNL A   1      40.018  30.449  31.071  1.00  0.00     0.167 HD
ATOM     28  C   UNL A   1      40.797  33.061  34.606  1.00  0.00     0.031 A 
ATOM     29  C   UNL A   1      40.353  28.229  29.433  1.00  0.00     0.031 A 
ATOM     30  C   UNL A   1      41.871  32.109  34.568  1.00  0.00     0.049 A 
ATOM     31  C   UNL A   1      41.494  28.265  30.415  1.00  0.00     0.074 A 
ATOM     32  C   UNL A   1      42.968  32.001  35.400  1.00  0.00     0.029 A 
ATOM     33  N   UNL A   1      41.968  31.088  33.631  1.00  0.00    -0.354 N 
ATOM     34  N   UNL A   1      41.695  29.088  31.417  1.00  0.00    -0.248 NA
ATOM     35  C   UNL A   1      42.539  27.249  30.247  1.00  0.00     0.031 C 
ATOM     36  C   UNL A   1      43.756  30.942  34.933  1.00  0.00     0.029 A 
ATOM     37  C   UNL A   1      43.118  30.354  33.849  1.00  0.00     0.049 A 
ATOM     38  H   UNL A   1      41.314  30.913  32.916  1.00  0.00     0.167 HD
ATOM     39  C   UNL A   1      42.879  28.680  32.014  1.00  0.00     0.074 A 
ATOM     40  C   UNL A   1      43.340  27.524  31.269  1.00  0.00     0.031 C 
ATOM     41  C   UNL A   1      43.532  29.207  33.080  1.00  0.00     0.031 A 
BRANCH  28  42
ATOM     42  C   UNL A   1      40.780  34.141  35.649  1.00  0.00    -0.014 A 
ATOM     43  C   UNL A   1      40.343  33.902  36.963  1.00  0.00     0.009 A 
ATOM     44  C   UNL A   1      41.131  35.449  35.280  1.00  0.00     0.009 A 
ATOM     45  C   UNL A   1      40.207  34.960  37.866  1.00  0.00     0.001 A 
ATOM     46  C   UNL A   1      41.021  36.500  36.193  1.00  0.00     0.001 A 
ATOM     47  C   UNL A   1      40.544  36.257  37.480  1.00  0.00     0.000 A 
ENDBRANCH  28  42
BRANCH  29  48
ATOM     48  C   UNL A   1      40.253  27.172  28.391  1.00  0.00    -0.014 A 
ATOM     49  C   UNL A   1      40.838  27.344  27.129  1.00  0.00     0.009 A 
ATOM     50  C   UNL A   1      39.564  25.976  28.657  1.00  0.00     0.009 A 
ATOM     51  C   UNL A   1      40.725  26.348  26.152  1.00  0.00     0.001 A 
ATOM     52  C   UNL A   1      39.478  24.971  27.691  1.00  0.00     0.001 A 
ATOM     53  C   UNL A   1      40.051  25.161  26.436  1.00  0.00     0.000 A 
ENDBRANCH  29  48
BRANCH  41  54
ATOM     54  C   UNL A   1      44.782  28.506  33.520  1.00  0.00    -0.014 A 
ATOM     55  C   UNL A   1      44.738  27.445  34.438  1.00  0.00     0.009 A 
ATOM     56  C   UNL A   1      46.014  28.885  32.967  1.00  0.00     0.009 A 
ATOM     57  C   UNL A   1      45.915  26.799  34.817  1.00  0.00     0.001 A 
ATOM     58  C   UNL A   1      47.184  28.217  33.325  1.00  0.00     0.001 A 
ATOM     59  C   UNL A   1      47.135  27.182  34.257  1.00  0.00     0.000 A 
ENDBRANCH  41  54
ENDBRANCH  15  16
ENDBRANCH   8  10
ENDBRANCH   7   8
ENDBRANCH   6   7
ENDBRANCH   5   6
ENDBRANCH   4   5
ENDBRANCH   3   4
ENDBRANCH   2   3
ENDBRANCH   1   2
BRANCH   1  60
ATOM     60  C   UNL A   1      30.378  25.980  26.040  1.00  0.00     0.188 C 
BRANCH  60  61
ATOM     61  C   UNL A   1      30.655  25.251  24.709  1.00  0.00     0.188 C 
BRANCH  61  62
ATOM     62  O   UNL A   1      31.990  24.790  24.593  1.00  0.00    -0.376 OA
BRANCH  62  63
ATOM     63  C   UNL A   1      32.197  23.577  23.881  1.00  0.00     0.202 C 
BRANCH  63  64
ATOM     64  C   UNL A   1      32.852  23.607  22.486  1.00  0.00     0.261 C 
BRANCH  64  65
ATOM     65  O   UNL A   1      33.568  24.794  22.128  1.00  0.00    -0.458 OA
BRANCH  65  66
ATOM     66  C   UNL A   1      33.072  25.598  21.155  1.00  0.00     0.358 C 
ATOM     67  O   UNL A   1      32.840  25.284  20.001  1.00  0.00    -0.244 OA
BRANCH  66  68
ATOM     68  C   UNL A   1      32.718  26.881  21.811  1.00  0.00     0.169 A 
ATOM     69  C   UNL A   1      33.662  27.526  22.595  1.00  0.00     0.147 A 
ATOM     70  N   UNL A   1      31.404  27.263  21.764  1.00  0.00    -0.220 NA
ATOM     71  N   UNL A   1      33.352  28.604  23.352  1.00  0.00    -0.258 NA
ATOM     72  C   UNL A   1      31.067  28.309  22.555  1.00  0.00     0.149 A 
ATOM     73  C   UNL A   1      32.042  28.962  23.323  1.00  0.00     0.158 A 
BRANCH  72  74
ATOM     74  N   UNL A   1      29.713  28.654  22.636  1.00  0.00    -0.338 N 
ATOM     75  H   UNL A   1      29.081  27.924  22.828  1.00  0.00     0.168 HD
BRANCH  74  76
ATOM     76  C   UNL A   1      29.166  29.932  22.473  1.00  0.00     0.058 A 
ATOM     77  C   UNL A   1      28.641  30.329  21.242  1.00  0.00     0.029 A 
ATOM     78  C   UNL A   1      29.051  30.832  23.528  1.00  0.00     0.137 A 
ATOM     79  C   UNL A   1      28.109  31.606  21.090  1.00  0.00     0.022 A 
ATOM     80  N   UNL A   1      28.542  32.084  23.413  1.00  0.00    -0.263 NA
ATOM     81  C   UNL A   1      28.095  32.445  22.191  1.00  0.00     0.111 A 
ENDBRANCH  74  76
ENDBRANCH  72  74
ENDBRANCH  66  68
ENDBRANCH  65  66
ENDBRANCH  64  65
ENDBRANCH  63  64
ENDBRANCH  62  63
ENDBRANCH  61  62
ENDBRANCH  60  61
ENDBRANCH   1  60
TORSDOF 22
ENDMDL
MODEL 3
REMARK VINA RESULT:      -8.9      1.399      3.077
REMARK SMILES O=C(OCCOCCOCCOCCOC(=O)c1cncc(Nc2cccnc2)n1)c1ccc(-c2c3nc(c(-c4ccccc4)c4ccc([nH]4)c(-c4ccccc4)c4nc(c(-c5ccccc5)c5ccc2[nH]5)C=C4)C=C3)cc1
REMARK SMILES IDX 9 1 8 2 7 3 6 4 5 5 4 6 3 7 2 8 1 9 31 10 32 11 78 12 33 13
REMARK SMILES IDX 77 14 34 15 35 16 36 17 71 18 37 19 76 20 70 21 72 22 38 23
REMARK SMILES IDX 75 24 69 25 68 26 39 28 61 29 46 30 60 31 47 32 50 33 59 34
REMARK SMILES IDX 73 35 48 36 49 37 58 39 74 40 51 41 40 42 41 43 45 44 42 45
REMARK SMILES IDX 44 46 43 47 62 48 63 49 67 50 64 51 66 52 65 53 52 54 53 55
REMARK SMILES IDX 57 56 54 57 56 58 55 59 10 60 11 61 12 62 13 63 14 64 15 65
REMARK SMILES IDX 16 66 17 67 18 68 19 69 30 70 20 71 22 72 21 73 23 74 24 76
REMARK SMILES IDX 25 77 29 78 26 79 28 80 27 81
REMARK H PARENT 72 27 50 38 23 75
REMARK Flexibility Score: inf
ROOT
ATOM      1  O   UNL A   1      32.406  26.008  26.227  1.00  0.00    -0.377 OA
ENDROOT
BRANCH   1   2
ATOM      2  C   UNL A   1      32.556  27.263  26.895  1.00  0.00     0.188 C 
BRANCH   2   3
ATOM      3  C   UNL A   1      31.861  28.449  26.223  1.00  0.00     0.188 C 
BRANCH   3   4
ATOM      4  O   UNL A   1      31.968  29.629  27.027  1.00  0.00    -0.376 OA
BRANCH   4   5
ATOM      5  C   UNL A   1      31.885  30.862  26.310  1.00  0.00     0.202 C 
BRANCH   5   6
ATOM      6  C   UNL A   1      31.512  32.070  27.170  1.00  0.00     0.261 C 
BRANCH   6   7
ATOM      7  O   UNL A   1      32.425  33.164  27.001  1.00  0.00    -0.460 OA
BRANCH   7   8
ATOM      8  C   UNL A   1      32.989  33.934  27.966  1.00  0.00     0.338 C 
ATOM      9  O   UNL A   1      32.388  34.943  28.332  1.00  0.00    -0.246 OA
BRANCH   8  10
ATOM     10  C   UNL A   1      34.283  33.612  28.648  1.00  0.00     0.060 A 
ATOM     11  C   UNL A   1      35.549  34.019  28.225  1.00  0.00     0.016 A 
ATOM     12  C   UNL A   1      34.201  32.869  29.840  1.00  0.00     0.016 A 
ATOM     13  C   UNL A   1      36.703  33.611  28.878  1.00  0.00     0.010 A 
ATOM     14  C   UNL A   1      35.355  32.479  30.527  1.00  0.00     0.010 A 
ATOM     15  C   UNL A   1      36.611  32.807  30.008  1.00  0.00    -0.014 A 
BRANCH  15  16
ATOM     16  C   UNL A   1      37.842  32.139  30.461  1.00  0.00     0.031 A 
ATOM     17  C   UNL A   1      38.475  32.645  31.724  1.00  0.00     0.074 A 
ATOM     18  C   UNL A   1      38.262  31.011  29.865  1.00  0.00     0.049 A 
ATOM     19  N   UNL A   1      39.553  32.237  32.336  1.00  0.00    -0.248 NA
ATOM     20  C   UNL A   1      37.781  33.756  32.401  1.00  0.00     0.031 C 
ATOM     21  C   UNL A   1      37.601  30.357  28.733  1.00  0.00     0.029 A 
ATOM     22  N   UNL A   1      39.314  30.189  30.160  1.00  0.00    -0.354 N 
ATOM     23  C   UNL A   1      39.688  33.068  33.441  1.00  0.00     0.074 A 
ATOM     24  C   UNL A   1      38.586  34.000  33.421  1.00  0.00     0.031 C 
ATOM     25  C   UNL A   1      38.247  29.212  28.453  1.00  0.00     0.029 A 
ATOM     26  C   UNL A   1      39.401  29.093  29.339  1.00  0.00     0.049 A 
ATOM     27  H   UNL A   1      39.949  30.367  30.892  1.00  0.00     0.167 HD
ATOM     28  C   UNL A   1      40.661  33.059  34.381  1.00  0.00     0.031 A 
ATOM     29  C   UNL A   1      40.330  28.121  29.301  1.00  0.00     0.031 A 
ATOM     30  C   UNL A   1      41.749  32.123  34.370  1.00  0.00     0.049 A 
ATOM     31  C   UNL A   1      41.462  28.194  30.290  1.00  0.00     0.074 A 
ATOM     32  C   UNL A   1      42.841  32.048  35.211  1.00  0.00     0.029 A 
ATOM     33  N   UNL A   1      41.869  31.086  33.454  1.00  0.00    -0.354 N 
ATOM     34  N   UNL A   1      41.643  29.039  31.277  1.00  0.00    -0.248 NA
ATOM     35  C   UNL A   1      42.524  27.190  30.150  1.00  0.00     0.031 C 
ATOM     36  C   UNL A   1      43.649  30.992  34.772  1.00  0.00     0.029 A 
ATOM     37  C   UNL A   1      43.028  30.374  33.695  1.00  0.00     0.049 A 
ATOM     38  H   UNL A   1      41.223  30.887  32.737  1.00  0.00     0.167 HD
ATOM     39  C   UNL A   1      42.828  28.661  31.891  1.00  0.00     0.074 A 
ATOM     40  C   UNL A   1      43.313  27.497  31.172  1.00  0.00     0.031 C 
ATOM     41  C   UNL A   1      43.465  29.219  32.951  1.00  0.00     0.031 A 
BRANCH  28  42
ATOM     42  C   UNL A   1      40.619  34.159  35.403  1.00  0.00    -0.014 A 
ATOM     43  C   UNL A   1      39.953  34.011  36.631  1.00  0.00     0.009 A 
ATOM     44  C   UNL A   1      41.190  35.402  35.088  1.00  0.00     0.009 A 
ATOM     45  C   UNL A   1      39.814  35.101  37.495  1.00  0.00     0.001 A 
ATOM     46  C   UNL A   1      41.075  36.481  35.967  1.00  0.00     0.001 A 
ATOM     47  C   UNL A   1      40.373  36.334  37.162  1.00  0.00     0.000 A 
ENDBRANCH  28  42
BRANCH  29  48
ATOM     48  C   UNL A   1      40.253  27.042  28.279  1.00  0.00    -0.014 A 
ATOM     49  C   UNL A   1      39.586  25.839  28.548  1.00  0.00     0.009 A 
ATOM     50  C   UNL A   1      40.852  27.214  27.019  1.00  0.00     0.009 A 
ATOM     51  C   UNL A   1      39.532  24.826  27.584  1.00  0.00     0.001 A 
ATOM     52  C   UNL A   1      40.772  26.214  26.048  1.00  0.00     0.001 A 
ATOM     53  C   UNL A   1      40.120  25.017  26.333  1.00  0.00     0.000 A 
ENDBRANCH  29  48
BRANCH  41  54
ATOM     54  C   UNL A   1      44.723  28.545  33.414  1.00  0.00    -0.014 A 
ATOM     55  C   UNL A   1      45.986  29.072  33.109  1.00  0.00     0.009 A 
ATOM     56  C   UNL A   1      44.632  27.393  34.210  1.00  0.00     0.009 A 
ATOM     57  C   UNL A   1      47.140  28.435  33.568  1.00  0.00     0.001 A 
ATOM     58  C   UNL A   1      45.786  26.777  34.692  1.00  0.00     0.001 A 
ATOM     59  C   UNL A   1      47.038  27.292  34.362  1.00  0.00     0.000 A 
ENDBRANCH  41  54
ENDBRANCH  15  16
ENDBRANCH   8  10
ENDBRANCH   7   8
ENDBRANCH   6   7
ENDBRANCH   5   6
ENDBRANCH   4   5
ENDBRANCH   3   4
ENDBRANCH   2   3
ENDBRANCH   1   2
BRANCH   1  60
ATOM     60  C   UNL A   1      31.283  25.218  26.609  1.00  0.00     0.188 C 
BRANCH  60  61
ATOM     61  C   UNL A   1      30.016  25.285  25.731  1.00  0.00     0.188 C 
BRANCH  61  62
ATOM     62  O   UNL A   1      30.272  25.756  24.418  1.00  0.00    -0.376 OA
BRANCH  62  63
ATOM     63  C   UNL A   1      29.399  26.753  23.906  1.00  0.00     0.202 C 
BRANCH  63  64
ATOM     64  C   UNL A   1      29.948  27.852  22.975  1.00  0.00     0.261 C 
BRANCH  64  65
ATOM     65  O   UNL A   1      30.963  27.468  22.042  1.00  0.00    -0.458 OA
BRANCH  65  66
ATOM     66  C   UNL A   1      32.264  27.704  22.346  1.00  0.00     0.358 C 
ATOM     67  O   UNL A   1      32.749  28.767  22.690  1.00  0.00    -0.244 OA
BRANCH  66  68
ATOM     68  C   UNL A   1      32.943  26.385  22.332  1.00  0.00     0.169 A 
ATOM     69  C   UNL A   1      32.715  25.514  21.278  1.00  0.00     0.147 A 
ATOM     70  N   UNL A   1      33.613  26.017  23.469  1.00  0.00    -0.220 NA
ATOM     71  N   UNL A   1      33.167  24.238  21.289  1.00  0.00    -0.258 NA
ATOM     72  C   UNL A   1      34.028  24.730  23.517  1.00  0.00     0.149 A 
ATOM     73  C   UNL A   1      33.807  23.871  22.429  1.00  0.00     0.158 A 
BRANCH  72  74
ATOM     74  N   UNL A   1      34.604  24.275  24.708  1.00  0.00    -0.338 N 
ATOM     75  H   UNL A   1      34.357  24.755  25.531  1.00  0.00     0.168 HD
BRANCH  74  76
ATOM     76  C   UNL A   1      35.497  23.206  24.849  1.00  0.00     0.058 A 
ATOM     77  C   UNL A   1      35.041  21.888  24.817  1.00  0.00     0.029 A 
ATOM     78  C   UNL A   1      36.873  23.396  24.954  1.00  0.00     0.137 A 
ATOM     79  C   UNL A   1      35.939  20.835  24.969  1.00  0.00     0.022 A 
ATOM     80  N   UNL A   1      37.773  22.393  25.106  1.00  0.00    -0.263 NA
ATOM     81  C   UNL A   1      37.281  21.135  25.123  1.00  0.00     0.111 A 
ENDBRANCH  74  76
ENDBRANCH  72  74
ENDBRANCH  66  68
ENDBRANCH  65  66
ENDBRANCH  64  65
ENDBRANCH  63  64
ENDBRANCH  62  63
ENDBRANCH  61  62
ENDBRANCH  60  61
ENDBRANCH   1  60
TORSDOF 22
ENDMDL
