MODEL 1
REMARK VINA RESULT:      -9.9      0.000      0.000
REMARK SMILES O=C(OCCOCCOCCOCCOC(=O)[C@@H]1CN(Cc2ccccc2)c2ccccc2O1)c1ccc(-c2c3nc(c(-c4ccccc4)c4ccc([nH]4)c(-c4ccccc4)c4nc(c(-c5ccccc5)c5ccc2[nH]5)C=C4)C=C3)cc1
REMARK SMILES IDX 9 1 8 2 7 3 6 4 5 5 4 6 3 7 2 8 1 9 35 10 36 11 82 12 37 13
REMARK SMILES IDX 81 14 38 15 39 16 40 17 75 18 41 19 80 20 74 21 76 22 42 23
REMARK SMILES IDX 79 24 73 25 72 26 43 28 65 29 50 30 64 31 51 32 54 33 63 34
REMARK SMILES IDX 77 35 52 36 53 37 62 39 78 40 55 41 44 42 45 43 49 44 46 45
REMARK SMILES IDX 48 46 47 47 66 48 67 49 71 50 68 51 70 52 69 53 56 54 57 55
REMARK SMILES IDX 61 56 58 57 60 58 59 59 10 60 11 61 12 62 13 63 14 64 15 65
REMARK SMILES IDX 16 66 17 67 18 68 19 69 34 70 20 71 33 72 28 73 32 74 29 75
REMARK SMILES IDX 31 76 30 77 21 78 22 79 23 80 27 81 24 82 26 83 25 84
REMARK H PARENT 76 27 54 38
REMARK Flexibility Score: inf
ROOT
ATOM      1  O   UNL A   1      35.690  32.321  28.159  1.00  0.00    -0.377 OA
ENDROOT
BRANCH   1   2
ATOM      2  C   UNL A   1      35.263  33.649  27.851  1.00  0.00     0.188 C 
BRANCH   2   3
ATOM      3  C   UNL A   1      34.388  34.301  28.922  1.00  0.00     0.188 C 
BRANCH   3   4
ATOM      4  O   UNL A   1      34.090  35.649  28.571  1.00  0.00    -0.376 OA
BRANCH   4   5
ATOM      5  C   UNL A   1      32.909  36.238  29.107  1.00  0.00     0.202 C 
BRANCH   5   6
ATOM      6  C   UNL A   1      33.138  37.267  30.205  1.00  0.00     0.261 C 
BRANCH   6   7
ATOM      7  O   UNL A   1      32.592  36.898  31.482  1.00  0.00    -0.460 OA
BRANCH   7   8
ATOM      8  C   UNL A   1      32.631  35.710  32.127  1.00  0.00     0.338 C 
ATOM      9  O   UNL A   1      31.574  35.112  32.323  1.00  0.00    -0.246 OA
BRANCH   8  10
ATOM     10  C   UNL A   1      33.887  35.047  32.574  1.00  0.00     0.060 A 
ATOM     11  C   UNL A   1      35.148  35.636  32.577  1.00  0.00     0.016 A 
ATOM     12  C   UNL A   1      33.767  33.767  33.134  1.00  0.00     0.016 A 
ATOM     13  C   UNL A   1      36.277  34.955  32.979  1.00  0.00     0.010 A 
ATOM     14  C   UNL A   1      34.892  33.088  33.613  1.00  0.00     0.010 A 
ATOM     15  C   UNL A   1      36.156  33.672  33.490  1.00  0.00    -0.014 A 
BRANCH  15  16
ATOM     16  C   UNL A   1      37.406  32.925  33.681  1.00  0.00     0.031 A 
ATOM     17  C   UNL A   1      38.087  33.066  35.006  1.00  0.00     0.074 A 
ATOM     18  C   UNL A   1      37.777  31.999  32.778  1.00  0.00     0.049 A 
ATOM     19  N   UNL A   1      39.217  32.558  35.413  1.00  0.00    -0.248 NA
ATOM     20  C   UNL A   1      37.390  33.878  36.022  1.00  0.00     0.031 C 
ATOM     21  C   UNL A   1      37.045  31.671  31.548  1.00  0.00     0.029 A 
ATOM     22  N   UNL A   1      38.831  31.130  32.779  1.00  0.00    -0.354 N 
ATOM     23  C   UNL A   1      39.383  33.023  36.711  1.00  0.00     0.074 A 
ATOM     24  C   UNL A   1      38.249  33.857  37.027  1.00  0.00     0.031 C 
ATOM     25  C   UNL A   1      37.661  30.651  30.930  1.00  0.00     0.029 A 
ATOM     26  C   UNL A   1      38.874  30.323  31.668  1.00  0.00     0.049 A 
ATOM     27  H   UNL A   1      39.494  31.086  33.504  1.00  0.00     0.167 HD
ATOM     28  C   UNL A   1      40.405  32.771  37.557  1.00  0.00     0.031 A 
ATOM     29  C   UNL A   1      39.825  29.457  31.279  1.00  0.00     0.031 A 
ATOM     30  C   UNL A   1      41.518  31.941  37.197  1.00  0.00     0.049 A 
ATOM     31  C   UNL A   1      41.026  29.309  32.172  1.00  0.00     0.074 A 
ATOM     32  C   UNL A   1      42.678  31.685  37.900  1.00  0.00     0.029 A 
ATOM     33  N   UNL A   1      41.594  31.222  36.010  1.00  0.00    -0.354 N 
ATOM     34  N   UNL A   1      41.247  29.844  33.352  1.00  0.00    -0.248 NA
ATOM     35  C   UNL A   1      42.114  28.458  31.680  1.00  0.00     0.031 C 
ATOM     36  C   UNL A   1      43.477  30.845  37.114  1.00  0.00     0.029 A 
ATOM     37  C   UNL A   1      42.786  30.529  35.952  1.00  0.00     0.049 A 
ATOM     38  H   UNL A   1      40.899  31.209  35.311  1.00  0.00     0.167 HD
ATOM     39  C   UNL A   1      42.492  29.382  33.752  1.00  0.00     0.074 A 
ATOM     40  C   UNL A   1      42.961  28.501  32.698  1.00  0.00     0.031 C 
ATOM     41  C   UNL A   1      43.195  29.659  34.877  1.00  0.00     0.031 A 
BRANCH  28  42
ATOM     42  C   UNL A   1      40.380  33.477  38.881  1.00  0.00    -0.014 A 
ATOM     43  C   UNL A   1      39.840  32.875  40.029  1.00  0.00     0.009 A 
ATOM     44  C   UNL A   1      40.850  34.798  38.965  1.00  0.00     0.009 A 
ATOM     45  C   UNL A   1      39.734  33.596  41.222  1.00  0.00     0.001 A 
ATOM     46  C   UNL A   1      40.767  35.505  40.165  1.00  0.00     0.001 A 
ATOM     47  C   UNL A   1      40.199  34.909  41.289  1.00  0.00     0.000 A 
ENDBRANCH  28  42
BRANCH  29  48
ATOM     48  C   UNL A   1      39.734  28.758  29.966  1.00  0.00    -0.014 A 
ATOM     49  C   UNL A   1      39.290  27.431  29.874  1.00  0.00     0.009 A 
ATOM     50  C   UNL A   1      40.137  29.413  28.788  1.00  0.00     0.009 A 
ATOM     51  C   UNL A   1      39.285  26.768  28.643  1.00  0.00     0.001 A 
ATOM     52  C   UNL A   1      40.097  28.761  27.554  1.00  0.00     0.001 A 
ATOM     53  C   UNL A   1      39.685  27.433  27.485  1.00  0.00     0.000 A 
ENDBRANCH  29  48
BRANCH  41  54
ATOM     54  C   UNL A   1      44.513  28.961  35.031  1.00  0.00    -0.014 A 
ATOM     55  C   UNL A   1      45.680  29.471  34.445  1.00  0.00     0.009 A 
ATOM     56  C   UNL A   1      44.584  27.799  35.813  1.00  0.00     0.009 A 
ATOM     57  C   UNL A   1      46.894  28.804  34.611  1.00  0.00     0.001 A 
ATOM     58  C   UNL A   1      45.804  27.154  36.005  1.00  0.00     0.001 A 
ATOM     59  C   UNL A   1      46.956  27.652  35.395  1.00  0.00     0.000 A 
ENDBRANCH  41  54
ENDBRANCH  15  16
ENDBRANCH   8  10
ENDBRANCH   7   8
ENDBRANCH   6   7
ENDBRANCH   5   6
ENDBRANCH   4   5
ENDBRANCH   3   4
ENDBRANCH   2   3
ENDBRANCH   1   2
BRANCH   1  60
ATOM     60  C   UNL A   1      34.656  31.379  28.410  1.00  0.00     0.188 C 
BRANCH  60  61
ATOM     61  C   UNL A   1      34.570  30.095  27.546  1.00  0.00     0.188 C 
BRANCH  61  62
ATOM     62  O   UNL A   1      33.488  30.073  26.624  1.00  0.00    -0.376 OA
BRANCH  62  63
ATOM     63  C   UNL A   1      32.312  29.393  27.064  1.00  0.00     0.202 C 
BRANCH  63  64
ATOM     64  C   UNL A   1      32.310  27.855  26.974  1.00  0.00     0.261 C 
BRANCH  64  65
ATOM     65  O   UNL A   1      31.028  27.283  26.670  1.00  0.00    -0.460 OA
BRANCH  65  66
ATOM     66  C   UNL A   1      30.997  26.004  26.225  1.00  0.00     0.349 C 
ATOM     67  O   UNL A   1      31.497  25.071  26.861  1.00  0.00    -0.248 OA
BRANCH  66  68
ATOM     68  C   UNL A   1      30.208  25.907  24.900  1.00  0.00     0.301 C 
ATOM     69  C   UNL A   1      30.602  24.714  24.005  1.00  0.00     0.174 C 
ATOM     70  O   UNL A   1      30.257  27.101  24.141  1.00  0.00    -0.475 OA
ATOM     71  N   UNL A   1      31.994  24.801  23.547  1.00  0.00    -0.360 N 
ATOM     72  C   UNL A   1      31.477  27.225  23.526  1.00  0.00     0.144 A 
ATOM     73  C   UNL A   1      32.339  26.133  23.232  1.00  0.00     0.080 A 
ATOM     74  C   UNL A   1      31.815  28.555  23.278  1.00  0.00     0.049 A 
ATOM     75  C   UNL A   1      33.538  26.475  22.615  1.00  0.00     0.030 A 
ATOM     76  C   UNL A   1      33.061  28.852  22.762  1.00  0.00     0.004 A 
ATOM     77  C   UNL A   1      33.917  27.812  22.421  1.00  0.00     0.002 A 
BRANCH  71  78
ATOM     78  C   UNL A   1      32.940  23.880  24.229  1.00  0.00     0.152 C 
BRANCH  78  79
ATOM     79  C   UNL A   1      32.761  22.406  23.964  1.00  0.00    -0.029 A 
ATOM     80  C   UNL A   1      32.269  21.927  22.742  1.00  0.00     0.005 A 
ATOM     81  C   UNL A   1      33.059  21.481  24.978  1.00  0.00     0.005 A 
ATOM     82  C   UNL A   1      32.148  20.553  22.521  1.00  0.00     0.000 A 
ATOM     83  C   UNL A   1      32.988  20.112  24.739  1.00  0.00     0.000 A 
ATOM     84  C   UNL A   1      32.538  19.646  23.508  1.00  0.00     0.000 A 
ENDBRANCH  78  79
ENDBRANCH  71  78
ENDBRANCH  66  68
ENDBRANCH  65  66
ENDBRANCH  64  65
ENDBRANCH  63  64
ENDBRANCH  62  63
ENDBRANCH  61  62
ENDBRANCH  60  61
ENDBRANCH   1  60
TORSDOF 22
ENDMDL
MODEL 2
REMARK VINA RESULT:      -9.2      4.840      8.436
REMARK SMILES O=C(OCCOCCOCCOCCOC(=O)[C@@H]1CN(Cc2ccccc2)c2ccccc2O1)c1ccc(-c2c3nc(c(-c4ccccc4)c4ccc([nH]4)c(-c4ccccc4)c4nc(c(-c5ccccc5)c5ccc2[nH]5)C=C4)C=C3)cc1
REMARK SMILES IDX 9 1 8 2 7 3 6 4 5 5 4 6 3 7 2 8 1 9 35 10 36 11 82 12 37 13
REMARK SMILES IDX 81 14 38 15 39 16 40 17 75 18 41 19 80 20 74 21 76 22 42 23
REMARK SMILES IDX 79 24 73 25 72 26 43 28 65 29 50 30 64 31 51 32 54 33 63 34
REMARK SMILES IDX 77 35 52 36 53 37 62 39 78 40 55 41 44 42 45 43 49 44 46 45
REMARK SMILES IDX 48 46 47 47 66 48 67 49 71 50 68 51 70 52 69 53 56 54 57 55
REMARK SMILES IDX 61 56 58 57 60 58 59 59 10 60 11 61 12 62 13 63 14 64 15 65
REMARK SMILES IDX 16 66 17 67 18 68 19 69 34 70 20 71 33 72 28 73 32 74 29 75
REMARK SMILES IDX 31 76 30 77 21 78 22 79 23 80 27 81 24 82 26 83 25 84
REMARK H PARENT 76 27 54 38
REMARK Flexibility Score: inf
ROOT
ATOM      1  O   UNL A   1      35.173  32.404  27.581  1.00  0.00    -0.377 OA
ENDROOT
BRANCH   1   2
ATOM      2  C   UNL A   1      34.936  33.726  28.069  1.00  0.00     0.188 C 
BRANCH   2   3
ATOM      3  C   UNL A   1      35.734  34.096  29.319  1.00  0.00     0.188 C 
BRANCH   3   4
ATOM      4  O   UNL A   1      34.857  34.417  30.395  1.00  0.00    -0.376 OA
BRANCH   4   5
ATOM      5  C   UNL A   1      35.341  34.258  31.726  1.00  0.00     0.202 C 
BRANCH   5   6
ATOM      6  C   UNL A   1      36.784  33.791  31.841  1.00  0.00     0.261 C 
BRANCH   6   7
ATOM      7  O   UNL A   1      36.930  32.409  32.203  1.00  0.00    -0.460 OA
BRANCH   7   8
ATOM      8  C   UNL A   1      36.924  31.306  31.419  1.00  0.00     0.338 C 
ATOM      9  O   UNL A   1      35.841  30.830  31.082  1.00  0.00    -0.246 OA
BRANCH   8  10
ATOM     10  C   UNL A   1      38.154  30.653  30.892  1.00  0.00     0.060 A 
ATOM     11  C   UNL A   1      39.066  29.927  31.651  1.00  0.00     0.016 A 
ATOM     12  C   UNL A   1      38.347  30.688  29.503  1.00  0.00     0.016 A 
ATOM     13  C   UNL A   1      40.202  29.371  31.103  1.00  0.00     0.010 A 
ATOM     14  C   UNL A   1      39.457  30.068  28.920  1.00  0.00     0.010 A 
ATOM     15  C   UNL A   1      40.410  29.448  29.735  1.00  0.00    -0.014 A 
BRANCH  15  16
ATOM     16  C   UNL A   1      41.736  29.043  29.251  1.00  0.00     0.031 A 
ATOM     17  C   UNL A   1      41.874  27.646  28.733  1.00  0.00     0.074 A 
ATOM     18  C   UNL A   1      42.700  29.968  29.091  1.00  0.00     0.049 A 
ATOM     19  N   UNL A   1      42.936  27.028  28.297  1.00  0.00    -0.248 NA
ATOM     20  C   UNL A   1      40.641  26.838  28.680  1.00  0.00     0.031 C 
ATOM     21  C   UNL A   1      42.565  31.398  29.396  1.00  0.00     0.029 A 
ATOM     22  N   UNL A   1      43.963  29.854  28.582  1.00  0.00    -0.354 N 
ATOM     23  C   UNL A   1      42.505  25.751  27.961  1.00  0.00     0.074 A 
ATOM     24  C   UNL A   1      41.094  25.675  28.246  1.00  0.00     0.031 C 
ATOM     25  C   UNL A   1      43.695  32.030  29.040  1.00  0.00     0.029 A 
ATOM     26  C   UNL A   1      44.657  31.040  28.575  1.00  0.00     0.049 A 
ATOM     27  H   UNL A   1      44.339  29.007  28.254  1.00  0.00     0.167 HD
ATOM     28  C   UNL A   1      43.241  24.734  27.461  1.00  0.00     0.031 A 
ATOM     29  C   UNL A   1      45.946  31.273  28.274  1.00  0.00     0.031 A 
ATOM     30  C   UNL A   1      44.646  24.852  27.201  1.00  0.00     0.049 A 
ATOM     31  C   UNL A   1      46.779  30.090  27.863  1.00  0.00     0.074 A 
ATOM     32  C   UNL A   1      45.544  23.882  26.804  1.00  0.00     0.029 A 
ATOM     33  N   UNL A   1      45.355  26.042  27.314  1.00  0.00    -0.354 N 
ATOM     34  N   UNL A   1      46.403  28.847  27.660  1.00  0.00    -0.248 NA
ATOM     35  C   UNL A   1      48.211  30.330  27.657  1.00  0.00     0.031 C 
ATOM     36  C   UNL A   1      46.808  24.478  26.722  1.00  0.00     0.029 A 
ATOM     37  C   UNL A   1      46.684  25.831  27.006  1.00  0.00     0.049 A 
ATOM     38  H   UNL A   1      44.967  26.909  27.576  1.00  0.00     0.167 HD
ATOM     39  C   UNL A   1      47.547  28.159  27.285  1.00  0.00     0.074 A 
ATOM     40  C   UNL A   1      48.623  29.134  27.263  1.00  0.00     0.031 C 
ATOM     41  C   UNL A   1      47.709  26.845  26.994  1.00  0.00     0.031 A 
BRANCH  28  42
ATOM     42  C   UNL A   1      42.540  23.421  27.269  1.00  0.00    -0.014 A 
ATOM     43  C   UNL A   1      42.281  22.557  28.345  1.00  0.00     0.009 A 
ATOM     44  C   UNL A   1      42.189  23.012  25.972  1.00  0.00     0.009 A 
ATOM     45  C   UNL A   1      41.723  21.295  28.122  1.00  0.00     0.001 A 
ATOM     46  C   UNL A   1      41.607  21.762  25.755  1.00  0.00     0.001 A 
ATOM     47  C   UNL A   1      41.385  20.900  26.828  1.00  0.00     0.000 A 
ENDBRANCH  28  42
BRANCH  29  48
ATOM     48  C   UNL A   1      46.540  32.628  28.445  1.00  0.00    -0.014 A 
ATOM     49  C   UNL A   1      46.591  33.543  27.383  1.00  0.00     0.009 A 
ATOM     50  C   UNL A   1      47.104  33.001  29.678  1.00  0.00     0.009 A 
ATOM     51  C   UNL A   1      47.222  34.781  27.542  1.00  0.00     0.001 A 
ATOM     52  C   UNL A   1      47.702  34.252  29.845  1.00  0.00     0.001 A 
ATOM     53  C   UNL A   1      47.773  35.136  28.772  1.00  0.00     0.000 A 
ENDBRANCH  29  48
BRANCH  41  54
ATOM     54  C   UNL A   1      49.086  26.416  26.583  1.00  0.00    -0.014 A 
ATOM     55  C   UNL A   1      49.979  25.855  27.507  1.00  0.00     0.009 A 
ATOM     56  C   UNL A   1      49.469  26.540  25.239  1.00  0.00     0.009 A 
ATOM     57  C   UNL A   1      51.252  25.458  27.095  1.00  0.00     0.001 A 
ATOM     58  C   UNL A   1      50.728  26.110  24.825  1.00  0.00     0.001 A 
ATOM     59  C   UNL A   1      51.621  25.580  25.756  1.00  0.00     0.000 A 
ENDBRANCH  41  54
ENDBRANCH  15  16
ENDBRANCH   8  10
ENDBRANCH   7   8
ENDBRANCH   6   7
ENDBRANCH   5   6
ENDBRANCH   4   5
ENDBRANCH   3   4
ENDBRANCH   2   3
ENDBRANCH   1   2
BRANCH   1  60
ATOM     60  C   UNL A   1      34.239  31.415  27.992  1.00  0.00     0.188 C 
BRANCH  60  61
ATOM     61  C   UNL A   1      34.476  29.935  27.599  1.00  0.00     0.188 C 
BRANCH  61  62
ATOM     62  O   UNL A   1      33.533  29.409  26.674  1.00  0.00    -0.376 OA
BRANCH  62  63
ATOM     63  C   UNL A   1      32.203  29.245  27.169  1.00  0.00     0.202 C 
BRANCH  63  64
ATOM     64  C   UNL A   1      31.676  27.805  27.316  1.00  0.00     0.261 C 
BRANCH  64  65
ATOM     65  O   UNL A   1      32.038  26.931  26.236  1.00  0.00    -0.460 OA
BRANCH  65  66
ATOM     66  C   UNL A   1      31.371  25.758  26.123  1.00  0.00     0.349 C 
ATOM     67  O   UNL A   1      31.474  24.855  26.961  1.00  0.00    -0.248 OA
BRANCH  66  68
ATOM     68  C   UNL A   1      30.452  25.770  24.881  1.00  0.00     0.301 C 
ATOM     69  C   UNL A   1      30.771  24.681  23.836  1.00  0.00     0.174 C 
ATOM     70  O   UNL A   1      30.405  27.033  24.244  1.00  0.00    -0.475 OA
ATOM     71  N   UNL A   1      32.108  24.847  23.252  1.00  0.00    -0.360 N 
ATOM     72  C   UNL A   1      31.554  27.248  23.525  1.00  0.00     0.144 A 
ATOM     73  C   UNL A   1      32.398  26.212  23.039  1.00  0.00     0.080 A 
ATOM     74  C   UNL A   1      31.845  28.604  23.378  1.00  0.00     0.049 A 
ATOM     75  C   UNL A   1      33.523  26.644  22.342  1.00  0.00     0.030 A 
ATOM     76  C   UNL A   1      33.026  28.982  22.773  1.00  0.00     0.004 A 
ATOM     77  C   UNL A   1      33.860  28.002  22.246  1.00  0.00     0.002 A 
BRANCH  71  78
ATOM     78  C   UNL A   1      33.132  23.888  23.741  1.00  0.00     0.152 C 
BRANCH  78  79
ATOM     79  C   UNL A   1      32.782  22.424  23.665  1.00  0.00    -0.029 A 
ATOM     80  C   UNL A   1      32.437  21.807  22.454  1.00  0.00     0.005 A 
ATOM     81  C   UNL A   1      32.761  21.656  24.840  1.00  0.00     0.005 A 
ATOM     82  C   UNL A   1      32.149  20.440  22.417  1.00  0.00     0.000 A 
ATOM     83  C   UNL A   1      32.527  20.285  24.794  1.00  0.00     0.000 A 
ATOM     84  C   UNL A   1      32.227  19.674  23.581  1.00  0.00     0.000 A 
ENDBRANCH  78  79
ENDBRANCH  71  78
ENDBRANCH  66  68
ENDBRANCH  65  66
ENDBRANCH  64  65
ENDBRANCH  63  64
ENDBRANCH  62  63
ENDBRANCH  61  62
ENDBRANCH  60  61
ENDBRANCH   1  60
TORSDOF 22
ENDMDL
MODEL 3
REMARK VINA RESULT:      -8.6      6.006      8.946
REMARK SMILES O=C(OCCOCCOCCOCCOC(=O)[C@@H]1CN(Cc2ccccc2)c2ccccc2O1)c1ccc(-c2c3nc(c(-c4ccccc4)c4ccc([nH]4)c(-c4ccccc4)c4nc(c(-c5ccccc5)c5ccc2[nH]5)C=C4)C=C3)cc1
REMARK SMILES IDX 9 1 8 2 7 3 6 4 5 5 4 6 3 7 2 8 1 9 35 10 36 11 82 12 37 13
REMARK SMILES IDX 81 14 38 15 39 16 40 17 75 18 41 19 80 20 74 21 76 22 42 23
REMARK SMILES IDX 79 24 73 25 72 26 43 28 65 29 50 30 64 31 51 32 54 33 63 34
REMARK SMILES IDX 77 35 52 36 53 37 62 39 78 40 55 41 44 42 45 43 49 44 46 45
REMARK SMILES IDX 48 46 47 47 66 48 67 49 71 50 68 51 70 52 69 53 56 54 57 55
REMARK SMILES IDX 61 56 58 57 60 58 59 59 10 60 11 61 12 62 13 63 14 64 15 65
REMARK SMILES IDX 16 66 17 67 18 68 19 69 34 70 20 71 33 72 28 73 32 74 29 75
REMARK SMILES IDX 31 76 30 77 21 78 22 79 23 80 27 81 24 82 26 83 25 84
REMARK H PARENT 76 27 54 38
REMARK Flexibility Score: inf
ROOT
ATOM      1  O   UNL A   1      35.145  33.259  28.735  1.00  0.00    -0.377 OA
ENDROOT
BRANCH   1   2
ATOM      2  C   UNL A   1      34.800  34.139  29.806  1.00  0.00     0.188 C 
BRANCH   2   3
ATOM      3  C   UNL A   1      35.587  33.908  31.097  1.00  0.00     0.188 C 
BRANCH   3   4
ATOM      4  O   UNL A   1      34.704  33.824  32.212  1.00  0.00    -0.376 OA
BRANCH   4   5
ATOM      5  C   UNL A   1      35.104  33.035  33.328  1.00  0.00     0.202 C 
BRANCH   5   6
ATOM      6  C   UNL A   1      36.586  32.691  33.381  1.00  0.00     0.261 C 
BRANCH   6   7
ATOM      7  O   UNL A   1      36.863  31.283  33.442  1.00  0.00    -0.460 OA
BRANCH   7   8
ATOM      8  C   UNL A   1      37.559  30.502  32.584  1.00  0.00     0.338 C 
ATOM      9  O   UNL A   1      37.089  29.410  32.269  1.00  0.00    -0.246 OA
BRANCH   8  10
ATOM     10  C   UNL A   1      38.844  30.904  31.950  1.00  0.00     0.060 A 
ATOM     11  C   UNL A   1      39.957  31.392  32.629  1.00  0.00     0.016 A 
ATOM     12  C   UNL A   1      38.975  30.671  30.573  1.00  0.00     0.016 A 
ATOM     13  C   UNL A   1      41.109  31.772  31.976  1.00  0.00     0.010 A 
ATOM     14  C   UNL A   1      40.163  30.985  29.904  1.00  0.00     0.010 A 
ATOM     15  C   UNL A   1      41.214  31.582  30.607  1.00  0.00    -0.014 A 
BRANCH  15  16
ATOM     16  C   UNL A   1      42.363  32.214  29.946  1.00  0.00     0.031 A 
ATOM     17  C   UNL A   1      43.515  31.328  29.588  1.00  0.00     0.074 A 
ATOM     18  C   UNL A   1      42.265  33.479  29.500  1.00  0.00     0.049 A 
ATOM     19  N   UNL A   1      44.660  31.639  29.048  1.00  0.00    -0.248 NA
ATOM     20  C   UNL A   1      43.348  29.887  29.860  1.00  0.00     0.031 C 
ATOM     21  C   UNL A   1      41.085  34.342  29.644  1.00  0.00     0.029 A 
ATOM     22  N   UNL A   1      43.149  34.242  28.789  1.00  0.00    -0.354 N 
ATOM     23  C   UNL A   1      45.360  30.443  28.956  1.00  0.00     0.074 A 
ATOM     24  C   UNL A   1      44.523  29.402  29.499  1.00  0.00     0.031 C 
ATOM     25  C   UNL A   1      41.313  35.505  29.015  1.00  0.00     0.029 A 
ATOM     26  C   UNL A   1      42.679  35.502  28.510  1.00  0.00     0.049 A 
ATOM     27  H   UNL A   1      44.034  33.919  28.506  1.00  0.00     0.167 HD
ATOM     28  C   UNL A   1      46.602  30.246  28.462  1.00  0.00     0.031 A 
ATOM     29  C   UNL A   1      43.318  36.546  27.953  1.00  0.00     0.031 A 
ATOM     30  C   UNL A   1      47.403  31.314  27.939  1.00  0.00     0.049 A 
ATOM     31  C   UNL A   1      44.751  36.338  27.549  1.00  0.00     0.074 A 
ATOM     32  C   UNL A   1      48.715  31.290  27.510  1.00  0.00     0.029 A 
ATOM     33  N   UNL A   1      46.944  32.616  27.773  1.00  0.00    -0.354 N 
ATOM     34  N   UNL A   1      45.463  35.233  27.573  1.00  0.00    -0.248 NA
ATOM     35  C   UNL A   1      45.477  37.514  27.059  1.00  0.00     0.031 C 
ATOM     36  C   UNL A   1      49.062  32.592  27.127  1.00  0.00     0.029 A 
ATOM     37  C   UNL A   1      47.948  33.409  27.259  1.00  0.00     0.049 A 
ATOM     38  H   UNL A   1      46.034  32.926  27.992  1.00  0.00     0.167 HD
ATOM     39  C   UNL A   1      46.715  35.576  27.086  1.00  0.00     0.074 A 
ATOM     40  C   UNL A   1      46.652  36.987  26.749  1.00  0.00     0.031 C 
ATOM     41  C   UNL A   1      47.823  34.809  26.936  1.00  0.00     0.031 A 
BRANCH  28  42
ATOM     42  C   UNL A   1      47.160  28.857  28.564  1.00  0.00    -0.014 A 
ATOM     43  C   UNL A   1      47.871  28.427  29.697  1.00  0.00     0.009 A 
ATOM     44  C   UNL A   1      47.026  27.980  27.476  1.00  0.00     0.009 A 
ATOM     45  C   UNL A   1      48.470  27.166  29.720  1.00  0.00     0.001 A 
ATOM     46  C   UNL A   1      47.602  26.709  27.513  1.00  0.00     0.001 A 
ATOM     47  C   UNL A   1      48.334  26.307  28.629  1.00  0.00     0.000 A 
ENDBRANCH  28  42
BRANCH  29  48
ATOM     48  C   UNL A   1      42.659  37.878  27.844  1.00  0.00    -0.014 A 
ATOM     49  C   UNL A   1      41.966  38.257  26.685  1.00  0.00     0.009 A 
ATOM     50  C   UNL A   1      42.758  38.803  28.899  1.00  0.00     0.009 A 
ATOM     51  C   UNL A   1      41.420  39.540  26.573  1.00  0.00     0.001 A 
ATOM     52  C   UNL A   1      42.181  40.071  28.799  1.00  0.00     0.001 A 
ATOM     53  C   UNL A   1      41.525  40.444  27.629  1.00  0.00     0.000 A 
ENDBRANCH  29  48
BRANCH  41  54
ATOM     54  C   UNL A   1      49.024  35.480  26.339  1.00  0.00    -0.014 A 
ATOM     55  C   UNL A   1      49.201  35.556  24.951  1.00  0.00     0.009 A 
ATOM     56  C   UNL A   1      49.965  36.080  27.189  1.00  0.00     0.009 A 
ATOM     57  C   UNL A   1      50.324  36.192  24.423  1.00  0.00     0.001 A 
ATOM     58  C   UNL A   1      51.068  36.746  26.657  1.00  0.00     0.001 A 
ATOM     59  C   UNL A   1      51.252  36.791  25.276  1.00  0.00     0.000 A 
ENDBRANCH  41  54
ENDBRANCH  15  16
ENDBRANCH   8  10
ENDBRANCH   7   8
ENDBRANCH   6   7
ENDBRANCH   5   6
ENDBRANCH   4   5
ENDBRANCH   3   4
ENDBRANCH   2   3
ENDBRANCH   1   2
BRANCH   1  60
ATOM     60  C   UNL A   1      34.185  32.258  28.421  1.00  0.00     0.188 C 
BRANCH  60  61
ATOM     61  C   UNL A   1      34.665  30.884  27.888  1.00  0.00     0.188 C 
BRANCH  61  62
ATOM     62  O   UNL A   1      33.869  30.343  26.843  1.00  0.00    -0.376 OA
BRANCH  62  63
ATOM     63  C   UNL A   1      32.465  30.278  27.101  1.00  0.00     0.202 C 
BRANCH  63  64
ATOM     64  C   UNL A   1      31.852  28.883  27.327  1.00  0.00     0.261 C 
BRANCH  64  65
ATOM     65  O   UNL A   1      32.792  27.802  27.230  1.00  0.00    -0.460 OA
BRANCH  65  66
ATOM     66  C   UNL A   1      32.594  26.878  26.259  1.00  0.00     0.349 C 
ATOM     67  O   UNL A   1      31.835  25.915  26.410  1.00  0.00    -0.248 OA
BRANCH  66  68
ATOM     68  C   UNL A   1      33.373  27.255  24.979  1.00  0.00     0.301 C 
ATOM     69  C   UNL A   1      32.488  27.692  23.795  1.00  0.00     0.174 C 
ATOM     70  O   UNL A   1      34.258  26.235  24.554  1.00  0.00    -0.475 OA
ATOM     71  N   UNL A   1      31.607  26.612  23.332  1.00  0.00    -0.360 N 
ATOM     72  C   UNL A   1      33.559  25.218  23.955  1.00  0.00     0.144 A 
ATOM     73  C   UNL A   1      32.276  25.370  23.362  1.00  0.00     0.080 A 
ATOM     74  C   UNL A   1      34.218  23.992  24.048  1.00  0.00     0.049 A 
ATOM     75  C   UNL A   1      31.734  24.209  22.817  1.00  0.00     0.030 A 
ATOM     76  C   UNL A   1      33.594  22.850  23.588  1.00  0.00     0.004 A 
ATOM     77  C   UNL A   1      32.357  22.961  22.965  1.00  0.00     0.002 A 
BRANCH  71  78
ATOM     78  C   UNL A   1      30.181  26.752  23.724  1.00  0.00     0.152 C 
BRANCH  78  79
ATOM     79  C   UNL A   1      29.442  27.950  23.181  1.00  0.00    -0.029 A 
ATOM     80  C   UNL A   1      30.099  28.970  22.479  1.00  0.00     0.005 A 
ATOM     81  C   UNL A   1      28.063  28.073  23.413  1.00  0.00     0.005 A 
ATOM     82  C   UNL A   1      29.377  30.049  21.963  1.00  0.00     0.000 A 
ATOM     83  C   UNL A   1      27.336  29.120  22.853  1.00  0.00     0.000 A 
ATOM     84  C   UNL A   1      27.992  30.106  22.122  1.00  0.00     0.000 A 
ENDBRANCH  78  79
ENDBRANCH  71  78
ENDBRANCH  66  68
ENDBRANCH  65  66
ENDBRANCH  64  65
ENDBRANCH  63  64
ENDBRANCH  62  63
ENDBRANCH  61  62
ENDBRANCH  60  61
ENDBRANCH   1  60
TORSDOF 22
ENDMDL
