MODEL 1
REMARK VINA RESULT:      -9.0      0.000      0.000
REMARK SMILES CN(CCOCC1CC1)C(=O)N1CC[C@](C)(C(=O)OCCOCCOCCOCCOC(=O)c2ccc(-c3c4nc(c(-c5ccccc5)c5ccc([nH]5)c(-c5ccccc5)c5nc(c(-c6ccccc6)c6ccc3[nH]6)C=C5)C=C4)cc2)C1
REMARK SMILES IDX 23 1 22 2 21 3 20 4 19 5 17 6 18 7 15 8 12 9 13 10 82 11
REMARK SMILES IDX 14 12 16 13 10 14 11 15 2 16 1 17 3 18 4 19 5 20 6 21 7 22
REMARK SMILES IDX 8 23 9 24 24 25 25 26 26 27 27 28 28 29 29 30 30 31 31 32
REMARK SMILES IDX 32 33 33 34 34 35 35 36 81 37 36 38 80 39 37 40 38 41 39 42
REMARK SMILES IDX 74 43 40 44 79 45 73 46 75 47 41 48 78 49 72 50 71 51 42 53
REMARK SMILES IDX 64 54 49 55 63 56 50 57 53 58 62 59 76 60 51 61 52 62 61 64
REMARK SMILES IDX 77 65 54 66 43 67 44 68 48 69 45 70 47 71 46 72 65 73 66 74
REMARK SMILES IDX 70 75 67 76 69 77 68 78 55 79 56 80 60 81 57 82 59 83 58 84
REMARK H PARENT 75 52 53 63
REMARK Flexibility Score: inf
ROOT
ATOM      1  C   UNL A   1      34.925  30.790  27.642  1.00  0.00     0.188 C 
ENDROOT
BRANCH   1   2
ATOM      2  O   UNL A   1      34.076  29.758  27.166  1.00  0.00    -0.376 OA
BRANCH   2   3
ATOM      3  C   UNL A   1      32.711  30.030  26.895  1.00  0.00     0.202 C 
BRANCH   3   4
ATOM      4  C   UNL A   1      31.805  28.960  26.247  1.00  0.00     0.261 C 
BRANCH   4   5
ATOM      5  O   UNL A   1      32.072  28.521  24.889  1.00  0.00    -0.463 OA
BRANCH   5   6
ATOM      6  C   UNL A   1      31.042  27.859  24.315  1.00  0.00     0.313 C 
ATOM      7  O   UNL A   1      30.025  28.428  23.916  1.00  0.00    -0.252 OA
BRANCH   6   8
ATOM      8  C   UNL A   1      31.150  26.332  24.200  1.00  0.00     0.084 C 
ATOM      9  N   UNL A   1      32.812  24.604  23.719  1.00  0.00    -0.323 N 
ATOM     10  C   UNL A   1      31.924  24.712  22.578  1.00  0.00     0.122 C 
ATOM     11  C   UNL A   1      32.323  25.512  24.801  1.00  0.00     0.139 C 
ATOM     12  C   UNL A   1      31.299  26.075  22.693  1.00  0.00     0.042 C 
ATOM     13  C   UNL A   1      29.828  25.779  24.758  1.00  0.00     0.026 C 
BRANCH   9  14
ATOM     14  C   UNL A   1      33.900  23.772  23.535  1.00  0.00     0.319 C 
ATOM     15  O   UNL A   1      34.810  24.132  22.775  1.00  0.00    -0.248 OA
BRANCH  14  16
ATOM     16  N   UNL A   1      34.051  22.570  24.190  1.00  0.00    -0.325 N 
ATOM     17  C   UNL A   1      35.207  22.490  25.089  1.00  0.00     0.148 C 
BRANCH  16  18
ATOM     18  C   UNL A   1      33.356  21.313  23.928  1.00  0.00     0.149 C 
BRANCH  18  19
ATOM     19  C   UNL A   1      32.811  20.598  25.175  1.00  0.00     0.181 C 
BRANCH  19  20
ATOM     20  O   UNL A   1      32.092  19.394  24.947  1.00  0.00    -0.379 OA
BRANCH  20  21
ATOM     21  C   UNL A   1      32.712  18.183  25.355  1.00  0.00     0.163 C 
BRANCH  21  22
ATOM     22  C   UNL A   1      33.916  17.786  24.568  1.00  0.00     0.015 C 
ATOM     23  C   UNL A   1      34.171  16.306  24.351  1.00  0.00     0.006 C 
ATOM     24  C   UNL A   1      33.727  17.184  23.228  1.00  0.00     0.006 C 
ENDBRANCH  21  22
ENDBRANCH  20  21
ENDBRANCH  19  20
ENDBRANCH  18  19
ENDBRANCH  16  18
ENDBRANCH  14  16
ENDBRANCH   9  14
ENDBRANCH   6   8
ENDBRANCH   5   6
ENDBRANCH   4   5
ENDBRANCH   3   4
ENDBRANCH   2   3
ENDBRANCH   1   2
BRANCH   1  25
ATOM     25  C   UNL A   1      34.407  31.846  28.631  1.00  0.00     0.188 C 
BRANCH  25  26
ATOM     26  O   UNL A   1      34.222  33.125  28.066  1.00  0.00    -0.377 OA
BRANCH  26  27
ATOM     27  C   UNL A   1      34.939  34.234  28.580  1.00  0.00     0.188 C 
BRANCH  27  28
ATOM     28  C   UNL A   1      36.053  33.996  29.611  1.00  0.00     0.188 C 
BRANCH  28  29
ATOM     29  O   UNL A   1      35.904  34.428  30.958  1.00  0.00    -0.376 OA
BRANCH  29  30
ATOM     30  C   UNL A   1      34.692  34.232  31.681  1.00  0.00     0.202 C 
BRANCH  30  31
ATOM     31  C   UNL A   1      34.719  33.501  33.028  1.00  0.00     0.261 C 
BRANCH  31  32
ATOM     32  O   UNL A   1      35.214  32.161  32.880  1.00  0.00    -0.460 OA
BRANCH  32  33
ATOM     33  C   UNL A   1      36.433  31.926  33.398  1.00  0.00     0.338 C 
ATOM     34  O   UNL A   1      36.870  32.299  34.468  1.00  0.00    -0.246 OA
BRANCH  33  35
ATOM     35  C   UNL A   1      37.118  30.939  32.548  1.00  0.00     0.060 A 
ATOM     36  C   UNL A   1      38.312  30.418  33.049  1.00  0.00     0.016 A 
ATOM     37  C   UNL A   1      36.691  30.643  31.249  1.00  0.00     0.016 A 
ATOM     38  C   UNL A   1      39.152  29.695  32.215  1.00  0.00     0.010 A 
ATOM     39  C   UNL A   1      37.542  29.917  30.407  1.00  0.00     0.010 A 
ATOM     40  C   UNL A   1      38.809  29.513  30.868  1.00  0.00    -0.014 A 
BRANCH  40  41
ATOM     41  C   UNL A   1      39.910  29.168  29.936  1.00  0.00     0.031 A 
ATOM     42  C   UNL A   1      41.002  30.185  29.711  1.00  0.00     0.074 A 
ATOM     43  C   UNL A   1      40.035  27.926  29.439  1.00  0.00     0.049 A 
ATOM     44  N   UNL A   1      42.125  30.067  29.050  1.00  0.00    -0.248 NA
ATOM     45  C   UNL A   1      40.805  31.507  30.329  1.00  0.00     0.031 C 
ATOM     46  C   UNL A   1      39.088  26.833  29.649  1.00  0.00     0.029 A 
ATOM     47  N   UNL A   1      41.033  27.372  28.678  1.00  0.00    -0.354 N 
ATOM     48  C   UNL A   1      42.767  31.294  29.179  1.00  0.00     0.074 A 
ATOM     49  C   UNL A   1      41.889  32.156  29.938  1.00  0.00     0.031 C 
ATOM     50  C   UNL A   1      39.556  25.733  29.035  1.00  0.00     0.029 A 
ATOM     51  C   UNL A   1      40.817  26.054  28.367  1.00  0.00     0.049 A 
ATOM     52  H   UNL A   1      41.827  27.873  28.382  1.00  0.00     0.167 HD
ATOM     53  C   UNL A   1      43.985  31.670  28.721  1.00  0.00     0.031 A 
ATOM     54  C   UNL A   1      41.547  25.204  27.619  1.00  0.00     0.031 A 
ATOM     55  C   UNL A   1      44.852  30.822  27.949  1.00  0.00     0.049 A 
ATOM     56  C   UNL A   1      42.853  25.673  27.032  1.00  0.00     0.074 A 
ATOM     57  C   UNL A   1      46.098  31.112  27.422  1.00  0.00     0.029 A 
ATOM     58  N   UNL A   1      44.556  29.517  27.586  1.00  0.00    -0.354 N 
ATOM     59  N   UNL A   1      43.450  26.833  27.163  1.00  0.00    -0.248 NA
ATOM     60  C   UNL A   1      43.592  24.707  26.208  1.00  0.00     0.031 C 
ATOM     61  C   UNL A   1      46.526  30.004  26.684  1.00  0.00     0.029 A 
ATOM     62  C   UNL A   1      45.582  28.998  26.813  1.00  0.00     0.049 A 
ATOM     63  H   UNL A   1      43.737  29.032  27.838  1.00  0.00     0.167 HD
ATOM     64  C   UNL A   1      44.643  26.730  26.457  1.00  0.00     0.074 A 
ATOM     65  C   UNL A   1      44.692  25.387  25.918  1.00  0.00     0.031 C 
ATOM     66  C   UNL A   1      45.611  27.662  26.274  1.00  0.00     0.031 A 
BRANCH  53  67
ATOM     67  C   UNL A   1      44.419  33.082  29.008  1.00  0.00    -0.014 A 
ATOM     68  C   UNL A   1      44.147  34.132  28.114  1.00  0.00     0.009 A 
ATOM     69  C   UNL A   1      45.117  33.367  30.192  1.00  0.00     0.009 A 
ATOM     70  C   UNL A   1      44.606  35.425  28.379  1.00  0.00     0.001 A 
ATOM     71  C   UNL A   1      45.545  34.666  30.470  1.00  0.00     0.001 A 
ATOM     72  C   UNL A   1      45.301  35.691  29.558  1.00  0.00     0.000 A 
ENDBRANCH  53  67
BRANCH  54  73
ATOM     73  C   UNL A   1      41.036  23.834  27.352  1.00  0.00    -0.014 A 
ATOM     74  C   UNL A   1      39.985  23.610  26.451  1.00  0.00     0.009 A 
ATOM     75  C   UNL A   1      41.610  22.733  28.010  1.00  0.00     0.009 A 
ATOM     76  C   UNL A   1      39.508  22.314  26.230  1.00  0.00     0.001 A 
ATOM     77  C   UNL A   1      41.154  21.438  27.763  1.00  0.00     0.001 A 
ATOM     78  C   UNL A   1      40.096  21.230  26.881  1.00  0.00     0.000 A 
ENDBRANCH  54  73
BRANCH  66  79
ATOM     79  C   UNL A   1      46.823  27.253  25.482  1.00  0.00    -0.014 A 
ATOM     80  C   UNL A   1      47.044  27.732  24.181  1.00  0.00     0.009 A 
ATOM     81  C   UNL A   1      47.782  26.410  26.066  1.00  0.00     0.009 A 
ATOM     82  C   UNL A   1      48.182  27.343  23.468  1.00  0.00     0.001 A 
ATOM     83  C   UNL A   1      48.934  26.049  25.365  1.00  0.00     0.001 A 
ATOM     84  C   UNL A   1      49.127  26.507  24.062  1.00  0.00     0.000 A 
ENDBRANCH  66  79
ENDBRANCH  40  41
ENDBRANCH  33  35
ENDBRANCH  32  33
ENDBRANCH  31  32
ENDBRANCH  30  31
ENDBRANCH  29  30
ENDBRANCH  28  29
ENDBRANCH  27  28
ENDBRANCH  26  27
ENDBRANCH  25  26
ENDBRANCH   1  25
TORSDOF 27
ENDMDL
MODEL 2
REMARK VINA RESULT:      -8.5      2.046      6.274
REMARK SMILES CN(CCOCC1CC1)C(=O)N1CC[C@](C)(C(=O)OCCOCCOCCOCCOC(=O)c2ccc(-c3c4nc(c(-c5ccccc5)c5ccc([nH]5)c(-c5ccccc5)c5nc(c(-c6ccccc6)c6ccc3[nH]6)C=C5)C=C4)cc2)C1
REMARK SMILES IDX 23 1 22 2 21 3 20 4 19 5 17 6 18 7 15 8 12 9 13 10 82 11
REMARK SMILES IDX 14 12 16 13 10 14 11 15 2 16 1 17 3 18 4 19 5 20 6 21 7 22
REMARK SMILES IDX 8 23 9 24 24 25 25 26 26 27 27 28 28 29 29 30 30 31 31 32
REMARK SMILES IDX 32 33 33 34 34 35 35 36 81 37 36 38 80 39 37 40 38 41 39 42
REMARK SMILES IDX 74 43 40 44 79 45 73 46 75 47 41 48 78 49 72 50 71 51 42 53
REMARK SMILES IDX 64 54 49 55 63 56 50 57 53 58 62 59 76 60 51 61 52 62 61 64
REMARK SMILES IDX 77 65 54 66 43 67 44 68 48 69 45 70 47 71 46 72 65 73 66 74
REMARK SMILES IDX 70 75 67 76 69 77 68 78 55 79 56 80 60 81 57 82 59 83 58 84
REMARK H PARENT 75 52 53 63
REMARK Flexibility Score: inf
ROOT
ATOM      1  C   UNL A   1      33.700  33.993  28.338  1.00  0.00     0.188 C 
ENDROOT
BRANCH   1   2
ATOM      2  O   UNL A   1      34.238  32.972  27.512  1.00  0.00    -0.376 OA
BRANCH   2   3
ATOM      3  C   UNL A   1      34.585  31.716  28.070  1.00  0.00     0.202 C 
BRANCH   3   4
ATOM      4  C   UNL A   1      34.353  30.409  27.281  1.00  0.00     0.261 C 
BRANCH   4   5
ATOM      5  O   UNL A   1      33.159  30.265  26.465  1.00  0.00    -0.463 OA
BRANCH   5   6
ATOM      6  C   UNL A   1      33.123  29.120  25.745  1.00  0.00     0.313 C 
ATOM      7  O   UNL A   1      33.720  28.988  24.676  1.00  0.00    -0.252 OA
BRANCH   6   8
ATOM      8  C   UNL A   1      32.266  27.966  26.284  1.00  0.00     0.084 C 
ATOM      9  N   UNL A   1      31.893  25.579  25.910  1.00  0.00    -0.323 N 
ATOM     10  C   UNL A   1      30.746  26.305  25.398  1.00  0.00     0.122 C 
ATOM     11  C   UNL A   1      32.826  26.547  26.564  1.00  0.00     0.139 C 
ATOM     12  C   UNL A   1      31.238  27.708  25.172  1.00  0.00     0.042 C 
ATOM     13  C   UNL A   1      31.613  28.500  27.570  1.00  0.00     0.026 C 
BRANCH   9  14
ATOM     14  C   UNL A   1      31.897  24.225  25.633  1.00  0.00     0.319 C 
ATOM     15  O   UNL A   1      32.137  23.849  24.476  1.00  0.00    -0.248 OA
BRANCH  14  16
ATOM     16  N   UNL A   1      31.688  23.258  26.590  1.00  0.00    -0.325 N 
ATOM     17  C   UNL A   1      30.283  22.915  26.834  1.00  0.00     0.148 C 
BRANCH  16  18
ATOM     18  C   UNL A   1      32.653  22.712  27.540  1.00  0.00     0.149 C 
BRANCH  18  19
ATOM     19  C   UNL A   1      33.395  21.453  27.063  1.00  0.00     0.181 C 
BRANCH  19  20
ATOM     20  O   UNL A   1      34.778  21.607  26.778  1.00  0.00    -0.379 OA
BRANCH  20  21
ATOM     21  C   UNL A   1      35.143  21.790  25.418  1.00  0.00     0.163 C 
BRANCH  21  22
ATOM     22  C   UNL A   1      36.587  22.079  25.178  1.00  0.00     0.015 C 
ATOM     23  C   UNL A   1      37.026  22.394  23.759  1.00  0.00     0.006 C 
ATOM     24  C   UNL A   1      36.987  23.457  24.807  1.00  0.00     0.006 C 
ENDBRANCH  21  22
ENDBRANCH  20  21
ENDBRANCH  19  20
ENDBRANCH  18  19
ENDBRANCH  16  18
ENDBRANCH  14  16
ENDBRANCH   9  14
ENDBRANCH   6   8
ENDBRANCH   5   6
ENDBRANCH   4   5
ENDBRANCH   3   4
ENDBRANCH   2   3
ENDBRANCH   1   2
BRANCH   1  25
ATOM     25  C   UNL A   1      34.378  34.375  29.664  1.00  0.00     0.188 C 
BRANCH  25  26
ATOM     26  O   UNL A   1      33.501  34.432  30.766  1.00  0.00    -0.377 OA
BRANCH  26  27
ATOM     27  C   UNL A   1      34.011  34.304  32.082  1.00  0.00     0.188 C 
BRANCH  27  28
ATOM     28  C   UNL A   1      34.722  35.501  32.731  1.00  0.00     0.188 C 
BRANCH  28  29
ATOM     29  O   UNL A   1      36.042  35.374  33.245  1.00  0.00    -0.376 OA
BRANCH  29  30
ATOM     30  C   UNL A   1      36.716  34.119  33.284  1.00  0.00     0.202 C 
BRANCH  30  31
ATOM     31  C   UNL A   1      37.746  33.775  32.202  1.00  0.00     0.261 C 
BRANCH  31  32
ATOM     32  O   UNL A   1      37.146  33.021  31.137  1.00  0.00    -0.460 OA
BRANCH  32  33
ATOM     33  C   UNL A   1      36.757  31.772  31.451  1.00  0.00     0.338 C 
ATOM     34  O   UNL A   1      35.741  31.432  32.024  1.00  0.00    -0.246 OA
BRANCH  33  35
ATOM     35  C   UNL A   1      37.667  30.821  30.794  1.00  0.00     0.060 A 
ATOM     36  C   UNL A   1      38.292  29.891  31.627  1.00  0.00     0.016 A 
ATOM     37  C   UNL A   1      38.011  30.924  29.443  1.00  0.00     0.016 A 
ATOM     38  C   UNL A   1      39.353  29.140  31.146  1.00  0.00     0.010 A 
ATOM     39  C   UNL A   1      39.086  30.168  28.959  1.00  0.00     0.010 A 
ATOM     40  C   UNL A   1      39.808  29.336  29.834  1.00  0.00    -0.014 A 
BRANCH  40  41
ATOM     41  C   UNL A   1      41.188  28.883  29.528  1.00  0.00     0.031 A 
ATOM     42  C   UNL A   1      41.381  27.480  29.009  1.00  0.00     0.074 A 
ATOM     43  C   UNL A   1      42.219  29.744  29.542  1.00  0.00     0.049 A 
ATOM     44  N   UNL A   1      42.464  26.905  28.552  1.00  0.00    -0.248 NA
ATOM     45  C   UNL A   1      40.188  26.617  28.987  1.00  0.00     0.031 C 
ATOM     46  C   UNL A   1      42.145  31.145  29.949  1.00  0.00     0.029 A 
ATOM     47  N   UNL A   1      43.528  29.565  29.173  1.00  0.00    -0.354 N 
ATOM     48  C   UNL A   1      42.080  25.618  28.186  1.00  0.00     0.074 A 
ATOM     49  C   UNL A   1      40.680  25.483  28.517  1.00  0.00     0.031 C 
ATOM     50  C   UNL A   1      43.358  31.704  29.799  1.00  0.00     0.029 A 
ATOM     51  C   UNL A   1      44.297  30.692  29.315  1.00  0.00     0.049 A 
ATOM     52  H   UNL A   1      43.882  28.709  28.838  1.00  0.00     0.167 HD
ATOM     53  C   UNL A   1      42.819  24.641  27.612  1.00  0.00     0.031 A 
ATOM     54  C   UNL A   1      45.611  30.884  29.091  1.00  0.00     0.031 A 
ATOM     55  C   UNL A   1      44.218  24.765  27.300  1.00  0.00     0.049 A 
ATOM     56  C   UNL A   1      46.441  29.751  28.546  1.00  0.00     0.074 A 
ATOM     57  C   UNL A   1      45.063  23.828  26.733  1.00  0.00     0.029 A 
ATOM     58  N   UNL A   1      44.978  25.900  27.539  1.00  0.00    -0.354 N 
ATOM     59  N   UNL A   1      46.066  28.542  28.202  1.00  0.00    -0.248 NA
ATOM     60  C   UNL A   1      47.872  30.016  28.345  1.00  0.00     0.031 C 
ATOM     61  C   UNL A   1      46.350  24.373  26.690  1.00  0.00     0.029 A 
ATOM     62  C   UNL A   1      46.291  25.676  27.160  1.00  0.00     0.049 A 
ATOM     63  H   UNL A   1      44.635  26.739  27.921  1.00  0.00     0.167 HD
ATOM     64  C   UNL A   1      47.208  27.911  27.724  1.00  0.00     0.074 A 
ATOM     65  C   UNL A   1      48.283  28.878  27.804  1.00  0.00     0.031 C 
ATOM     66  C   UNL A   1      47.353  26.645  27.257  1.00  0.00     0.031 A 
BRANCH  53  67
ATOM     67  C   UNL A   1      42.128  23.332  27.334  1.00  0.00    -0.014 A 
ATOM     68  C   UNL A   1      41.638  23.017  26.056  1.00  0.00     0.009 A 
ATOM     69  C   UNL A   1      41.962  22.401  28.371  1.00  0.00     0.009 A 
ATOM     70  C   UNL A   1      40.955  21.819  25.834  1.00  0.00     0.001 A 
ATOM     71  C   UNL A   1      41.309  21.189  28.139  1.00  0.00     0.001 A 
ATOM     72  C   UNL A   1      40.794  20.905  26.876  1.00  0.00     0.000 A 
ENDBRANCH  53  67
BRANCH  54  73
ATOM     73  C   UNL A   1      46.229  32.195  29.421  1.00  0.00    -0.014 A 
ATOM     74  C   UNL A   1      46.316  33.222  28.470  1.00  0.00     0.009 A 
ATOM     75  C   UNL A   1      46.741  32.422  30.711  1.00  0.00     0.009 A 
ATOM     76  C   UNL A   1      46.919  34.439  28.798  1.00  0.00     0.001 A 
ATOM     77  C   UNL A   1      47.313  33.650  31.044  1.00  0.00     0.001 A 
ATOM     78  C   UNL A   1      47.410  34.655  30.085  1.00  0.00     0.000 A 
ENDBRANCH  54  73
BRANCH  66  79
ATOM     79  C   UNL A   1      48.718  26.241  26.768  1.00  0.00    -0.014 A 
ATOM     80  C   UNL A   1      49.601  25.512  27.580  1.00  0.00     0.009 A 
ATOM     81  C   UNL A   1      49.106  26.557  25.456  1.00  0.00     0.009 A 
ATOM     82  C   UNL A   1      50.860  25.143  27.101  1.00  0.00     0.001 A 
ATOM     83  C   UNL A   1      50.351  26.157  24.968  1.00  0.00     0.001 A 
ATOM     84  C   UNL A   1      51.231  25.461  25.795  1.00  0.00     0.000 A 
ENDBRANCH  66  79
ENDBRANCH  40  41
ENDBRANCH  33  35
ENDBRANCH  32  33
ENDBRANCH  31  32
ENDBRANCH  30  31
ENDBRANCH  29  30
ENDBRANCH  28  29
ENDBRANCH  27  28
ENDBRANCH  26  27
ENDBRANCH  25  26
ENDBRANCH   1  25
TORSDOF 27
ENDMDL
MODEL 3
REMARK VINA RESULT:      -7.9      5.504      8.935
REMARK SMILES CN(CCOCC1CC1)C(=O)N1CC[C@](C)(C(=O)OCCOCCOCCOCCOC(=O)c2ccc(-c3c4nc(c(-c5ccccc5)c5ccc([nH]5)c(-c5ccccc5)c5nc(c(-c6ccccc6)c6ccc3[nH]6)C=C5)C=C4)cc2)C1
REMARK SMILES IDX 23 1 22 2 21 3 20 4 19 5 17 6 18 7 15 8 12 9 13 10 82 11
REMARK SMILES IDX 14 12 16 13 10 14 11 15 2 16 1 17 3 18 4 19 5 20 6 21 7 22
REMARK SMILES IDX 8 23 9 24 24 25 25 26 26 27 27 28 28 29 29 30 30 31 31 32
REMARK SMILES IDX 32 33 33 34 34 35 35 36 81 37 36 38 80 39 37 40 38 41 39 42
REMARK SMILES IDX 74 43 40 44 79 45 73 46 75 47 41 48 78 49 72 50 71 51 42 53
REMARK SMILES IDX 64 54 49 55 63 56 50 57 53 58 62 59 76 60 51 61 52 62 61 64
REMARK SMILES IDX 77 65 54 66 43 67 44 68 48 69 45 70 47 71 46 72 65 73 66 74
REMARK SMILES IDX 70 75 67 76 69 77 68 78 55 79 56 80 60 81 57 82 59 83 58 84
REMARK H PARENT 75 52 53 63
REMARK Flexibility Score: inf
ROOT
ATOM      1  C   UNL A   1      31.490  26.433  26.446  1.00  0.00     0.188 C 
ENDROOT
BRANCH   1   2
ATOM      2  O   UNL A   1      31.255  25.287  25.644  1.00  0.00    -0.376 OA
BRANCH   2   3
ATOM      3  C   UNL A   1      30.955  24.042  26.254  1.00  0.00     0.202 C 
BRANCH   3   4
ATOM      4  C   UNL A   1      32.062  23.211  26.938  1.00  0.00     0.261 C 
BRANCH   4   5
ATOM      5  O   UNL A   1      33.457  23.511  26.665  1.00  0.00    -0.463 OA
BRANCH   5   6
ATOM      6  C   UNL A   1      34.059  22.616  25.848  1.00  0.00     0.313 C 
ATOM      7  O   UNL A   1      34.367  21.481  26.217  1.00  0.00    -0.252 OA
BRANCH   6   8
ATOM      8  C   UNL A   1      34.396  23.067  24.421  1.00  0.00     0.084 C 
ATOM      9  N   UNL A   1      33.580  24.603  22.701  1.00  0.00    -0.323 N 
ATOM     10  C   UNL A   1      33.263  23.248  22.290  1.00  0.00     0.122 C 
ATOM     11  C   UNL A   1      34.374  24.551  23.967  1.00  0.00     0.139 C 
ATOM     12  C   UNL A   1      33.295  22.436  23.555  1.00  0.00     0.042 C 
ATOM     13  C   UNL A   1      35.785  22.481  24.117  1.00  0.00     0.026 C 
BRANCH   9  14
ATOM     14  C   UNL A   1      33.046  25.596  21.902  1.00  0.00     0.319 C 
ATOM     15  O   UNL A   1      33.161  25.504  20.671  1.00  0.00    -0.248 OA
BRANCH  14  16
ATOM     16  N   UNL A   1      32.350  26.674  22.402  1.00  0.00    -0.325 N 
ATOM     17  C   UNL A   1      33.178  27.738  22.980  1.00  0.00     0.148 C 
BRANCH  16  18
ATOM     18  C   UNL A   1      30.913  26.783  22.636  1.00  0.00     0.149 C 
BRANCH  18  19
ATOM     19  C   UNL A   1      30.333  28.198  22.483  1.00  0.00     0.181 C 
BRANCH  19  20
ATOM     20  O   UNL A   1      29.157  28.481  23.226  1.00  0.00    -0.379 OA
BRANCH  20  21
ATOM     21  C   UNL A   1      28.175  29.293  22.600  1.00  0.00     0.163 C 
BRANCH  21  22
ATOM     22  C   UNL A   1      27.768  30.508  23.366  1.00  0.00     0.015 C 
ATOM     23  C   UNL A   1      28.855  31.471  23.809  1.00  0.00     0.006 C 
ATOM     24  C   UNL A   1      27.899  31.836  22.721  1.00  0.00     0.006 C 
ENDBRANCH  21  22
ENDBRANCH  20  21
ENDBRANCH  19  20
ENDBRANCH  18  19
ENDBRANCH  16  18
ENDBRANCH  14  16
ENDBRANCH   9  14
ENDBRANCH   6   8
ENDBRANCH   5   6
ENDBRANCH   4   5
ENDBRANCH   3   4
ENDBRANCH   2   3
ENDBRANCH   1   2
BRANCH   1  25
ATOM     25  C   UNL A   1      32.876  27.098  26.487  1.00  0.00     0.188 C 
BRANCH  25  26
ATOM     26  O   UNL A   1      32.890  28.365  27.105  1.00  0.00    -0.377 OA
BRANCH  26  27
ATOM     27  C   UNL A   1      31.912  29.330  26.761  1.00  0.00     0.188 C 
BRANCH  27  28
ATOM     28  C   UNL A   1      32.335  30.795  26.577  1.00  0.00     0.188 C 
BRANCH  28  29
ATOM     29  O   UNL A   1      32.819  31.557  27.676  1.00  0.00    -0.376 OA
BRANCH  29  30
ATOM     30  C   UNL A   1      34.170  32.007  27.742  1.00  0.00     0.202 C 
BRANCH  30  31
ATOM     31  C   UNL A   1      34.597  32.968  28.858  1.00  0.00     0.261 C 
BRANCH  31  32
ATOM     32  O   UNL A   1      34.623  32.305  30.131  1.00  0.00    -0.460 OA
BRANCH  32  33
ATOM     33  C   UNL A   1      35.186  32.995  31.139  1.00  0.00     0.338 C 
ATOM     34  O   UNL A   1      34.705  33.913  31.771  1.00  0.00    -0.246 OA
BRANCH  33  35
ATOM     35  C   UNL A   1      36.435  32.318  31.525  1.00  0.00     0.060 A 
ATOM     36  C   UNL A   1      36.352  31.450  32.616  1.00  0.00     0.016 A 
ATOM     37  C   UNL A   1      37.667  32.628  30.943  1.00  0.00     0.016 A 
ATOM     38  C   UNL A   1      37.514  30.980  33.211  1.00  0.00     0.010 A 
ATOM     39  C   UNL A   1      38.839  32.156  31.547  1.00  0.00     0.010 A 
ATOM     40  C   UNL A   1      38.762  31.398  32.730  1.00  0.00    -0.014 A 
BRANCH  40  41
ATOM     41  C   UNL A   1      39.916  31.265  33.653  1.00  0.00     0.031 A 
ATOM     42  C   UNL A   1      39.984  32.180  34.850  1.00  0.00     0.074 A 
ATOM     43  C   UNL A   1      40.785  30.247  33.534  1.00  0.00     0.049 A 
ATOM     44  N   UNL A   1      40.817  32.169  35.859  1.00  0.00    -0.248 NA
ATOM     45  C   UNL A   1      38.965  33.242  34.924  1.00  0.00     0.031 C 
ATOM     46  C   UNL A   1      40.778  29.249  32.467  1.00  0.00     0.029 A 
ATOM     47  N   UNL A   1      41.827  29.872  34.344  1.00  0.00    -0.354 N 
ATOM     48  C   UNL A   1      40.418  33.214  36.687  1.00  0.00     0.074 A 
ATOM     49  C   UNL A   1      39.302  33.866  36.040  1.00  0.00     0.031 C 
ATOM     50  C   UNL A   1      41.766  28.368  32.692  1.00  0.00     0.029 A 
ATOM     51  C   UNL A   1      42.492  28.757  33.901  1.00  0.00     0.049 A 
ATOM     52  H   UNL A   1      42.074  30.357  35.164  1.00  0.00     0.167 HD
ATOM     53  C   UNL A   1      40.922  33.591  37.885  1.00  0.00     0.031 A 
ATOM     54  C   UNL A   1      43.570  28.128  34.406  1.00  0.00     0.031 A 
ATOM     55  C   UNL A   1      42.045  32.957  38.522  1.00  0.00     0.049 A 
ATOM     56  C   UNL A   1      44.181  28.624  35.690  1.00  0.00     0.074 A 
ATOM     57  C   UNL A   1      42.645  33.272  39.728  1.00  0.00     0.029 A 
ATOM     58  N   UNL A   1      42.742  31.880  37.996  1.00  0.00    -0.354 N 
ATOM     59  N   UNL A   1      43.794  29.610  36.463  1.00  0.00    -0.248 NA
ATOM     60  C   UNL A   1      45.368  27.909  36.178  1.00  0.00     0.031 C 
ATOM     61  C   UNL A   1      43.746  32.427  39.900  1.00  0.00     0.029 A 
ATOM     62  C   UNL A   1      43.787  31.538  38.838  1.00  0.00     0.049 A 
ATOM     63  H   UNL A   1      42.526  31.426  37.150  1.00  0.00     0.167 HD
ATOM     64  C   UNL A   1      44.675  29.620  37.538  1.00  0.00     0.074 A 
ATOM     65  C   UNL A   1      45.603  28.529  37.326  1.00  0.00     0.031 C 
ATOM     66  C   UNL A   1      44.711  30.455  38.607  1.00  0.00     0.031 A 
BRANCH  53  67
ATOM     67  C   UNL A   1      40.285  34.779  38.555  1.00  0.00    -0.014 A 
ATOM     68  C   UNL A   1      40.661  36.094  38.232  1.00  0.00     0.009 A 
ATOM     69  C   UNL A   1      39.294  34.579  39.528  1.00  0.00     0.009 A 
ATOM     70  C   UNL A   1      40.092  37.179  38.904  1.00  0.00     0.001 A 
ATOM     71  C   UNL A   1      38.702  35.666  40.173  1.00  0.00     0.001 A 
ATOM     72  C   UNL A   1      39.110  36.963  39.871  1.00  0.00     0.000 A 
ENDBRANCH  53  67
BRANCH  54  73
ATOM     73  C   UNL A   1      44.163  26.980  33.670  1.00  0.00    -0.014 A 
ATOM     74  C   UNL A   1      45.165  27.170  32.707  1.00  0.00     0.009 A 
ATOM     75  C   UNL A   1      43.720  25.674  33.937  1.00  0.00     0.009 A 
ATOM     76  C   UNL A   1      45.695  26.078  32.014  1.00  0.00     0.001 A 
ATOM     77  C   UNL A   1      44.272  24.582  33.267  1.00  0.00     0.001 A 
ATOM     78  C   UNL A   1      45.253  24.786  32.299  1.00  0.00     0.000 A 
ENDBRANCH  54  73
BRANCH  66  79
ATOM     79  C   UNL A   1      45.770  30.205  39.645  1.00  0.00    -0.014 A 
ATOM     80  C   UNL A   1      47.021  30.839  39.584  1.00  0.00     0.009 A 
ATOM     81  C   UNL A   1      45.493  29.354  40.728  1.00  0.00     0.009 A 
ATOM     82  C   UNL A   1      47.986  30.595  40.564  1.00  0.00     0.001 A 
ATOM     83  C   UNL A   1      46.446  29.138  41.724  1.00  0.00     0.001 A 
ATOM     84  C   UNL A   1      47.696  29.750  41.635  1.00  0.00     0.000 A 
ENDBRANCH  66  79
ENDBRANCH  40  41
ENDBRANCH  33  35
ENDBRANCH  32  33
ENDBRANCH  31  32
ENDBRANCH  30  31
ENDBRANCH  29  30
ENDBRANCH  28  29
ENDBRANCH  27  28
ENDBRANCH  26  27
ENDBRANCH  25  26
ENDBRANCH   1  25
TORSDOF 27
ENDMDL
