MODEL 1
REMARK VINA RESULT:     -10.2      0.000      0.000
REMARK SMILES [NH3+][C@H]1CCCN(C(=O)NC[C@H]2CC[C@@H](C(=O)OCCOCCOCCOCCOC(=O)c3ccc(-c4c5nc(c(-c6ccccc6)c6ccc([nH]6)c(-c6ccccc6)c6nc(c(-c7ccccc7)c7ccc4[nH]7)C=C6)C=C5)cc3)CC2)C1
REMARK SMILES IDX 22 1 21 2 20 3 19 4 18 5 17 6 15 7 16 8 14 9 11 10 12 11
REMARK SMILES IDX 81 12 13 13 80 14 10 15 9 16 7 17 8 18 6 20 2 21 3 22 82 23
REMARK SMILES IDX 4 24 5 25 1 26 23 30 24 31 25 32 26 33 27 34 28 35 29 36
REMARK SMILES IDX 30 37 31 38 32 39 33 40 79 41 34 42 78 43 35 44 36 45 37 46
REMARK SMILES IDX 72 47 38 48 77 49 71 50 73 51 39 52 76 53 70 54 69 55 40 57
REMARK SMILES IDX 62 58 47 59 61 60 48 61 51 62 60 63 74 64 49 65 50 66 59 68
REMARK SMILES IDX 75 69 52 70 41 71 42 72 46 73 43 74 45 75 44 76 63 77 64 78
REMARK SMILES IDX 68 79 65 80 67 81 66 82 53 83 54 84 58 85 55 86 57 87 56 88
REMARK H PARENT 9 19 1 27 1 28 1 29 73 56 51 67
REMARK Flexibility Score: inf
ROOT
ATOM      1  C   UNL A   1      42.620  18.685  26.614  1.00  0.00     0.188 C 
ENDROOT
BRANCH   1   2
ATOM      2  C   UNL A   1      42.053  20.044  26.184  1.00  0.00     0.188 C 
BRANCH   2   3
ATOM      3  O   UNL A   1      40.652  20.176  26.098  1.00  0.00    -0.376 OA
BRANCH   3   4
ATOM      4  C   UNL A   1      39.929  21.263  26.651  1.00  0.00     0.202 C 
BRANCH   4   5
ATOM      5  C   UNL A   1      38.860  22.134  25.964  1.00  0.00     0.261 C 
BRANCH   5   6
ATOM      6  O   UNL A   1      37.669  21.498  25.513  1.00  0.00    -0.463 OA
BRANCH   6   7
ATOM      7  C   UNL A   1      36.558  22.265  25.547  1.00  0.00     0.309 C 
ATOM      8  O   UNL A   1      36.398  23.199  26.326  1.00  0.00    -0.252 OA
BRANCH   7   9
ATOM      9  C   UNL A   1      35.552  21.923  24.448  1.00  0.00     0.099 C 
ATOM     10  C   UNL A   1      32.835  22.741  23.544  1.00  0.00     0.008 C 
ATOM     11  C   UNL A   1      34.094  23.219  22.805  1.00  0.00     0.006 C 
ATOM     12  C   UNL A   1      33.091  21.290  23.952  1.00  0.00     0.006 C 
ATOM     13  C   UNL A   1      35.313  23.238  23.702  1.00  0.00     0.015 C 
ATOM     14  C   UNL A   1      34.274  21.187  24.917  1.00  0.00     0.015 C 
BRANCH  10  15
ATOM     15  C   UNL A   1      32.397  23.558  24.786  1.00  0.00     0.121 C 
BRANCH  15  16
ATOM     16  N   UNL A   1      31.313  24.486  24.575  1.00  0.00    -0.338 N 
ATOM     17  C   UNL A   1      31.122  25.779  24.878  1.00  0.00     0.317 C 
ATOM     18  O   UNL A   1      29.945  26.149  24.912  1.00  0.00    -0.249 OA
ATOM     19  H   UNL A   1      30.547  24.082  24.108  1.00  0.00     0.165 HD
BRANCH  17  20
ATOM     20  N   UNL A   1      32.171  26.640  25.075  1.00  0.00    -0.319 N 
ATOM     21  C   UNL A   1      31.435  28.791  24.226  1.00  0.00     0.200 C 
ATOM     22  C   UNL A   1      32.565  28.709  23.169  1.00  0.00     0.068 C 
ATOM     23  C   UNL A   1      31.797  27.984  25.496  1.00  0.00     0.186 C 
ATOM     24  C   UNL A   1      33.105  27.284  22.963  1.00  0.00     0.028 C 
ATOM     25  C   UNL A   1      33.410  26.648  24.315  1.00  0.00     0.122 C 
BRANCH  21  26
ATOM     26  N   UNL A   1      31.147  30.194  24.535  1.00  0.00    -0.354 N 
ATOM     27  H   UNL A   1      31.748  30.796  23.972  1.00  0.00     0.344 HD
ATOM     28  H   UNL A   1      31.323  30.366  25.525  1.00  0.00     0.344 HD
ATOM     29  H   UNL A   1      30.170  30.395  24.323  1.00  0.00     0.344 HD
ENDBRANCH  21  26
ENDBRANCH  17  20
ENDBRANCH  15  16
ENDBRANCH  10  15
ENDBRANCH   7   9
ENDBRANCH   6   7
ENDBRANCH   5   6
ENDBRANCH   4   5
ENDBRANCH   3   4
ENDBRANCH   2   3
ENDBRANCH   1   2
BRANCH   1  30
ATOM     30  O   UNL A   1      43.678  18.170  25.832  1.00  0.00    -0.377 OA
BRANCH  30  31
ATOM     31  C   UNL A   1      44.359  19.034  24.930  1.00  0.00     0.188 C 
BRANCH  31  32
ATOM     32  C   UNL A   1      45.901  19.079  24.880  1.00  0.00     0.188 C 
BRANCH  32  33
ATOM     33  O   UNL A   1      46.463  20.343  24.577  1.00  0.00    -0.376 OA
BRANCH  33  34
ATOM     34  C   UNL A   1      46.016  21.491  25.281  1.00  0.00     0.202 C 
BRANCH  34  35
ATOM     35  C   UNL A   1      45.883  22.817  24.514  1.00  0.00     0.261 C 
BRANCH  35  36
ATOM     36  O   UNL A   1      45.039  23.818  25.106  1.00  0.00    -0.460 OA
BRANCH  36  37
ATOM     37  C   UNL A   1      43.711  23.736  24.892  1.00  0.00     0.338 C 
ATOM     38  O   UNL A   1      43.117  22.905  24.225  1.00  0.00    -0.246 OA
BRANCH  37  39
ATOM     39  C   UNL A   1      43.053  24.721  25.771  1.00  0.00     0.060 A 
ATOM     40  C   UNL A   1      43.567  26.024  25.838  1.00  0.00     0.016 A 
ATOM     41  C   UNL A   1      41.940  24.359  26.532  1.00  0.00     0.016 A 
ATOM     42  C   UNL A   1      42.996  26.957  26.701  1.00  0.00     0.010 A 
ATOM     43  C   UNL A   1      41.384  25.287  27.416  1.00  0.00     0.010 A 
ATOM     44  C   UNL A   1      41.936  26.577  27.531  1.00  0.00    -0.014 A 
BRANCH  44  45
ATOM     45  C   UNL A   1      41.553  27.446  28.668  1.00  0.00     0.031 A 
ATOM     46  C   UNL A   1      42.352  27.346  29.938  1.00  0.00     0.074 A 
ATOM     47  C   UNL A   1      40.540  28.323  28.571  1.00  0.00     0.049 A 
ATOM     48  N   UNL A   1      42.181  27.964  31.079  1.00  0.00    -0.248 NA
ATOM     49  C   UNL A   1      43.497  26.420  29.919  1.00  0.00     0.031 C 
ATOM     50  C   UNL A   1      39.727  28.554  27.379  1.00  0.00     0.029 A 
ATOM     51  N   UNL A   1      40.020  29.181  29.508  1.00  0.00    -0.354 N 
ATOM     52  C   UNL A   1      43.184  27.489  31.915  1.00  0.00     0.074 A 
ATOM     53  C   UNL A   1      43.941  26.514  31.163  1.00  0.00     0.031 C 
ATOM     54  C   UNL A   1      38.799  29.486  27.662  1.00  0.00     0.029 A 
ATOM     55  C   UNL A   1      38.929  29.885  29.062  1.00  0.00     0.049 A 
ATOM     56  H   UNL A   1      40.393  29.281  30.414  1.00  0.00     0.167 HD
ATOM     57  C   UNL A   1      43.452  27.835  33.197  1.00  0.00     0.031 A 
ATOM     58  C   UNL A   1      38.113  30.732  29.719  1.00  0.00     0.031 A 
ATOM     59  C   UNL A   1      42.689  28.793  33.948  1.00  0.00     0.049 A 
ATOM     60  C   UNL A   1      38.379  31.039  31.170  1.00  0.00     0.074 A 
ATOM     61  C   UNL A   1      42.890  29.228  35.246  1.00  0.00     0.029 A 
ATOM     62  N   UNL A   1      41.567  29.456  33.472  1.00  0.00    -0.354 N 
ATOM     63  N   UNL A   1      39.346  30.606  31.945  1.00  0.00    -0.248 NA
ATOM     64  C   UNL A   1      37.445  31.958  31.836  1.00  0.00     0.031 C 
ATOM     65  C   UNL A   1      41.848  30.098  35.580  1.00  0.00     0.029 A 
ATOM     66  C   UNL A   1      41.043  30.268  34.464  1.00  0.00     0.049 A 
ATOM     67  H   UNL A   1      41.198  29.363  32.564  1.00  0.00     0.167 HD
ATOM     68  C   UNL A   1      39.154  31.225  33.175  1.00  0.00     0.074 A 
ATOM     69  C   UNL A   1      37.988  32.073  33.039  1.00  0.00     0.031 C 
ATOM     70  C   UNL A   1      39.880  31.104  34.315  1.00  0.00     0.031 A 
BRANCH  57  71
ATOM     71  C   UNL A   1      44.590  27.128  33.880  1.00  0.00    -0.014 A 
ATOM     72  C   UNL A   1      44.401  25.913  34.560  1.00  0.00     0.009 A 
ATOM     73  C   UNL A   1      45.879  27.680  33.826  1.00  0.00     0.009 A 
ATOM     74  C   UNL A   1      45.472  25.289  35.203  1.00  0.00     0.001 A 
ATOM     75  C   UNL A   1      46.954  27.036  34.439  1.00  0.00     0.001 A 
ATOM     76  C   UNL A   1      46.748  25.847  35.137  1.00  0.00     0.000 A 
ENDBRANCH  57  71
BRANCH  58  77
ATOM     77  C   UNL A   1      36.943  31.329  29.021  1.00  0.00    -0.014 A 
ATOM     78  C   UNL A   1      36.971  32.659  28.574  1.00  0.00     0.009 A 
ATOM     79  C   UNL A   1      35.777  30.573  28.819  1.00  0.00     0.009 A 
ATOM     80  C   UNL A   1      35.849  33.226  27.962  1.00  0.00     0.001 A 
ATOM     81  C   UNL A   1      34.669  31.131  28.178  1.00  0.00     0.001 A 
ATOM     82  C   UNL A   1      34.702  32.460  27.760  1.00  0.00     0.000 A 
ENDBRANCH  58  77
BRANCH  70  83
ATOM     83  C   UNL A   1      39.463  31.941  35.494  1.00  0.00    -0.014 A 
ATOM     84  C   UNL A   1      38.525  31.479  36.430  1.00  0.00     0.009 A 
ATOM     85  C   UNL A   1      40.061  33.197  35.696  1.00  0.00     0.009 A 
ATOM     86  C   UNL A   1      38.167  32.273  37.523  1.00  0.00     0.001 A 
ATOM     87  C   UNL A   1      39.727  33.972  36.808  1.00  0.00     0.001 A 
ATOM     88  C   UNL A   1      38.772  33.515  37.714  1.00  0.00     0.000 A 
ENDBRANCH  70  83
ENDBRANCH  44  45
ENDBRANCH  37  39
ENDBRANCH  36  37
ENDBRANCH  35  36
ENDBRANCH  34  35
ENDBRANCH  33  34
ENDBRANCH  32  33
ENDBRANCH  31  32
ENDBRANCH  30  31
ENDBRANCH   1  30
TORSDOF 24
ENDMDL
MODEL 2
REMARK VINA RESULT:      -9.7      1.871      3.302
REMARK SMILES [NH3+][C@H]1CCCN(C(=O)NC[C@H]2CC[C@@H](C(=O)OCCOCCOCCOCCOC(=O)c3ccc(-c4c5nc(c(-c6ccccc6)c6ccc([nH]6)c(-c6ccccc6)c6nc(c(-c7ccccc7)c7ccc4[nH]7)C=C6)C=C5)cc3)CC2)C1
REMARK SMILES IDX 22 1 21 2 20 3 19 4 18 5 17 6 15 7 16 8 14 9 11 10 12 11
REMARK SMILES IDX 81 12 13 13 80 14 10 15 9 16 7 17 8 18 6 20 2 21 3 22 82 23
REMARK SMILES IDX 4 24 5 25 1 26 23 30 24 31 25 32 26 33 27 34 28 35 29 36
REMARK SMILES IDX 30 37 31 38 32 39 33 40 79 41 34 42 78 43 35 44 36 45 37 46
REMARK SMILES IDX 72 47 38 48 77 49 71 50 73 51 39 52 76 53 70 54 69 55 40 57
REMARK SMILES IDX 62 58 47 59 61 60 48 61 51 62 60 63 74 64 49 65 50 66 59 68
REMARK SMILES IDX 75 69 52 70 41 71 42 72 46 73 43 74 45 75 44 76 63 77 64 78
REMARK SMILES IDX 68 79 65 80 67 81 66 82 53 83 54 84 58 85 55 86 57 87 56 88
REMARK H PARENT 9 19 1 27 1 28 1 29 73 56 51 67
REMARK Flexibility Score: inf
ROOT
ATOM      1  C   UNL A   1      41.843  19.543  26.655  1.00  0.00     0.188 C 
ENDROOT
BRANCH   1   2
ATOM      2  C   UNL A   1      40.989  20.709  27.171  1.00  0.00     0.188 C 
BRANCH   2   3
ATOM      3  O   UNL A   1      39.686  20.851  26.651  1.00  0.00    -0.376 OA
BRANCH   3   4
ATOM      4  C   UNL A   1      39.242  21.996  25.943  1.00  0.00     0.202 C 
BRANCH   4   5
ATOM      5  C   UNL A   1      38.653  23.296  26.523  1.00  0.00     0.261 C 
BRANCH   5   6
ATOM      6  O   UNL A   1      37.704  24.007  25.735  1.00  0.00    -0.463 OA
BRANCH   6   7
ATOM      7  C   UNL A   1      36.472  23.454  25.679  1.00  0.00     0.309 C 
ATOM      8  O   UNL A   1      36.080  22.586  26.451  1.00  0.00    -0.252 OA
BRANCH   7   9
ATOM      9  C   UNL A   1      35.572  24.089  24.620  1.00  0.00     0.099 C 
ATOM     10  C   UNL A   1      32.732  23.999  23.728  1.00  0.00     0.008 C 
ATOM     11  C   UNL A   1      33.264  25.175  24.561  1.00  0.00     0.006 C 
ATOM     12  C   UNL A   1      33.843  23.616  22.750  1.00  0.00     0.006 C 
ATOM     13  C   UNL A   1      34.457  24.784  25.407  1.00  0.00     0.015 C 
ATOM     14  C   UNL A   1      35.093  23.141  23.494  1.00  0.00     0.015 C 
BRANCH  10  15
ATOM     15  C   UNL A   1      32.268  22.740  24.504  1.00  0.00     0.121 C 
BRANCH  15  16
ATOM     16  N   UNL A   1      31.938  21.593  23.694  1.00  0.00    -0.338 N 
ATOM     17  C   UNL A   1      32.303  20.302  23.716  1.00  0.00     0.317 C 
ATOM     18  O   UNL A   1      32.152  19.688  22.655  1.00  0.00    -0.249 OA
ATOM     19  H   UNL A   1      31.309  21.803  22.968  1.00  0.00     0.165 HD
BRANCH  17  20
ATOM     20  N   UNL A   1      32.756  19.695  24.859  1.00  0.00    -0.319 N 
ATOM     21  C   UNL A   1      35.149  19.417  24.560  1.00  0.00     0.200 C 
ATOM     22  C   UNL A   1      34.933  17.884  24.625  1.00  0.00     0.068 C 
ATOM     23  C   UNL A   1      34.046  20.171  25.342  1.00  0.00     0.186 C 
ATOM     24  C   UNL A   1      33.477  17.462  24.366  1.00  0.00     0.028 C 
ATOM     25  C   UNL A   1      32.536  18.304  25.220  1.00  0.00     0.122 C 
BRANCH  21  26
ATOM     26  N   UNL A   1      36.489  19.750  25.051  1.00  0.00    -0.354 N 
ATOM     27  H   UNL A   1      36.831  20.582  24.569  1.00  0.00     0.344 HD
ATOM     28  H   UNL A   1      37.120  18.969  24.871  1.00  0.00     0.344 HD
ATOM     29  H   UNL A   1      36.448  19.931  26.054  1.00  0.00     0.344 HD
ENDBRANCH  21  26
ENDBRANCH  17  20
ENDBRANCH  15  16
ENDBRANCH  10  15
ENDBRANCH   7   9
ENDBRANCH   6   7
ENDBRANCH   5   6
ENDBRANCH   4   5
ENDBRANCH   3   4
ENDBRANCH   2   3
ENDBRANCH   1   2
BRANCH   1  30
ATOM     30  O   UNL A   1      42.548  19.766  25.451  1.00  0.00    -0.377 OA
BRANCH  30  31
ATOM     31  C   UNL A   1      43.948  19.520  25.411  1.00  0.00     0.188 C 
BRANCH  31  32
ATOM     32  C   UNL A   1      44.754  19.702  24.107  1.00  0.00     0.188 C 
BRANCH  32  33
ATOM     33  O   UNL A   1      45.179  21.025  23.835  1.00  0.00    -0.376 OA
BRANCH  33  34
ATOM     34  C   UNL A   1      46.101  21.654  24.710  1.00  0.00     0.202 C 
BRANCH  34  35
ATOM     35  C   UNL A   1      45.722  23.013  25.323  1.00  0.00     0.261 C 
BRANCH  35  36
ATOM     36  O   UNL A   1      44.692  23.755  24.650  1.00  0.00    -0.460 OA
BRANCH  36  37
ATOM     37  C   UNL A   1      43.421  23.598  25.067  1.00  0.00     0.338 C 
ATOM     38  O   UNL A   1      42.600  22.792  24.658  1.00  0.00    -0.246 OA
BRANCH  37  39
ATOM     39  C   UNL A   1      43.231  24.446  26.259  1.00  0.00     0.060 A 
ATOM     40  C   UNL A   1      42.490  23.945  27.339  1.00  0.00     0.016 A 
ATOM     41  C   UNL A   1      43.775  25.730  26.308  1.00  0.00     0.016 A 
ATOM     42  C   UNL A   1      42.252  24.746  28.454  1.00  0.00     0.010 A 
ATOM     43  C   UNL A   1      43.514  26.542  27.415  1.00  0.00     0.010 A 
ATOM     44  C   UNL A   1      42.718  26.065  28.473  1.00  0.00    -0.014 A 
BRANCH  44  45
ATOM     45  C   UNL A   1      42.190  27.009  29.485  1.00  0.00     0.031 A 
ATOM     46  C   UNL A   1      42.904  27.108  30.805  1.00  0.00     0.074 A 
ATOM     47  C   UNL A   1      41.119  27.781  29.234  1.00  0.00     0.049 A 
ATOM     48  N   UNL A   1      42.606  27.822  31.860  1.00  0.00    -0.248 NA
ATOM     49  C   UNL A   1      44.118  26.288  30.955  1.00  0.00     0.031 C 
ATOM     50  C   UNL A   1      40.374  27.818  27.977  1.00  0.00     0.029 A 
ATOM     51  N   UNL A   1      40.468  28.681  30.041  1.00  0.00    -0.354 N 
ATOM     52  C   UNL A   1      43.584  27.523  32.802  1.00  0.00     0.074 A 
ATOM     53  C   UNL A   1      44.465  26.546  32.206  1.00  0.00     0.031 C 
ATOM     54  C   UNL A   1      39.358  28.689  28.102  1.00  0.00     0.029 A 
ATOM     55  C   UNL A   1      39.358  29.239  29.456  1.00  0.00     0.049 A 
ATOM     56  H   UNL A   1      40.768  28.904  30.951  1.00  0.00     0.167 HD
ATOM     57  C   UNL A   1      43.734  28.020  34.053  1.00  0.00     0.031 A 
ATOM     58  C   UNL A   1      38.434  30.074  29.968  1.00  0.00     0.031 A 
ATOM     59  C   UNL A   1      42.845  28.979  34.649  1.00  0.00     0.049 A 
ATOM     60  C   UNL A   1      38.573  30.549  31.392  1.00  0.00     0.074 A 
ATOM     61  C   UNL A   1      42.921  29.560  35.903  1.00  0.00     0.029 A 
ATOM     62  N   UNL A   1      41.710  29.491  34.038  1.00  0.00    -0.354 N 
ATOM     63  N   UNL A   1      39.516  30.283  32.265  1.00  0.00    -0.248 NA
ATOM     64  C   UNL A   1      37.524  31.446  31.897  1.00  0.00     0.031 C 
ATOM     65  C   UNL A   1      41.792  30.365  36.079  1.00  0.00     0.029 A 
ATOM     66  C   UNL A   1      41.055  30.350  34.905  1.00  0.00     0.049 A 
ATOM     67  H   UNL A   1      41.414  29.274  33.125  1.00  0.00     0.167 HD
ATOM     68  C   UNL A   1      39.190  31.004  33.408  1.00  0.00     0.074 A 
ATOM     69  C   UNL A   1      37.972  31.729  33.112  1.00  0.00     0.031 C 
ATOM     70  C   UNL A   1      39.842  31.063  34.596  1.00  0.00     0.031 A 
BRANCH  57  71
ATOM     71  C   UNL A   1      44.873  27.487  34.876  1.00  0.00    -0.014 A 
ATOM     72  C   UNL A   1      44.730  26.348  35.686  1.00  0.00     0.009 A 
ATOM     73  C   UNL A   1      46.122  28.127  34.824  1.00  0.00     0.009 A 
ATOM     74  C   UNL A   1      45.801  25.888  36.455  1.00  0.00     0.001 A 
ATOM     75  C   UNL A   1      47.200  27.644  35.566  1.00  0.00     0.001 A 
ATOM     76  C   UNL A   1      47.036  26.532  36.390  1.00  0.00     0.000 A 
ENDBRANCH  57  71
BRANCH  58  77
ATOM     77  C   UNL A   1      37.270  30.494  29.141  1.00  0.00    -0.014 A 
ATOM     78  C   UNL A   1      37.119  31.828  28.734  1.00  0.00     0.009 A 
ATOM     79  C   UNL A   1      36.289  29.559  28.772  1.00  0.00     0.009 A 
ATOM     80  C   UNL A   1      35.998  32.221  27.997  1.00  0.00     0.001 A 
ATOM     81  C   UNL A   1      35.187  29.948  28.008  1.00  0.00     0.001 A 
ATOM     82  C   UNL A   1      35.037  31.280  27.630  1.00  0.00     0.000 A 
ENDBRANCH  58  77
BRANCH  70  83
ATOM     83  C   UNL A   1      39.279  31.976  35.652  1.00  0.00    -0.014 A 
ATOM     84  C   UNL A   1      39.637  33.332  35.719  1.00  0.00     0.009 A 
ATOM     85  C   UNL A   1      38.334  31.478  36.564  1.00  0.00     0.009 A 
ATOM     86  C   UNL A   1      39.088  34.160  36.702  1.00  0.00     0.001 A 
ATOM     87  C   UNL A   1      37.762  32.317  37.522  1.00  0.00     0.001 A 
ATOM     88  C   UNL A   1      38.147  33.653  37.598  1.00  0.00     0.000 A 
ENDBRANCH  70  83
ENDBRANCH  44  45
ENDBRANCH  37  39
ENDBRANCH  36  37
ENDBRANCH  35  36
ENDBRANCH  34  35
ENDBRANCH  33  34
ENDBRANCH  32  33
ENDBRANCH  31  32
ENDBRANCH  30  31
ENDBRANCH   1  30
TORSDOF 24
ENDMDL
MODEL 3
REMARK VINA RESULT:      -9.5      1.352      2.034
REMARK SMILES [NH3+][C@H]1CCCN(C(=O)NC[C@H]2CC[C@@H](C(=O)OCCOCCOCCOCCOC(=O)c3ccc(-c4c5nc(c(-c6ccccc6)c6ccc([nH]6)c(-c6ccccc6)c6nc(c(-c7ccccc7)c7ccc4[nH]7)C=C6)C=C5)cc3)CC2)C1
REMARK SMILES IDX 22 1 21 2 20 3 19 4 18 5 17 6 15 7 16 8 14 9 11 10 12 11
REMARK SMILES IDX 81 12 13 13 80 14 10 15 9 16 7 17 8 18 6 20 2 21 3 22 82 23
REMARK SMILES IDX 4 24 5 25 1 26 23 30 24 31 25 32 26 33 27 34 28 35 29 36
REMARK SMILES IDX 30 37 31 38 32 39 33 40 79 41 34 42 78 43 35 44 36 45 37 46
REMARK SMILES IDX 72 47 38 48 77 49 71 50 73 51 39 52 76 53 70 54 69 55 40 57
REMARK SMILES IDX 62 58 47 59 61 60 48 61 51 62 60 63 74 64 49 65 50 66 59 68
REMARK SMILES IDX 75 69 52 70 41 71 42 72 46 73 43 74 45 75 44 76 63 77 64 78
REMARK SMILES IDX 68 79 65 80 67 81 66 82 53 83 54 84 58 85 55 86 57 87 56 88
REMARK H PARENT 9 19 1 27 1 28 1 29 73 56 51 67
REMARK Flexibility Score: inf
ROOT
ATOM      1  C   UNL A   1      41.339  21.999  26.106  1.00  0.00     0.188 C 
ENDROOT
BRANCH   1   2
ATOM      2  C   UNL A   1      40.018  22.214  26.855  1.00  0.00     0.188 C 
BRANCH   2   3
ATOM      3  O   UNL A   1      39.029  23.005  26.235  1.00  0.00    -0.376 OA
BRANCH   3   4
ATOM      4  C   UNL A   1      37.758  22.512  25.846  1.00  0.00     0.202 C 
BRANCH   4   5
ATOM      5  C   UNL A   1      37.205  22.345  24.417  1.00  0.00     0.261 C 
BRANCH   5   6
ATOM      6  O   UNL A   1      35.870  21.876  24.270  1.00  0.00    -0.463 OA
BRANCH   6   7
ATOM      7  C   UNL A   1      35.562  20.778  24.996  1.00  0.00     0.309 C 
ATOM      8  O   UNL A   1      36.268  19.777  25.051  1.00  0.00    -0.252 OA
BRANCH   7   9
ATOM      9  C   UNL A   1      34.292  20.941  25.830  1.00  0.00     0.099 C 
ATOM     10  C   UNL A   1      31.930  22.747  26.013  1.00  0.00     0.008 C 
ATOM     11  C   UNL A   1      31.817  21.355  25.373  1.00  0.00     0.006 C 
ATOM     12  C   UNL A   1      32.865  22.601  27.214  1.00  0.00     0.006 C 
ATOM     13  C   UNL A   1      33.140  20.866  24.824  1.00  0.00     0.015 C 
ATOM     14  C   UNL A   1      34.265  22.167  26.775  1.00  0.00     0.015 C 
BRANCH  10  15
ATOM     15  C   UNL A   1      32.429  23.900  25.105  1.00  0.00     0.121 C 
BRANCH  15  16
ATOM     16  N   UNL A   1      32.431  25.211  25.704  1.00  0.00    -0.338 N 
ATOM     17  C   UNL A   1      32.510  26.459  25.214  1.00  0.00     0.317 C 
ATOM     18  O   UNL A   1      32.883  27.322  26.014  1.00  0.00    -0.249 OA
ATOM     19  H   UNL A   1      32.359  25.187  26.685  1.00  0.00     0.165 HD
BRANCH  17  20
ATOM     20  N   UNL A   1      32.142  26.757  23.928  1.00  0.00    -0.319 N 
ATOM     21  C   UNL A   1      30.676  28.685  24.086  1.00  0.00     0.200 C 
ATOM     22  C   UNL A   1      29.537  27.810  23.504  1.00  0.00     0.068 C 
ATOM     23  C   UNL A   1      32.063  28.179  23.621  1.00  0.00     0.186 C 
ATOM     24  C   UNL A   1      29.808  26.300  23.621  1.00  0.00     0.028 C 
ATOM     25  C   UNL A   1      31.212  25.987  23.117  1.00  0.00     0.122 C 
BRANCH  21  26
ATOM     26  N   UNL A   1      30.457  30.087  23.722  1.00  0.00    -0.354 N 
ATOM     27  H   UNL A   1      30.800  30.250  22.775  1.00  0.00     0.344 HD
ATOM     28  H   UNL A   1      30.959  30.689  24.374  1.00  0.00     0.344 HD
ATOM     29  H   UNL A   1      29.460  30.297  23.763  1.00  0.00     0.344 HD
ENDBRANCH  21  26
ENDBRANCH  17  20
ENDBRANCH  15  16
ENDBRANCH  10  15
ENDBRANCH   7   9
ENDBRANCH   6   7
ENDBRANCH   5   6
ENDBRANCH   4   5
ENDBRANCH   3   4
ENDBRANCH   2   3
ENDBRANCH   1   2
BRANCH   1  30
ATOM     30  O   UNL A   1      42.153  20.937  26.559  1.00  0.00    -0.377 OA
BRANCH  30  31
ATOM     31  C   UNL A   1      42.137  19.701  25.856  1.00  0.00     0.188 C 
BRANCH  31  32
ATOM     32  C   UNL A   1      43.447  19.035  25.384  1.00  0.00     0.188 C 
BRANCH  32  33
ATOM     33  O   UNL A   1      44.161  19.739  24.383  1.00  0.00    -0.376 OA
BRANCH  33  34
ATOM     34  C   UNL A   1      45.259  20.557  24.755  1.00  0.00     0.202 C 
BRANCH  34  35
ATOM     35  C   UNL A   1      45.213  22.053  24.401  1.00  0.00     0.261 C 
BRANCH  35  36
ATOM     36  O   UNL A   1      44.546  22.913  25.338  1.00  0.00    -0.460 OA
BRANCH  36  37
ATOM     37  C   UNL A   1      45.279  23.468  26.323  1.00  0.00     0.338 C 
ATOM     38  O   UNL A   1      46.483  23.370  26.498  1.00  0.00    -0.246 OA
BRANCH  37  39
ATOM     39  C   UNL A   1      44.404  24.395  27.067  1.00  0.00     0.060 A 
ATOM     40  C   UNL A   1      44.641  25.773  26.976  1.00  0.00     0.016 A 
ATOM     41  C   UNL A   1      43.362  23.905  27.855  1.00  0.00     0.016 A 
ATOM     42  C   UNL A   1      43.862  26.665  27.711  1.00  0.00     0.010 A 
ATOM     43  C   UNL A   1      42.598  24.797  28.612  1.00  0.00     0.010 A 
ATOM     44  C   UNL A   1      42.873  26.177  28.571  1.00  0.00    -0.014 A 
BRANCH  44  45
ATOM     45  C   UNL A   1      42.283  27.078  29.588  1.00  0.00     0.031 A 
ATOM     46  C   UNL A   1      42.957  27.175  30.929  1.00  0.00     0.074 A 
ATOM     47  C   UNL A   1      41.191  27.816  29.324  1.00  0.00     0.049 A 
ATOM     48  N   UNL A   1      42.604  27.854  31.990  1.00  0.00    -0.248 NA
ATOM     49  C   UNL A   1      44.196  26.397  31.095  1.00  0.00     0.031 C 
ATOM     50  C   UNL A   1      40.480  27.854  28.048  1.00  0.00     0.029 A 
ATOM     51  N   UNL A   1      40.486  28.674  30.131  1.00  0.00    -0.354 N 
ATOM     52  C   UNL A   1      43.566  27.570  32.952  1.00  0.00     0.074 A 
ATOM     53  C   UNL A   1      44.500  26.639  32.360  1.00  0.00     0.031 C 
ATOM     54  C   UNL A   1      39.429  28.684  28.162  1.00  0.00     0.029 A 
ATOM     55  C   UNL A   1      39.372  29.204  29.528  1.00  0.00     0.049 A 
ATOM     56  H   UNL A   1      40.753  28.888  31.053  1.00  0.00     0.167 HD
ATOM     57  C   UNL A   1      43.664  28.045  34.217  1.00  0.00     0.031 A 
ATOM     58  C   UNL A   1      38.404  29.993  30.031  1.00  0.00     0.031 A 
ATOM     59  C   UNL A   1      42.725  28.957  34.809  1.00  0.00     0.049 A 
ATOM     60  C   UNL A   1      38.487  30.441  31.468  1.00  0.00     0.074 A 
ATOM     61  C   UNL A   1      42.745  29.513  36.076  1.00  0.00     0.029 A 
ATOM     62  N   UNL A   1      41.589  29.441  34.177  1.00  0.00    -0.354 N 
ATOM     63  N   UNL A   1      39.415  30.191  32.361  1.00  0.00    -0.248 NA
ATOM     64  C   UNL A   1      37.393  31.289  31.962  1.00  0.00     0.031 C 
ATOM     65  C   UNL A   1      41.583  30.273  36.237  1.00  0.00     0.029 A 
ATOM     66  C   UNL A   1      40.880  30.257  35.043  1.00  0.00     0.049 A 
ATOM     67  H   UNL A   1      41.325  29.234  33.252  1.00  0.00     0.167 HD
ATOM     68  C   UNL A   1      39.032  30.875  33.509  1.00  0.00     0.074 A 
ATOM     69  C   UNL A   1      37.796  31.561  33.195  1.00  0.00     0.031 C 
ATOM     70  C   UNL A   1      39.650  30.931  34.716  1.00  0.00     0.031 A 
BRANCH  57  71
ATOM     71  C   UNL A   1      44.801  27.536  35.060  1.00  0.00    -0.014 A 
ATOM     72  C   UNL A   1      46.038  28.197  35.107  1.00  0.00     0.009 A 
ATOM     73  C   UNL A   1      44.621  26.380  35.837  1.00  0.00     0.009 A 
ATOM     74  C   UNL A   1      47.082  27.690  35.885  1.00  0.00     0.001 A 
ATOM     75  C   UNL A   1      45.654  25.896  36.640  1.00  0.00     0.001 A 
ATOM     76  C   UNL A   1      46.887  26.544  36.654  1.00  0.00     0.000 A 
ENDBRANCH  57  71
BRANCH  58  77
ATOM     77  C   UNL A   1      37.248  30.388  29.181  1.00  0.00    -0.014 A 
ATOM     78  C   UNL A   1      37.088  31.715  28.753  1.00  0.00     0.009 A 
ATOM     79  C   UNL A   1      36.284  29.437  28.810  1.00  0.00     0.009 A 
ATOM     80  C   UNL A   1      35.974  32.085  27.994  1.00  0.00     0.001 A 
ATOM     81  C   UNL A   1      35.189  29.803  28.025  1.00  0.00     0.001 A 
ATOM     82  C   UNL A   1      35.029  31.128  27.626  1.00  0.00     0.000 A 
ENDBRANCH  58  77
BRANCH  70  83
ATOM     83  C   UNL A   1      39.025  31.800  35.774  1.00  0.00    -0.014 A 
ATOM     84  C   UNL A   1      39.241  33.187  35.810  1.00  0.00     0.009 A 
ATOM     85  C   UNL A   1      38.164  31.223  36.723  1.00  0.00     0.009 A 
ATOM     86  C   UNL A   1      38.637  33.970  36.797  1.00  0.00     0.001 A 
ATOM     87  C   UNL A   1      37.535  32.014  37.685  1.00  0.00     0.001 A 
ATOM     88  C   UNL A   1      37.781  33.385  37.729  1.00  0.00     0.000 A 
ENDBRANCH  70  83
ENDBRANCH  44  45
ENDBRANCH  37  39
ENDBRANCH  36  37
ENDBRANCH  35  36
ENDBRANCH  34  35
ENDBRANCH  33  34
ENDBRANCH  32  33
ENDBRANCH  31  32
ENDBRANCH  30  31
ENDBRANCH   1  30
TORSDOF 24
ENDMDL
