MODEL 1
REMARK VINA RESULT:      -8.0      0.000      0.000
REMARK SMILES CC[C@H](C)CN(CC)C(=O)Nc1ccc(C(=O)OCCOCCOCCOCCOC(=O)c2ccc(-c3c4nc(c(-c5ccccc5)c5ccc([nH]5)c(-c5ccccc5)c5nc(c(-c6ccccc6)c6ccc3[nH]6)C=C5)C=C4)cc2)cc1Cl
REMARK SMILES IDX 22 1 21 2 20 3 19 4 18 5 16 6 17 7 15 8 12 9 13 10 82 11
REMARK SMILES IDX 14 12 81 13 83 14 11 15 9 16 10 17 6 19 5 20 3 21 4 22 2 23
REMARK SMILES IDX 1 24 7 25 8 26 23 27 24 28 25 29 26 30 27 31 28 32 29 33
REMARK SMILES IDX 30 34 31 35 32 36 33 37 34 38 80 39 35 40 79 41 36 42 37 43
REMARK SMILES IDX 38 44 73 45 39 46 78 47 72 48 74 49 40 50 77 51 71 52 70 53
REMARK SMILES IDX 41 55 63 56 48 57 62 58 49 59 52 60 61 61 75 62 50 63 51 64
REMARK SMILES IDX 60 66 76 67 53 68 42 69 43 70 47 71 44 72 46 73 45 74 64 75
REMARK SMILES IDX 65 76 69 77 66 78 68 79 67 80 54 81 55 82 59 83 56 84 58 85
REMARK SMILES IDX 57 86
REMARK H PARENT 11 18 74 54 52 65
REMARK Flexibility Score: inf
ROOT
ATOM      1  C   UNL A   1      40.915  20.865  26.990  1.00  0.00     0.188 C 
ENDROOT
BRANCH   1   2
ATOM      2  O   UNL A   1      39.863  19.970  26.687  1.00  0.00    -0.376 OA
BRANCH   2   3
ATOM      3  C   UNL A   1      39.303  19.821  25.393  1.00  0.00     0.202 C 
BRANCH   3   4
ATOM      4  C   UNL A   1      37.830  20.012  24.982  1.00  0.00     0.261 C 
BRANCH   4   5
ATOM      5  O   UNL A   1      37.076  20.977  25.698  1.00  0.00    -0.460 OA
BRANCH   5   6
ATOM      6  C   UNL A   1      37.415  22.264  25.519  1.00  0.00     0.338 C 
ATOM      7  O   UNL A   1      38.512  22.766  25.683  1.00  0.00    -0.246 OA
BRANCH   6   8
ATOM      8  C   UNL A   1      36.254  22.967  24.924  1.00  0.00     0.061 A 
ATOM      9  C   UNL A   1      34.303  24.351  23.558  1.00  0.00     0.061 A 
ATOM     10  C   UNL A   1      34.626  23.058  23.143  1.00  0.00     0.028 A 
ATOM     11  C   UNL A   1      34.718  24.819  24.808  1.00  0.00     0.065 A 
ATOM     12  C   UNL A   1      35.620  22.368  23.828  1.00  0.00     0.018 A 
ATOM     13  C   UNL A   1      35.747  24.160  25.464  1.00  0.00     0.038 A 
ATOM     14  Cl  UNL A   1      33.953  26.172  25.563  1.00  0.00    -0.082 Cl
BRANCH   9  15
ATOM     15  N   UNL A   1      33.744  25.200  22.609  1.00  0.00    -0.306 N 
ATOM     16  C   UNL A   1      32.455  25.293  22.172  1.00  0.00     0.321 C 
ATOM     17  O   UNL A   1      32.307  25.807  21.059  1.00  0.00    -0.248 OA
ATOM     18  H   UNL A   1      34.374  25.830  22.188  1.00  0.00     0.171 HD
BRANCH  16  19
ATOM     19  N   UNL A   1      31.370  25.018  23.000  1.00  0.00    -0.325 N 
BRANCH  19  20
ATOM     20  C   UNL A   1      30.464  26.138  23.281  1.00  0.00     0.124 C 
BRANCH  20  21
ATOM     21  C   UNL A   1      31.211  27.457  23.625  1.00  0.00     0.005 C 
ATOM     22  C   UNL A   1      30.868  28.566  22.625  1.00  0.00     0.009 C 
BRANCH  21  23
ATOM     23  C   UNL A   1      30.885  27.848  25.082  1.00  0.00     0.002 C 
ATOM     24  C   UNL A   1      31.722  28.985  25.647  1.00  0.00     0.004 C 
ENDBRANCH  21  23
ENDBRANCH  20  21
ENDBRANCH  19  20
BRANCH  19  25
ATOM     25  C   UNL A   1      31.008  23.790  23.726  1.00  0.00     0.118 C 
ATOM     26  C   UNL A   1      30.931  24.017  25.238  1.00  0.00     0.027 C 
ENDBRANCH  19  25
ENDBRANCH  16  19
ENDBRANCH   9  15
ENDBRANCH   6   8
ENDBRANCH   5   6
ENDBRANCH   4   5
ENDBRANCH   3   4
ENDBRANCH   2   3
ENDBRANCH   1   2
BRANCH   1  27
ATOM     27  C   UNL A   1      42.203  20.682  26.170  1.00  0.00     0.188 C 
BRANCH  27  28
ATOM     28  O   UNL A   1      43.266  21.520  26.584  1.00  0.00    -0.377 OA
BRANCH  28  29
ATOM     29  C   UNL A   1      44.280  21.812  25.624  1.00  0.00     0.188 C 
BRANCH  29  30
ATOM     30  C   UNL A   1      43.971  22.641  24.352  1.00  0.00     0.188 C 
BRANCH  30  31
ATOM     31  O   UNL A   1      45.103  23.041  23.595  1.00  0.00    -0.376 OA
BRANCH  31  32
ATOM     32  C   UNL A   1      46.364  23.162  24.234  1.00  0.00     0.202 C 
BRANCH  32  33
ATOM     33  C   UNL A   1      46.689  24.498  24.922  1.00  0.00     0.261 C 
BRANCH  33  34
ATOM     34  O   UNL A   1      45.772  25.570  24.659  1.00  0.00    -0.460 OA
BRANCH  34  35
ATOM     35  C   UNL A   1      46.246  26.824  24.799  1.00  0.00     0.338 C 
ATOM     36  O   UNL A   1      46.850  27.483  23.966  1.00  0.00    -0.246 OA
BRANCH  35  37
ATOM     37  C   UNL A   1      45.737  27.367  26.073  1.00  0.00     0.060 A 
ATOM     38  C   UNL A   1      44.353  27.423  26.267  1.00  0.00     0.016 A 
ATOM     39  C   UNL A   1      46.612  27.821  27.064  1.00  0.00     0.016 A 
ATOM     40  C   UNL A   1      43.836  27.976  27.435  1.00  0.00     0.010 A 
ATOM     41  C   UNL A   1      46.091  28.393  28.228  1.00  0.00     0.010 A 
ATOM     42  C   UNL A   1      44.700  28.509  28.399  1.00  0.00    -0.014 A 
BRANCH  42  43
ATOM     43  C   UNL A   1      44.128  29.325  29.496  1.00  0.00     0.031 A 
ATOM     44  C   UNL A   1      43.825  28.666  30.813  1.00  0.00     0.074 A 
ATOM     45  C   UNL A   1      43.944  30.647  29.348  1.00  0.00     0.049 A 
ATOM     46  N   UNL A   1      43.398  29.198  31.929  1.00  0.00    -0.248 NA
ATOM     47  C   UNL A   1      44.034  27.211  30.880  1.00  0.00     0.031 C 
ATOM     48  C   UNL A   1      44.226  31.409  28.133  1.00  0.00     0.029 A 
ATOM     49  N   UNL A   1      43.484  31.585  30.238  1.00  0.00    -0.354 N 
ATOM     50  C   UNL A   1      43.279  28.145  32.827  1.00  0.00     0.074 A 
ATOM     51  C   UNL A   1      43.645  26.939  32.115  1.00  0.00     0.031 C 
ATOM     52  C   UNL A   1      43.937  32.702  28.356  1.00  0.00     0.029 A 
ATOM     53  C   UNL A   1      43.424  32.853  29.717  1.00  0.00     0.049 A 
ATOM     54  H   UNL A   1      43.221  31.368  31.161  1.00  0.00     0.167 HD
ATOM     55  C   UNL A   1      42.905  28.176  34.129  1.00  0.00     0.031 A 
ATOM     56  C   UNL A   1      42.995  34.003  30.269  1.00  0.00     0.031 A 
ATOM     57  C   UNL A   1      42.515  29.373  34.830  1.00  0.00     0.049 A 
ATOM     58  C   UNL A   1      42.529  34.007  31.700  1.00  0.00     0.074 A 
ATOM     59  C   UNL A   1      42.145  29.514  36.155  1.00  0.00     0.029 A 
ATOM     60  N   UNL A   1      42.423  30.631  34.253  1.00  0.00    -0.354 N 
ATOM     61  N   UNL A   1      42.468  33.014  32.555  1.00  0.00    -0.248 NA
ATOM     62  C   UNL A   1      42.093  35.300  32.247  1.00  0.00     0.031 C 
ATOM     63  C   UNL A   1      41.757  30.843  36.363  1.00  0.00     0.029 A 
ATOM     64  C   UNL A   1      41.965  31.547  35.187  1.00  0.00     0.049 A 
ATOM     65  H   UNL A   1      42.651  30.842  33.320  1.00  0.00     0.167 HD
ATOM     66  C   UNL A   1      42.011  33.565  33.747  1.00  0.00     0.074 A 
ATOM     67  C   UNL A   1      41.833  34.984  33.507  1.00  0.00     0.031 C 
ATOM     68  C   UNL A   1      41.767  32.953  34.933  1.00  0.00     0.031 A 
BRANCH  55  69
ATOM     69  C   UNL A   1      42.844  26.859  34.858  1.00  0.00    -0.014 A 
ATOM     70  C   UNL A   1      43.992  26.264  35.407  1.00  0.00     0.009 A 
ATOM     71  C   UNL A   1      41.611  26.203  34.995  1.00  0.00     0.009 A 
ATOM     72  C   UNL A   1      43.912  25.016  36.032  1.00  0.00     0.001 A 
ATOM     73  C   UNL A   1      41.529  24.973  35.651  1.00  0.00     0.001 A 
ATOM     74  C   UNL A   1      42.681  24.374  36.156  1.00  0.00     0.000 A 
ENDBRANCH  55  69
BRANCH  56  75
ATOM     75  C   UNL A   1      42.981  35.246  29.455  1.00  0.00    -0.014 A 
ATOM     76  C   UNL A   1      44.069  36.131  29.467  1.00  0.00     0.009 A 
ATOM     77  C   UNL A   1      41.873  35.544  28.645  1.00  0.00     0.009 A 
ATOM     78  C   UNL A   1      44.041  37.296  28.696  1.00  0.00     0.001 A 
ATOM     79  C   UNL A   1      41.861  36.692  27.851  1.00  0.00     0.001 A 
ATOM     80  C   UNL A   1      42.943  37.571  27.882  1.00  0.00     0.000 A 
ENDBRANCH  56  75
BRANCH  68  81
ATOM     81  C   UNL A   1      41.307  33.826  36.073  1.00  0.00    -0.014 A 
ATOM     82  C   UNL A   1      39.944  34.033  36.341  1.00  0.00     0.009 A 
ATOM     83  C   UNL A   1      42.259  34.445  36.899  1.00  0.00     0.009 A 
ATOM     84  C   UNL A   1      39.547  34.885  37.375  1.00  0.00     0.001 A 
ATOM     85  C   UNL A   1      41.860  35.265  37.956  1.00  0.00     0.001 A 
ATOM     86  C   UNL A   1      40.505  35.497  38.182  1.00  0.00     0.000 A 
ENDBRANCH  68  81
ENDBRANCH  42  43
ENDBRANCH  35  37
ENDBRANCH  34  35
ENDBRANCH  33  34
ENDBRANCH  32  33
ENDBRANCH  31  32
ENDBRANCH  30  31
ENDBRANCH  29  30
ENDBRANCH  28  29
ENDBRANCH  27  28
ENDBRANCH   1  27
TORSDOF 26
ENDMDL
MODEL 2
REMARK VINA RESULT:      -8.0      1.412      2.073
REMARK SMILES CC[C@H](C)CN(CC)C(=O)Nc1ccc(C(=O)OCCOCCOCCOCCOC(=O)c2ccc(-c3c4nc(c(-c5ccccc5)c5ccc([nH]5)c(-c5ccccc5)c5nc(c(-c6ccccc6)c6ccc3[nH]6)C=C5)C=C4)cc2)cc1Cl
REMARK SMILES IDX 22 1 21 2 20 3 19 4 18 5 16 6 17 7 15 8 12 9 13 10 82 11
REMARK SMILES IDX 14 12 81 13 83 14 11 15 9 16 10 17 6 19 5 20 3 21 4 22 2 23
REMARK SMILES IDX 1 24 7 25 8 26 23 27 24 28 25 29 26 30 27 31 28 32 29 33
REMARK SMILES IDX 30 34 31 35 32 36 33 37 34 38 80 39 35 40 79 41 36 42 37 43
REMARK SMILES IDX 38 44 73 45 39 46 78 47 72 48 74 49 40 50 77 51 71 52 70 53
REMARK SMILES IDX 41 55 63 56 48 57 62 58 49 59 52 60 61 61 75 62 50 63 51 64
REMARK SMILES IDX 60 66 76 67 53 68 42 69 43 70 47 71 44 72 46 73 45 74 64 75
REMARK SMILES IDX 65 76 69 77 66 78 68 79 67 80 54 81 55 82 59 83 56 84 58 85
REMARK SMILES IDX 57 86
REMARK H PARENT 11 18 74 54 52 65
REMARK Flexibility Score: inf
ROOT
ATOM      1  C   UNL A   1      40.542  21.208  26.664  1.00  0.00     0.188 C 
ENDROOT
BRANCH   1   2
ATOM      2  O   UNL A   1      39.533  20.669  25.834  1.00  0.00    -0.376 OA
BRANCH   2   3
ATOM      3  C   UNL A   1      38.528  21.450  25.205  1.00  0.00     0.202 C 
BRANCH   3   4
ATOM      4  C   UNL A   1      37.352  22.181  25.880  1.00  0.00     0.261 C 
BRANCH   4   5
ATOM      5  O   UNL A   1      36.488  22.932  25.041  1.00  0.00    -0.460 OA
BRANCH   5   6
ATOM      6  C   UNL A   1      35.250  22.445  24.856  1.00  0.00     0.338 C 
ATOM      7  O   UNL A   1      34.936  21.283  24.674  1.00  0.00    -0.246 OA
BRANCH   6   8
ATOM      8  C   UNL A   1      34.285  23.549  25.070  1.00  0.00     0.061 A 
ATOM      9  C   UNL A   1      32.536  25.547  25.802  1.00  0.00     0.061 A 
ATOM     10  C   UNL A   1      33.908  25.792  25.879  1.00  0.00     0.028 A 
ATOM     11  C   UNL A   1      32.052  24.450  25.084  1.00  0.00     0.065 A 
ATOM     12  C   UNL A   1      34.787  24.776  25.521  1.00  0.00     0.018 A 
ATOM     13  C   UNL A   1      32.918  23.413  24.775  1.00  0.00     0.038 A 
ATOM     14  Cl  UNL A   1      30.411  24.379  24.546  1.00  0.00    -0.082 Cl
BRANCH   9  15
ATOM     15  N   UNL A   1      31.709  26.306  26.624  1.00  0.00    -0.306 N 
ATOM     16  C   UNL A   1      31.735  27.643  26.894  1.00  0.00     0.321 C 
ATOM     17  O   UNL A   1      31.190  27.982  27.948  1.00  0.00    -0.248 OA
ATOM     18  H   UNL A   1      30.997  25.801  27.081  1.00  0.00     0.171 HD
BRANCH  16  19
ATOM     19  N   UNL A   1      32.163  28.579  25.957  1.00  0.00    -0.325 N 
BRANCH  19  20
ATOM     20  C   UNL A   1      31.185  28.972  24.936  1.00  0.00     0.124 C 
BRANCH  20  21
ATOM     21  C   UNL A   1      30.792  27.807  23.984  1.00  0.00     0.005 C 
ATOM     22  C   UNL A   1      29.454  28.083  23.292  1.00  0.00     0.009 C 
BRANCH  21  23
ATOM     23  C   UNL A   1      31.943  27.575  22.982  1.00  0.00     0.002 C 
ATOM     24  C   UNL A   1      31.615  26.637  21.830  1.00  0.00     0.004 C 
ENDBRANCH  21  23
ENDBRANCH  20  21
ENDBRANCH  19  20
BRANCH  19  25
ATOM     25  C   UNL A   1      33.483  29.200  25.758  1.00  0.00     0.118 C 
ATOM     26  C   UNL A   1      34.413  28.970  26.952  1.00  0.00     0.027 C 
ENDBRANCH  19  25
ENDBRANCH  16  19
ENDBRANCH   9  15
ENDBRANCH   6   8
ENDBRANCH   5   6
ENDBRANCH   4   5
ENDBRANCH   3   4
ENDBRANCH   2   3
ENDBRANCH   1   2
BRANCH   1  27
ATOM     27  C   UNL A   1      41.978  21.092  26.127  1.00  0.00     0.188 C 
BRANCH  27  28
ATOM     28  O   UNL A   1      42.910  21.913  26.810  1.00  0.00    -0.377 OA
BRANCH  28  29
ATOM     29  C   UNL A   1      44.021  22.402  26.061  1.00  0.00     0.188 C 
BRANCH  29  30
ATOM     30  C   UNL A   1      43.823  23.132  24.709  1.00  0.00     0.188 C 
BRANCH  30  31
ATOM     31  O   UNL A   1      44.974  23.206  23.882  1.00  0.00    -0.376 OA
BRANCH  31  32
ATOM     32  C   UNL A   1      46.251  23.385  24.475  1.00  0.00     0.202 C 
BRANCH  32  33
ATOM     33  C   UNL A   1      46.606  24.789  24.991  1.00  0.00     0.261 C 
BRANCH  33  34
ATOM     34  O   UNL A   1      45.772  25.856  24.514  1.00  0.00    -0.460 OA
BRANCH  34  35
ATOM     35  C   UNL A   1      46.236  27.110  24.678  1.00  0.00     0.338 C 
ATOM     36  O   UNL A   1      46.817  27.797  23.851  1.00  0.00    -0.246 OA
BRANCH  35  37
ATOM     37  C   UNL A   1      45.744  27.615  25.974  1.00  0.00     0.060 A 
ATOM     38  C   UNL A   1      44.365  27.621  26.206  1.00  0.00     0.016 A 
ATOM     39  C   UNL A   1      46.631  28.081  26.948  1.00  0.00     0.016 A 
ATOM     40  C   UNL A   1      43.862  28.138  27.397  1.00  0.00     0.010 A 
ATOM     41  C   UNL A   1      46.123  28.617  28.136  1.00  0.00     0.010 A 
ATOM     42  C   UNL A   1      44.735  28.683  28.347  1.00  0.00    -0.014 A 
BRANCH  42  43
ATOM     43  C   UNL A   1      44.167  29.462  29.473  1.00  0.00     0.031 A 
ATOM     44  C   UNL A   1      43.886  28.762  30.774  1.00  0.00     0.074 A 
ATOM     45  C   UNL A   1      43.967  30.786  29.364  1.00  0.00     0.049 A 
ATOM     46  N   UNL A   1      43.466  29.258  31.909  1.00  0.00    -0.248 NA
ATOM     47  C   UNL A   1      44.112  27.309  30.797  1.00  0.00     0.031 C 
ATOM     48  C   UNL A   1      44.226  31.584  28.168  1.00  0.00     0.029 A 
ATOM     49  N   UNL A   1      43.506  31.693  30.285  1.00  0.00    -0.354 N 
ATOM     50  C   UNL A   1      43.369  28.179  32.779  1.00  0.00     0.074 A 
ATOM     51  C   UNL A   1      43.740  26.998  32.029  1.00  0.00     0.031 C 
ATOM     52  C   UNL A   1      43.925  32.867  28.430  1.00  0.00     0.029 A 
ATOM     53  C   UNL A   1      43.426  32.973  29.801  1.00  0.00     0.049 A 
ATOM     54  H   UNL A   1      43.257  31.447  31.205  1.00  0.00     0.167 HD
ATOM     55  C   UNL A   1      43.010  28.169  34.085  1.00  0.00     0.031 A 
ATOM     56  C   UNL A   1      42.991  34.103  30.391  1.00  0.00     0.031 A 
ATOM     57  C   UNL A   1      42.615  29.341  34.823  1.00  0.00     0.049 A 
ATOM     58  C   UNL A   1      42.542  34.062  31.826  1.00  0.00     0.074 A 
ATOM     59  C   UNL A   1      42.259  29.440  36.156  1.00  0.00     0.029 A 
ATOM     60  N   UNL A   1      42.503  30.614  34.284  1.00  0.00    -0.354 N 
ATOM     61  N   UNL A   1      42.502  33.044  32.653  1.00  0.00    -0.248 NA
ATOM     62  C   UNL A   1      42.099  35.334  32.414  1.00  0.00     0.031 C 
ATOM     63  C   UNL A   1      41.859  30.759  36.406  1.00  0.00     0.029 A 
ATOM     64  C   UNL A   1      42.046  31.499  35.248  1.00  0.00     0.049 A 
ATOM     65  H   UNL A   1      42.717  30.853  33.354  1.00  0.00     0.167 HD
ATOM     66  C   UNL A   1      42.053  33.556  33.865  1.00  0.00     0.074 A 
ATOM     67  C   UNL A   1      41.857  34.979  33.668  1.00  0.00     0.031 C 
ATOM     68  C   UNL A   1      41.829  32.909  35.036  1.00  0.00     0.031 A 
BRANCH  55  69
ATOM     69  C   UNL A   1      42.972  26.832  34.777  1.00  0.00    -0.014 A 
ATOM     70  C   UNL A   1      44.137  26.220  35.268  1.00  0.00     0.009 A 
ATOM     71  C   UNL A   1      41.743  26.173  34.938  1.00  0.00     0.009 A 
ATOM     72  C   UNL A   1      44.077  24.954  35.858  1.00  0.00     0.001 A 
ATOM     73  C   UNL A   1      41.682  24.925  35.560  1.00  0.00     0.001 A 
ATOM     74  C   UNL A   1      42.850  24.310  36.007  1.00  0.00     0.000 A 
ENDBRANCH  55  69
BRANCH  56  75
ATOM     75  C   UNL A   1      42.954  35.368  29.612  1.00  0.00    -0.014 A 
ATOM     76  C   UNL A   1      44.010  36.290  29.677  1.00  0.00     0.009 A 
ATOM     77  C   UNL A   1      41.857  35.652  28.782  1.00  0.00     0.009 A 
ATOM     78  C   UNL A   1      43.961  37.474  28.939  1.00  0.00     0.001 A 
ATOM     79  C   UNL A   1      41.825  36.822  28.021  1.00  0.00     0.001 A 
ATOM     80  C   UNL A   1      42.874  37.735  28.105  1.00  0.00     0.000 A 
ENDBRANCH  56  75
BRANCH  68  81
ATOM     81  C   UNL A   1      41.373  33.744  36.206  1.00  0.00    -0.014 A 
ATOM     82  C   UNL A   1      40.011  33.959  36.473  1.00  0.00     0.009 A 
ATOM     83  C   UNL A   1      42.328  34.319  37.061  1.00  0.00     0.009 A 
ATOM     84  C   UNL A   1      39.619  34.776  37.536  1.00  0.00     0.001 A 
ATOM     85  C   UNL A   1      41.932  35.103  38.145  1.00  0.00     0.001 A 
ATOM     86  C   UNL A   1      40.578  35.345  38.372  1.00  0.00     0.000 A 
ENDBRANCH  68  81
ENDBRANCH  42  43
ENDBRANCH  35  37
ENDBRANCH  34  35
ENDBRANCH  33  34
ENDBRANCH  32  33
ENDBRANCH  31  32
ENDBRANCH  30  31
ENDBRANCH  29  30
ENDBRANCH  28  29
ENDBRANCH  27  28
ENDBRANCH   1  27
TORSDOF 26
ENDMDL
MODEL 3
REMARK VINA RESULT:      -7.4      2.916      4.596
REMARK SMILES CC[C@H](C)CN(CC)C(=O)Nc1ccc(C(=O)OCCOCCOCCOCCOC(=O)c2ccc(-c3c4nc(c(-c5ccccc5)c5ccc([nH]5)c(-c5ccccc5)c5nc(c(-c6ccccc6)c6ccc3[nH]6)C=C5)C=C4)cc2)cc1Cl
REMARK SMILES IDX 22 1 21 2 20 3 19 4 18 5 16 6 17 7 15 8 12 9 13 10 82 11
REMARK SMILES IDX 14 12 81 13 83 14 11 15 9 16 10 17 6 19 5 20 3 21 4 22 2 23
REMARK SMILES IDX 1 24 7 25 8 26 23 27 24 28 25 29 26 30 27 31 28 32 29 33
REMARK SMILES IDX 30 34 31 35 32 36 33 37 34 38 80 39 35 40 79 41 36 42 37 43
REMARK SMILES IDX 38 44 73 45 39 46 78 47 72 48 74 49 40 50 77 51 71 52 70 53
REMARK SMILES IDX 41 55 63 56 48 57 62 58 49 59 52 60 61 61 75 62 50 63 51 64
REMARK SMILES IDX 60 66 76 67 53 68 42 69 43 70 47 71 44 72 46 73 45 74 64 75
REMARK SMILES IDX 65 76 69 77 66 78 68 79 67 80 54 81 55 82 59 83 56 84 58 85
REMARK SMILES IDX 57 86
REMARK H PARENT 11 18 74 54 52 65
REMARK Flexibility Score: inf
ROOT
ATOM      1  C   UNL A   1      38.413  21.853  25.458  1.00  0.00     0.188 C 
ENDROOT
BRANCH   1   2
ATOM      2  O   UNL A   1      37.147  21.224  25.502  1.00  0.00    -0.376 OA
BRANCH   2   3
ATOM      3  C   UNL A   1      35.920  21.928  25.604  1.00  0.00     0.202 C 
BRANCH   3   4
ATOM      4  C   UNL A   1      34.770  21.959  24.580  1.00  0.00     0.261 C 
BRANCH   4   5
ATOM      5  O   UNL A   1      33.447  22.004  25.090  1.00  0.00    -0.460 OA
BRANCH   5   6
ATOM      6  C   UNL A   1      33.087  23.122  25.741  1.00  0.00     0.338 C 
ATOM      7  O   UNL A   1      32.749  23.217  26.908  1.00  0.00    -0.246 OA
BRANCH   6   8
ATOM      8  C   UNL A   1      33.320  24.275  24.841  1.00  0.00     0.061 A 
ATOM      9  C   UNL A   1      33.505  26.577  23.340  1.00  0.00     0.061 A 
ATOM     10  C   UNL A   1      34.082  26.555  24.611  1.00  0.00     0.028 A 
ATOM     11  C   UNL A   1      33.123  25.388  22.714  1.00  0.00     0.065 A 
ATOM     12  C   UNL A   1      33.975  25.394  25.370  1.00  0.00     0.018 A 
ATOM     13  C   UNL A   1      32.964  24.245  23.482  1.00  0.00     0.038 A 
ATOM     14  Cl  UNL A   1      32.881  25.307  21.005  1.00  0.00    -0.082 Cl
BRANCH   9  15
ATOM     15  N   UNL A   1      33.148  27.821  22.829  1.00  0.00    -0.306 N 
ATOM     16  C   UNL A   1      31.914  28.386  22.689  1.00  0.00     0.321 C 
ATOM     17  O   UNL A   1      31.834  29.283  21.844  1.00  0.00    -0.248 OA
ATOM     18  H   UNL A   1      33.900  28.379  22.523  1.00  0.00     0.171 HD
BRANCH  16  19
ATOM     19  N   UNL A   1      30.871  28.116  23.571  1.00  0.00    -0.325 N 
BRANCH  19  20
ATOM     20  C   UNL A   1      30.257  29.276  24.228  1.00  0.00     0.124 C 
BRANCH  20  21
ATOM     21  C   UNL A   1      29.358  30.114  23.277  1.00  0.00     0.005 C 
ATOM     22  C   UNL A   1      28.085  29.350  22.901  1.00  0.00     0.009 C 
BRANCH  21  23
ATOM     23  C   UNL A   1      29.061  31.474  23.944  1.00  0.00     0.002 C 
ATOM     24  C   UNL A   1      28.421  32.512  23.034  1.00  0.00     0.004 C 
ENDBRANCH  21  23
ENDBRANCH  20  21
ENDBRANCH  19  20
BRANCH  19  25
ATOM     25  C   UNL A   1      30.315  26.833  24.032  1.00  0.00     0.118 C 
ATOM     26  C   UNL A   1      30.494  26.637  25.539  1.00  0.00     0.027 C 
ENDBRANCH  19  25
ENDBRANCH  16  19
ENDBRANCH   9  15
ENDBRANCH   6   8
ENDBRANCH   5   6
ENDBRANCH   4   5
ENDBRANCH   3   4
ENDBRANCH   2   3
ENDBRANCH   1   2
BRANCH   1  27
ATOM     27  C   UNL A   1      38.687  22.876  26.572  1.00  0.00     0.188 C 
BRANCH  27  28
ATOM     28  O   UNL A   1      39.978  23.456  26.508  1.00  0.00    -0.377 OA
BRANCH  28  29
ATOM     29  C   UNL A   1      41.077  22.651  26.931  1.00  0.00     0.188 C 
BRANCH  29  30
ATOM     30  C   UNL A   1      41.931  21.853  25.913  1.00  0.00     0.188 C 
BRANCH  30  31
ATOM     31  O   UNL A   1      43.325  22.117  25.948  1.00  0.00    -0.376 OA
BRANCH  31  32
ATOM     32  C   UNL A   1      43.872  22.844  27.037  1.00  0.00     0.202 C 
BRANCH  32  33
ATOM     33  C   UNL A   1      44.348  24.281  26.767  1.00  0.00     0.261 C 
BRANCH  33  34
ATOM     34  O   UNL A   1      43.401  25.316  27.072  1.00  0.00    -0.460 OA
BRANCH  34  35
ATOM     35  C   UNL A   1      43.097  26.173  26.077  1.00  0.00     0.338 C 
ATOM     36  O   UNL A   1      42.586  25.903  25.000  1.00  0.00    -0.246 OA
BRANCH  35  37
ATOM     37  C   UNL A   1      43.291  27.546  26.581  1.00  0.00     0.060 A 
ATOM     38  C   UNL A   1      44.316  27.778  27.505  1.00  0.00     0.016 A 
ATOM     39  C   UNL A   1      42.471  28.593  26.152  1.00  0.00     0.016 A 
ATOM     40  C   UNL A   1      44.495  29.050  28.040  1.00  0.00     0.010 A 
ATOM     41  C   UNL A   1      42.640  29.866  26.705  1.00  0.00     0.010 A 
ATOM     42  C   UNL A   1      43.628  30.089  27.680  1.00  0.00    -0.014 A 
BRANCH  42  43
ATOM     43  C   UNL A   1      43.669  31.352  28.455  1.00  0.00     0.031 A 
ATOM     44  C   UNL A   1      42.810  31.481  29.682  1.00  0.00     0.074 A 
ATOM     45  C   UNL A   1      44.508  32.344  28.114  1.00  0.00     0.049 A 
ATOM     46  N   UNL A   1      42.745  32.457  30.551  1.00  0.00    -0.248 NA
ATOM     47  C   UNL A   1      41.905  30.357  29.968  1.00  0.00     0.031 C 
ATOM     48  C   UNL A   1      45.412  32.329  26.965  1.00  0.00     0.029 A 
ATOM     49  N   UNL A   1      44.741  33.556  28.714  1.00  0.00    -0.354 N 
ATOM     50  C   UNL A   1      41.788  32.069  31.481  1.00  0.00     0.074 A 
ATOM     51  C   UNL A   1      41.274  30.787  31.050  1.00  0.00     0.031 C 
ATOM     52  C   UNL A   1      46.106  33.479  26.947  1.00  0.00     0.029 A 
ATOM     53  C   UNL A   1      45.676  34.319  28.064  1.00  0.00     0.049 A 
ATOM     54  H   UNL A   1      44.279  33.849  29.533  1.00  0.00     0.167 HD
ATOM     55  C   UNL A   1      41.376  32.719  32.597  1.00  0.00     0.031 A 
ATOM     56  C   UNL A   1      46.128  35.559  28.331  1.00  0.00     0.031 A 
ATOM     57  C   UNL A   1      41.868  34.007  33.011  1.00  0.00     0.049 A 
ATOM     58  C   UNL A   1      45.617  36.287  29.544  1.00  0.00     0.074 A 
ATOM     59  C   UNL A   1      41.534  34.736  34.138  1.00  0.00     0.029 A 
ATOM     60  N   UNL A   1      42.783  34.769  32.300  1.00  0.00    -0.354 N 
ATOM     61  N   UNL A   1      44.748  35.891  30.444  1.00  0.00    -0.248 NA
ATOM     62  C   UNL A   1      46.167  37.628  29.787  1.00  0.00     0.031 C 
ATOM     63  C   UNL A   1      42.189  35.971  34.071  1.00  0.00     0.029 A 
ATOM     64  C   UNL A   1      42.996  35.978  32.944  1.00  0.00     0.049 A 
ATOM     65  H   UNL A   1      43.217  34.492  31.461  1.00  0.00     0.167 HD
ATOM     66  C   UNL A   1      44.666  36.921  31.373  1.00  0.00     0.074 A 
ATOM     67  C   UNL A   1      45.590  37.949  30.937  1.00  0.00     0.031 C 
ATOM     68  C   UNL A   1      43.899  37.006  32.489  1.00  0.00     0.031 A 
BRANCH  55  69
ATOM     69  C   UNL A   1      40.294  32.061  33.413  1.00  0.00    -0.014 A 
ATOM     70  C   UNL A   1      38.932  32.295  33.161  1.00  0.00     0.009 A 
ATOM     71  C   UNL A   1      40.649  31.192  34.457  1.00  0.00     0.009 A 
ATOM     72  C   UNL A   1      37.952  31.712  33.970  1.00  0.00     0.001 A 
ATOM     73  C   UNL A   1      39.666  30.582  35.240  1.00  0.00     0.001 A 
ATOM     74  C   UNL A   1      38.319  30.854  35.005  1.00  0.00     0.000 A 
ENDBRANCH  55  69
BRANCH  56  75
ATOM     75  C   UNL A   1      47.118  36.190  27.419  1.00  0.00    -0.014 A 
ATOM     76  C   UNL A   1      46.708  37.037  26.379  1.00  0.00     0.009 A 
ATOM     77  C   UNL A   1      48.491  35.956  27.602  1.00  0.00     0.009 A 
ATOM     78  C   UNL A   1      47.651  37.623  25.531  1.00  0.00     0.001 A 
ATOM     79  C   UNL A   1      49.433  36.568  26.773  1.00  0.00     0.001 A 
ATOM     80  C   UNL A   1      49.012  37.396  25.734  1.00  0.00     0.000 A 
ENDBRANCH  56  75
BRANCH  68  81
ATOM     81  C   UNL A   1      44.051  38.246  33.334  1.00  0.00    -0.014 A 
ATOM     82  C   UNL A   1      44.919  38.283  34.438  1.00  0.00     0.009 A 
ATOM     83  C   UNL A   1      43.318  39.399  33.012  1.00  0.00     0.009 A 
ATOM     84  C   UNL A   1      45.005  39.430  35.232  1.00  0.00     0.001 A 
ATOM     85  C   UNL A   1      43.434  40.555  33.784  1.00  0.00     0.001 A 
ATOM     86  C   UNL A   1      44.265  40.564  34.903  1.00  0.00     0.000 A 
ENDBRANCH  68  81
ENDBRANCH  42  43
ENDBRANCH  35  37
ENDBRANCH  34  35
ENDBRANCH  33  34
ENDBRANCH  32  33
ENDBRANCH  31  32
ENDBRANCH  30  31
ENDBRANCH  29  30
ENDBRANCH  28  29
ENDBRANCH  27  28
ENDBRANCH   1  27
TORSDOF 26
ENDMDL
