MODEL 1
REMARK VINA RESULT:      -9.1      0.000      0.000
REMARK SMILES O=Cc1ccc2c(c1)C=C(C(=O)OCCOCCOCCOCCOC(=O)c1ccc(-c3c4nc(c(-c5ccccc5)c5ccc([nH]5)c(-c5ccccc5)c5nc(c(-c6ccccc6)c6ccc3[nH]6)C=C5)C=C4)cc1)[C@H](C(F)(F)F)O2
REMARK SMILES IDX 20 1 19 2 18 3 17 4 16 5 15 6 14 7 13 8 11 9 12 10 10 11
REMARK SMILES IDX 3 12 4 13 8 14 5 15 7 16 6 17 9 18 81 19 76 20 2 21 1 22
REMARK SMILES IDX 77 23 78 24 79 25 80 26 21 27 22 28 23 29 24 30 25 31 26 32
REMARK SMILES IDX 27 33 28 34 29 35 75 36 30 37 74 38 31 39 32 40 33 41 68 42
REMARK SMILES IDX 34 43 73 44 67 45 69 46 35 47 72 48 66 49 65 50 36 52 58 53
REMARK SMILES IDX 43 54 57 55 44 56 47 57 56 58 70 59 45 60 46 61 55 63 71 64
REMARK SMILES IDX 48 65 37 66 38 67 42 68 39 69 41 70 40 71 59 72 60 73 64 74
REMARK SMILES IDX 61 75 63 76 62 77 49 78 50 79 54 80 51 81 53 82 52 83
REMARK H PARENT 69 51 47 62
REMARK Flexibility Score: inf
ROOT
ATOM      1  C   UNL A   1      33.722  34.483  28.369  1.00  0.00     0.188 C 
ENDROOT
BRANCH   1   2
ATOM      2  O   UNL A   1      35.028  33.921  28.248  1.00  0.00    -0.377 OA
BRANCH   2   3
ATOM      3  C   UNL A   1      35.173  32.604  27.743  1.00  0.00     0.188 C 
BRANCH   3   4
ATOM      4  C   UNL A   1      34.013  31.614  27.978  1.00  0.00     0.188 C 
BRANCH   4   5
ATOM      5  O   UNL A   1      33.595  30.935  26.805  1.00  0.00    -0.376 OA
BRANCH   5   6
ATOM      6  C   UNL A   1      32.235  30.565  26.686  1.00  0.00     0.202 C 
BRANCH   6   7
ATOM      7  C   UNL A   1      31.815  29.180  27.200  1.00  0.00     0.261 C 
BRANCH   7   8
ATOM      8  O   UNL A   1      32.686  28.095  26.850  1.00  0.00    -0.460 OA
BRANCH   8   9
ATOM      9  C   UNL A   1      32.113  26.907  26.552  1.00  0.00     0.338 C 
ATOM     10  O   UNL A   1      30.999  26.546  26.880  1.00  0.00    -0.246 OA
BRANCH   9  11
ATOM     11  C   UNL A   1      32.991  26.165  25.623  1.00  0.00     0.087 C 
ATOM     12  C   UNL A   1      36.404  22.900  24.673  1.00  0.00     0.015 A 
ATOM     13  C   UNL A   1      35.982  22.852  23.340  1.00  0.00     0.015 A 
ATOM     14  C   UNL A   1      35.781  23.754  25.591  1.00  0.00     0.023 A 
ATOM     15  C   UNL A   1      34.931  23.664  22.919  1.00  0.00     0.048 A 
ATOM     16  C   UNL A   1      34.710  24.550  25.173  1.00  0.00     0.018 A 
ATOM     17  C   UNL A   1      34.306  24.511  23.831  1.00  0.00     0.128 A 
ATOM     18  C   UNL A   1      33.914  25.324  26.123  1.00  0.00     0.027 C 
ATOM     19  O   UNL A   1      33.236  25.225  23.364  1.00  0.00    -0.475 OA
ATOM     20  C   UNL A   1      32.913  26.418  24.130  1.00  0.00     0.316 C 
BRANCH  12  21
ATOM     21  C   UNL A   1      37.487  22.004  25.131  1.00  0.00     0.260 C 
ATOM     22  O   UNL A   1      37.307  20.805  25.301  1.00  0.00    -0.298 OA
ENDBRANCH  12  21
BRANCH  20  23
ATOM     23  C   UNL A   1      31.629  27.027  23.541  1.00  0.00     0.430 C 
ATOM     24  F   UNL A   1      31.636  27.004  22.189  1.00  0.00    -0.167 F 
ATOM     25  F   UNL A   1      30.551  26.282  23.911  1.00  0.00    -0.167 F 
ATOM     26  F   UNL A   1      31.402  28.289  23.954  1.00  0.00    -0.167 F 
ENDBRANCH  20  23
ENDBRANCH   9  11
ENDBRANCH   8   9
ENDBRANCH   7   8
ENDBRANCH   6   7
ENDBRANCH   5   6
ENDBRANCH   4   5
ENDBRANCH   3   4
ENDBRANCH   2   3
ENDBRANCH   1   2
BRANCH   1  27
ATOM     27  C   UNL A   1      33.171  35.024  29.715  1.00  0.00     0.188 C 
BRANCH  27  28
ATOM     28  O   UNL A   1      33.724  36.260  30.136  1.00  0.00    -0.376 OA
BRANCH  28  29
ATOM     29  C   UNL A   1      33.376  36.743  31.419  1.00  0.00     0.202 C 
BRANCH  29  30
ATOM     30  C   UNL A   1      33.252  35.691  32.529  1.00  0.00     0.261 C 
BRANCH  30  31
ATOM     31  O   UNL A   1      34.397  34.845  32.716  1.00  0.00    -0.460 OA
BRANCH  31  32
ATOM     32  C   UNL A   1      34.157  33.539  32.953  1.00  0.00     0.338 C 
ATOM     33  O   UNL A   1      33.106  33.034  33.317  1.00  0.00    -0.246 OA
BRANCH  32  34
ATOM     34  C   UNL A   1      35.339  32.776  32.510  1.00  0.00     0.060 A 
ATOM     35  C   UNL A   1      36.340  32.467  33.442  1.00  0.00     0.016 A 
ATOM     36  C   UNL A   1      35.454  32.364  31.180  1.00  0.00     0.016 A 
ATOM     37  C   UNL A   1      37.489  31.793  33.031  1.00  0.00     0.010 A 
ATOM     38  C   UNL A   1      36.616  31.709  30.765  1.00  0.00     0.010 A 
ATOM     39  C   UNL A   1      37.656  31.467  31.679  1.00  0.00    -0.014 A 
BRANCH  39  40
ATOM     40  C   UNL A   1      39.009  31.123  31.183  1.00  0.00     0.031 A 
ATOM     41  C   UNL A   1      40.120  32.108  31.434  1.00  0.00     0.074 A 
ATOM     42  C   UNL A   1      39.263  29.959  30.563  1.00  0.00     0.049 A 
ATOM     43  N   UNL A   1      41.380  32.048  31.089  1.00  0.00    -0.248 NA
ATOM     44  C   UNL A   1      39.754  33.328  32.174  1.00  0.00     0.031 C 
ATOM     45  C   UNL A   1      38.287  28.902  30.306  1.00  0.00     0.029 A 
ATOM     46  N   UNL A   1      40.434  29.477  30.035  1.00  0.00    -0.354 N 
ATOM     47  C   UNL A   1      41.951  33.225  31.559  1.00  0.00     0.074 A 
ATOM     48  C   UNL A   1      40.896  33.995  32.178  1.00  0.00     0.031 C 
ATOM     49  C   UNL A   1      38.902  27.892  29.664  1.00  0.00     0.029 A 
ATOM     50  C   UNL A   1      40.302  28.248  29.437  1.00  0.00     0.049 A 
ATOM     51  H   UNL A   1      41.287  29.965  30.081  1.00  0.00     0.167 HD
ATOM     52  C   UNL A   1      43.241  33.629  31.489  1.00  0.00     0.031 A 
ATOM     53  C   UNL A   1      41.207  27.507  28.770  1.00  0.00     0.031 A 
ATOM     54  C   UNL A   1      44.287  32.873  30.855  1.00  0.00     0.049 A 
ATOM     55  C   UNL A   1      42.620  28.012  28.632  1.00  0.00     0.074 A 
ATOM     56  C   UNL A   1      45.628  33.189  30.734  1.00  0.00     0.029 A 
ATOM     57  N   UNL A   1      44.104  31.652  30.224  1.00  0.00    -0.354 N 
ATOM     58  N   UNL A   1      43.157  29.115  29.098  1.00  0.00    -0.248 NA
ATOM     59  C   UNL A   1      43.558  27.157  27.890  1.00  0.00     0.031 C 
ATOM     60  C   UNL A   1      46.243  32.189  29.973  1.00  0.00     0.029 A 
ATOM     61  C   UNL A   1      45.302  31.213  29.688  1.00  0.00     0.049 A 
ATOM     62  H   UNL A   1      43.247  31.168  30.165  1.00  0.00     0.167 HD
ATOM     63  C   UNL A   1      44.500  29.067  28.740  1.00  0.00     0.074 A 
ATOM     64  C   UNL A   1      44.697  27.821  28.030  1.00  0.00     0.031 C 
ATOM     65  C   UNL A   1      45.484  29.969  28.984  1.00  0.00     0.031 A 
BRANCH  52  66
ATOM     66  C   UNL A   1      43.572  34.975  32.074  1.00  0.00    -0.014 A 
ATOM     67  C   UNL A   1      43.850  35.135  33.441  1.00  0.00     0.009 A 
ATOM     68  C   UNL A   1      43.610  36.102  31.239  1.00  0.00     0.009 A 
ATOM     69  C   UNL A   1      44.114  36.402  33.966  1.00  0.00     0.001 A 
ATOM     70  C   UNL A   1      43.909  37.362  31.759  1.00  0.00     0.001 A 
ATOM     71  C   UNL A   1      44.149  37.513  33.124  1.00  0.00     0.000 A 
ENDBRANCH  52  66
BRANCH  53  72
ATOM     72  C   UNL A   1      40.808  26.207  28.165  1.00  0.00    -0.014 A 
ATOM     73  C   UNL A   1      40.035  26.166  26.995  1.00  0.00     0.009 A 
ATOM     74  C   UNL A   1      41.181  24.997  28.772  1.00  0.00     0.009 A 
ATOM     75  C   UNL A   1      39.620  24.943  26.462  1.00  0.00     0.001 A 
ATOM     76  C   UNL A   1      40.792  23.775  28.219  1.00  0.00     0.001 A 
ATOM     77  C   UNL A   1      40.004  23.749  27.071  1.00  0.00     0.000 A 
ENDBRANCH  53  72
BRANCH  65  78
ATOM     78  C   UNL A   1      46.876  29.614  28.533  1.00  0.00    -0.014 A 
ATOM     79  C   UNL A   1      47.366  29.994  27.274  1.00  0.00     0.009 A 
ATOM     80  C   UNL A   1      47.722  28.909  29.405  1.00  0.00     0.009 A 
ATOM     81  C   UNL A   1      48.657  29.632  26.880  1.00  0.00     0.001 A 
ATOM     82  C   UNL A   1      49.023  28.582  29.023  1.00  0.00     0.001 A 
ATOM     83  C   UNL A   1      49.486  28.931  27.756  1.00  0.00     0.000 A 
ENDBRANCH  65  78
ENDBRANCH  39  40
ENDBRANCH  32  34
ENDBRANCH  31  32
ENDBRANCH  30  31
ENDBRANCH  29  30
ENDBRANCH  28  29
ENDBRANCH  27  28
ENDBRANCH   1  27
TORSDOF 22
ENDMDL
MODEL 2
REMARK VINA RESULT:      -8.8      2.872      4.568
REMARK SMILES O=Cc1ccc2c(c1)C=C(C(=O)OCCOCCOCCOCCOC(=O)c1ccc(-c3c4nc(c(-c5ccccc5)c5ccc([nH]5)c(-c5ccccc5)c5nc(c(-c6ccccc6)c6ccc3[nH]6)C=C5)C=C4)cc1)[C@H](C(F)(F)F)O2
REMARK SMILES IDX 20 1 19 2 18 3 17 4 16 5 15 6 14 7 13 8 11 9 12 10 10 11
REMARK SMILES IDX 3 12 4 13 8 14 5 15 7 16 6 17 9 18 81 19 76 20 2 21 1 22
REMARK SMILES IDX 77 23 78 24 79 25 80 26 21 27 22 28 23 29 24 30 25 31 26 32
REMARK SMILES IDX 27 33 28 34 29 35 75 36 30 37 74 38 31 39 32 40 33 41 68 42
REMARK SMILES IDX 34 43 73 44 67 45 69 46 35 47 72 48 66 49 65 50 36 52 58 53
REMARK SMILES IDX 43 54 57 55 44 56 47 57 56 58 70 59 45 60 46 61 55 63 71 64
REMARK SMILES IDX 48 65 37 66 38 67 42 68 39 69 41 70 40 71 59 72 60 73 64 74
REMARK SMILES IDX 61 75 63 76 62 77 49 78 50 79 54 80 51 81 53 82 52 83
REMARK H PARENT 69 51 47 62
REMARK Flexibility Score: inf
ROOT
ATOM      1  C   UNL A   1      34.062  33.912  28.022  1.00  0.00     0.188 C 
ENDROOT
BRANCH   1   2
ATOM      2  O   UNL A   1      35.288  33.283  28.395  1.00  0.00    -0.377 OA
BRANCH   2   3
ATOM      3  C   UNL A   1      35.571  31.977  27.921  1.00  0.00     0.188 C 
BRANCH   3   4
ATOM      4  C   UNL A   1      34.480  30.900  28.096  1.00  0.00     0.188 C 
BRANCH   4   5
ATOM      5  O   UNL A   1      34.061  30.309  26.877  1.00  0.00    -0.376 OA
BRANCH   5   6
ATOM      6  C   UNL A   1      33.461  29.028  26.916  1.00  0.00     0.202 C 
BRANCH   6   7
ATOM      7  C   UNL A   1      34.017  27.941  25.985  1.00  0.00     0.261 C 
BRANCH   7   8
ATOM      8  O   UNL A   1      33.864  28.185  24.580  1.00  0.00    -0.460 OA
BRANCH   8   9
ATOM      9  C   UNL A   1      33.131  27.300  23.869  1.00  0.00     0.338 C 
ATOM     10  O   UNL A   1      33.498  26.203  23.492  1.00  0.00    -0.246 OA
BRANCH   9  11
ATOM     11  C   UNL A   1      31.745  27.802  23.751  1.00  0.00     0.087 C 
ATOM     12  C   UNL A   1      28.413  30.714  21.847  1.00  0.00     0.015 A 
ATOM     13  C   UNL A   1      27.408  29.844  22.284  1.00  0.00     0.015 A 
ATOM     14  C   UNL A   1      29.760  30.443  22.114  1.00  0.00     0.023 A 
ATOM     15  C   UNL A   1      27.750  28.695  22.994  1.00  0.00     0.048 A 
ATOM     16  C   UNL A   1      30.104  29.278  22.806  1.00  0.00     0.018 A 
ATOM     17  C   UNL A   1      29.091  28.421  23.258  1.00  0.00     0.128 A 
ATOM     18  C   UNL A   1      31.496  28.860  22.959  1.00  0.00     0.027 C 
ATOM     19  O   UNL A   1      29.356  27.240  23.898  1.00  0.00    -0.475 OA
ATOM     20  C   UNL A   1      30.637  27.189  24.584  1.00  0.00     0.316 C 
BRANCH  12  21
ATOM     21  C   UNL A   1      28.053  31.906  21.052  1.00  0.00     0.260 C 
ATOM     22  O   UNL A   1      27.986  33.022  21.550  1.00  0.00    -0.298 OA
ENDBRANCH  12  21
BRANCH  20  23
ATOM     23  C   UNL A   1      30.820  25.767  25.143  1.00  0.00     0.430 C 
ATOM     24  F   UNL A   1      31.815  25.710  26.056  1.00  0.00    -0.167 F 
ATOM     25  F   UNL A   1      29.695  25.384  25.807  1.00  0.00    -0.167 F 
ATOM     26  F   UNL A   1      31.052  24.848  24.188  1.00  0.00    -0.167 F 
ENDBRANCH  20  23
ENDBRANCH   9  11
ENDBRANCH   8   9
ENDBRANCH   7   8
ENDBRANCH   6   7
ENDBRANCH   5   6
ENDBRANCH   4   5
ENDBRANCH   3   4
ENDBRANCH   2   3
ENDBRANCH   1   2
BRANCH   1  27
ATOM     27  C   UNL A   1      33.184  34.688  29.039  1.00  0.00     0.188 C 
BRANCH  27  28
ATOM     28  O   UNL A   1      33.611  36.012  29.312  1.00  0.00    -0.376 OA
BRANCH  28  29
ATOM     29  C   UNL A   1      33.338  36.550  30.591  1.00  0.00     0.202 C 
BRANCH  29  30
ATOM     30  C   UNL A   1      33.398  35.566  31.767  1.00  0.00     0.261 C 
BRANCH  30  31
ATOM     31  O   UNL A   1      34.660  34.913  31.969  1.00  0.00    -0.460 OA
BRANCH  31  32
ATOM     32  C   UNL A   1      34.623  33.627  32.378  1.00  0.00     0.338 C 
ATOM     33  O   UNL A   1      33.638  32.914  32.486  1.00  0.00    -0.246 OA
BRANCH  32  34
ATOM     34  C   UNL A   1      36.015  33.151  32.494  1.00  0.00     0.060 A 
ATOM     35  C   UNL A   1      36.955  33.556  31.536  1.00  0.00     0.016 A 
ATOM     36  C   UNL A   1      36.387  32.311  33.546  1.00  0.00     0.016 A 
ATOM     37  C   UNL A   1      38.262  33.074  31.598  1.00  0.00     0.010 A 
ATOM     38  C   UNL A   1      37.690  31.811  33.593  1.00  0.00     0.010 A 
ATOM     39  C   UNL A   1      38.615  32.153  32.591  1.00  0.00    -0.014 A 
BRANCH  39  40
ATOM     40  C   UNL A   1      39.851  31.354  32.426  1.00  0.00     0.031 A 
ATOM     41  C   UNL A   1      41.016  31.669  33.328  1.00  0.00     0.074 A 
ATOM     42  C   UNL A   1      39.937  30.353  31.535  1.00  0.00     0.049 A 
ATOM     43  N   UNL A   1      42.206  31.128  33.372  1.00  0.00    -0.248 NA
ATOM     44  C   UNL A   1      40.805  32.744  34.313  1.00  0.00     0.031 C 
ATOM     45  C   UNL A   1      38.866  29.916  30.641  1.00  0.00     0.029 A 
ATOM     46  N   UNL A   1      40.987  29.521  31.238  1.00  0.00    -0.354 N 
ATOM     47  C   UNL A   1      42.886  31.805  34.378  1.00  0.00     0.074 A 
ATOM     48  C   UNL A   1      41.992  32.817  34.892  1.00  0.00     0.031 C 
ATOM     49  C   UNL A   1      39.317  28.894  29.892  1.00  0.00     0.029 A 
ATOM     50  C   UNL A   1      40.715  28.630  30.230  1.00  0.00     0.049 A 
ATOM     51  H   UNL A   1      41.853  29.558  31.705  1.00  0.00     0.167 HD
ATOM     52  C   UNL A   1      44.142  31.599  34.839  1.00  0.00     0.031 A 
ATOM     53  C   UNL A   1      41.512  27.719  29.639  1.00  0.00     0.031 A 
ATOM     54  C   UNL A   1      45.038  30.605  34.314  1.00  0.00     0.049 A 
ATOM     55  C   UNL A   1      42.933  27.561  30.114  1.00  0.00     0.074 A 
ATOM     56  C   UNL A   1      46.329  30.311  34.715  1.00  0.00     0.029 A 
ATOM     57  N   UNL A   1      44.739  29.751  33.264  1.00  0.00    -0.354 N 
ATOM     58  N   UNL A   1      43.561  28.190  31.080  1.00  0.00    -0.248 NA
ATOM     59  C   UNL A   1      43.751  26.551  29.426  1.00  0.00     0.031 C 
ATOM     60  C   UNL A   1      46.833  29.322  33.864  1.00  0.00     0.029 A 
ATOM     61  C   UNL A   1      45.830  28.946  32.985  1.00  0.00     0.049 A 
ATOM     62  H   UNL A   1      43.878  29.721  32.787  1.00  0.00     0.167 HD
ATOM     63  C   UNL A   1      44.831  27.625  31.140  1.00  0.00     0.074 A 
ATOM     64  C   UNL A   1      44.878  26.596  30.123  1.00  0.00     0.031 C 
ATOM     65  C   UNL A   1      45.862  27.925  31.969  1.00  0.00     0.031 A 
BRANCH  52  66
ATOM     66  C   UNL A   1      44.627  32.506  35.937  1.00  0.00    -0.014 A 
ATOM     67  C   UNL A   1      44.459  32.177  37.292  1.00  0.00     0.009 A 
ATOM     68  C   UNL A   1      45.268  33.710  35.607  1.00  0.00     0.009 A 
ATOM     69  C   UNL A   1      44.882  33.056  38.291  1.00  0.00     0.001 A 
ATOM     70  C   UNL A   1      45.721  34.571  36.608  1.00  0.00     0.001 A 
ATOM     71  C   UNL A   1      45.517  34.249  37.949  1.00  0.00     0.000 A 
ENDBRANCH  52  66
BRANCH  53  72
ATOM     72  C   UNL A   1      40.992  26.886  28.521  1.00  0.00    -0.014 A 
ATOM     73  C   UNL A   1      41.317  27.188  27.190  1.00  0.00     0.009 A 
ATOM     74  C   UNL A   1      40.147  25.796  28.781  1.00  0.00     0.009 A 
ATOM     75  C   UNL A   1      40.784  26.433  26.141  1.00  0.00     0.001 A 
ATOM     76  C   UNL A   1      39.641  25.023  27.733  1.00  0.00     0.001 A 
ATOM     77  C   UNL A   1      39.952  25.348  26.414  1.00  0.00     0.000 A 
ENDBRANCH  53  72
BRANCH  65  78
ATOM     78  C   UNL A   1      47.110  27.090  31.851  1.00  0.00    -0.014 A 
ATOM     79  C   UNL A   1      47.317  25.952  32.646  1.00  0.00     0.009 A 
ATOM     80  C   UNL A   1      48.083  27.439  30.901  1.00  0.00     0.009 A 
ATOM     81  C   UNL A   1      48.495  25.210  32.524  1.00  0.00     0.001 A 
ATOM     82  C   UNL A   1      49.241  26.674  30.755  1.00  0.00     0.001 A 
ATOM     83  C   UNL A   1      49.453  25.569  31.577  1.00  0.00     0.000 A 
ENDBRANCH  65  78
ENDBRANCH  39  40
ENDBRANCH  32  34
ENDBRANCH  31  32
ENDBRANCH  30  31
ENDBRANCH  29  30
ENDBRANCH  28  29
ENDBRANCH  27  28
ENDBRANCH   1  27
TORSDOF 22
ENDMDL
MODEL 3
REMARK VINA RESULT:      -8.7      5.235      7.596
REMARK SMILES O=Cc1ccc2c(c1)C=C(C(=O)OCCOCCOCCOCCOC(=O)c1ccc(-c3c4nc(c(-c5ccccc5)c5ccc([nH]5)c(-c5ccccc5)c5nc(c(-c6ccccc6)c6ccc3[nH]6)C=C5)C=C4)cc1)[C@H](C(F)(F)F)O2
REMARK SMILES IDX 20 1 19 2 18 3 17 4 16 5 15 6 14 7 13 8 11 9 12 10 10 11
REMARK SMILES IDX 3 12 4 13 8 14 5 15 7 16 6 17 9 18 81 19 76 20 2 21 1 22
REMARK SMILES IDX 77 23 78 24 79 25 80 26 21 27 22 28 23 29 24 30 25 31 26 32
REMARK SMILES IDX 27 33 28 34 29 35 75 36 30 37 74 38 31 39 32 40 33 41 68 42
REMARK SMILES IDX 34 43 73 44 67 45 69 46 35 47 72 48 66 49 65 50 36 52 58 53
REMARK SMILES IDX 43 54 57 55 44 56 47 57 56 58 70 59 45 60 46 61 55 63 71 64
REMARK SMILES IDX 48 65 37 66 38 67 42 68 39 69 41 70 40 71 59 72 60 73 64 74
REMARK SMILES IDX 61 75 63 76 62 77 49 78 50 79 54 80 51 81 53 82 52 83
REMARK H PARENT 69 51 47 62
REMARK Flexibility Score: inf
ROOT
ATOM      1  C   UNL A   1      34.367  34.029  28.038  1.00  0.00     0.188 C 
ENDROOT
BRANCH   1   2
ATOM      2  O   UNL A   1      35.606  33.400  28.364  1.00  0.00    -0.377 OA
BRANCH   2   3
ATOM      3  C   UNL A   1      35.805  32.038  28.024  1.00  0.00     0.188 C 
BRANCH   3   4
ATOM      4  C   UNL A   1      34.599  31.084  28.151  1.00  0.00     0.188 C 
BRANCH   4   5
ATOM      5  O   UNL A   1      34.174  30.534  26.915  1.00  0.00    -0.376 OA
BRANCH   5   6
ATOM      6  C   UNL A   1      33.418  29.338  26.931  1.00  0.00     0.202 C 
BRANCH   6   7
ATOM      7  C   UNL A   1      33.917  28.157  26.086  1.00  0.00     0.261 C 
BRANCH   7   8
ATOM      8  O   UNL A   1      33.907  28.358  24.666  1.00  0.00    -0.460 OA
BRANCH   8   9
ATOM      9  C   UNL A   1      33.226  27.464  23.914  1.00  0.00     0.338 C 
ATOM     10  O   UNL A   1      33.644  26.391  23.521  1.00  0.00    -0.246 OA
BRANCH   9  11
ATOM     11  C   UNL A   1      31.826  27.918  23.770  1.00  0.00     0.087 C 
ATOM     12  C   UNL A   1      28.428  30.701  21.791  1.00  0.00     0.015 A 
ATOM     13  C   UNL A   1      27.447  29.800  22.217  1.00  0.00     0.015 A 
ATOM     14  C   UNL A   1      29.780  30.479  22.082  1.00  0.00     0.023 A 
ATOM     15  C   UNL A   1      27.816  28.669  22.942  1.00  0.00     0.048 A 
ATOM     16  C   UNL A   1      30.151  29.331  22.788  1.00  0.00     0.018 A 
ATOM     17  C   UNL A   1      29.161  28.442  23.229  1.00  0.00     0.128 A 
ATOM     18  C   UNL A   1      31.554  28.961  22.966  1.00  0.00     0.027 C 
ATOM     19  O   UNL A   1      29.456  27.276  23.882  1.00  0.00    -0.475 OA
ATOM     20  C   UNL A   1      30.726  27.273  24.589  1.00  0.00     0.316 C 
BRANCH  12  21
ATOM     21  C   UNL A   1      28.042  31.876  20.981  1.00  0.00     0.260 C 
ATOM     22  O   UNL A   1      27.944  32.995  21.468  1.00  0.00    -0.298 OA
ENDBRANCH  12  21
BRANCH  20  23
ATOM     23  C   UNL A   1      30.947  25.862  25.161  1.00  0.00     0.430 C 
ATOM     24  F   UNL A   1      31.979  25.830  26.035  1.00  0.00    -0.167 F 
ATOM     25  F   UNL A   1      29.855  25.475  25.875  1.00  0.00    -0.167 F 
ATOM     26  F   UNL A   1      31.153  24.931  24.211  1.00  0.00    -0.167 F 
ENDBRANCH  20  23
ENDBRANCH   9  11
ENDBRANCH   8   9
ENDBRANCH   7   8
ENDBRANCH   6   7
ENDBRANCH   5   6
ENDBRANCH   4   5
ENDBRANCH   3   4
ENDBRANCH   2   3
ENDBRANCH   1   2
BRANCH   1  27
ATOM     27  C   UNL A   1      33.451  34.668  29.115  1.00  0.00     0.188 C 
BRANCH  27  28
ATOM     28  O   UNL A   1      33.630  36.062  29.303  1.00  0.00    -0.376 OA
BRANCH  28  29
ATOM     29  C   UNL A   1      33.223  36.626  30.535  1.00  0.00     0.202 C 
BRANCH  29  30
ATOM     30  C   UNL A   1      33.299  35.705  31.760  1.00  0.00     0.261 C 
BRANCH  30  31
ATOM     31  O   UNL A   1      34.622  35.387  32.219  1.00  0.00    -0.460 OA
BRANCH  31  32
ATOM     32  C   UNL A   1      34.837  34.118  32.625  1.00  0.00     0.338 C 
ATOM     33  O   UNL A   1      34.282  33.108  32.221  1.00  0.00    -0.246 OA
BRANCH  32  34
ATOM     34  C   UNL A   1      36.011  34.124  33.518  1.00  0.00     0.060 A 
ATOM     35  C   UNL A   1      37.268  34.446  32.988  1.00  0.00     0.016 A 
ATOM     36  C   UNL A   1      35.868  33.817  34.873  1.00  0.00     0.016 A 
ATOM     37  C   UNL A   1      38.398  34.405  33.804  1.00  0.00     0.010 A 
ATOM     38  C   UNL A   1      37.003  33.754  35.683  1.00  0.00     0.010 A 
ATOM     39  C   UNL A   1      38.276  34.000  35.139  1.00  0.00    -0.014 A 
BRANCH  39  40
ATOM     40  C   UNL A   1      39.488  33.579  35.878  1.00  0.00     0.031 A 
ATOM     41  C   UNL A   1      40.112  34.572  36.824  1.00  0.00     0.074 A 
ATOM     42  C   UNL A   1      40.006  32.346  35.752  1.00  0.00     0.049 A 
ATOM     43  N   UNL A   1      41.179  34.453  37.571  1.00  0.00    -0.248 NA
ATOM     44  C   UNL A   1      39.437  35.876  36.938  1.00  0.00     0.031 C 
ATOM     45  C   UNL A   1      39.467  31.280  34.911  1.00  0.00     0.029 A 
ATOM     46  N   UNL A   1      41.112  31.788  36.341  1.00  0.00    -0.354 N 
ATOM     47  C   UNL A   1      41.308  35.669  38.232  1.00  0.00     0.074 A 
ATOM     48  C   UNL A   1      40.236  36.522  37.771  1.00  0.00     0.031 C 
ATOM     49  C   UNL A   1      40.248  30.192  35.036  1.00  0.00     0.029 A 
ATOM     50  C   UNL A   1      41.358  30.499  35.938  1.00  0.00     0.049 A 
ATOM     51  H   UNL A   1      41.675  32.266  36.991  1.00  0.00     0.167 HD
ATOM     52  C   UNL A   1      42.233  36.043  39.147  1.00  0.00     0.031 A 
ATOM     53  C   UNL A   1      42.372  29.671  36.252  1.00  0.00     0.031 A 
ATOM     54  C   UNL A   1      43.311  35.202  39.591  1.00  0.00     0.049 A 
ATOM     55  C   UNL A   1      43.437  30.136  37.212  1.00  0.00     0.074 A 
ATOM     56  C   UNL A   1      44.298  35.483  40.518  1.00  0.00     0.029 A 
ATOM     57  N   UNL A   1      43.549  33.917  39.127  1.00  0.00    -0.354 N 
ATOM     58  N   UNL A   1      43.540  31.279  37.848  1.00  0.00    -0.248 NA
ATOM     59  C   UNL A   1      44.519  29.186  37.510  1.00  0.00     0.031 C 
ATOM     60  C   UNL A   1      45.171  34.391  40.568  1.00  0.00     0.029 A 
ATOM     61  C   UNL A   1      44.683  33.401  39.730  1.00  0.00     0.049 A 
ATOM     62  H   UNL A   1      42.994  33.443  38.466  1.00  0.00     0.167 HD
ATOM     63  C   UNL A   1      44.672  31.169  38.649  1.00  0.00     0.074 A 
ATOM     64  C   UNL A   1      45.212  29.844  38.427  1.00  0.00     0.031 C 
ATOM     65  C   UNL A   1      45.210  32.079  39.499  1.00  0.00     0.031 A 
BRANCH  52  66
ATOM     66  C   UNL A   1      42.137  37.444  39.686  1.00  0.00    -0.014 A 
ATOM     67  C   UNL A   1      41.219  37.784  40.694  1.00  0.00     0.009 A 
ATOM     68  C   UNL A   1      42.985  38.441  39.179  1.00  0.00     0.009 A 
ATOM     69  C   UNL A   1      41.122  39.101  41.147  1.00  0.00     0.001 A 
ATOM     70  C   UNL A   1      42.911  39.749  39.660  1.00  0.00     0.001 A 
ATOM     71  C   UNL A   1      41.971  40.081  40.635  1.00  0.00     0.000 A 
ENDBRANCH  52  66
BRANCH  53  72
ATOM     72  C   UNL A   1      42.444  28.314  35.645  1.00  0.00    -0.014 A 
ATOM     73  C   UNL A   1      43.127  28.102  34.438  1.00  0.00     0.009 A 
ATOM     74  C   UNL A   1      41.806  27.226  36.261  1.00  0.00     0.009 A 
ATOM     75  C   UNL A   1      43.146  26.836  33.847  1.00  0.00     0.001 A 
ATOM     76  C   UNL A   1      41.854  25.954  35.685  1.00  0.00     0.001 A 
ATOM     77  C   UNL A   1      42.515  25.763  34.474  1.00  0.00     0.000 A 
ENDBRANCH  53  72
BRANCH  65  78
ATOM     78  C   UNL A   1      46.413  31.654  40.298  1.00  0.00    -0.014 A 
ATOM     79  C   UNL A   1      46.288  31.006  41.537  1.00  0.00     0.009 A 
ATOM     80  C   UNL A   1      47.698  31.882  39.781  1.00  0.00     0.009 A 
ATOM     81  C   UNL A   1      47.426  30.640  42.262  1.00  0.00     0.001 A 
ATOM     82  C   UNL A   1      48.832  31.482  40.488  1.00  0.00     0.001 A 
ATOM     83  C   UNL A   1      48.695  30.875  41.735  1.00  0.00     0.000 A 
ENDBRANCH  65  78
ENDBRANCH  39  40
ENDBRANCH  32  34
ENDBRANCH  31  32
ENDBRANCH  30  31
ENDBRANCH  29  30
ENDBRANCH  28  29
ENDBRANCH  27  28
ENDBRANCH   1  27
TORSDOF 22
ENDMDL
