MODEL 1
REMARK VINA RESULT:      -8.1      0.000      0.000
REMARK SMILES CCc1cc(Nc2ccc(C(=O)OCCOCCOCCOCCOC(=O)c3ccc(-c4c5nc(c(-c6ccccc6)c6ccc([nH]6)c(-c6ccccc6)c6nc(c(-c7ccccc7)c7ccc4[nH]7)C=C6)C=C5)cc3)cc2)nc(C(C)C)n1
REMARK SMILES IDX 18 1 17 2 16 3 15 4 14 5 13 6 11 7 12 8 10 9 7 10 8 11 77 12
REMARK SMILES IDX 9 13 76 14 6 15 5 17 3 18 4 19 83 20 79 21 78 22 2 23 1 24
REMARK SMILES IDX 80 25 81 26 82 27 19 28 20 29 21 30 22 31 23 32 24 33 25 34
REMARK SMILES IDX 26 35 27 36 28 37 29 38 75 39 30 40 74 41 31 42 32 43 33 44
REMARK SMILES IDX 68 45 34 46 73 47 67 48 69 49 35 50 72 51 66 52 65 53 36 55
REMARK SMILES IDX 58 56 43 57 57 58 44 59 47 60 56 61 70 62 45 63 46 64 55 66
REMARK SMILES IDX 71 67 48 68 37 69 38 70 42 71 39 72 41 73 40 74 59 75 60 76
REMARK SMILES IDX 64 77 61 78 63 79 62 80 49 81 50 82 54 83 51 84 53 85 52 86
REMARK H PARENT 6 16 69 54 47 65
REMARK Flexibility Score: inf
ROOT
ATOM      1  C   UNL A   1      43.298  23.388  27.781  1.00  0.00     0.188 C 
ENDROOT
BRANCH   1   2
ATOM      2  C   UNL A   1      42.432  24.388  28.578  1.00  0.00     0.188 C 
BRANCH   2   3
ATOM      3  O   UNL A   1      41.037  24.216  28.397  1.00  0.00    -0.376 OA
BRANCH   3   4
ATOM      4  C   UNL A   1      40.261  25.304  27.934  1.00  0.00     0.202 C 
BRANCH   4   5
ATOM      5  C   UNL A   1      40.736  26.730  28.249  1.00  0.00     0.261 C 
BRANCH   5   6
ATOM      6  O   UNL A   1      39.708  27.720  28.356  1.00  0.00    -0.460 OA
BRANCH   6   7
ATOM      7  C   UNL A   1      40.067  28.912  28.880  1.00  0.00     0.338 C 
ATOM      8  O   UNL A   1      41.159  29.445  28.797  1.00  0.00    -0.246 OA
BRANCH   7   9
ATOM      9  C   UNL A   1      38.843  29.574  29.387  1.00  0.00     0.060 A 
ATOM     10  C   UNL A   1      36.496  30.746  30.372  1.00  0.00     0.040 A 
ATOM     11  C   UNL A   1      36.967  29.545  30.918  1.00  0.00     0.027 A 
ATOM     12  C   UNL A   1      37.257  31.387  29.383  1.00  0.00     0.027 A 
ATOM     13  C   UNL A   1      38.127  28.952  30.417  1.00  0.00     0.018 A 
ATOM     14  C   UNL A   1      38.431  30.815  28.896  1.00  0.00     0.018 A 
BRANCH  10  15
ATOM     15  N   UNL A   1      35.183  31.170  30.666  1.00  0.00    -0.340 N 
ATOM     16  H   UNL A   1      34.454  30.511  30.601  1.00  0.00     0.168 HD
BRANCH  15  17
ATOM     17  C   UNL A   1      34.860  32.489  31.049  1.00  0.00     0.134 A 
ATOM     18  C   UNL A   1      34.727  34.195  32.667  1.00  0.00     0.046 A 
ATOM     19  C   UNL A   1      35.073  32.894  32.349  1.00  0.00     0.071 A 
ATOM     20  N   UNL A   1      34.211  35.049  31.757  1.00  0.00    -0.238 NA
ATOM     21  C   UNL A   1      34.044  34.577  30.511  1.00  0.00     0.133 A 
ATOM     22  N   UNL A   1      34.360  33.333  30.133  1.00  0.00    -0.216 NA
BRANCH  18  23
ATOM     23  C   UNL A   1      34.884  34.715  34.071  1.00  0.00     0.053 C 
ATOM     24  C   UNL A   1      35.861  33.893  34.899  1.00  0.00     0.011 C 
ENDBRANCH  18  23
BRANCH  21  25
ATOM     25  C   UNL A   1      33.468  35.477  29.443  1.00  0.00     0.051 C 
ATOM     26  C   UNL A   1      33.253  36.893  29.971  1.00  0.00     0.016 C 
ATOM     27  C   UNL A   1      34.342  35.471  28.193  1.00  0.00     0.016 C 
ENDBRANCH  21  25
ENDBRANCH  15  17
ENDBRANCH  10  15
ENDBRANCH   7   9
ENDBRANCH   6   7
ENDBRANCH   5   6
ENDBRANCH   4   5
ENDBRANCH   3   4
ENDBRANCH   2   3
ENDBRANCH   1   2
BRANCH   1  28
ATOM     28  O   UNL A   1      42.697  22.222  27.234  1.00  0.00    -0.377 OA
BRANCH  28  29
ATOM     29  C   UNL A   1      42.394  22.161  25.843  1.00  0.00     0.188 C 
BRANCH  29  30
ATOM     30  C   UNL A   1      43.403  22.642  24.773  1.00  0.00     0.188 C 
BRANCH  30  31
ATOM     31  O   UNL A   1      44.407  21.699  24.443  1.00  0.00    -0.376 OA
BRANCH  31  32
ATOM     32  C   UNL A   1      45.756  22.060  24.676  1.00  0.00     0.202 C 
BRANCH  32  33
ATOM     33  C   UNL A   1      46.195  23.465  24.240  1.00  0.00     0.261 C 
BRANCH  33  34
ATOM     34  O   UNL A   1      46.786  24.292  25.254  1.00  0.00    -0.460 OA
BRANCH  34  35
ATOM     35  C   UNL A   1      46.875  25.615  25.006  1.00  0.00     0.338 C 
ATOM     36  O   UNL A   1      47.236  26.152  23.971  1.00  0.00    -0.246 OA
BRANCH  35  37
ATOM     37  C   UNL A   1      46.281  26.323  26.158  1.00  0.00     0.060 A 
ATOM     38  C   UNL A   1      44.894  26.521  26.204  1.00  0.00     0.016 A 
ATOM     39  C   UNL A   1      47.096  26.777  27.198  1.00  0.00     0.016 A 
ATOM     40  C   UNL A   1      44.322  27.203  27.280  1.00  0.00     0.010 A 
ATOM     41  C   UNL A   1      46.525  27.478  28.262  1.00  0.00     0.010 A 
ATOM     42  C   UNL A   1      45.139  27.723  28.291  1.00  0.00    -0.014 A 
BRANCH  42  43
ATOM     43  C   UNL A   1      44.584  28.687  29.271  1.00  0.00     0.031 A 
ATOM     44  C   UNL A   1      44.237  28.182  30.646  1.00  0.00     0.074 A 
ATOM     45  C   UNL A   1      44.400  29.982  28.959  1.00  0.00     0.049 A 
ATOM     46  N   UNL A   1      43.690  28.817  31.651  1.00  0.00    -0.248 NA
ATOM     47  C   UNL A   1      44.548  26.769  30.924  1.00  0.00     0.031 C 
ATOM     48  C   UNL A   1      44.744  30.607  27.683  1.00  0.00     0.029 A 
ATOM     49  N   UNL A   1      43.866  31.006  29.703  1.00  0.00    -0.354 N 
ATOM     50  C   UNL A   1      43.574  27.878  32.669  1.00  0.00     0.074 A 
ATOM     51  C   UNL A   1      44.087  26.628  32.157  1.00  0.00     0.031 C 
ATOM     52  C   UNL A   1      44.406  31.909  27.731  1.00  0.00     0.029 A 
ATOM     53  C   UNL A   1      43.787  32.198  29.023  1.00  0.00     0.049 A 
ATOM     54  H   UNL A   1      43.568  30.897  30.635  1.00  0.00     0.167 HD
ATOM     55  C   UNL A   1      43.083  28.042  33.919  1.00  0.00     0.031 A 
ATOM     56  C   UNL A   1      43.253  33.378  29.397  1.00  0.00     0.031 A 
ATOM     57  C   UNL A   1      42.567  29.285  34.427  1.00  0.00     0.049 A 
ATOM     58  C   UNL A   1      42.632  33.506  30.767  1.00  0.00     0.074 A 
ATOM     59  C   UNL A   1      42.076  29.559  35.691  1.00  0.00     0.029 A 
ATOM     60  N   UNL A   1      42.467  30.456  33.693  1.00  0.00    -0.354 N 
ATOM     61  N   UNL A   1      42.564  32.624  31.735  1.00  0.00    -0.248 NA
ATOM     62  C   UNL A   1      42.018  34.802  31.095  1.00  0.00     0.031 C 
ATOM     63  C   UNL A   1      41.610  30.876  35.701  1.00  0.00     0.029 A 
ATOM     64  C   UNL A   1      41.884  31.445  34.467  1.00  0.00     0.049 A 
ATOM     65  H   UNL A   1      42.765  30.568  32.763  1.00  0.00     0.167 HD
ATOM     66  C   UNL A   1      41.940  33.271  32.796  1.00  0.00     0.074 A 
ATOM     67  C   UNL A   1      41.662  34.622  32.358  1.00  0.00     0.031 C 
ATOM     68  C   UNL A   1      41.625  32.790  34.024  1.00  0.00     0.031 A 
BRANCH  55  69
ATOM     69  C   UNL A   1      43.037  26.838  34.818  1.00  0.00    -0.014 A 
ATOM     70  C   UNL A   1      44.135  26.466  35.607  1.00  0.00     0.009 A 
ATOM     71  C   UNL A   1      41.847  26.098  34.917  1.00  0.00     0.009 A 
ATOM     72  C   UNL A   1      44.050  25.363  36.460  1.00  0.00     0.001 A 
ATOM     73  C   UNL A   1      41.755  25.016  35.793  1.00  0.00     0.001 A 
ATOM     74  C   UNL A   1      42.858  24.645  36.558  1.00  0.00     0.000 A 
ENDBRANCH  55  69
BRANCH  56  75
ATOM     75  C   UNL A   1      43.242  34.537  28.463  1.00  0.00    -0.014 A 
ATOM     76  C   UNL A   1      44.422  34.954  27.826  1.00  0.00     0.009 A 
ATOM     77  C   UNL A   1      42.066  35.275  28.254  1.00  0.00     0.009 A 
ATOM     78  C   UNL A   1      44.434  36.107  27.037  1.00  0.00     0.001 A 
ATOM     79  C   UNL A   1      42.073  36.406  27.435  1.00  0.00     0.001 A 
ATOM     80  C   UNL A   1      43.259  36.830  26.839  1.00  0.00     0.000 A 
ENDBRANCH  56  75
BRANCH  68  81
ATOM     81  C   UNL A   1      41.001  33.744  35.007  1.00  0.00    -0.014 A 
ATOM     82  C   UNL A   1      39.608  33.845  35.150  1.00  0.00     0.009 A 
ATOM     83  C   UNL A   1      41.827  34.521  35.834  1.00  0.00     0.009 A 
ATOM     84  C   UNL A   1      39.058  34.734  36.077  1.00  0.00     0.001 A 
ATOM     85  C   UNL A   1      41.276  35.380  36.784  1.00  0.00     0.001 A 
ATOM     86  C   UNL A   1      39.891  35.495  36.896  1.00  0.00     0.000 A 
ENDBRANCH  68  81
ENDBRANCH  42  43
ENDBRANCH  35  37
ENDBRANCH  34  35
ENDBRANCH  33  34
ENDBRANCH  32  33
ENDBRANCH  31  32
ENDBRANCH  30  31
ENDBRANCH  29  30
ENDBRANCH  28  29
ENDBRANCH   1  28
TORSDOF 24
ENDMDL
MODEL 2
REMARK VINA RESULT:      -8.0      2.134      3.354
REMARK SMILES CCc1cc(Nc2ccc(C(=O)OCCOCCOCCOCCOC(=O)c3ccc(-c4c5nc(c(-c6ccccc6)c6ccc([nH]6)c(-c6ccccc6)c6nc(c(-c7ccccc7)c7ccc4[nH]7)C=C6)C=C5)cc3)cc2)nc(C(C)C)n1
REMARK SMILES IDX 18 1 17 2 16 3 15 4 14 5 13 6 11 7 12 8 10 9 7 10 8 11 77 12
REMARK SMILES IDX 9 13 76 14 6 15 5 17 3 18 4 19 83 20 79 21 78 22 2 23 1 24
REMARK SMILES IDX 80 25 81 26 82 27 19 28 20 29 21 30 22 31 23 32 24 33 25 34
REMARK SMILES IDX 26 35 27 36 28 37 29 38 75 39 30 40 74 41 31 42 32 43 33 44
REMARK SMILES IDX 68 45 34 46 73 47 67 48 69 49 35 50 72 51 66 52 65 53 36 55
REMARK SMILES IDX 58 56 43 57 57 58 44 59 47 60 56 61 70 62 45 63 46 64 55 66
REMARK SMILES IDX 71 67 48 68 37 69 38 70 42 71 39 72 41 73 40 74 59 75 60 76
REMARK SMILES IDX 64 77 61 78 63 79 62 80 49 81 50 82 54 83 51 84 53 85 52 86
REMARK H PARENT 6 16 69 54 47 65
REMARK Flexibility Score: inf
ROOT
ATOM      1  C   UNL A   1      39.732  22.702  26.540  1.00  0.00     0.188 C 
ENDROOT
BRANCH   1   2
ATOM      2  C   UNL A   1      40.483  23.588  27.558  1.00  0.00     0.188 C 
BRANCH   2   3
ATOM      3  O   UNL A   1      39.877  24.848  27.785  1.00  0.00    -0.376 OA
BRANCH   3   4
ATOM      4  C   UNL A   1      40.509  26.017  27.300  1.00  0.00     0.202 C 
BRANCH   4   5
ATOM      5  C   UNL A   1      40.235  27.349  28.013  1.00  0.00     0.261 C 
BRANCH   5   6
ATOM      6  O   UNL A   1      38.913  27.518  28.533  1.00  0.00    -0.460 OA
BRANCH   6   7
ATOM      7  C   UNL A   1      38.788  28.296  29.630  1.00  0.00     0.338 C 
ATOM      8  O   UNL A   1      39.402  28.183  30.676  1.00  0.00    -0.246 OA
BRANCH   7   9
ATOM      9  C   UNL A   1      37.938  29.455  29.272  1.00  0.00     0.060 A 
ATOM     10  C   UNL A   1      36.390  31.701  28.635  1.00  0.00     0.040 A 
ATOM     11  C   UNL A   1      37.778  31.819  28.774  1.00  0.00     0.027 A 
ATOM     12  C   UNL A   1      35.800  30.432  28.742  1.00  0.00     0.027 A 
ATOM     13  C   UNL A   1      38.548  30.704  29.108  1.00  0.00     0.018 A 
ATOM     14  C   UNL A   1      36.566  29.309  29.049  1.00  0.00     0.018 A 
BRANCH  10  15
ATOM     15  N   UNL A   1      35.598  32.868  28.603  1.00  0.00    -0.340 N 
ATOM     16  H   UNL A   1      35.268  33.186  27.732  1.00  0.00     0.168 HD
BRANCH  15  17
ATOM     17  C   UNL A   1      35.252  33.604  29.757  1.00  0.00     0.134 A 
ATOM     18  C   UNL A   1      33.959  35.239  30.852  1.00  0.00     0.046 A 
ATOM     19  C   UNL A   1      34.245  34.543  29.692  1.00  0.00     0.071 A 
ATOM     20  N   UNL A   1      34.619  35.019  32.009  1.00  0.00    -0.238 NA
ATOM     21  C   UNL A   1      35.580  34.081  31.989  1.00  0.00     0.133 A 
ATOM     22  N   UNL A   1      35.907  33.367  30.905  1.00  0.00    -0.216 NA
BRANCH  18  23
ATOM     23  C   UNL A   1      32.903  36.313  30.868  1.00  0.00     0.053 C 
ATOM     24  C   UNL A   1      32.853  37.072  32.186  1.00  0.00     0.011 C 
ENDBRANCH  18  23
BRANCH  21  25
ATOM     25  C   UNL A   1      36.361  33.786  33.247  1.00  0.00     0.051 C 
ATOM     26  C   UNL A   1      37.698  34.524  33.254  1.00  0.00     0.016 C 
ATOM     27  C   UNL A   1      35.536  34.106  34.490  1.00  0.00     0.016 C 
ENDBRANCH  21  25
ENDBRANCH  15  17
ENDBRANCH  10  15
ENDBRANCH   7   9
ENDBRANCH   6   7
ENDBRANCH   5   6
ENDBRANCH   4   5
ENDBRANCH   3   4
ENDBRANCH   2   3
ENDBRANCH   1   2
BRANCH   1  28
ATOM     28  O   UNL A   1      40.211  21.392  26.264  1.00  0.00    -0.377 OA
BRANCH  28  29
ATOM     29  C   UNL A   1      41.584  21.076  26.473  1.00  0.00     0.188 C 
BRANCH  29  30
ATOM     30  C   UNL A   1      42.113  19.629  26.327  1.00  0.00     0.188 C 
BRANCH  30  31
ATOM     31  O   UNL A   1      42.615  19.311  25.042  1.00  0.00    -0.376 OA
BRANCH  31  32
ATOM     32  C   UNL A   1      43.937  18.813  24.953  1.00  0.00     0.202 C 
BRANCH  32  33
ATOM     33  C   UNL A   1      45.006  19.750  24.372  1.00  0.00     0.261 C 
BRANCH  33  34
ATOM     34  O   UNL A   1      45.096  21.057  24.960  1.00  0.00    -0.460 OA
BRANCH  34  35
ATOM     35  C   UNL A   1      44.829  22.116  24.169  1.00  0.00     0.338 C 
ATOM     36  O   UNL A   1      44.463  22.097  23.004  1.00  0.00    -0.246 OA
BRANCH  35  37
ATOM     37  C   UNL A   1      44.882  23.326  25.013  1.00  0.00     0.060 A 
ATOM     38  C   UNL A   1      46.123  23.798  25.463  1.00  0.00     0.016 A 
ATOM     39  C   UNL A   1      43.706  24.003  25.344  1.00  0.00     0.016 A 
ATOM     40  C   UNL A   1      46.186  24.933  26.274  1.00  0.00     0.010 A 
ATOM     41  C   UNL A   1      43.768  25.123  26.174  1.00  0.00     0.010 A 
ATOM     42  C   UNL A   1      45.006  25.574  26.670  1.00  0.00    -0.014 A 
BRANCH  42  43
ATOM     43  C   UNL A   1      45.039  26.587  27.753  1.00  0.00     0.031 A 
ATOM     44  C   UNL A   1      44.924  26.109  29.176  1.00  0.00     0.074 A 
ATOM     45  C   UNL A   1      45.178  27.898  27.488  1.00  0.00     0.049 A 
ATOM     46  N   UNL A   1      44.872  26.803  30.284  1.00  0.00    -0.248 NA
ATOM     47  C   UNL A   1      44.857  24.651  29.375  1.00  0.00     0.031 C 
ATOM     48  C   UNL A   1      45.351  28.484  26.160  1.00  0.00     0.029 A 
ATOM     49  N   UNL A   1      45.187  28.978  28.336  1.00  0.00    -0.354 N 
ATOM     50  C   UNL A   1      44.747  25.870  31.305  1.00  0.00     0.074 A 
ATOM     51  C   UNL A   1      44.711  24.563  30.688  1.00  0.00     0.031 C 
ATOM     52  C   UNL A   1      45.444  29.821  26.283  1.00  0.00     0.029 A 
ATOM     53  C   UNL A   1      45.296  30.186  27.690  1.00  0.00     0.049 A 
ATOM     54  H   UNL A   1      45.122  28.894  29.316  1.00  0.00     0.167 HD
ATOM     55  C   UNL A   1      44.669  26.081  32.640  1.00  0.00     0.031 A 
ATOM     56  C   UNL A   1      45.256  31.441  28.181  1.00  0.00     0.031 A 
ATOM     57  C   UNL A   1      44.699  27.381  33.254  1.00  0.00     0.049 A 
ATOM     58  C   UNL A   1      45.079  31.648  29.665  1.00  0.00     0.074 A 
ATOM     59  C   UNL A   1      44.657  27.697  34.600  1.00  0.00     0.029 A 
ATOM     60  N   UNL A   1      44.769  28.579  32.562  1.00  0.00    -0.354 N 
ATOM     61  N   UNL A   1      45.002  30.757  30.626  1.00  0.00    -0.248 NA
ATOM     62  C   UNL A   1      44.989  33.039  30.133  1.00  0.00     0.031 C 
ATOM     63  C   UNL A   1      44.627  29.088  34.721  1.00  0.00     0.029 A 
ATOM     64  C   UNL A   1      44.731  29.638  33.452  1.00  0.00     0.049 A 
ATOM     65  H   UNL A   1      44.835  28.664  31.584  1.00  0.00     0.167 HD
ATOM     66  C   UNL A   1      44.898  31.481  31.808  1.00  0.00     0.074 A 
ATOM     67  C   UNL A   1      44.935  32.882  31.447  1.00  0.00     0.031 C 
ATOM     68  C   UNL A   1      44.782  31.027  33.081  1.00  0.00     0.031 A 
BRANCH  55  69
ATOM     69  C   UNL A   1      44.497  24.883  33.530  1.00  0.00    -0.014 A 
ATOM     70  C   UNL A   1      43.231  24.472  33.975  1.00  0.00     0.009 A 
ATOM     71  C   UNL A   1      45.622  24.118  33.881  1.00  0.00     0.009 A 
ATOM     72  C   UNL A   1      43.099  23.333  34.772  1.00  0.00     0.001 A 
ATOM     73  C   UNL A   1      45.483  22.963  34.651  1.00  0.00     0.001 A 
ATOM     74  C   UNL A   1      44.223  22.575  35.102  1.00  0.00     0.000 A 
ENDBRANCH  55  69
BRANCH  56  75
ATOM     75  C   UNL A   1      45.353  32.616  27.272  1.00  0.00    -0.014 A 
ATOM     76  C   UNL A   1      46.593  33.227  27.021  1.00  0.00     0.009 A 
ATOM     77  C   UNL A   1      44.199  33.174  26.701  1.00  0.00     0.009 A 
ATOM     78  C   UNL A   1      46.667  34.393  26.256  1.00  0.00     0.001 A 
ATOM     79  C   UNL A   1      44.281  34.319  25.906  1.00  0.00     0.001 A 
ATOM     80  C   UNL A   1      45.513  34.937  25.697  1.00  0.00     0.000 A 
ENDBRANCH  56  75
BRANCH  68  81
ATOM     81  C   UNL A   1      44.749  32.050  34.185  1.00  0.00    -0.014 A 
ATOM     82  C   UNL A   1      43.570  32.735  34.518  1.00  0.00     0.009 A 
ATOM     83  C   UNL A   1      45.911  32.297  34.932  1.00  0.00     0.009 A 
ATOM     84  C   UNL A   1      43.568  33.673  35.554  1.00  0.00     0.001 A 
ATOM     85  C   UNL A   1      45.898  33.206  35.989  1.00  0.00     0.001 A 
ATOM     86  C   UNL A   1      44.729  33.903  36.291  1.00  0.00     0.000 A 
ENDBRANCH  68  81
ENDBRANCH  42  43
ENDBRANCH  35  37
ENDBRANCH  34  35
ENDBRANCH  33  34
ENDBRANCH  32  33
ENDBRANCH  31  32
ENDBRANCH  30  31
ENDBRANCH  29  30
ENDBRANCH  28  29
ENDBRANCH   1  28
TORSDOF 24
ENDMDL
MODEL 3
REMARK VINA RESULT:      -7.9      2.018      3.165
REMARK SMILES CCc1cc(Nc2ccc(C(=O)OCCOCCOCCOCCOC(=O)c3ccc(-c4c5nc(c(-c6ccccc6)c6ccc([nH]6)c(-c6ccccc6)c6nc(c(-c7ccccc7)c7ccc4[nH]7)C=C6)C=C5)cc3)cc2)nc(C(C)C)n1
REMARK SMILES IDX 18 1 17 2 16 3 15 4 14 5 13 6 11 7 12 8 10 9 7 10 8 11 77 12
REMARK SMILES IDX 9 13 76 14 6 15 5 17 3 18 4 19 83 20 79 21 78 22 2 23 1 24
REMARK SMILES IDX 80 25 81 26 82 27 19 28 20 29 21 30 22 31 23 32 24 33 25 34
REMARK SMILES IDX 26 35 27 36 28 37 29 38 75 39 30 40 74 41 31 42 32 43 33 44
REMARK SMILES IDX 68 45 34 46 73 47 67 48 69 49 35 50 72 51 66 52 65 53 36 55
REMARK SMILES IDX 58 56 43 57 57 58 44 59 47 60 56 61 70 62 45 63 46 64 55 66
REMARK SMILES IDX 71 67 48 68 37 69 38 70 42 71 39 72 41 73 40 74 59 75 60 76
REMARK SMILES IDX 64 77 61 78 63 79 62 80 49 81 50 82 54 83 51 84 53 85 52 86
REMARK H PARENT 6 16 69 54 47 65
REMARK Flexibility Score: inf
ROOT
ATOM      1  C   UNL A   1      39.830  22.374  26.834  1.00  0.00     0.188 C 
ENDROOT
BRANCH   1   2
ATOM      2  C   UNL A   1      40.776  23.262  27.674  1.00  0.00     0.188 C 
BRANCH   2   3
ATOM      3  O   UNL A   1      40.205  24.496  28.073  1.00  0.00    -0.376 OA
BRANCH   3   4
ATOM      4  C   UNL A   1      40.028  25.518  27.111  1.00  0.00     0.202 C 
BRANCH   4   5
ATOM      5  C   UNL A   1      40.129  26.981  27.568  1.00  0.00     0.261 C 
BRANCH   5   6
ATOM      6  O   UNL A   1      38.919  27.565  28.061  1.00  0.00    -0.460 OA
BRANCH   6   7
ATOM      7  C   UNL A   1      38.879  27.852  29.380  1.00  0.00     0.338 C 
ATOM      8  O   UNL A   1      38.916  27.054  30.300  1.00  0.00    -0.246 OA
BRANCH   7   9
ATOM      9  C   UNL A   1      39.008  29.319  29.531  1.00  0.00     0.060 A 
ATOM     10  C   UNL A   1      39.309  32.082  29.886  1.00  0.00     0.040 A 
ATOM     11  C   UNL A   1      40.340  31.208  30.254  1.00  0.00     0.027 A 
ATOM     12  C   UNL A   1      38.163  31.560  29.269  1.00  0.00     0.027 A 
ATOM     13  C   UNL A   1      40.184  29.831  30.093  1.00  0.00     0.018 A 
ATOM     14  C   UNL A   1      38.011  30.187  29.080  1.00  0.00     0.018 A 
BRANCH  10  15
ATOM     15  N   UNL A   1      39.349  33.421  30.330  1.00  0.00    -0.340 N 
ATOM     16  H   UNL A   1      39.842  34.078  29.787  1.00  0.00     0.168 HD
BRANCH  15  17
ATOM     17  C   UNL A   1      38.717  33.868  31.510  1.00  0.00     0.134 A 
ATOM     18  C   UNL A   1      38.799  34.581  33.752  1.00  0.00     0.046 A 
ATOM     19  C   UNL A   1      39.476  34.157  32.623  1.00  0.00     0.071 A 
ATOM     20  N   UNL A   1      37.456  34.720  33.781  1.00  0.00    -0.238 NA
ATOM     21  C   UNL A   1      36.793  34.426  32.651  1.00  0.00     0.133 A 
ATOM     22  N   UNL A   1      37.382  34.014  31.522  1.00  0.00    -0.216 NA
BRANCH  18  23
ATOM     23  C   UNL A   1      39.538  34.881  35.029  1.00  0.00     0.053 C 
ATOM     24  C   UNL A   1      39.013  34.086  36.216  1.00  0.00     0.011 C 
ENDBRANCH  18  23
BRANCH  21  25
ATOM     25  C   UNL A   1      35.288  34.555  32.614  1.00  0.00     0.051 C 
ATOM     26  C   UNL A   1      34.619  33.190  32.477  1.00  0.00     0.016 C 
ATOM     27  C   UNL A   1      34.775  35.313  33.835  1.00  0.00     0.016 C 
ENDBRANCH  21  25
ENDBRANCH  15  17
ENDBRANCH  10  15
ENDBRANCH   7   9
ENDBRANCH   6   7
ENDBRANCH   5   6
ENDBRANCH   4   5
ENDBRANCH   3   4
ENDBRANCH   2   3
ENDBRANCH   1   2
BRANCH   1  28
ATOM     28  O   UNL A   1      40.185  21.021  26.578  1.00  0.00    -0.377 OA
BRANCH  28  29
ATOM     29  C   UNL A   1      41.513  20.573  26.828  1.00  0.00     0.188 C 
BRANCH  29  30
ATOM     30  C   UNL A   1      42.015  19.203  26.311  1.00  0.00     0.188 C 
BRANCH  30  31
ATOM     31  O   UNL A   1      42.646  19.246  25.043  1.00  0.00    -0.376 OA
BRANCH  31  32
ATOM     32  C   UNL A   1      44.051  19.083  24.998  1.00  0.00     0.202 C 
BRANCH  32  33
ATOM     33  C   UNL A   1      44.906  20.355  24.906  1.00  0.00     0.261 C 
BRANCH  33  34
ATOM     34  O   UNL A   1      44.214  21.601  25.073  1.00  0.00    -0.460 OA
BRANCH  34  35
ATOM     35  C   UNL A   1      44.643  22.655  24.348  1.00  0.00     0.338 C 
ATOM     36  O   UNL A   1      44.840  22.694  23.144  1.00  0.00    -0.246 OA
BRANCH  35  37
ATOM     37  C   UNL A   1      44.668  23.829  25.243  1.00  0.00     0.060 A 
ATOM     38  C   UNL A   1      45.879  24.221  25.832  1.00  0.00     0.016 A 
ATOM     39  C   UNL A   1      43.497  24.552  25.485  1.00  0.00     0.016 A 
ATOM     40  C   UNL A   1      45.913  25.321  26.691  1.00  0.00     0.010 A 
ATOM     41  C   UNL A   1      43.529  25.637  26.362  1.00  0.00     0.010 A 
ATOM     42  C   UNL A   1      44.730  26.006  26.995  1.00  0.00    -0.014 A 
BRANCH  42  43
ATOM     43  C   UNL A   1      44.702  26.976  28.117  1.00  0.00     0.031 A 
ATOM     44  C   UNL A   1      44.630  26.437  29.521  1.00  0.00     0.074 A 
ATOM     45  C   UNL A   1      44.750  28.303  27.903  1.00  0.00     0.049 A 
ATOM     46  N   UNL A   1      44.538  27.082  30.655  1.00  0.00    -0.248 NA
ATOM     47  C   UNL A   1      44.663  24.971  29.663  1.00  0.00     0.031 C 
ATOM     48  C   UNL A   1      44.874  28.950  26.598  1.00  0.00     0.029 A 
ATOM     49  N   UNL A   1      44.692  29.347  28.793  1.00  0.00    -0.354 N 
ATOM     50  C   UNL A   1      44.483  26.103  31.640  1.00  0.00     0.074 A 
ATOM     51  C   UNL A   1      44.531  24.822  30.972  1.00  0.00     0.031 C 
ATOM     52  C   UNL A   1      44.877  30.285  26.773  1.00  0.00     0.029 A 
ATOM     53  C   UNL A   1      44.714  30.584  28.195  1.00  0.00     0.049 A 
ATOM     54  H   UNL A   1      44.639  29.221  29.769  1.00  0.00     0.167 HD
ATOM     55  C   UNL A   1      44.400  26.257  32.982  1.00  0.00     0.031 A 
ATOM     56  C   UNL A   1      44.592  31.813  28.734  1.00  0.00     0.031 A 
ATOM     57  C   UNL A   1      44.347  27.531  33.646  1.00  0.00     0.049 A 
ATOM     58  C   UNL A   1      44.412  31.950  30.226  1.00  0.00     0.074 A 
ATOM     59  C   UNL A   1      44.292  27.790  35.004  1.00  0.00     0.029 A 
ATOM     60  N   UNL A   1      44.330  28.757  33.001  1.00  0.00    -0.354 N 
ATOM     61  N   UNL A   1      44.402  31.019  31.151  1.00  0.00    -0.248 NA
ATOM     62  C   UNL A   1      44.231  33.313  30.748  1.00  0.00     0.031 C 
ATOM     63  C   UNL A   1      44.169  29.171  35.179  1.00  0.00     0.029 A 
ATOM     64  C   UNL A   1      44.226  29.775  33.933  1.00  0.00     0.049 A 
ATOM     65  H   UNL A   1      44.384  28.885  32.027  1.00  0.00     0.167 HD
ATOM     66  C   UNL A   1      44.257  31.688  32.362  1.00  0.00     0.074 A 
ATOM     67  C   UNL A   1      44.197  33.102  32.055  1.00  0.00     0.031 C 
ATOM     68  C   UNL A   1      44.181  31.179  33.616  1.00  0.00     0.031 A 
BRANCH  55  69
ATOM     69  C   UNL A   1      44.316  25.016  33.825  1.00  0.00    -0.014 A 
ATOM     70  C   UNL A   1      43.084  24.503  34.259  1.00  0.00     0.009 A 
ATOM     71  C   UNL A   1      45.492  24.317  34.141  1.00  0.00     0.009 A 
ATOM     72  C   UNL A   1      43.035  23.327  35.011  1.00  0.00     0.001 A 
ATOM     73  C   UNL A   1      45.437  23.126  34.866  1.00  0.00     0.001 A 
ATOM     74  C   UNL A   1      44.210  22.636  35.306  1.00  0.00     0.000 A 
ENDBRANCH  55  69
BRANCH  56  75
ATOM     75  C   UNL A   1      44.603  33.026  27.871  1.00  0.00    -0.014 A 
ATOM     76  C   UNL A   1      43.404  33.669  27.524  1.00  0.00     0.009 A 
ATOM     77  C   UNL A   1      45.807  33.511  27.336  1.00  0.00     0.009 A 
ATOM     78  C   UNL A   1      43.406  34.740  26.628  1.00  0.00     0.001 A 
ATOM     79  C   UNL A   1      45.810  34.605  26.468  1.00  0.00     0.001 A 
ATOM     80  C   UNL A   1      44.609  35.210  26.102  1.00  0.00     0.000 A 
ENDBRANCH  56  75
BRANCH  68  81
ATOM     81  C   UNL A   1      44.085  32.153  34.759  1.00  0.00    -0.014 A 
ATOM     82  C   UNL A   1      45.220  32.806  35.266  1.00  0.00     0.009 A 
ATOM     83  C   UNL A   1      42.828  32.455  35.305  1.00  0.00     0.009 A 
ATOM     84  C   UNL A   1      45.099  33.712  36.322  1.00  0.00     0.001 A 
ATOM     85  C   UNL A   1      42.705  33.387  36.335  1.00  0.00     0.001 A 
ATOM     86  C   UNL A   1      43.842  34.006  36.851  1.00  0.00     0.000 A 
ENDBRANCH  68  81
ENDBRANCH  42  43
ENDBRANCH  35  37
ENDBRANCH  34  35
ENDBRANCH  33  34
ENDBRANCH  32  33
ENDBRANCH  31  32
ENDBRANCH  30  31
ENDBRANCH  29  30
ENDBRANCH  28  29
ENDBRANCH   1  28
TORSDOF 24
ENDMDL
