MODEL 1
REMARK VINA RESULT:      -8.2      0.000      0.000
REMARK SMILES N#Cc1cccnc1N1CC[NH+]([C@@H](C(=O)OCCOCCOCCOCCOC(=O)c2ccc(-c3c4nc(c(-c5ccccc5)c5ccc([nH]5)c(-c5ccccc5)c5nc(c(-c6ccccc6)c6ccc3[nH]6)C=C5)C=C4)cc2)c2c[nH]c3cc(CO)ccc23)CC1
REMARK SMILES IDX 21 1 20 2 19 3 18 4 17 5 16 6 14 7 15 8 13 9 12 10 9 11
REMARK SMILES IDX 10 12 91 13 11 14 90 15 8 17 3 18 4 19 5 20 7 21 6 22 2 23
REMARK SMILES IDX 1 24 79 25 80 26 89 27 81 28 82 29 88 30 83 32 87 33 84 34
REMARK SMILES IDX 85 35 86 36 22 38 23 39 24 40 25 41 26 42 27 43 28 44 29 45
REMARK SMILES IDX 30 46 31 47 32 48 78 49 33 50 77 51 34 52 35 53 36 54 71 55
REMARK SMILES IDX 37 56 76 57 70 58 72 59 38 60 75 61 69 62 68 63 39 65 61 66
REMARK SMILES IDX 46 67 60 68 47 69 50 70 59 71 73 72 48 73 49 74 58 76 74 77
REMARK SMILES IDX 51 78 40 79 41 80 45 81 42 82 44 83 43 84 62 85 63 86 67 87
REMARK SMILES IDX 64 88 66 89 65 90 52 91 53 92 57 93 54 94 56 95 55 96
REMARK H PARENT 12 16 81 31 86 37 72 64 50 75
REMARK Flexibility Score: inf
ROOT
ATOM      1  C   UNL A   1      44.377  41.843  25.116  1.00  0.00     0.188 C 
ENDROOT
BRANCH   1   2
ATOM      2  C   UNL A   1      45.007  43.236  25.132  1.00  0.00     0.188 C 
BRANCH   2   3
ATOM      3  O   UNL A   1      45.330  43.798  23.868  1.00  0.00    -0.376 OA
BRANCH   3   4
ATOM      4  C   UNL A   1      45.612  42.884  22.812  1.00  0.00     0.202 C 
BRANCH   4   5
ATOM      5  C   UNL A   1      47.062  42.397  22.654  1.00  0.00     0.261 C 
BRANCH   5   6
ATOM      6  O   UNL A   1      47.510  42.207  21.286  1.00  0.00    -0.459 OA
BRANCH   6   7
ATOM      7  C   UNL A   1      48.606  42.916  20.889  1.00  0.00     0.370 C 
ATOM      8  O   UNL A   1      49.491  42.426  20.187  1.00  0.00    -0.245 OA
BRANCH   7   9
ATOM      9  C   UNL A   1      48.709  44.346  21.449  1.00  0.00     0.328 C 
BRANCH   9  10
ATOM     10  N   UNL A   1      48.207  45.484  20.576  1.00  0.00    -0.316 N 
ATOM     11  N   UNL A   1      45.400  45.386  19.670  1.00  0.00    -0.344 N 
ATOM     12  C   UNL A   1      46.439  44.492  19.193  1.00  0.00     0.179 C 
ATOM     13  C   UNL A   1      45.676  46.141  20.900  1.00  0.00     0.179 C 
ATOM     14  C   UNL A   1      47.786  45.192  19.213  1.00  0.00     0.285 C 
ATOM     15  C   UNL A   1      47.209  46.429  21.131  1.00  0.00     0.285 C 
ATOM     16  H   UNL A   1      49.121  45.936  20.559  1.00  0.00     0.349 HD
BRANCH  11  17
ATOM     17  C   UNL A   1      44.066  45.084  19.356  1.00  0.00     0.146 A 
ATOM     18  C   UNL A   1      43.394  45.987  18.058  1.00  0.00     0.095 A 
ATOM     19  C   UNL A   1      41.727  45.636  17.599  1.00  0.00     0.025 A 
ATOM     20  C   UNL A   1      40.693  44.181  18.566  1.00  0.00     0.022 A 
ATOM     21  N   UNL A   1      43.179  43.862  20.232  1.00  0.00    -0.238 NA
ATOM     22  C   UNL A   1      41.531  43.377  19.902  1.00  0.00     0.113 A 
BRANCH  18  23
ATOM     23  C   UNL A   1      44.144  46.950  17.326  1.00  0.00     0.103 C 
ATOM     24  N   UNL A   1      44.780  47.721  16.738  1.00  0.00    -0.192 NA
ENDBRANCH  18  23
ENDBRANCH  11  17
ENDBRANCH   9  10
BRANCH   9  25
ATOM     25  C   UNL A   1      49.726  44.702  22.612  1.00  0.00     0.046 A 
ATOM     26  C   UNL A   1      49.333  45.439  23.727  1.00  0.00     0.094 A 
ATOM     27  C   UNL A   1      51.155  44.933  22.732  1.00  0.00     0.009 A 
ATOM     28  N   UNL A   1      50.048  46.608  23.636  1.00  0.00    -0.361 N 
ATOM     29  C   UNL A   1      51.278  46.273  23.117  1.00  0.00     0.046 A 
ATOM     30  C   UNL A   1      52.357  44.198  22.871  1.00  0.00     0.011 A 
ATOM     31  H   UNL A   1      49.742  47.507  23.893  1.00  0.00     0.166 HD
ATOM     32  C   UNL A   1      52.480  46.992  23.082  1.00  0.00     0.032 A 
ATOM     33  C   UNL A   1      53.602  44.874  22.927  1.00  0.00     0.007 A 
ATOM     34  C   UNL A   1      53.666  46.271  22.887  1.00  0.00    -0.021 A 
BRANCH  34  35
ATOM     35  C   UNL A   1      54.973  47.013  22.705  1.00  0.00     0.191 C 
BRANCH  35  36
ATOM     36  O   UNL A   1      55.435  47.632  23.903  1.00  0.00    -0.392 OA
ATOM     37  H   UNL A   1      54.936  47.287  24.659  1.00  0.00     0.211 HD
ENDBRANCH  35  36
ENDBRANCH  34  35
ENDBRANCH   9  25
ENDBRANCH   7   9
ENDBRANCH   6   7
ENDBRANCH   5   6
ENDBRANCH   4   5
ENDBRANCH   3   4
ENDBRANCH   2   3
ENDBRANCH   1   2
BRANCH   1  38
ATOM     38  O   UNL A   1      42.966  41.789  25.224  1.00  0.00    -0.377 OA
BRANCH  38  39
ATOM     39  C   UNL A   1      42.516  40.833  26.185  1.00  0.00     0.188 C 
BRANCH  39  40
ATOM     40  C   UNL A   1      43.445  40.577  27.401  1.00  0.00     0.188 C 
BRANCH  40  41
ATOM     41  O   UNL A   1      44.030  39.285  27.626  1.00  0.00    -0.376 OA
BRANCH  41  42
ATOM     42  C   UNL A   1      45.454  39.255  27.660  1.00  0.00     0.202 C 
BRANCH  42  43
ATOM     43  C   UNL A   1      45.997  37.980  28.355  1.00  0.00     0.261 C 
BRANCH  43  44
ATOM     44  O   UNL A   1      47.331  37.653  27.905  1.00  0.00    -0.460 OA
BRANCH  44  45
ATOM     45  C   UNL A   1      47.557  36.349  27.706  1.00  0.00     0.338 C 
ATOM     46  O   UNL A   1      48.506  35.912  27.059  1.00  0.00    -0.246 OA
BRANCH  45  47
ATOM     47  C   UNL A   1      46.532  35.350  28.402  1.00  0.00     0.060 A 
ATOM     48  C   UNL A   1      46.520  34.269  30.134  1.00  0.00     0.016 A 
ATOM     49  C   UNL A   1      45.849  34.544  26.939  1.00  0.00     0.016 A 
ATOM     50  C   UNL A   1      45.956  32.585  30.101  1.00  0.00     0.010 A 
ATOM     51  C   UNL A   1      45.267  32.895  27.072  1.00  0.00     0.010 A 
ATOM     52  C   UNL A   1      45.327  31.946  28.586  1.00  0.00    -0.014 A 
BRANCH  52  53
ATOM     53  C   UNL A   1      44.830  30.559  28.574  1.00  0.00     0.031 A 
ATOM     54  C   UNL A   1      45.797  29.458  28.279  1.00  0.00     0.074 A 
ATOM     55  C   UNL A   1      43.518  30.329  28.763  1.00  0.00     0.049 A 
ATOM     56  N   UNL A   1      45.554  28.283  27.770  1.00  0.00    -0.248 NA
ATOM     57  C   UNL A   1      47.231  29.750  28.448  1.00  0.00     0.031 C 
ATOM     58  C   UNL A   1      42.479  31.336  29.007  1.00  0.00     0.029 A 
ATOM     59  N   UNL A   1      42.823  29.154  28.799  1.00  0.00    -0.354 N 
ATOM     60  C   UNL A   1      46.800  27.771  27.427  1.00  0.00     0.074 A 
ATOM     61  C   UNL A   1      47.779  28.786  27.725  1.00  0.00     0.031 C 
ATOM     62  C   UNL A   1      41.326  30.737  29.321  1.00  0.00     0.029 A 
ATOM     63  C   UNL A   1      41.489  29.316  29.093  1.00  0.00     0.049 A 
ATOM     64  H   UNL A   1      43.234  28.277  28.629  1.00  0.00     0.167 HD
ATOM     65  C   UNL A   1      47.083  26.543  26.940  1.00  0.00     0.031 A 
ATOM     66  C   UNL A   1      40.492  28.419  29.096  1.00  0.00     0.031 A 
ATOM     67  C   UNL A   1      46.075  25.525  26.830  1.00  0.00     0.049 A 
ATOM     68  C   UNL A   1      40.852  27.035  28.651  1.00  0.00     0.074 A 
ATOM     69  C   UNL A   1      46.202  24.210  26.429  1.00  0.00     0.029 A 
ATOM     70  N   UNL A   1      44.747  25.711  27.203  1.00  0.00    -0.354 N 
ATOM     71  N   UNL A   1      42.013  26.577  28.244  1.00  0.00    -0.248 NA
ATOM     72  C   UNL A   1      39.769  26.052  28.643  1.00  0.00     0.031 C 
ATOM     73  C   UNL A   1      44.947  23.603  26.557  1.00  0.00     0.029 A 
ATOM     74  C   UNL A   1      44.050  24.528  27.078  1.00  0.00     0.049 A 
ATOM     75  H   UNL A   1      44.362  26.564  27.511  1.00  0.00     0.167 HD
ATOM     76  C   UNL A   1      41.809  25.241  27.946  1.00  0.00     0.074 A 
ATOM     77  C   UNL A   1      40.418  24.961  28.265  1.00  0.00     0.031 C 
ATOM     78  C   UNL A   1      42.669  24.325  27.438  1.00  0.00     0.031 A 
BRANCH  65  79
ATOM     79  C   UNL A   1      48.507  26.254  26.546  1.00  0.00    -0.014 A 
ATOM     80  C   UNL A   1      49.032  26.680  25.314  1.00  0.00     0.009 A 
ATOM     81  C   UNL A   1      49.336  25.517  27.407  1.00  0.00     0.009 A 
ATOM     82  C   UNL A   1      50.326  26.325  24.927  1.00  0.00     0.001 A 
ATOM     83  C   UNL A   1      50.646  25.199  27.036  1.00  0.00     0.001 A 
ATOM     84  C   UNL A   1      51.134  25.589  25.791  1.00  0.00     0.000 A 
ENDBRANCH  65  79
BRANCH  66  85
ATOM     85  C   UNL A   1      39.104  28.806  29.467  1.00  0.00    -0.014 A 
ATOM     86  C   UNL A   1      38.688  28.751  30.806  1.00  0.00     0.009 A 
ATOM     87  C   UNL A   1      38.183  29.239  28.498  1.00  0.00     0.009 A 
ATOM     88  C   UNL A   1      37.373  29.071  31.159  1.00  0.00     0.001 A 
ATOM     89  C   UNL A   1      36.883  29.605  28.858  1.00  0.00     0.001 A 
ATOM     90  C   UNL A   1      36.474  29.503  30.186  1.00  0.00     0.000 A 
ENDBRANCH  66  85
BRANCH  78  91
ATOM     91  C   UNL A   1      42.120  22.941  27.280  1.00  0.00    -0.014 A 
ATOM     92  C   UNL A   1      42.338  21.956  28.253  1.00  0.00     0.009 A 
ATOM     93  C   UNL A   1      41.374  22.631  26.134  1.00  0.00     0.009 A 
ATOM     94  C   UNL A   1      41.864  20.662  28.053  1.00  0.00     0.001 A 
ATOM     95  C   UNL A   1      40.863  21.348  25.958  1.00  0.00     0.001 A 
ATOM     96  C   UNL A   1      41.122  20.362  26.909  1.00  0.00     0.000 A 
ENDBRANCH  78  91
ENDBRANCH  52  53
ENDBRANCH  45  47
ENDBRANCH  44  45
ENDBRANCH  43  44
ENDBRANCH  42  43
ENDBRANCH  41  42
ENDBRANCH  40  41
ENDBRANCH  39  40
ENDBRANCH  38  39
ENDBRANCH   1  38
TORSDOF 26
ENDMDL
MODEL 2
REMARK VINA RESULT:      -8.0     14.550     21.932
REMARK SMILES N#Cc1cccnc1N1CC[NH+]([C@@H](C(=O)OCCOCCOCCOCCOC(=O)c2ccc(-c3c4nc(c(-c5ccccc5)c5ccc([nH]5)c(-c5ccccc5)c5nc(c(-c6ccccc6)c6ccc3[nH]6)C=C5)C=C4)cc2)c2c[nH]c3cc(CO)ccc23)CC1
REMARK SMILES IDX 21 1 20 2 19 3 18 4 17 5 16 6 14 7 15 8 13 9 12 10 9 11
REMARK SMILES IDX 10 12 91 13 11 14 90 15 8 17 3 18 4 19 5 20 7 21 6 22 2 23
REMARK SMILES IDX 1 24 79 25 80 26 89 27 81 28 82 29 88 30 83 32 87 33 84 34
REMARK SMILES IDX 85 35 86 36 22 38 23 39 24 40 25 41 26 42 27 43 28 44 29 45
REMARK SMILES IDX 30 46 31 47 32 48 78 49 33 50 77 51 34 52 35 53 36 54 71 55
REMARK SMILES IDX 37 56 76 57 70 58 72 59 38 60 75 61 69 62 68 63 39 65 61 66
REMARK SMILES IDX 46 67 60 68 47 69 50 70 59 71 73 72 48 73 49 74 58 76 74 77
REMARK SMILES IDX 51 78 40 79 41 80 45 81 42 82 44 83 43 84 62 85 63 86 67 87
REMARK SMILES IDX 64 88 66 89 65 90 52 91 53 92 57 93 54 94 56 95 55 96
REMARK H PARENT 12 16 81 31 86 37 72 64 50 75
REMARK Flexibility Score: inf
ROOT
ATOM      1  C   UNL A   1      43.074  23.165  28.121  1.00  0.00     0.188 C 
ENDROOT
BRANCH   1   2
ATOM      2  C   UNL A   1      41.792  22.343  27.992  1.00  0.00     0.188 C 
BRANCH   2   3
ATOM      3  O   UNL A   1      41.119  22.411  26.742  1.00  0.00    -0.376 OA
BRANCH   3   4
ATOM      4  C   UNL A   1      39.721  22.140  26.750  1.00  0.00     0.202 C 
BRANCH   4   5
ATOM      5  C   UNL A   1      39.214  20.968  25.893  1.00  0.00     0.261 C 
BRANCH   5   6
ATOM      6  O   UNL A   1      38.162  21.297  24.948  1.00  0.00    -0.459 OA
BRANCH   6   7
ATOM      7  C   UNL A   1      37.014  20.561  25.018  1.00  0.00     0.370 C 
ATOM      8  O   UNL A   1      37.010  19.334  24.920  1.00  0.00    -0.245 OA
BRANCH   7   9
ATOM      9  C   UNL A   1      35.713  21.374  25.138  1.00  0.00     0.328 C 
BRANCH   9  10
ATOM     10  N   UNL A   1      35.798  22.756  25.765  1.00  0.00    -0.316 N 
ATOM     11  N   UNL A   1      33.593  24.644  25.235  1.00  0.00    -0.344 N 
ATOM     12  C   UNL A   1      34.560  24.224  24.237  1.00  0.00     0.179 C 
ATOM     13  C   UNL A   1      33.500  23.839  26.461  1.00  0.00     0.179 C 
ATOM     14  C   UNL A   1      35.895  23.918  24.892  1.00  0.00     0.285 C 
ATOM     15  C   UNL A   1      34.848  23.117  26.843  1.00  0.00     0.285 C 
ATOM     16  H   UNL A   1      36.712  22.564  26.176  1.00  0.00     0.349 HD
BRANCH  11  17
ATOM     17  C   UNL A   1      32.455  25.344  24.807  1.00  0.00     0.146 A 
ATOM     18  C   UNL A   1      32.396  27.000  25.258  1.00  0.00     0.095 A 
ATOM     19  C   UNL A   1      31.001  27.941  24.727  1.00  0.00     0.025 A 
ATOM     20  C   UNL A   1      29.563  27.069  23.590  1.00  0.00     0.022 A 
ATOM     21  N   UNL A   1      31.206  24.562  23.869  1.00  0.00    -0.238 NA
ATOM     22  C   UNL A   1      29.769  25.344  23.250  1.00  0.00     0.113 A 
BRANCH  18  23
ATOM     23  C   UNL A   1      33.444  27.633  25.986  1.00  0.00     0.103 C 
ATOM     24  N   UNL A   1      34.280  28.171  26.583  1.00  0.00    -0.192 NA
ENDBRANCH  18  23
ENDBRANCH  11  17
ENDBRANCH   9  10
BRANCH   9  25
ATOM     25  C   UNL A   1      34.295  20.665  25.107  1.00  0.00     0.046 A 
ATOM     26  C   UNL A   1      33.300  20.979  26.029  1.00  0.00     0.094 A 
ATOM     27  C   UNL A   1      33.769  19.373  24.699  1.00  0.00     0.009 A 
ATOM     28  N   UNL A   1      33.128  19.827  26.756  1.00  0.00    -0.361 N 
ATOM     29  C   UNL A   1      33.298  18.781  25.877  1.00  0.00     0.046 A 
ATOM     30  C   UNL A   1      33.337  18.708  23.526  1.00  0.00     0.011 A 
ATOM     31  H   UNL A   1      32.922  19.762  27.716  1.00  0.00     0.166 HD
ATOM     32  C   UNL A   1      32.960  17.428  25.993  1.00  0.00     0.032 A 
ATOM     33  C   UNL A   1      32.901  17.361  23.593  1.00  0.00     0.007 A 
ATOM     34  C   UNL A   1      32.851  16.678  24.813  1.00  0.00    -0.021 A 
BRANCH  34  35
ATOM     35  C   UNL A   1      32.623  15.184  24.893  1.00  0.00     0.191 C 
BRANCH  35  36
ATOM     36  O   UNL A   1      32.865  14.650  26.192  1.00  0.00    -0.392 OA
ATOM     37  H   UNL A   1      32.029  14.590  26.679  1.00  0.00     0.211 HD
ENDBRANCH  35  36
ENDBRANCH  34  35
ENDBRANCH   9  25
ENDBRANCH   7   9
ENDBRANCH   6   7
ENDBRANCH   5   6
ENDBRANCH   4   5
ENDBRANCH   3   4
ENDBRANCH   2   3
ENDBRANCH   1   2
BRANCH   1  38
ATOM     38  O   UNL A   1      42.926  24.573  28.087  1.00  0.00    -0.377 OA
BRANCH  38  39
ATOM     39  C   UNL A   1      43.146  25.188  29.358  1.00  0.00     0.188 C 
BRANCH  39  40
ATOM     40  C   UNL A   1      44.619  25.493  29.738  1.00  0.00     0.188 C 
BRANCH  40  41
ATOM     41  O   UNL A   1      45.293  24.737  30.755  1.00  0.00    -0.376 OA
BRANCH  41  42
ATOM     42  C   UNL A   1      44.456  24.206  31.779  1.00  0.00     0.202 C 
BRANCH  42  43
ATOM     43  C   UNL A   1      44.539  25.029  33.090  1.00  0.00     0.261 C 
BRANCH  43  44
ATOM     44  O   UNL A   1      45.799  24.827  33.769  1.00  0.00    -0.460 OA
BRANCH  44  45
ATOM     45  C   UNL A   1      46.110  25.762  34.675  1.00  0.00     0.338 C 
ATOM     46  O   UNL A   1      45.519  26.834  34.779  1.00  0.00    -0.246 OA
BRANCH  45  47
ATOM     47  C   UNL A   1      47.292  25.396  35.674  1.00  0.00     0.060 A 
ATOM     48  C   UNL A   1      48.991  24.269  35.551  1.00  0.00     0.016 A 
ATOM     49  C   UNL A   1      46.367  25.301  37.221  1.00  0.00     0.016 A 
ATOM     50  C   UNL A   1      49.411  23.185  36.896  1.00  0.00     0.010 A 
ATOM     51  C   UNL A   1      46.939  24.233  38.489  1.00  0.00     0.010 A 
ATOM     52  C   UNL A   1      48.395  23.206  38.333  1.00  0.00    -0.014 A 
BRANCH  52  53
ATOM     53  C   UNL A   1      48.768  22.329  39.456  1.00  0.00     0.031 A 
ATOM     54  C   UNL A   1      48.063  21.019  39.602  1.00  0.00     0.074 A 
ATOM     55  C   UNL A   1      49.679  22.757  40.349  1.00  0.00     0.049 A 
ATOM     56  N   UNL A   1      47.869  20.322  40.686  1.00  0.00    -0.248 NA
ATOM     57  C   UNL A   1      47.375  20.483  38.416  1.00  0.00     0.031 C 
ATOM     58  C   UNL A   1      50.389  24.041  40.329  1.00  0.00     0.029 A 
ATOM     59  N   UNL A   1      50.188  22.141  41.457  1.00  0.00    -0.354 N 
ATOM     60  C   UNL A   1      46.925  19.364  40.338  1.00  0.00     0.074 A 
ATOM     61  C   UNL A   1      46.543  19.614  38.970  1.00  0.00     0.031 C 
ATOM     62  C   UNL A   1      51.341  24.052  41.268  1.00  0.00     0.029 A 
ATOM     63  C   UNL A   1      51.168  22.871  42.088  1.00  0.00     0.049 A 
ATOM     64  H   UNL A   1      49.882  21.261  41.775  1.00  0.00     0.167 HD
ATOM     65  C   UNL A   1      46.456  18.350  41.097  1.00  0.00     0.031 A 
ATOM     66  C   UNL A   1      51.799  22.644  43.249  1.00  0.00     0.031 A 
ATOM     67  C   UNL A   1      47.009  18.061  42.392  1.00  0.00     0.049 A 
ATOM     68  C   UNL A   1      51.333  21.452  44.028  1.00  0.00     0.074 A 
ATOM     69  C   UNL A   1      46.706  17.032  43.260  1.00  0.00     0.029 A 
ATOM     70  N   UNL A   1      48.050  18.787  42.966  1.00  0.00    -0.354 N 
ATOM     71  N   UNL A   1      50.379  20.599  43.735  1.00  0.00    -0.248 NA
ATOM     72  C   UNL A   1      52.009  21.202  45.300  1.00  0.00     0.031 C 
ATOM     73  C   UNL A   1      47.563  17.140  44.363  1.00  0.00     0.029 A 
ATOM     74  C   UNL A   1      48.427  18.208  44.159  1.00  0.00     0.049 A 
ATOM     75  H   UNL A   1      48.456  19.594  42.576  1.00  0.00     0.167 HD
ATOM     76  C   UNL A   1      50.348  19.693  44.781  1.00  0.00     0.074 A 
ATOM     77  C   UNL A   1      51.414  20.084  45.689  1.00  0.00     0.031 C 
ATOM     78  C   UNL A   1      49.515  18.646  44.997  1.00  0.00     0.031 A 
BRANCH  65  79
ATOM     79  C   UNL A   1      45.353  17.497  40.531  1.00  0.00    -0.014 A 
ATOM     80  C   UNL A   1      44.034  17.586  41.008  1.00  0.00     0.009 A 
ATOM     81  C   UNL A   1      45.637  16.566  39.519  1.00  0.00     0.009 A 
ATOM     82  C   UNL A   1      43.042  16.724  40.533  1.00  0.00     0.001 A 
ATOM     83  C   UNL A   1      44.633  15.733  39.014  1.00  0.00     0.001 A 
ATOM     84  C   UNL A   1      43.342  15.802  39.532  1.00  0.00     0.000 A 
ENDBRANCH  65  79
BRANCH  66  85
ATOM     85  C   UNL A   1      52.856  23.564  43.749  1.00  0.00    -0.014 A 
ATOM     86  C   UNL A   1      52.523  24.630  44.598  1.00  0.00     0.009 A 
ATOM     87  C   UNL A   1      54.204  23.389  43.394  1.00  0.00     0.009 A 
ATOM     88  C   UNL A   1      53.502  25.525  45.039  1.00  0.00     0.001 A 
ATOM     89  C   UNL A   1      55.190  24.256  43.874  1.00  0.00     0.001 A 
ATOM     90  C   UNL A   1      54.835  25.334  44.680  1.00  0.00     0.000 A 
ENDBRANCH  66  85
BRANCH  78  91
ATOM     91  C   UNL A   1      49.798  17.838  46.225  1.00  0.00    -0.014 A 
ATOM     92  C   UNL A   1      50.288  16.528  46.138  1.00  0.00     0.009 A 
ATOM     93  C   UNL A   1      49.564  18.410  47.485  1.00  0.00     0.009 A 
ATOM     94  C   UNL A   1      50.488  15.781  47.295  1.00  0.00     0.001 A 
ATOM     95  C   UNL A   1      49.807  17.674  48.642  1.00  0.00     0.001 A 
ATOM     96  C   UNL A   1      50.253  16.356  48.545  1.00  0.00     0.000 A 
ENDBRANCH  78  91
ENDBRANCH  52  53
ENDBRANCH  45  47
ENDBRANCH  44  45
ENDBRANCH  43  44
ENDBRANCH  42  43
ENDBRANCH  41  42
ENDBRANCH  40  41
ENDBRANCH  39  40
ENDBRANCH  38  39
ENDBRANCH   1  38
TORSDOF 26
ENDMDL
MODEL 3
REMARK VINA RESULT:      -7.8      9.286     17.157
REMARK SMILES N#Cc1cccnc1N1CC[NH+]([C@@H](C(=O)OCCOCCOCCOCCOC(=O)c2ccc(-c3c4nc(c(-c5ccccc5)c5ccc([nH]5)c(-c5ccccc5)c5nc(c(-c6ccccc6)c6ccc3[nH]6)C=C5)C=C4)cc2)c2c[nH]c3cc(CO)ccc23)CC1
REMARK SMILES IDX 21 1 20 2 19 3 18 4 17 5 16 6 14 7 15 8 13 9 12 10 9 11
REMARK SMILES IDX 10 12 91 13 11 14 90 15 8 17 3 18 4 19 5 20 7 21 6 22 2 23
REMARK SMILES IDX 1 24 79 25 80 26 89 27 81 28 82 29 88 30 83 32 87 33 84 34
REMARK SMILES IDX 85 35 86 36 22 38 23 39 24 40 25 41 26 42 27 43 28 44 29 45
REMARK SMILES IDX 30 46 31 47 32 48 78 49 33 50 77 51 34 52 35 53 36 54 71 55
REMARK SMILES IDX 37 56 76 57 70 58 72 59 38 60 75 61 69 62 68 63 39 65 61 66
REMARK SMILES IDX 46 67 60 68 47 69 50 70 59 71 73 72 48 73 49 74 58 76 74 77
REMARK SMILES IDX 51 78 40 79 41 80 45 81 42 82 44 83 43 84 62 85 63 86 67 87
REMARK SMILES IDX 64 88 66 89 65 90 52 91 53 92 57 93 54 94 56 95 55 96
REMARK H PARENT 12 16 81 31 86 37 72 64 50 75
REMARK Flexibility Score: inf
ROOT
ATOM      1  C   UNL A   1      38.526  23.650  26.194  1.00  0.00     0.188 C 
ENDROOT
BRANCH   1   2
ATOM      2  C   UNL A   1      39.014  24.582  27.303  1.00  0.00     0.188 C 
BRANCH   2   3
ATOM      3  O   UNL A   1      40.085  25.454  26.970  1.00  0.00    -0.376 OA
BRANCH   3   4
ATOM      4  C   UNL A   1      40.094  26.730  27.604  1.00  0.00     0.202 C 
BRANCH   4   5
ATOM      5  C   UNL A   1      39.537  26.823  29.035  1.00  0.00     0.261 C 
BRANCH   5   6
ATOM      6  O   UNL A   1      38.849  28.060  29.356  1.00  0.00    -0.459 OA
BRANCH   6   7
ATOM      7  C   UNL A   1      38.901  28.479  30.654  1.00  0.00     0.370 C 
ATOM      8  O   UNL A   1      38.554  27.762  31.594  1.00  0.00    -0.245 OA
BRANCH   7   9
ATOM      9  C   UNL A   1      39.338  29.940  30.861  1.00  0.00     0.328 C 
BRANCH   9  10
ATOM     10  N   UNL A   1      40.777  30.194  31.280  1.00  0.00    -0.316 N 
ATOM     11  N   UNL A   1      41.936  28.439  33.351  1.00  0.00    -0.344 N 
ATOM     12  C   UNL A   1      40.905  29.428  33.609  1.00  0.00     0.179 C 
ATOM     13  C   UNL A   1      42.166  28.058  31.950  1.00  0.00     0.179 C 
ATOM     14  C   UNL A   1      41.048  30.599  32.653  1.00  0.00     0.285 C 
ATOM     15  C   UNL A   1      41.817  29.201  30.922  1.00  0.00     0.285 C 
ATOM     16  H   UNL A   1      40.862  31.003  30.666  1.00  0.00     0.349 HD
BRANCH  11  17
ATOM     17  C   UNL A   1      42.227  27.503  34.355  1.00  0.00     0.146 A 
ATOM     18  C   UNL A   1      43.846  27.517  34.927  1.00  0.00     0.095 A 
ATOM     19  C   UNL A   1      44.267  26.379  36.208  1.00  0.00     0.025 A 
ATOM     20  C   UNL A   1      42.850  25.147  36.978  1.00  0.00     0.022 A 
ATOM     21  N   UNL A   1      41.003  26.419  34.969  1.00  0.00    -0.238 NA
ATOM     22  C   UNL A   1      41.242  25.243  36.243  1.00  0.00     0.113 A 
BRANCH  18  23
ATOM     23  C   UNL A   1      44.820  28.436  34.446  1.00  0.00     0.103 C 
ATOM     24  N   UNL A   1      45.617  29.170  34.031  1.00  0.00    -0.192 NA
ENDBRANCH  18  23
ENDBRANCH  11  17
ENDBRANCH   9  10
BRANCH   9  25
ATOM     25  C   UNL A   1      38.276  31.084  31.138  1.00  0.00     0.046 A 
ATOM     26  C   UNL A   1      37.406  31.028  32.224  1.00  0.00     0.094 A 
ATOM     27  C   UNL A   1      37.519  32.037  30.344  1.00  0.00     0.009 A 
ATOM     28  N   UNL A   1      36.159  30.914  31.661  1.00  0.00    -0.361 N 
ATOM     29  C   UNL A   1      36.179  31.671  30.512  1.00  0.00     0.046 A 
ATOM     30  C   UNL A   1      37.682  33.311  29.748  1.00  0.00     0.011 A 
ATOM     31  H   UNL A   1      35.401  30.394  32.011  1.00  0.00     0.166 HD
ATOM     32  C   UNL A   1      35.131  32.145  29.714  1.00  0.00     0.032 A 
ATOM     33  C   UNL A   1      36.624  33.885  28.998  1.00  0.00     0.007 A 
ATOM     34  C   UNL A   1      35.396  33.228  28.863  1.00  0.00    -0.021 A 
BRANCH  34  35
ATOM     35  C   UNL A   1      34.338  33.689  27.885  1.00  0.00     0.191 C 
BRANCH  35  36
ATOM     36  O   UNL A   1      34.660  34.926  27.254  1.00  0.00    -0.392 OA
ATOM     37  H   UNL A   1      35.027  35.538  27.911  1.00  0.00     0.211 HD
ENDBRANCH  35  36
ENDBRANCH  34  35
ENDBRANCH   9  25
ENDBRANCH   7   9
ENDBRANCH   6   7
ENDBRANCH   5   6
ENDBRANCH   4   5
ENDBRANCH   3   4
ENDBRANCH   2   3
ENDBRANCH   1   2
BRANCH   1  38
ATOM     38  O   UNL A   1      38.767  22.267  26.382  1.00  0.00    -0.377 OA
BRANCH  38  39
ATOM     39  C   UNL A   1      40.094  21.987  26.829  1.00  0.00     0.188 C 
BRANCH  39  40
ATOM     40  C   UNL A   1      40.738  20.671  26.320  1.00  0.00     0.188 C 
BRANCH  40  41
ATOM     41  O   UNL A   1      42.055  20.282  26.737  1.00  0.00    -0.376 OA
BRANCH  41  42
ATOM     42  C   UNL A   1      42.608  19.161  26.053  1.00  0.00     0.202 C 
BRANCH  42  43
ATOM     43  C   UNL A   1      43.901  19.526  25.279  1.00  0.00     0.261 C 
BRANCH  43  44
ATOM     44  O   UNL A   1      44.115  20.955  25.240  1.00  0.00    -0.460 OA
BRANCH  44  45
ATOM     45  C   UNL A   1      45.393  21.339  25.343  1.00  0.00     0.338 C 
ATOM     46  O   UNL A   1      46.334  20.557  25.447  1.00  0.00    -0.246 OA
BRANCH  45  47
ATOM     47  C   UNL A   1      45.656  22.907  25.280  1.00  0.00     0.060 A 
ATOM     48  C   UNL A   1      46.675  24.151  24.021  1.00  0.00     0.016 A 
ATOM     49  C   UNL A   1      45.770  23.269  27.044  1.00  0.00     0.016 A 
ATOM     50  C   UNL A   1      47.693  25.434  24.709  1.00  0.00     0.010 A 
ATOM     51  C   UNL A   1      46.765  24.613  27.574  1.00  0.00     0.010 A 
ATOM     52  C   UNL A   1      47.700  25.649  26.456  1.00  0.00    -0.014 A 
BRANCH  52  53
ATOM     53  C   UNL A   1      48.522  26.735  27.016  1.00  0.00     0.031 A 
ATOM     54  C   UNL A   1      47.866  28.045  27.313  1.00  0.00     0.074 A 
ATOM     55  C   UNL A   1      49.843  26.541  27.184  1.00  0.00     0.049 A 
ATOM     56  N   UNL A   1      48.408  29.230  27.357  1.00  0.00    -0.248 NA
ATOM     57  C   UNL A   1      46.400  28.055  27.449  1.00  0.00     0.031 C 
ATOM     58  C   UNL A   1      50.594  25.318  26.877  1.00  0.00     0.029 A 
ATOM     59  N   UNL A   1      50.804  27.376  27.678  1.00  0.00    -0.354 N 
ATOM     60  C   UNL A   1      47.339  30.118  27.373  1.00  0.00     0.074 A 
ATOM     61  C   UNL A   1      46.130  29.339  27.270  1.00  0.00     0.031 C 
ATOM     62  C   UNL A   1      51.847  25.425  27.331  1.00  0.00     0.029 A 
ATOM     63  C   UNL A   1      52.045  26.791  27.765  1.00  0.00     0.049 A 
ATOM     64  H   UNL A   1      50.626  28.306  27.946  1.00  0.00     0.167 HD
ATOM     65  C   UNL A   1      47.383  31.462  27.501  1.00  0.00     0.031 A 
ATOM     66  C   UNL A   1      53.231  27.330  28.085  1.00  0.00     0.031 A 
ATOM     67  C   UNL A   1      48.614  32.153  27.772  1.00  0.00     0.049 A 
ATOM     68  C   UNL A   1      53.238  28.809  28.324  1.00  0.00     0.074 A 
ATOM     69  C   UNL A   1      48.827  33.497  28.003  1.00  0.00     0.029 A 
ATOM     70  N   UNL A   1      49.841  31.513  27.919  1.00  0.00    -0.354 N 
ATOM     71  N   UNL A   1      52.240  29.659  28.253  1.00  0.00    -0.248 NA
ATOM     72  C   UNL A   1      54.528  29.406  28.665  1.00  0.00     0.031 C 
ATOM     73  C   UNL A   1      50.188  33.669  28.285  1.00  0.00     0.029 A 
ATOM     74  C   UNL A   1      50.811  32.427  28.274  1.00  0.00     0.049 A 
ATOM     75  H   UNL A   1      49.994  30.549  27.789  1.00  0.00     0.167 HD
ATOM     76  C   UNL A   1      52.776  30.897  28.560  1.00  0.00     0.074 A 
ATOM     77  C   UNL A   1      54.181  30.669  28.859  1.00  0.00     0.031 C 
ATOM     78  C   UNL A   1      52.186  32.118  28.576  1.00  0.00     0.031 A 
BRANCH  65  79
ATOM     79  C   UNL A   1      46.089  32.222  27.388  1.00  0.00    -0.014 A 
ATOM     80  C   UNL A   1      45.431  32.378  26.157  1.00  0.00     0.009 A 
ATOM     81  C   UNL A   1      45.527  32.820  28.527  1.00  0.00     0.009 A 
ATOM     82  C   UNL A   1      44.279  33.163  26.055  1.00  0.00     0.001 A 
ATOM     83  C   UNL A   1      44.350  33.570  28.432  1.00  0.00     0.001 A 
ATOM     84  C   UNL A   1      43.737  33.753  27.194  1.00  0.00     0.000 A 
ENDBRANCH  65  79
BRANCH  66  85
ATOM     85  C   UNL A   1      54.468  26.504  28.137  1.00  0.00    -0.014 A 
ATOM     86  C   UNL A   1      54.869  25.906  29.341  1.00  0.00     0.009 A 
ATOM     87  C   UNL A   1      55.256  26.297  26.992  1.00  0.00     0.009 A 
ATOM     88  C   UNL A   1      56.052  25.164  29.410  1.00  0.00     0.001 A 
ATOM     89  C   UNL A   1      56.413  25.514  27.051  1.00  0.00     0.001 A 
ATOM     90  C   UNL A   1      56.820  24.965  28.265  1.00  0.00     0.000 A 
ENDBRANCH  66  85
BRANCH  78  91
ATOM     91  C   UNL A   1      53.063  33.253  29.001  1.00  0.00    -0.014 A 
ATOM     92  C   UNL A   1      53.272  33.544  30.357  1.00  0.00     0.009 A 
ATOM     93  C   UNL A   1      53.685  34.039  28.019  1.00  0.00     0.009 A 
ATOM     94  C   UNL A   1      54.047  34.641  30.722  1.00  0.00     0.001 A 
ATOM     95  C   UNL A   1      54.495  35.109  28.389  1.00  0.00     0.001 A 
ATOM     96  C   UNL A   1      54.662  35.418  29.738  1.00  0.00     0.000 A 
ENDBRANCH  78  91
ENDBRANCH  52  53
ENDBRANCH  45  47
ENDBRANCH  44  45
ENDBRANCH  43  44
ENDBRANCH  42  43
ENDBRANCH  41  42
ENDBRANCH  40  41
ENDBRANCH  39  40
ENDBRANCH  38  39
ENDBRANCH   1  38
TORSDOF 26
ENDMDL
