MODEL 1
REMARK VINA RESULT:     -10.2      0.000      0.000
REMARK SMILES Cc1ccc(NC(=O)N2CCCC[C@@H]2C(=O)OCCOCCOCCOCCOC(=O)c2ccc(-c3c4nc(c(-c5ccccc5)c5ccc([nH]5)c(-c5ccccc5)c5nc(c(-c6ccccc6)c6ccc3[nH]6)C=C5)C=C4)cc2)cc1
REMARK SMILES IDX 23 1 22 2 21 3 20 4 19 5 18 6 17 7 15 8 16 9 14 10 9 11
REMARK SMILES IDX 10 12 11 13 13 14 12 15 7 16 6 17 8 19 5 20 1 21 2 22 3 23
REMARK SMILES IDX 81 24 4 25 80 26 24 27 25 28 26 29 27 30 28 31 29 32 30 33
REMARK SMILES IDX 31 34 32 35 33 36 79 37 34 38 78 39 35 40 36 41 37 42 72 43
REMARK SMILES IDX 38 44 77 45 71 46 73 47 39 48 76 49 70 50 69 51 40 53 62 54
REMARK SMILES IDX 47 55 61 56 48 57 51 58 60 59 74 60 49 61 50 62 59 64 75 65
REMARK SMILES IDX 52 66 41 67 42 68 46 69 43 70 45 71 44 72 63 73 64 74 68 75
REMARK SMILES IDX 65 76 67 77 66 78 53 79 54 80 58 81 55 82 57 83 56 84
REMARK H PARENT 6 18 73 52 51 63
REMARK Flexibility Score: inf
ROOT
ATOM      1  O   UNL A   1      31.497  29.172  23.902  1.00  0.00    -0.377 OA
ENDROOT
BRANCH   1   2
ATOM      2  C   UNL A   1      30.489  28.315  23.380  1.00  0.00     0.188 C 
BRANCH   2   3
ATOM      3  C   UNL A   1      30.262  26.874  23.922  1.00  0.00     0.188 C 
BRANCH   3   4
ATOM      4  O   UNL A   1      31.176  25.800  23.765  1.00  0.00    -0.376 OA
BRANCH   4   5
ATOM      5  C   UNL A   1      32.436  26.056  23.187  1.00  0.00     0.202 C 
BRANCH   5   6
ATOM      6  C   UNL A   1      32.843  24.901  22.303  1.00  0.00     0.261 C 
BRANCH   6   7
ATOM      7  O   UNL A   1      33.813  24.031  22.909  1.00  0.00    -0.462 OA
BRANCH   7   8
ATOM      8  C   UNL A   1      33.283  22.954  23.514  1.00  0.00     0.329 C 
ATOM      9  O   UNL A   1      32.704  22.032  22.951  1.00  0.00    -0.250 OA
BRANCH   8  10
ATOM     10  C   UNL A   1      33.444  22.886  25.010  1.00  0.00     0.196 C 
ATOM     11  N   UNL A   1      34.433  22.034  25.676  1.00  0.00    -0.311 N 
ATOM     12  C   UNL A   1      34.442  22.156  27.138  1.00  0.00     0.122 C 
ATOM     13  C   UNL A   1      33.073  22.257  27.825  1.00  0.00     0.022 C 
ATOM     14  C   UNL A   1      32.050  22.653  25.616  1.00  0.00     0.037 C 
ATOM     15  C   UNL A   1      32.067  23.101  27.063  1.00  0.00     0.005 C 
BRANCH  11  16
ATOM     16  C   UNL A   1      35.459  21.327  25.106  1.00  0.00     0.322 C 
ATOM     17  N   UNL A   1      35.458  19.980  24.942  1.00  0.00    -0.308 N 
ATOM     18  H   UNL A   1      36.372  19.616  24.924  1.00  0.00     0.171 HD
ATOM     19  O   UNL A   1      36.492  21.912  24.752  1.00  0.00    -0.248 OA
BRANCH  17  20
ATOM     20  C   UNL A   1      34.490  18.966  24.790  1.00  0.00     0.042 A 
ATOM     21  C   UNL A   1      32.363  15.350  25.657  1.00  0.00     0.044 C 
ATOM     22  C   UNL A   1      32.971  16.613  25.113  1.00  0.00    -0.051 A 
ATOM     23  C   UNL A   1      32.433  17.868  25.434  1.00  0.00     0.005 A 
ATOM     24  C   UNL A   1      34.183  16.572  24.431  1.00  0.00     0.005 A 
ATOM     25  C   UNL A   1      33.181  19.046  25.249  1.00  0.00     0.026 A 
ATOM     26  C   UNL A   1      34.923  17.748  24.249  1.00  0.00     0.026 A 
ENDBRANCH  17  20
ENDBRANCH  11  16
ENDBRANCH   8  10
ENDBRANCH   7   8
ENDBRANCH   6   7
ENDBRANCH   5   6
ENDBRANCH   4   5
ENDBRANCH   3   4
ENDBRANCH   2   3
ENDBRANCH   1   2
BRANCH   1  27
ATOM     27  C   UNL A   1      31.783  29.188  25.290  1.00  0.00     0.188 C 
BRANCH  27  28
ATOM     28  C   UNL A   1      33.157  28.716  25.702  1.00  0.00     0.188 C 
BRANCH  28  29
ATOM     29  O   UNL A   1      33.795  29.791  26.382  1.00  0.00    -0.376 OA
BRANCH  29  30
ATOM     30  C   UNL A   1      32.970  30.507  27.290  1.00  0.00     0.202 C 
BRANCH  30  31
ATOM     31  C   UNL A   1      33.585  31.856  27.650  1.00  0.00     0.261 C 
BRANCH  31  32
ATOM     32  O   UNL A   1      34.464  31.658  28.779  1.00  0.00    -0.460 OA
BRANCH  32  33
ATOM     33  C   UNL A   1      35.796  31.799  28.509  1.00  0.00     0.338 C 
ATOM     34  O   UNL A   1      36.314  32.776  28.021  1.00  0.00    -0.246 OA
BRANCH  33  35
ATOM     35  C   UNL A   1      36.485  30.466  28.595  1.00  0.00     0.060 A 
ATOM     36  C   UNL A   1      36.459  29.758  29.808  1.00  0.00     0.016 A 
ATOM     37  C   UNL A   1      37.425  30.120  27.633  1.00  0.00     0.016 A 
ATOM     38  C   UNL A   1      37.489  28.854  30.127  1.00  0.00     0.010 A 
ATOM     39  C   UNL A   1      38.483  29.301  27.992  1.00  0.00     0.010 A 
ATOM     40  C   UNL A   1      38.573  28.704  29.261  1.00  0.00    -0.014 A 
BRANCH  40  41
ATOM     41  C   UNL A   1      39.891  28.139  29.658  1.00  0.00     0.031 A 
ATOM     42  C   UNL A   1      40.390  26.863  29.028  1.00  0.00     0.074 A 
ATOM     43  C   UNL A   1      40.777  28.950  30.305  1.00  0.00     0.049 A 
ATOM     44  N   UNL A   1      41.504  26.278  29.322  1.00  0.00    -0.248 NA
ATOM     45  C   UNL A   1      39.691  26.154  27.955  1.00  0.00     0.031 C 
ATOM     46  C   UNL A   1      42.240  28.830  30.346  1.00  0.00     0.029 A 
ATOM     47  N   UNL A   1      40.597  30.122  31.025  1.00  0.00    -0.354 N 
ATOM     48  C   UNL A   1      41.838  25.405  28.300  1.00  0.00     0.074 A 
ATOM     49  C   UNL A   1      40.624  25.292  27.530  1.00  0.00     0.031 C 
ATOM     50  C   UNL A   1      42.790  29.796  31.096  1.00  0.00     0.029 A 
ATOM     51  C   UNL A   1      41.706  30.350  31.852  1.00  0.00     0.049 A 
ATOM     52  H   UNL A   1      39.807  30.706  30.966  1.00  0.00     0.167 HD
ATOM     53  C   UNL A   1      43.142  24.997  28.143  1.00  0.00     0.031 A 
ATOM     54  C   UNL A   1      41.648  30.230  33.214  1.00  0.00     0.031 A 
ATOM     55  C   UNL A   1      44.020  25.462  29.254  1.00  0.00     0.049 A 
ATOM     56  C   UNL A   1      42.398  28.974  33.697  1.00  0.00     0.074 A 
ATOM     57  C   UNL A   1      45.308  25.961  29.363  1.00  0.00     0.029 A 
ATOM     58  N   UNL A   1      43.505  25.544  30.555  1.00  0.00    -0.354 N 
ATOM     59  N   UNL A   1      42.702  27.968  32.905  1.00  0.00    -0.248 NA
ATOM     60  C   UNL A   1      42.977  28.778  35.026  1.00  0.00     0.031 C 
ATOM     61  C   UNL A   1      45.496  26.479  30.676  1.00  0.00     0.029 A 
ATOM     62  C   UNL A   1      44.376  26.158  31.424  1.00  0.00     0.049 A 
ATOM     63  H   UNL A   1      42.620  25.201  30.817  1.00  0.00     0.167 HD
ATOM     64  C   UNL A   1      43.564  27.100  33.517  1.00  0.00     0.074 A 
ATOM     65  C   UNL A   1      43.661  27.624  34.869  1.00  0.00     0.031 C 
ATOM     66  C   UNL A   1      44.177  26.057  32.870  1.00  0.00     0.031 A 
BRANCH  53  67
ATOM     67  C   UNL A   1      43.703  24.338  26.862  1.00  0.00    -0.014 A 
ATOM     68  C   UNL A   1      43.354  23.012  26.524  1.00  0.00     0.009 A 
ATOM     69  C   UNL A   1      44.653  24.916  25.995  1.00  0.00     0.009 A 
ATOM     70  C   UNL A   1      43.970  22.294  25.479  1.00  0.00     0.001 A 
ATOM     71  C   UNL A   1      45.239  24.226  24.914  1.00  0.00     0.001 A 
ATOM     72  C   UNL A   1      44.920  22.901  24.673  1.00  0.00     0.000 A 
ENDBRANCH  53  67
BRANCH  54  73
ATOM     73  C   UNL A   1      40.457  30.977  33.738  1.00  0.00    -0.014 A 
ATOM     74  C   UNL A   1      40.511  32.370  33.462  1.00  0.00     0.009 A 
ATOM     75  C   UNL A   1      39.195  30.362  33.735  1.00  0.00     0.009 A 
ATOM     76  C   UNL A   1      39.422  33.023  32.870  1.00  0.00     0.001 A 
ATOM     77  C   UNL A   1      38.090  31.046  33.192  1.00  0.00     0.001 A 
ATOM     78  C   UNL A   1      38.227  32.341  32.683  1.00  0.00     0.000 A 
ENDBRANCH  54  73
BRANCH  66  79
ATOM     79  C   UNL A   1      44.748  24.790  33.490  1.00  0.00    -0.014 A 
ATOM     80  C   UNL A   1      44.087  23.566  33.580  1.00  0.00     0.009 A 
ATOM     81  C   UNL A   1      46.117  24.783  33.881  1.00  0.00     0.009 A 
ATOM     82  C   UNL A   1      44.749  22.417  34.043  1.00  0.00     0.001 A 
ATOM     83  C   UNL A   1      46.789  23.641  34.312  1.00  0.00     0.001 A 
ATOM     84  C   UNL A   1      46.097  22.450  34.396  1.00  0.00     0.000 A 
ENDBRANCH  66  79
ENDBRANCH  40  41
ENDBRANCH  33  35
ENDBRANCH  32  33
ENDBRANCH  31  32
ENDBRANCH  30  31
ENDBRANCH  29  30
ENDBRANCH  28  29
ENDBRANCH  27  28
ENDBRANCH   1  27
TORSDOF 22
ENDMDL
MODEL 2
REMARK VINA RESULT:      -9.9      3.534      9.230
REMARK SMILES Cc1ccc(NC(=O)N2CCCC[C@@H]2C(=O)OCCOCCOCCOCCOC(=O)c2ccc(-c3c4nc(c(-c5ccccc5)c5ccc([nH]5)c(-c5ccccc5)c5nc(c(-c6ccccc6)c6ccc3[nH]6)C=C5)C=C4)cc2)cc1
REMARK SMILES IDX 23 1 22 2 21 3 20 4 19 5 18 6 17 7 15 8 16 9 14 10 9 11
REMARK SMILES IDX 10 12 11 13 13 14 12 15 7 16 6 17 8 19 5 20 1 21 2 22 3 23
REMARK SMILES IDX 81 24 4 25 80 26 24 27 25 28 26 29 27 30 28 31 29 32 30 33
REMARK SMILES IDX 31 34 32 35 33 36 79 37 34 38 78 39 35 40 36 41 37 42 72 43
REMARK SMILES IDX 38 44 77 45 71 46 73 47 39 48 76 49 70 50 69 51 40 53 62 54
REMARK SMILES IDX 47 55 61 56 48 57 51 58 60 59 74 60 49 61 50 62 59 64 75 65
REMARK SMILES IDX 52 66 41 67 42 68 46 69 43 70 45 71 44 72 63 73 64 74 68 75
REMARK SMILES IDX 65 76 67 77 66 78 53 79 54 80 58 81 55 82 57 83 56 84
REMARK H PARENT 6 18 73 52 51 63
REMARK Flexibility Score: inf
ROOT
ATOM      1  O   UNL A   1      41.911  19.100  25.736  1.00  0.00    -0.377 OA
ENDROOT
BRANCH   1   2
ATOM      2  C   UNL A   1      40.669  19.685  26.105  1.00  0.00     0.188 C 
BRANCH   2   3
ATOM      3  C   UNL A   1      40.462  21.226  26.163  1.00  0.00     0.188 C 
BRANCH   3   4
ATOM      4  O   UNL A   1      39.265  21.864  26.580  1.00  0.00    -0.376 OA
BRANCH   4   5
ATOM      5  C   UNL A   1      38.161  21.882  25.704  1.00  0.00     0.202 C 
BRANCH   5   6
ATOM      6  C   UNL A   1      37.774  23.308  25.391  1.00  0.00     0.261 C 
BRANCH   6   7
ATOM      7  O   UNL A   1      36.386  23.464  25.057  1.00  0.00    -0.462 OA
BRANCH   7   8
ATOM      8  C   UNL A   1      36.040  22.920  23.877  1.00  0.00     0.329 C 
ATOM      9  O   UNL A   1      36.652  23.053  22.824  1.00  0.00    -0.250 OA
BRANCH   8  10
ATOM     10  C   UNL A   1      34.801  22.064  23.878  1.00  0.00     0.196 C 
ATOM     11  N   UNL A   1      33.509  22.515  23.352  1.00  0.00    -0.311 N 
ATOM     12  C   UNL A   1      32.449  21.504  23.417  1.00  0.00     0.122 C 
ATOM     13  C   UNL A   1      32.393  20.652  24.693  1.00  0.00     0.022 C 
ATOM     14  C   UNL A   1      34.627  21.502  25.299  1.00  0.00     0.037 C 
ATOM     15  C   UNL A   1      33.759  20.262  25.230  1.00  0.00     0.005 C 
BRANCH  11  16
ATOM     16  C   UNL A   1      33.241  23.651  22.635  1.00  0.00     0.322 C 
ATOM     17  N   UNL A   1      32.544  24.712  23.117  1.00  0.00    -0.308 N 
ATOM     18  H   UNL A   1      32.099  25.212  22.397  1.00  0.00     0.171 HD
ATOM     19  O   UNL A   1      33.593  23.733  21.450  1.00  0.00    -0.248 OA
BRANCH  17  20
ATOM     20  C   UNL A   1      32.292  25.283  24.382  1.00  0.00     0.042 A 
ATOM     21  C   UNL A   1      31.782  28.365  27.312  1.00  0.00     0.044 C 
ATOM     22  C   UNL A   1      31.965  27.113  26.502  1.00  0.00    -0.051 A 
ATOM     23  C   UNL A   1      30.863  26.442  25.952  1.00  0.00     0.005 A 
ATOM     24  C   UNL A   1      33.240  26.696  26.130  1.00  0.00     0.005 A 
ATOM     25  C   UNL A   1      31.027  25.509  24.911  1.00  0.00     0.026 A 
ATOM     26  C   UNL A   1      33.398  25.767  25.094  1.00  0.00     0.026 A 
ENDBRANCH  17  20
ENDBRANCH  11  16
ENDBRANCH   8  10
ENDBRANCH   7   8
ENDBRANCH   6   7
ENDBRANCH   5   6
ENDBRANCH   4   5
ENDBRANCH   3   4
ENDBRANCH   2   3
ENDBRANCH   1   2
BRANCH   1  27
ATOM     27  C   UNL A   1      43.116  19.841  25.833  1.00  0.00     0.188 C 
BRANCH  27  28
ATOM     28  C   UNL A   1      44.157  19.582  24.772  1.00  0.00     0.188 C 
BRANCH  28  29
ATOM     29  O   UNL A   1      44.489  20.833  24.180  1.00  0.00    -0.376 OA
BRANCH  29  30
ATOM     30  C   UNL A   1      45.407  21.627  24.918  1.00  0.00     0.202 C 
BRANCH  30  31
ATOM     31  C   UNL A   1      45.583  23.003  24.283  1.00  0.00     0.261 C 
BRANCH  31  32
ATOM     32  O   UNL A   1      46.151  23.883  25.276  1.00  0.00    -0.460 OA
BRANCH  32  33
ATOM     33  C   UNL A   1      46.788  24.985  24.779  1.00  0.00     0.338 C 
ATOM     34  O   UNL A   1      47.576  24.987  23.862  1.00  0.00    -0.246 OA
BRANCH  33  35
ATOM     35  C   UNL A   1      46.633  26.143  25.724  1.00  0.00     0.060 A 
ATOM     36  C   UNL A   1      46.556  25.894  27.105  1.00  0.00     0.016 A 
ATOM     37  C   UNL A   1      46.206  27.371  25.236  1.00  0.00     0.016 A 
ATOM     38  C   UNL A   1      45.876  26.789  27.953  1.00  0.00     0.010 A 
ATOM     39  C   UNL A   1      45.458  28.198  26.059  1.00  0.00     0.010 A 
ATOM     40  C   UNL A   1      45.223  27.897  27.411  1.00  0.00    -0.014 A 
BRANCH  40  41
ATOM     41  C   UNL A   1      44.143  28.653  28.100  1.00  0.00     0.031 A 
ATOM     42  C   UNL A   1      44.475  29.880  28.912  1.00  0.00     0.074 A 
ATOM     43  C   UNL A   1      42.853  28.447  27.707  1.00  0.00     0.049 A 
ATOM     44  N   UNL A   1      43.617  30.589  29.568  1.00  0.00    -0.248 NA
ATOM     45  C   UNL A   1      45.816  30.457  29.010  1.00  0.00     0.031 C 
ATOM     46  C   UNL A   1      41.717  29.369  27.834  1.00  0.00     0.029 A 
ATOM     47  N   UNL A   1      42.253  27.395  27.031  1.00  0.00    -0.354 N 
ATOM     48  C   UNL A   1      44.168  31.831  29.836  1.00  0.00     0.074 A 
ATOM     49  C   UNL A   1      45.572  31.653  29.560  1.00  0.00     0.031 C 
ATOM     50  C   UNL A   1      40.588  28.826  27.354  1.00  0.00     0.029 A 
ATOM     51  C   UNL A   1      40.866  27.425  27.235  1.00  0.00     0.049 A 
ATOM     52  H   UNL A   1      42.730  26.726  26.490  1.00  0.00     0.167 HD
ATOM     53  C   UNL A   1      43.350  32.899  30.120  1.00  0.00     0.031 A 
ATOM     54  C   UNL A   1      40.213  26.497  28.001  1.00  0.00     0.031 A 
ATOM     55  C   UNL A   1      41.921  32.501  30.254  1.00  0.00     0.049 A 
ATOM     56  C   UNL A   1      39.740  27.106  29.334  1.00  0.00     0.074 A 
ATOM     57  C   UNL A   1      40.698  33.032  29.873  1.00  0.00     0.029 A 
ATOM     58  N   UNL A   1      41.598  31.256  30.812  1.00  0.00    -0.354 N 
ATOM     59  N   UNL A   1      40.232  28.221  29.831  1.00  0.00    -0.248 NA
ATOM     60  C   UNL A   1      38.628  26.624  30.152  1.00  0.00     0.031 C 
ATOM     61  C   UNL A   1      39.686  32.047  30.057  1.00  0.00     0.029 A 
ATOM     62  C   UNL A   1      40.260  30.962  30.698  1.00  0.00     0.049 A 
ATOM     63  H   UNL A   1      42.256  30.659  31.237  1.00  0.00     0.167 HD
ATOM     64  C   UNL A   1      39.485  28.663  30.889  1.00  0.00     0.074 A 
ATOM     65  C   UNL A   1      38.522  27.593  31.086  1.00  0.00     0.031 C 
ATOM     66  C   UNL A   1      39.666  29.884  31.487  1.00  0.00     0.031 A 
BRANCH  53  67
ATOM     67  C   UNL A   1      43.799  34.378  30.076  1.00  0.00    -0.014 A 
ATOM     68  C   UNL A   1      44.295  35.013  31.236  1.00  0.00     0.009 A 
ATOM     69  C   UNL A   1      43.671  35.238  28.965  1.00  0.00     0.009 A 
ATOM     70  C   UNL A   1      44.545  36.399  31.311  1.00  0.00     0.001 A 
ATOM     71  C   UNL A   1      43.968  36.615  29.012  1.00  0.00     0.001 A 
ATOM     72  C   UNL A   1      44.377  37.205  30.196  1.00  0.00     0.000 A 
ENDBRANCH  53  67
BRANCH  54  73
ATOM     73  C   UNL A   1      40.641  25.117  27.598  1.00  0.00    -0.014 A 
ATOM     74  C   UNL A   1      40.939  25.009  26.213  1.00  0.00     0.009 A 
ATOM     75  C   UNL A   1      41.398  24.338  28.488  1.00  0.00     0.009 A 
ATOM     76  C   UNL A   1      42.145  24.440  25.784  1.00  0.00     0.001 A 
ATOM     77  C   UNL A   1      42.580  23.718  28.037  1.00  0.00     0.001 A 
ATOM     78  C   UNL A   1      42.993  23.844  26.708  1.00  0.00     0.000 A 
ENDBRANCH  54  73
BRANCH  66  79
ATOM     79  C   UNL A   1      39.265  30.291  32.898  1.00  0.00    -0.014 A 
ATOM     80  C   UNL A   1      40.046  30.127  34.039  1.00  0.00     0.009 A 
ATOM     81  C   UNL A   1      38.065  31.038  33.072  1.00  0.00     0.009 A 
ATOM     82  C   UNL A   1      39.647  30.663  35.275  1.00  0.00     0.001 A 
ATOM     83  C   UNL A   1      37.677  31.599  34.287  1.00  0.00     0.001 A 
ATOM     84  C   UNL A   1      38.475  31.406  35.397  1.00  0.00     0.000 A 
ENDBRANCH  66  79
ENDBRANCH  40  41
ENDBRANCH  33  35
ENDBRANCH  32  33
ENDBRANCH  31  32
ENDBRANCH  30  31
ENDBRANCH  29  30
ENDBRANCH  28  29
ENDBRANCH  27  28
ENDBRANCH   1  27
TORSDOF 22
ENDMDL
MODEL 3
REMARK VINA RESULT:      -9.3      3.605      9.523
REMARK SMILES Cc1ccc(NC(=O)N2CCCC[C@@H]2C(=O)OCCOCCOCCOCCOC(=O)c2ccc(-c3c4nc(c(-c5ccccc5)c5ccc([nH]5)c(-c5ccccc5)c5nc(c(-c6ccccc6)c6ccc3[nH]6)C=C5)C=C4)cc2)cc1
REMARK SMILES IDX 23 1 22 2 21 3 20 4 19 5 18 6 17 7 15 8 16 9 14 10 9 11
REMARK SMILES IDX 10 12 11 13 13 14 12 15 7 16 6 17 8 19 5 20 1 21 2 22 3 23
REMARK SMILES IDX 81 24 4 25 80 26 24 27 25 28 26 29 27 30 28 31 29 32 30 33
REMARK SMILES IDX 31 34 32 35 33 36 79 37 34 38 78 39 35 40 36 41 37 42 72 43
REMARK SMILES IDX 38 44 77 45 71 46 73 47 39 48 76 49 70 50 69 51 40 53 62 54
REMARK SMILES IDX 47 55 61 56 48 57 51 58 60 59 74 60 49 61 50 62 59 64 75 65
REMARK SMILES IDX 52 66 41 67 42 68 46 69 43 70 45 71 44 72 63 73 64 74 68 75
REMARK SMILES IDX 65 76 67 77 66 78 53 79 54 80 58 81 55 82 57 83 56 84
REMARK H PARENT 6 18 73 52 51 63
REMARK Flexibility Score: inf
ROOT
ATOM      1  O   UNL A   1      34.860  20.981  25.712  1.00  0.00    -0.377 OA
ENDROOT
BRANCH   1   2
ATOM      2  C   UNL A   1      34.044  22.141  25.822  1.00  0.00     0.188 C 
BRANCH   2   3
ATOM      3  C   UNL A   1      32.499  22.088  25.649  1.00  0.00     0.188 C 
BRANCH   3   4
ATOM      4  O   UNL A   1      31.665  23.225  25.494  1.00  0.00    -0.376 OA
BRANCH   4   5
ATOM      5  C   UNL A   1      31.538  24.129  26.568  1.00  0.00     0.202 C 
BRANCH   5   6
ATOM      6  C   UNL A   1      30.190  24.808  26.515  1.00  0.00     0.261 C 
BRANCH   6   7
ATOM      7  O   UNL A   1      30.207  26.061  25.815  1.00  0.00    -0.462 OA
BRANCH   7   8
ATOM      8  C   UNL A   1      30.996  26.994  26.376  1.00  0.00     0.329 C 
ATOM      9  O   UNL A   1      30.977  27.329  27.555  1.00  0.00    -0.250 OA
BRANCH   8  10
ATOM     10  C   UNL A   1      31.993  27.657  25.463  1.00  0.00     0.196 C 
ATOM     11  N   UNL A   1      32.039  27.427  24.016  1.00  0.00    -0.311 N 
ATOM     12  C   UNL A   1      33.065  28.207  23.316  1.00  0.00     0.122 C 
ATOM     13  C   UNL A   1      34.424  28.335  24.018  1.00  0.00     0.022 C 
ATOM     14  C   UNL A   1      33.389  27.454  26.075  1.00  0.00     0.037 C 
ATOM     15  C   UNL A   1      34.323  28.512  25.522  1.00  0.00     0.005 C 
BRANCH  11  16
ATOM     16  C   UNL A   1      31.129  26.759  23.239  1.00  0.00     0.322 C 
ATOM     17  N   UNL A   1      29.924  27.264  22.871  1.00  0.00    -0.308 N 
ATOM     18  H   UNL A   1      29.267  26.551  22.701  1.00  0.00     0.171 HD
ATOM     19  O   UNL A   1      31.360  25.599  22.873  1.00  0.00    -0.248 OA
BRANCH  17  20
ATOM     20  C   UNL A   1      29.367  28.544  22.668  1.00  0.00     0.042 A 
ATOM     21  C   UNL A   1      27.752  31.871  20.507  1.00  0.00     0.044 C 
ATOM     22  C   UNL A   1      28.330  30.880  21.478  1.00  0.00    -0.051 A 
ATOM     23  C   UNL A   1      27.500  30.008  22.197  1.00  0.00     0.005 A 
ATOM     24  C   UNL A   1      29.706  30.685  21.549  1.00  0.00     0.005 A 
ATOM     25  C   UNL A   1      28.021  28.854  22.814  1.00  0.00     0.026 A 
ATOM     26  C   UNL A   1      30.219  29.537  22.165  1.00  0.00     0.026 A 
ENDBRANCH  17  20
ENDBRANCH  11  16
ENDBRANCH   8  10
ENDBRANCH   7   8
ENDBRANCH   6   7
ENDBRANCH   5   6
ENDBRANCH   4   5
ENDBRANCH   3   4
ENDBRANCH   2   3
ENDBRANCH   1   2
BRANCH   1  27
ATOM     27  C   UNL A   1      35.765  20.834  24.631  1.00  0.00     0.188 C 
BRANCH  27  28
ATOM     28  C   UNL A   1      36.825  21.899  24.487  1.00  0.00     0.188 C 
BRANCH  28  29
ATOM     29  O   UNL A   1      38.049  21.355  24.967  1.00  0.00    -0.376 OA
BRANCH  29  30
ATOM     30  C   UNL A   1      38.622  22.038  26.073  1.00  0.00     0.202 C 
BRANCH  30  31
ATOM     31  C   UNL A   1      40.042  21.552  26.347  1.00  0.00     0.261 C 
BRANCH  31  32
ATOM     32  O   UNL A   1      40.633  22.434  27.326  1.00  0.00    -0.460 OA
BRANCH  32  33
ATOM     33  C   UNL A   1      41.368  23.464  26.810  1.00  0.00     0.338 C 
ATOM     34  O   UNL A   1      42.529  23.401  26.479  1.00  0.00    -0.246 OA
BRANCH  33  35
ATOM     35  C   UNL A   1      40.644  24.766  27.010  1.00  0.00     0.060 A 
ATOM     36  C   UNL A   1      40.826  25.800  26.077  1.00  0.00     0.016 A 
ATOM     37  C   UNL A   1      40.115  25.068  28.257  1.00  0.00     0.016 A 
ATOM     38  C   UNL A   1      40.666  27.144  26.464  1.00  0.00     0.010 A 
ATOM     39  C   UNL A   1      40.051  26.394  28.656  1.00  0.00     0.010 A 
ATOM     40  C   UNL A   1      40.384  27.454  27.795  1.00  0.00    -0.014 A 
BRANCH  40  41
ATOM     41  C   UNL A   1      40.612  28.788  28.412  1.00  0.00     0.031 A 
ATOM     42  C   UNL A   1      39.468  29.756  28.571  1.00  0.00     0.074 A 
ATOM     43  C   UNL A   1      41.750  28.980  29.141  1.00  0.00     0.049 A 
ATOM     44  N   UNL A   1      39.566  30.945  29.068  1.00  0.00    -0.248 NA
ATOM     45  C   UNL A   1      38.079  29.443  28.230  1.00  0.00     0.031 C 
ATOM     46  C   UNL A   1      41.972  29.951  30.220  1.00  0.00     0.029 A 
ATOM     47  N   UNL A   1      42.964  28.310  29.148  1.00  0.00    -0.354 N 
ATOM     48  C   UNL A   1      38.307  31.382  29.446  1.00  0.00     0.074 A 
ATOM     49  C   UNL A   1      37.411  30.452  28.804  1.00  0.00     0.031 C 
ATOM     50  C   UNL A   1      43.222  29.872  30.702  1.00  0.00     0.029 A 
ATOM     51  C   UNL A   1      43.953  29.117  29.728  1.00  0.00     0.049 A 
ATOM     52  H   UNL A   1      43.110  27.402  28.796  1.00  0.00     0.167 HD
ATOM     53  C   UNL A   1      38.179  32.389  30.373  1.00  0.00     0.031 A 
ATOM     54  C   UNL A   1      44.968  29.677  29.000  1.00  0.00     0.031 A 
ATOM     55  C   UNL A   1      39.489  32.997  30.738  1.00  0.00     0.049 A 
ATOM     56  C   UNL A   1      44.772  31.198  28.848  1.00  0.00     0.074 A 
ATOM     57  C   UNL A   1      40.089  33.449  31.903  1.00  0.00     0.029 A 
ATOM     58  N   UNL A   1      40.491  33.119  29.764  1.00  0.00    -0.354 N 
ATOM     59  N   UNL A   1      43.616  31.798  29.040  1.00  0.00    -0.248 NA
ATOM     60  C   UNL A   1      45.828  32.179  28.604  1.00  0.00     0.031 C 
ATOM     61  C   UNL A   1      41.471  33.683  31.653  1.00  0.00     0.029 A 
ATOM     62  C   UNL A   1      41.691  33.526  30.296  1.00  0.00     0.049 A 
ATOM     63  H   UNL A   1      40.349  32.935  28.807  1.00  0.00     0.167 HD
ATOM     64  C   UNL A   1      43.765  33.157  29.075  1.00  0.00     0.074 A 
ATOM     65  C   UNL A   1      45.166  33.348  28.739  1.00  0.00     0.031 C 
ATOM     66  C   UNL A   1      42.759  34.021  29.428  1.00  0.00     0.031 A 
BRANCH  53  67
ATOM     67  C   UNL A   1      36.874  32.712  31.137  1.00  0.00    -0.014 A 
ATOM     68  C   UNL A   1      35.950  33.646  30.618  1.00  0.00     0.009 A 
ATOM     69  C   UNL A   1      36.530  32.218  32.412  1.00  0.00     0.009 A 
ATOM     70  C   UNL A   1      34.840  34.120  31.346  1.00  0.00     0.001 A 
ATOM     71  C   UNL A   1      35.394  32.645  33.129  1.00  0.00     0.001 A 
ATOM     72  C   UNL A   1      34.562  33.622  32.609  1.00  0.00     0.000 A 
ENDBRANCH  53  67
BRANCH  54  73
ATOM     73  C   UNL A   1      45.604  28.634  28.131  1.00  0.00    -0.014 A 
ATOM     74  C   UNL A   1      45.444  28.893  26.744  1.00  0.00     0.009 A 
ATOM     75  C   UNL A   1      46.797  28.021  28.544  1.00  0.00     0.009 A 
ATOM     76  C   UNL A   1      46.547  28.872  25.881  1.00  0.00     0.001 A 
ATOM     77  C   UNL A   1      47.886  27.949  27.653  1.00  0.00     0.001 A 
ATOM     78  C   UNL A   1      47.784  28.452  26.353  1.00  0.00     0.000 A 
ENDBRANCH  54  73
BRANCH  66  79
ATOM     79  C   UNL A   1      42.635  35.494  29.066  1.00  0.00    -0.014 A 
ATOM     80  C   UNL A   1      43.259  36.545  29.735  1.00  0.00     0.009 A 
ATOM     81  C   UNL A   1      41.957  35.842  27.863  1.00  0.00     0.009 A 
ATOM     82  C   UNL A   1      43.196  37.859  29.240  1.00  0.00     0.001 A 
ATOM     83  C   UNL A   1      41.916  37.137  27.350  1.00  0.00     0.001 A 
ATOM     84  C   UNL A   1      42.539  38.152  28.047  1.00  0.00     0.000 A 
ENDBRANCH  66  79
ENDBRANCH  40  41
ENDBRANCH  33  35
ENDBRANCH  32  33
ENDBRANCH  31  32
ENDBRANCH  30  31
ENDBRANCH  29  30
ENDBRANCH  28  29
ENDBRANCH  27  28
ENDBRANCH   1  27
TORSDOF 22
ENDMDL
