MODEL 1
REMARK VINA RESULT:     -10.0      0.000      0.000
REMARK SMILES Cc1nc2ccccc2n1CCC(=O)N1CC[C@H](O)C[C@@H]1C(=O)OCCOCCOCCOCCOC(=O)c1ccc(-c2c3nc(c(-c4ccccc4)c4ccc([nH]4)c(-c4ccccc4)c4nc(c(-c5ccccc5)c5ccc2[nH]5)C=C4)C=C3)cc1
REMARK SMILES IDX 29 1 28 2 27 3 26 4 25 5 24 6 22 7 23 8 21 9 15 10 16 11
REMARK SMILES IDX 17 12 20 13 18 14 13 15 14 16 12 17 11 18 10 19 1 20 2 21
REMARK SMILES IDX 3 22 4 23 9 24 5 25 8 26 6 27 7 28 19 29 30 31 31 32 32 33
REMARK SMILES IDX 33 34 34 35 35 36 36 37 37 38 38 39 39 40 40 41 86 42 41 43
REMARK SMILES IDX 85 44 42 45 43 46 44 47 79 48 45 49 84 50 78 51 80 52 46 53
REMARK SMILES IDX 83 54 77 55 76 56 47 58 69 59 54 60 68 61 55 62 58 63 67 64
REMARK SMILES IDX 81 65 56 66 57 67 66 69 82 70 59 71 48 72 49 73 53 74 50 75
REMARK SMILES IDX 52 76 51 77 70 78 71 79 75 80 72 81 74 82 73 83 60 84 61 85
REMARK SMILES IDX 65 86 62 87 64 88 63 89
REMARK H PARENT 19 30 80 57 58 68
REMARK Flexibility Score: inf
ROOT
ATOM      1  C   UNL A   1      41.256  21.890  27.629  1.00  0.00     0.188 C 
ENDROOT
BRANCH   1   2
ATOM      2  C   UNL A   1      40.155  22.145  26.610  1.00  0.00     0.188 C 
BRANCH   2   3
ATOM      3  O   UNL A   1      39.035  22.970  26.924  1.00  0.00    -0.376 OA
BRANCH   3   4
ATOM      4  C   UNL A   1      38.327  23.662  25.905  1.00  0.00     0.202 C 
BRANCH   4   5
ATOM      5  C   UNL A   1      36.959  23.052  25.543  1.00  0.00     0.261 C 
BRANCH   5   6
ATOM      6  O   UNL A   1      35.990  22.914  26.607  1.00  0.00    -0.462 OA
BRANCH   6   7
ATOM      7  C   UNL A   1      35.019  21.972  26.431  1.00  0.00     0.329 C 
ATOM      8  O   UNL A   1      34.380  21.465  27.349  1.00  0.00    -0.250 OA
BRANCH   7   9
ATOM      9  C   UNL A   1      34.806  21.556  24.942  1.00  0.00     0.197 C 
ATOM     10  N   UNL A   1      33.644  22.127  24.228  1.00  0.00    -0.329 N 
ATOM     11  C   UNL A   1      32.372  21.492  24.466  1.00  0.00     0.123 C 
ATOM     12  C   UNL A   1      32.384  19.996  24.202  1.00  0.00     0.053 C 
ATOM     13  C   UNL A   1      34.901  20.024  24.777  1.00  0.00     0.069 C 
ATOM     14  C   UNL A   1      33.587  19.240  24.750  1.00  0.00     0.118 C 
BRANCH  10  15
ATOM     15  C   UNL A   1      33.780  23.290  23.485  1.00  0.00     0.225 C 
ATOM     16  O   UNL A   1      34.038  23.258  22.279  1.00  0.00    -0.275 OA
BRANCH  15  17
ATOM     17  C   UNL A   1      33.716  24.640  24.209  1.00  0.00     0.122 C 
BRANCH  17  18
ATOM     18  C   UNL A   1      32.334  25.192  24.582  1.00  0.00     0.134 C 
BRANCH  18  19
ATOM     19  N   UNL A   1      32.159  26.622  24.358  1.00  0.00    -0.328 N 
ATOM     20  C   UNL A   1      31.575  26.500  21.896  1.00  0.00     0.088 C 
ATOM     21  C   UNL A   1      31.729  27.217  23.186  1.00  0.00     0.106 A 
ATOM     22  N   UNL A   1      31.359  28.463  23.406  1.00  0.00    -0.234 NA
ATOM     23  C   UNL A   1      31.712  28.736  24.701  1.00  0.00     0.089 A 
ATOM     24  C   UNL A   1      32.287  27.620  25.307  1.00  0.00     0.068 A 
ATOM     25  C   UNL A   1      31.576  29.931  25.422  1.00  0.00     0.030 A 
ATOM     26  C   UNL A   1      32.809  27.666  26.606  1.00  0.00     0.028 A 
ATOM     27  C   UNL A   1      32.107  30.001  26.714  1.00  0.00     0.002 A 
ATOM     28  C   UNL A   1      32.732  28.891  27.285  1.00  0.00     0.002 A 
ENDBRANCH  18  19
ENDBRANCH  17  18
ENDBRANCH  15  17
ENDBRANCH  10  15
BRANCH  14  29
ATOM     29  O   UNL A   1      33.279  18.703  26.034  1.00  0.00    -0.393 OA
ATOM     30  H   UNL A   1      32.977  17.787  25.938  1.00  0.00     0.210 HD
ENDBRANCH  14  29
ENDBRANCH   7   9
ENDBRANCH   6   7
ENDBRANCH   5   6
ENDBRANCH   4   5
ENDBRANCH   3   4
ENDBRANCH   2   3
ENDBRANCH   1   2
BRANCH   1  31
ATOM     31  O   UNL A   1      42.122  20.827  27.323  1.00  0.00    -0.377 OA
BRANCH  31  32
ATOM     32  C   UNL A   1      41.846  20.097  26.155  1.00  0.00     0.188 C 
BRANCH  32  33
ATOM     33  C   UNL A   1      42.295  18.636  26.137  1.00  0.00     0.188 C 
BRANCH  33  34
ATOM     34  O   UNL A   1      43.659  18.363  25.854  1.00  0.00    -0.376 OA
BRANCH  34  35
ATOM     35  C   UNL A   1      44.255  18.851  24.657  1.00  0.00     0.202 C 
BRANCH  35  36
ATOM     36  C   UNL A   1      45.465  19.819  24.635  1.00  0.00     0.261 C 
BRANCH  36  37
ATOM     37  O   UNL A   1      45.254  21.078  25.281  1.00  0.00    -0.460 OA
BRANCH  37  38
ATOM     38  C   UNL A   1      44.763  22.102  24.541  1.00  0.00     0.338 C 
ATOM     39  O   UNL A   1      44.626  22.150  23.331  1.00  0.00    -0.246 OA
BRANCH  38  40
ATOM     40  C   UNL A   1      44.113  23.017  25.506  1.00  0.00     0.060 A 
ATOM     41  C   UNL A   1      43.104  23.888  25.093  1.00  0.00     0.016 A 
ATOM     42  C   UNL A   1      44.754  23.203  26.740  1.00  0.00     0.016 A 
ATOM     43  C   UNL A   1      42.829  25.013  25.861  1.00  0.00     0.010 A 
ATOM     44  C   UNL A   1      44.488  24.342  27.500  1.00  0.00     0.010 A 
ATOM     45  C   UNL A   1      43.557  25.276  27.041  1.00  0.00    -0.014 A 
BRANCH  45  46
ATOM     46  C   UNL A   1      43.122  26.425  27.853  1.00  0.00     0.031 A 
ATOM     47  C   UNL A   1      44.086  27.556  27.775  1.00  0.00     0.074 A 
ATOM     48  C   UNL A   1      41.944  26.606  28.488  1.00  0.00     0.049 A 
ATOM     49  N   UNL A   1      44.723  28.142  28.736  1.00  0.00    -0.248 NA
ATOM     50  C   UNL A   1      44.489  27.983  26.423  1.00  0.00     0.031 C 
ATOM     51  C   UNL A   1      40.758  25.751  28.428  1.00  0.00     0.029 A 
ATOM     52  N   UNL A   1      41.516  27.678  29.236  1.00  0.00    -0.354 N 
ATOM     53  C   UNL A   1      45.485  29.129  28.120  1.00  0.00     0.074 A 
ATOM     54  C   UNL A   1      45.435  28.875  26.704  1.00  0.00     0.031 C 
ATOM     55  C   UNL A   1      39.691  26.438  28.897  1.00  0.00     0.029 A 
ATOM     56  C   UNL A   1      40.136  27.730  29.397  1.00  0.00     0.049 A 
ATOM     57  H   UNL A   1      42.129  28.345  29.622  1.00  0.00     0.167 HD
ATOM     58  C   UNL A   1      45.884  30.247  28.779  1.00  0.00     0.031 A 
ATOM     59  C   UNL A   1      39.394  28.781  29.830  1.00  0.00     0.031 A 
ATOM     60  C   UNL A   1      45.830  30.091  30.205  1.00  0.00     0.049 A 
ATOM     61  C   UNL A   1      40.265  29.713  30.574  1.00  0.00     0.074 A 
ATOM     62  C   UNL A   1      46.501  29.352  31.153  1.00  0.00     0.029 A 
ATOM     63  N   UNL A   1      44.704  30.591  30.804  1.00  0.00    -0.354 N 
ATOM     64  N   UNL A   1      40.776  29.463  31.742  1.00  0.00    -0.248 NA
ATOM     65  C   UNL A   1      40.788  30.897  29.903  1.00  0.00     0.031 C 
ATOM     66  C   UNL A   1      45.595  29.201  32.242  1.00  0.00     0.029 A 
ATOM     67  C   UNL A   1      44.408  29.863  31.923  1.00  0.00     0.049 A 
ATOM     68  H   UNL A   1      44.186  31.362  30.477  1.00  0.00     0.167 HD
ATOM     69  C   UNL A   1      41.956  30.182  31.764  1.00  0.00     0.074 A 
ATOM     70  C   UNL A   1      41.818  31.172  30.707  1.00  0.00     0.031 C 
ATOM     71  C   UNL A   1      43.053  29.697  32.412  1.00  0.00     0.031 A 
BRANCH  58  72
ATOM     72  C   UNL A   1      45.840  31.616  28.133  1.00  0.00    -0.014 A 
ATOM     73  C   UNL A   1      44.644  32.242  27.731  1.00  0.00     0.009 A 
ATOM     74  C   UNL A   1      46.982  32.433  28.207  1.00  0.00     0.009 A 
ATOM     75  C   UNL A   1      44.578  33.605  27.434  1.00  0.00     0.001 A 
ATOM     76  C   UNL A   1      46.911  33.809  27.955  1.00  0.00     0.001 A 
ATOM     77  C   UNL A   1      45.708  34.395  27.573  1.00  0.00     0.000 A 
ENDBRANCH  58  72
BRANCH  59  78
ATOM     78  C   UNL A   1      38.016  29.173  29.447  1.00  0.00    -0.014 A 
ATOM     79  C   UNL A   1      37.679  29.352  28.094  1.00  0.00     0.009 A 
ATOM     80  C   UNL A   1      37.111  29.652  30.412  1.00  0.00     0.009 A 
ATOM     81  C   UNL A   1      36.511  30.025  27.717  1.00  0.00     0.001 A 
ATOM     82  C   UNL A   1      35.946  30.336  30.034  1.00  0.00     0.001 A 
ATOM     83  C   UNL A   1      35.656  30.536  28.687  1.00  0.00     0.000 A 
ENDBRANCH  59  78
BRANCH  71  84
ATOM     84  C   UNL A   1      42.844  28.715  33.533  1.00  0.00    -0.014 A 
ATOM     85  C   UNL A   1      42.947  27.348  33.226  1.00  0.00     0.009 A 
ATOM     86  C   UNL A   1      42.445  29.079  34.828  1.00  0.00     0.009 A 
ATOM     87  C   UNL A   1      42.649  26.373  34.179  1.00  0.00     0.001 A 
ATOM     88  C   UNL A   1      42.179  28.104  35.793  1.00  0.00     0.001 A 
ATOM     89  C   UNL A   1      42.269  26.751  35.464  1.00  0.00     0.000 A 
ENDBRANCH  71  84
ENDBRANCH  45  46
ENDBRANCH  38  40
ENDBRANCH  37  38
ENDBRANCH  36  37
ENDBRANCH  35  36
ENDBRANCH  34  35
ENDBRANCH  33  34
ENDBRANCH  32  33
ENDBRANCH  31  32
ENDBRANCH   1  31
TORSDOF 25
ENDMDL
MODEL 2
REMARK VINA RESULT:      -9.5      3.603      8.862
REMARK SMILES Cc1nc2ccccc2n1CCC(=O)N1CC[C@H](O)C[C@@H]1C(=O)OCCOCCOCCOCCOC(=O)c1ccc(-c2c3nc(c(-c4ccccc4)c4ccc([nH]4)c(-c4ccccc4)c4nc(c(-c5ccccc5)c5ccc2[nH]5)C=C4)C=C3)cc1
REMARK SMILES IDX 29 1 28 2 27 3 26 4 25 5 24 6 22 7 23 8 21 9 15 10 16 11
REMARK SMILES IDX 17 12 20 13 18 14 13 15 14 16 12 17 11 18 10 19 1 20 2 21
REMARK SMILES IDX 3 22 4 23 9 24 5 25 8 26 6 27 7 28 19 29 30 31 31 32 32 33
REMARK SMILES IDX 33 34 34 35 35 36 36 37 37 38 38 39 39 40 40 41 86 42 41 43
REMARK SMILES IDX 85 44 42 45 43 46 44 47 79 48 45 49 84 50 78 51 80 52 46 53
REMARK SMILES IDX 83 54 77 55 76 56 47 58 69 59 54 60 68 61 55 62 58 63 67 64
REMARK SMILES IDX 81 65 56 66 57 67 66 69 82 70 59 71 48 72 49 73 53 74 50 75
REMARK SMILES IDX 52 76 51 77 70 78 71 79 75 80 72 81 74 82 73 83 60 84 61 85
REMARK SMILES IDX 65 86 62 87 64 88 63 89
REMARK H PARENT 19 30 80 57 58 68
REMARK Flexibility Score: inf
ROOT
ATOM      1  C   UNL A   1      32.178  29.999  27.021  1.00  0.00     0.188 C 
ENDROOT
BRANCH   1   2
ATOM      2  C   UNL A   1      32.346  28.794  26.107  1.00  0.00     0.188 C 
BRANCH   2   3
ATOM      3  O   UNL A   1      31.216  28.149  25.520  1.00  0.00    -0.376 OA
BRANCH   3   4
ATOM      4  C   UNL A   1      30.845  26.832  25.903  1.00  0.00     0.202 C 
BRANCH   4   5
ATOM      5  C   UNL A   1      29.799  26.166  24.988  1.00  0.00     0.261 C 
BRANCH   5   6
ATOM      6  O   UNL A   1      30.128  26.036  23.586  1.00  0.00    -0.462 OA
BRANCH   6   7
ATOM      7  C   UNL A   1      30.737  24.877  23.206  1.00  0.00     0.329 C 
ATOM      8  O   UNL A   1      30.299  23.757  23.456  1.00  0.00    -0.250 OA
BRANCH   7   9
ATOM      9  C   UNL A   1      32.082  25.091  22.442  1.00  0.00     0.197 C 
ATOM     10  N   UNL A   1      33.336  24.994  23.218  1.00  0.00    -0.329 N 
ATOM     11  C   UNL A   1      33.713  26.163  23.973  1.00  0.00     0.123 C 
ATOM     12  C   UNL A   1      33.788  27.427  23.133  1.00  0.00     0.053 C 
ATOM     13  C   UNL A   1      32.026  26.365  21.572  1.00  0.00     0.069 C 
ATOM     14  C   UNL A   1      32.637  27.640  22.158  1.00  0.00     0.118 C 
BRANCH  10  15
ATOM     15  C   UNL A   1      34.017  23.789  23.303  1.00  0.00     0.225 C 
ATOM     16  O   UNL A   1      33.731  22.835  22.575  1.00  0.00    -0.275 OA
BRANCH  15  17
ATOM     17  C   UNL A   1      35.071  23.612  24.402  1.00  0.00     0.122 C 
BRANCH  17  18
ATOM     18  C   UNL A   1      34.620  23.013  25.740  1.00  0.00     0.134 C 
BRANCH  18  19
ATOM     19  N   UNL A   1      33.651  21.928  25.637  1.00  0.00    -0.328 N 
ATOM     20  C   UNL A   1      31.628  23.218  26.451  1.00  0.00     0.088 C 
ATOM     21  C   UNL A   1      32.291  22.027  25.862  1.00  0.00     0.106 A 
ATOM     22  N   UNL A   1      31.660  20.980  25.369  1.00  0.00    -0.234 NA
ATOM     23  C   UNL A   1      32.638  20.108  24.968  1.00  0.00     0.089 A 
ATOM     24  C   UNL A   1      33.905  20.643  25.193  1.00  0.00     0.068 A 
ATOM     25  C   UNL A   1      32.508  18.828  24.411  1.00  0.00     0.030 A 
ATOM     26  C   UNL A   1      35.075  19.914  24.945  1.00  0.00     0.028 A 
ATOM     27  C   UNL A   1      33.664  18.077  24.173  1.00  0.00     0.002 A 
ATOM     28  C   UNL A   1      34.924  18.607  24.458  1.00  0.00     0.002 A 
ENDBRANCH  18  19
ENDBRANCH  17  18
ENDBRANCH  15  17
ENDBRANCH  10  15
BRANCH  14  29
ATOM     29  O   UNL A   1      31.639  28.462  22.759  1.00  0.00    -0.393 OA
ATOM     30  H   UNL A   1      31.360  28.070  23.601  1.00  0.00     0.210 HD
ENDBRANCH  14  29
ENDBRANCH   7   9
ENDBRANCH   6   7
ENDBRANCH   5   6
ENDBRANCH   4   5
ENDBRANCH   3   4
ENDBRANCH   2   3
ENDBRANCH   1   2
BRANCH   1  31
ATOM     31  O   UNL A   1      33.372  30.548  27.515  1.00  0.00    -0.377 OA
BRANCH  31  32
ATOM     32  C   UNL A   1      33.459  31.950  27.556  1.00  0.00     0.188 C 
BRANCH  32  33
ATOM     33  C   UNL A   1      34.790  32.542  28.019  1.00  0.00     0.188 C 
BRANCH  33  34
ATOM     34  O   UNL A   1      35.925  31.688  28.043  1.00  0.00    -0.376 OA
BRANCH  34  35
ATOM     35  C   UNL A   1      37.054  32.019  28.844  1.00  0.00     0.202 C 
BRANCH  35  36
ATOM     36  C   UNL A   1      37.128  33.279  29.742  1.00  0.00     0.261 C 
BRANCH  36  37
ATOM     37  O   UNL A   1      37.365  33.030  31.131  1.00  0.00    -0.460 OA
BRANCH  37  38
ATOM     38  C   UNL A   1      38.551  33.420  31.656  1.00  0.00     0.338 C 
ATOM     39  O   UNL A   1      38.783  34.415  32.321  1.00  0.00    -0.246 OA
BRANCH  38  40
ATOM     40  C   UNL A   1      39.440  32.240  31.557  1.00  0.00     0.060 A 
ATOM     41  C   UNL A   1      40.531  32.240  30.688  1.00  0.00     0.016 A 
ATOM     42  C   UNL A   1      38.969  31.039  32.109  1.00  0.00     0.016 A 
ATOM     43  C   UNL A   1      41.066  31.025  30.277  1.00  0.00     0.010 A 
ATOM     44  C   UNL A   1      39.497  29.820  31.682  1.00  0.00     0.010 A 
ATOM     45  C   UNL A   1      40.517  29.807  30.730  1.00  0.00    -0.014 A 
BRANCH  45  46
ATOM     46  C   UNL A   1      41.217  28.572  30.338  1.00  0.00     0.031 A 
ATOM     47  C   UNL A   1      42.131  28.087  31.408  1.00  0.00     0.074 A 
ATOM     48  C   UNL A   1      41.010  27.799  29.249  1.00  0.00     0.049 A 
ATOM     49  N   UNL A   1      43.404  27.875  31.347  1.00  0.00    -0.248 NA
ATOM     50  C   UNL A   1      41.553  27.964  32.759  1.00  0.00     0.031 C 
ATOM     51  C   UNL A   1      39.954  27.937  28.246  1.00  0.00     0.029 A 
ATOM     52  N   UNL A   1      41.642  26.636  28.877  1.00  0.00    -0.354 N 
ATOM     53  C   UNL A   1      43.761  27.430  32.616  1.00  0.00     0.074 A 
ATOM     54  C   UNL A   1      42.631  27.667  33.477  1.00  0.00     0.031 C 
ATOM     55  C   UNL A   1      39.866  26.790  27.533  1.00  0.00     0.029 A 
ATOM     56  C   UNL A   1      40.929  25.887  27.947  1.00  0.00     0.049 A 
ATOM     57  H   UNL A   1      42.517  26.359  29.233  1.00  0.00     0.167 HD
ATOM     58  C   UNL A   1      44.852  26.648  32.824  1.00  0.00     0.031 A 
ATOM     59  C   UNL A   1      41.136  24.592  27.596  1.00  0.00     0.031 A 
ATOM     60  C   UNL A   1      45.787  26.712  31.737  1.00  0.00     0.049 A 
ATOM     61  C   UNL A   1      42.514  24.207  27.961  1.00  0.00     0.074 A 
ATOM     62  C   UNL A   1      46.630  27.659  31.202  1.00  0.00     0.029 A 
ATOM     63  N   UNL A   1      45.693  25.692  30.828  1.00  0.00    -0.354 N 
ATOM     64  N   UNL A   1      43.580  24.645  27.361  1.00  0.00    -0.248 NA
ATOM     65  C   UNL A   1      42.751  23.473  29.197  1.00  0.00     0.031 C 
ATOM     66  C   UNL A   1      46.803  27.297  29.835  1.00  0.00     0.029 A 
ATOM     67  C   UNL A   1      46.069  26.135  29.590  1.00  0.00     0.049 A 
ATOM     68  H   UNL A   1      45.400  24.775  31.036  1.00  0.00     0.167 HD
ATOM     69  C   UNL A   1      44.560  24.623  28.335  1.00  0.00     0.074 A 
ATOM     70  C   UNL A   1      44.049  23.733  29.366  1.00  0.00     0.031 C 
ATOM     71  C   UNL A   1      45.533  25.576  28.364  1.00  0.00     0.031 A 
BRANCH  58  72
ATOM     72  C   UNL A   1      44.821  25.466  33.771  1.00  0.00    -0.014 A 
ATOM     73  C   UNL A   1      45.030  25.584  35.160  1.00  0.00     0.009 A 
ATOM     74  C   UNL A   1      44.266  24.256  33.320  1.00  0.00     0.009 A 
ATOM     75  C   UNL A   1      44.694  24.564  36.053  1.00  0.00     0.001 A 
ATOM     76  C   UNL A   1      43.884  23.250  34.217  1.00  0.00     0.001 A 
ATOM     77  C   UNL A   1      44.094  23.407  35.584  1.00  0.00     0.000 A 
ENDBRANCH  58  72
BRANCH  59  78
ATOM     78  C   UNL A   1      40.149  23.568  27.177  1.00  0.00    -0.014 A 
ATOM     79  C   UNL A   1      40.524  22.216  27.086  1.00  0.00     0.009 A 
ATOM     80  C   UNL A   1      38.926  23.945  26.591  1.00  0.00     0.009 A 
ATOM     81  C   UNL A   1      39.737  21.287  26.397  1.00  0.00     0.001 A 
ATOM     82  C   UNL A   1      38.144  23.015  25.890  1.00  0.00     0.001 A 
ATOM     83  C   UNL A   1      38.559  21.691  25.780  1.00  0.00     0.000 A 
ENDBRANCH  59  78
BRANCH  71  84
ATOM     84  C   UNL A   1      45.879  26.283  27.080  1.00  0.00    -0.014 A 
ATOM     85  C   UNL A   1      46.664  25.587  26.147  1.00  0.00     0.009 A 
ATOM     86  C   UNL A   1      45.561  27.624  26.816  1.00  0.00     0.009 A 
ATOM     87  C   UNL A   1      47.127  26.213  24.989  1.00  0.00     0.001 A 
ATOM     88  C   UNL A   1      45.996  28.241  25.640  1.00  0.00     0.001 A 
ATOM     89  C   UNL A   1      46.789  27.538  24.733  1.00  0.00     0.000 A 
ENDBRANCH  71  84
ENDBRANCH  45  46
ENDBRANCH  38  40
ENDBRANCH  37  38
ENDBRANCH  36  37
ENDBRANCH  35  36
ENDBRANCH  34  35
ENDBRANCH  33  34
ENDBRANCH  32  33
ENDBRANCH  31  32
ENDBRANCH   1  31
TORSDOF 25
ENDMDL
MODEL 3
REMARK VINA RESULT:      -9.4      1.855      4.430
REMARK SMILES Cc1nc2ccccc2n1CCC(=O)N1CC[C@H](O)C[C@@H]1C(=O)OCCOCCOCCOCCOC(=O)c1ccc(-c2c3nc(c(-c4ccccc4)c4ccc([nH]4)c(-c4ccccc4)c4nc(c(-c5ccccc5)c5ccc2[nH]5)C=C4)C=C3)cc1
REMARK SMILES IDX 29 1 28 2 27 3 26 4 25 5 24 6 22 7 23 8 21 9 15 10 16 11
REMARK SMILES IDX 17 12 20 13 18 14 13 15 14 16 12 17 11 18 10 19 1 20 2 21
REMARK SMILES IDX 3 22 4 23 9 24 5 25 8 26 6 27 7 28 19 29 30 31 31 32 32 33
REMARK SMILES IDX 33 34 34 35 35 36 36 37 37 38 38 39 39 40 40 41 86 42 41 43
REMARK SMILES IDX 85 44 42 45 43 46 44 47 79 48 45 49 84 50 78 51 80 52 46 53
REMARK SMILES IDX 83 54 77 55 76 56 47 58 69 59 54 60 68 61 55 62 58 63 67 64
REMARK SMILES IDX 81 65 56 66 57 67 66 69 82 70 59 71 48 72 49 73 53 74 50 75
REMARK SMILES IDX 52 76 51 77 70 78 71 79 75 80 72 81 74 82 73 83 60 84 61 85
REMARK SMILES IDX 65 86 62 87 64 88 63 89
REMARK H PARENT 19 30 80 57 58 68
REMARK Flexibility Score: inf
ROOT
ATOM      1  C   UNL A   1      37.004  21.744  25.701  1.00  0.00     0.188 C 
ENDROOT
BRANCH   1   2
ATOM      2  C   UNL A   1      36.843  23.221  25.373  1.00  0.00     0.188 C 
BRANCH   2   3
ATOM      3  O   UNL A   1      36.414  23.648  24.081  1.00  0.00    -0.376 OA
BRANCH   3   4
ATOM      4  C   UNL A   1      35.120  24.201  23.884  1.00  0.00     0.202 C 
BRANCH   4   5
ATOM      5  C   UNL A   1      34.660  25.174  24.987  1.00  0.00     0.261 C 
BRANCH   5   6
ATOM      6  O   UNL A   1      33.643  26.141  24.638  1.00  0.00    -0.462 OA
BRANCH   6   7
ATOM      7  C   UNL A   1      33.293  27.036  25.606  1.00  0.00     0.329 C 
ATOM      8  O   UNL A   1      34.098  27.606  26.338  1.00  0.00    -0.250 OA
BRANCH   7   9
ATOM      9  C   UNL A   1      31.753  27.255  25.736  1.00  0.00     0.197 C 
ATOM     10  N   UNL A   1      30.861  26.234  25.146  1.00  0.00    -0.329 N 
ATOM     11  C   UNL A   1      30.638  26.325  23.724  1.00  0.00     0.123 C 
ATOM     12  C   UNL A   1      30.135  27.687  23.277  1.00  0.00     0.053 C 
ATOM     13  C   UNL A   1      31.361  28.689  25.318  1.00  0.00     0.069 C 
ATOM     14  C   UNL A   1      30.849  28.886  23.889  1.00  0.00     0.118 C 
BRANCH  10  15
ATOM     15  C   UNL A   1      30.392  25.182  25.918  1.00  0.00     0.225 C 
ATOM     16  O   UNL A   1      29.302  25.241  26.492  1.00  0.00    -0.275 OA
BRANCH  15  17
ATOM     17  C   UNL A   1      31.303  23.970  26.147  1.00  0.00     0.122 C 
BRANCH  17  18
ATOM     18  C   UNL A   1      31.748  23.163  24.921  1.00  0.00     0.134 C 
BRANCH  18  19
ATOM     19  N   UNL A   1      32.508  21.955  25.218  1.00  0.00    -0.328 N 
ATOM     20  C   UNL A   1      33.557  22.752  27.383  1.00  0.00     0.088 C 
ATOM     21  C   UNL A   1      33.249  21.719  26.362  1.00  0.00     0.106 A 
ATOM     22  N   UNL A   1      33.530  20.436  26.477  1.00  0.00    -0.234 NA
ATOM     23  C   UNL A   1      33.113  19.855  25.310  1.00  0.00     0.089 A 
ATOM     24  C   UNL A   1      32.533  20.797  24.462  1.00  0.00     0.068 A 
ATOM     25  C   UNL A   1      33.213  18.516  24.903  1.00  0.00     0.030 A 
ATOM     26  C   UNL A   1      32.101  20.470  23.171  1.00  0.00     0.028 A 
ATOM     27  C   UNL A   1      32.804  18.173  23.611  1.00  0.00     0.002 A 
ATOM     28  C   UNL A   1      32.277  19.142  22.754  1.00  0.00     0.002 A 
ENDBRANCH  18  19
ENDBRANCH  17  18
ENDBRANCH  15  17
ENDBRANCH  10  15
BRANCH  14  29
ATOM     29  O   UNL A   1      31.892  29.323  23.022  1.00  0.00    -0.393 OA
ATOM     30  H   UNL A   1      32.436  29.985  23.478  1.00  0.00     0.210 HD
ENDBRANCH  14  29
ENDBRANCH   7   9
ENDBRANCH   6   7
ENDBRANCH   5   6
ENDBRANCH   4   5
ENDBRANCH   3   4
ENDBRANCH   2   3
ENDBRANCH   1   2
BRANCH   1  31
ATOM     31  O   UNL A   1      37.780  21.008  24.792  1.00  0.00    -0.377 OA
BRANCH  31  32
ATOM     32  C   UNL A   1      38.454  19.883  25.295  1.00  0.00     0.188 C 
BRANCH  32  33
ATOM     33  C   UNL A   1      39.793  20.137  25.988  1.00  0.00     0.188 C 
BRANCH  33  34
ATOM     34  O   UNL A   1      40.838  19.198  25.780  1.00  0.00    -0.376 OA
BRANCH  34  35
ATOM     35  C   UNL A   1      42.173  19.514  26.162  1.00  0.00     0.202 C 
BRANCH  35  36
ATOM     36  C   UNL A   1      43.424  18.951  25.443  1.00  0.00     0.261 C 
BRANCH  36  37
ATOM     37  O   UNL A   1      44.554  19.827  25.404  1.00  0.00    -0.460 OA
BRANCH  37  38
ATOM     38  C   UNL A   1      44.670  20.674  24.352  1.00  0.00     0.338 C 
ATOM     39  O   UNL A   1      44.582  20.408  23.166  1.00  0.00    -0.246 OA
BRANCH  38  40
ATOM     40  C   UNL A   1      44.588  22.036  24.924  1.00  0.00     0.060 A 
ATOM     41  C   UNL A   1      45.310  22.374  26.069  1.00  0.00     0.016 A 
ATOM     42  C   UNL A   1      43.537  22.853  24.478  1.00  0.00     0.016 A 
ATOM     43  C   UNL A   1      44.896  23.460  26.832  1.00  0.00     0.010 A 
ATOM     44  C   UNL A   1      43.114  23.932  25.255  1.00  0.00     0.010 A 
ATOM     45  C   UNL A   1      43.763  24.212  26.458  1.00  0.00    -0.014 A 
BRANCH  45  46
ATOM     46  C   UNL A   1      43.464  25.413  27.257  1.00  0.00     0.031 A 
ATOM     47  C   UNL A   1      44.473  26.486  27.044  1.00  0.00     0.074 A 
ATOM     48  C   UNL A   1      42.360  25.681  27.988  1.00  0.00     0.049 A 
ATOM     49  N   UNL A   1      45.224  27.073  27.918  1.00  0.00    -0.248 NA
ATOM     50  C   UNL A   1      44.769  26.840  25.644  1.00  0.00     0.031 C 
ATOM     51  C   UNL A   1      41.133  24.890  28.072  1.00  0.00     0.029 A 
ATOM     52  N   UNL A   1      42.059  26.802  28.726  1.00  0.00    -0.354 N 
ATOM     53  C   UNL A   1      45.975  27.993  27.193  1.00  0.00     0.074 A 
ATOM     54  C   UNL A   1      45.781  27.689  25.800  1.00  0.00     0.031 C 
ATOM     55  C   UNL A   1      40.150  25.651  28.607  1.00  0.00     0.029 A 
ATOM     56  C   UNL A   1      40.704  26.935  29.009  1.00  0.00     0.049 A 
ATOM     57  H   UNL A   1      42.737  27.449  29.026  1.00  0.00     0.167 HD
ATOM     58  C   UNL A   1      46.489  29.112  27.766  1.00  0.00     0.031 A 
ATOM     59  C   UNL A   1      40.059  28.040  29.462  1.00  0.00     0.031 A 
ATOM     60  C   UNL A   1      46.560  29.012  29.196  1.00  0.00     0.049 A 
ATOM     61  C   UNL A   1      41.041  28.951  30.084  1.00  0.00     0.074 A 
ATOM     62  C   UNL A   1      47.278  28.275  30.110  1.00  0.00     0.029 A 
ATOM     63  N   UNL A   1      45.522  29.596  29.872  1.00  0.00    -0.354 N 
ATOM     64  N   UNL A   1      41.646  28.718  31.211  1.00  0.00    -0.248 NA
ATOM     65  C   UNL A   1      41.559  30.079  29.319  1.00  0.00     0.031 C 
ATOM     66  C   UNL A   1      46.471  28.214  31.281  1.00  0.00     0.029 A 
ATOM     67  C   UNL A   1      45.294  28.927  31.044  1.00  0.00     0.049 A 
ATOM     68  H   UNL A   1      45.015  30.381  29.561  1.00  0.00     0.167 HD
ATOM     69  C   UNL A   1      42.857  29.372  31.095  1.00  0.00     0.074 A 
ATOM     70  C   UNL A   1      42.672  30.327  30.013  1.00  0.00     0.031 C 
ATOM     71  C   UNL A   1      43.984  28.854  31.660  1.00  0.00     0.031 A 
BRANCH  58  72
ATOM     72  C   UNL A   1      46.455  30.456  27.069  1.00  0.00    -0.014 A 
ATOM     73  C   UNL A   1      45.260  31.090  26.673  1.00  0.00     0.009 A 
ATOM     74  C   UNL A   1      47.613  31.252  27.082  1.00  0.00     0.009 A 
ATOM     75  C   UNL A   1      45.213  32.442  26.325  1.00  0.00     0.001 A 
ATOM     76  C   UNL A   1      47.562  32.619  26.780  1.00  0.00     0.001 A 
ATOM     77  C   UNL A   1      46.361  33.214  26.405  1.00  0.00     0.000 A 
ENDBRANCH  58  72
BRANCH  59  78
ATOM     78  C   UNL A   1      38.673  28.492  29.190  1.00  0.00    -0.014 A 
ATOM     79  C   UNL A   1      38.313  28.942  27.908  1.00  0.00     0.009 A 
ATOM     80  C   UNL A   1      37.782  28.755  30.246  1.00  0.00     0.009 A 
ATOM     81  C   UNL A   1      37.136  29.669  27.696  1.00  0.00     0.001 A 
ATOM     82  C   UNL A   1      36.608  29.492  30.035  1.00  0.00     0.001 A 
ATOM     83  C   UNL A   1      36.295  29.962  28.763  1.00  0.00     0.000 A 
ENDBRANCH  59  78
BRANCH  71  84
ATOM     84  C   UNL A   1      43.831  27.927  32.836  1.00  0.00    -0.014 A 
ATOM     85  C   UNL A   1      43.919  26.546  32.591  1.00  0.00     0.009 A 
ATOM     86  C   UNL A   1      43.495  28.354  34.130  1.00  0.00     0.009 A 
ATOM     87  C   UNL A   1      43.669  25.620  33.604  1.00  0.00     0.001 A 
ATOM     88  C   UNL A   1      43.277  27.427  35.153  1.00  0.00     0.001 A 
ATOM     89  C   UNL A   1      43.353  26.060  34.886  1.00  0.00     0.000 A 
ENDBRANCH  71  84
ENDBRANCH  45  46
ENDBRANCH  38  40
ENDBRANCH  37  38
ENDBRANCH  36  37
ENDBRANCH  35  36
ENDBRANCH  34  35
ENDBRANCH  33  34
ENDBRANCH  32  33
ENDBRANCH  31  32
ENDBRANCH   1  31
TORSDOF 25
ENDMDL
