MODEL 1
REMARK VINA RESULT:      -9.2      0.000      0.000
REMARK SMILES Cn1cc(S(=O)(=O)N[C@@H]2C=C[C@@H](C(=O)OCCOCCOCCOCCOC(=O)c3ccc(-c4c5nc(c(-c6ccccc6)c6ccc([nH]6)c(-c6ccccc6)c6nc(c(-c7ccccc7)c7ccc4[nH]7)C=C6)C=C5)cc3)C2)cc1C(N)=O
REMARK SMILES IDX 20 1 19 2 18 3 17 4 16 5 15 6 13 7 14 8 12 9 9 10 10 11
REMARK SMILES IDX 78 12 11 13 8 14 5 16 6 17 7 18 4 19 1 20 2 21 3 22 80 23
REMARK SMILES IDX 79 24 81 25 82 26 83 27 21 30 22 31 23 32 24 33 25 34 26 35
REMARK SMILES IDX 27 36 28 37 29 38 30 39 31 40 77 41 32 42 76 43 33 44 34 45
REMARK SMILES IDX 35 46 70 47 36 48 75 49 69 50 71 51 37 52 74 53 68 54 67 55
REMARK SMILES IDX 38 57 60 58 45 59 59 60 46 61 49 62 58 63 72 64 47 65 48 66
REMARK SMILES IDX 57 68 73 69 50 70 39 71 40 72 44 73 41 74 43 75 42 76 61 77
REMARK SMILES IDX 62 78 66 79 63 80 65 81 64 82 51 83 52 84 56 85 53 86 55 87
REMARK SMILES IDX 54 88
REMARK H PARENT 8 15 82 28 82 29 71 56 49 67
REMARK Flexibility Score: inf
ROOT
ATOM      1  C   UNL A   1      34.095  23.064  26.837  1.00  0.00     0.188 C 
ENDROOT
BRANCH   1   2
ATOM      2  C   UNL A   1      32.855  22.511  27.555  1.00  0.00     0.188 C 
BRANCH   2   3
ATOM      3  O   UNL A   1      31.581  23.078  27.275  1.00  0.00    -0.376 OA
BRANCH   3   4
ATOM      4  C   UNL A   1      30.808  22.556  26.195  1.00  0.00     0.202 C 
BRANCH   4   5
ATOM      5  C   UNL A   1      31.006  23.149  24.795  1.00  0.00     0.261 C 
BRANCH   5   6
ATOM      6  O   UNL A   1      31.976  22.436  24.000  1.00  0.00    -0.463 OA
BRANCH   6   7
ATOM      7  C   UNL A   1      32.815  23.197  23.260  1.00  0.00     0.312 C 
ATOM      8  O   UNL A   1      34.003  22.945  23.068  1.00  0.00    -0.252 OA
BRANCH   7   9
ATOM      9  C   UNL A   1      32.194  24.471  22.714  1.00  0.00     0.123 C 
ATOM     10  C   UNL A   1      32.260  26.857  22.251  1.00  0.00     0.093 C 
ATOM     11  C   UNL A   1      32.738  26.053  21.087  1.00  0.00    -0.011 C 
ATOM     12  C   UNL A   1      32.443  25.827  23.384  1.00  0.00     0.043 C 
ATOM     13  C   UNL A   1      32.701  24.737  21.329  1.00  0.00    -0.015 C 
BRANCH  10  14
ATOM     14  N   UNL A   1      30.821  27.175  22.171  1.00  0.00    -0.204 NA
ATOM     15  H   UNL A   1      30.564  27.126  21.186  1.00  0.00     0.142 HD
BRANCH  14  16
ATOM     16  S   UNL A   1      30.244  28.648  22.750  1.00  0.00     0.242 S 
ATOM     17  O   UNL A   1      28.812  28.544  22.907  1.00  0.00    -0.207 OA
ATOM     18  O   UNL A   1      30.866  29.677  21.946  1.00  0.00    -0.207 OA
BRANCH  16  19
ATOM     19  C   UNL A   1      30.879  28.897  24.333  1.00  0.00     0.100 A 
ATOM     20  C   UNL A   1      31.854  27.861  27.647  1.00  0.00     0.150 C 
ATOM     21  N   UNL A   1      31.638  28.550  26.392  1.00  0.00    -0.345 N 
ATOM     22  C   UNL A   1      30.873  28.010  25.384  1.00  0.00     0.107 A 
ATOM     23  C   UNL A   1      32.184  29.759  25.984  1.00  0.00     0.107 A 
ATOM     24  C   UNL A   1      31.592  30.042  24.756  1.00  0.00     0.055 A 
BRANCH  23  25
ATOM     25  C   UNL A   1      33.186  30.530  26.699  1.00  0.00     0.265 C 
ATOM     26  N   UNL A   1      34.456  30.031  26.657  1.00  0.00    -0.364 N 
ATOM     27  O   UNL A   1      32.966  31.542  27.355  1.00  0.00    -0.268 OA
ATOM     28  H   UNL A   1      34.650  29.219  26.135  1.00  0.00     0.160 HD
ATOM     29  H   UNL A   1      35.180  30.483  27.150  1.00  0.00     0.160 HD
ENDBRANCH  23  25
ENDBRANCH  16  19
ENDBRANCH  14  16
ENDBRANCH  10  14
ENDBRANCH   7   9
ENDBRANCH   6   7
ENDBRANCH   5   6
ENDBRANCH   4   5
ENDBRANCH   3   4
ENDBRANCH   2   3
ENDBRANCH   1   2
BRANCH   1  30
ATOM     30  O   UNL A   1      35.191  22.170  26.794  1.00  0.00    -0.377 OA
BRANCH  30  31
ATOM     31  C   UNL A   1      35.085  21.083  25.878  1.00  0.00     0.188 C 
BRANCH  31  32
ATOM     32  C   UNL A   1      36.235  20.885  24.875  1.00  0.00     0.188 C 
BRANCH  32  33
ATOM     33  O   UNL A   1      37.517  20.877  25.505  1.00  0.00    -0.376 OA
BRANCH  33  34
ATOM     34  C   UNL A   1      38.467  19.938  25.001  1.00  0.00     0.202 C 
BRANCH  34  35
ATOM     35  C   UNL A   1      39.539  19.503  26.013  1.00  0.00     0.261 C 
BRANCH  35  36
ATOM     36  O   UNL A   1      40.801  19.106  25.443  1.00  0.00    -0.460 OA
BRANCH  36  37
ATOM     37  C   UNL A   1      41.896  19.173  26.227  1.00  0.00     0.338 C 
ATOM     38  O   UNL A   1      42.698  18.287  26.456  1.00  0.00    -0.246 OA
BRANCH  37  39
ATOM     39  C   UNL A   1      42.081  20.581  26.628  1.00  0.00     0.060 A 
ATOM     40  C   UNL A   1      42.220  21.550  25.626  1.00  0.00     0.016 A 
ATOM     41  C   UNL A   1      42.145  20.940  27.976  1.00  0.00     0.016 A 
ATOM     42  C   UNL A   1      42.470  22.878  25.971  1.00  0.00     0.010 A 
ATOM     43  C   UNL A   1      42.415  22.267  28.320  1.00  0.00     0.010 A 
ATOM     44  C   UNL A   1      42.614  23.232  27.319  1.00  0.00    -0.014 A 
BRANCH  44  45
ATOM     45  C   UNL A   1      43.171  24.556  27.681  1.00  0.00     0.031 A 
ATOM     46  C   UNL A   1      42.219  25.634  28.121  1.00  0.00     0.074 A 
ATOM     47  C   UNL A   1      44.490  24.807  27.615  1.00  0.00     0.049 A 
ATOM     48  N   UNL A   1      42.463  26.881  28.433  1.00  0.00    -0.248 NA
ATOM     49  C   UNL A   1      40.800  25.252  28.223  1.00  0.00     0.031 C 
ATOM     50  C   UNL A   1      45.521  23.840  27.244  1.00  0.00     0.029 A 
ATOM     51  N   UNL A   1      45.182  25.969  27.850  1.00  0.00    -0.354 N 
ATOM     52  C   UNL A   1      41.231  27.431  28.764  1.00  0.00     0.074 A 
ATOM     53  C   UNL A   1      40.239  26.393  28.595  1.00  0.00     0.031 C 
ATOM     54  C   UNL A   1      46.718  24.455  27.263  1.00  0.00     0.029 A 
ATOM     55  C   UNL A   1      46.531  25.860  27.617  1.00  0.00     0.049 A 
ATOM     56  H   UNL A   1      44.752  26.799  28.158  1.00  0.00     0.167 HD
ATOM     57  C   UNL A   1      40.948  28.689  29.175  1.00  0.00     0.031 A 
ATOM     58  C   UNL A   1      47.497  26.798  27.661  1.00  0.00     0.031 A 
ATOM     59  C   UNL A   1      41.923  29.733  29.320  1.00  0.00     0.049 A 
ATOM     60  C   UNL A   1      47.143  28.216  28.028  1.00  0.00     0.074 A 
ATOM     61  C   UNL A   1      41.734  31.038  29.741  1.00  0.00     0.029 A 
ATOM     62  N   UNL A   1      43.271  29.594  29.031  1.00  0.00    -0.354 N 
ATOM     63  N   UNL A   1      45.980  28.716  28.371  1.00  0.00    -0.248 NA
ATOM     64  C   UNL A   1      48.238  29.198  28.011  1.00  0.00     0.031 C 
ATOM     65  C   UNL A   1      42.962  31.703  29.660  1.00  0.00     0.029 A 
ATOM     66  C   UNL A   1      43.922  30.798  29.235  1.00  0.00     0.049 A 
ATOM     67  H   UNL A   1      43.701  28.763  28.726  1.00  0.00     0.167 HD
ATOM     68  C   UNL A   1      46.208  30.062  28.632  1.00  0.00     0.074 A 
ATOM     69  C   UNL A   1      47.621  30.299  28.418  1.00  0.00     0.031 C 
ATOM     70  C   UNL A   1      45.327  31.017  29.016  1.00  0.00     0.031 A 
BRANCH  57  71
ATOM     71  C   UNL A   1      39.511  29.007  29.462  1.00  0.00    -0.014 A 
ATOM     72  C   UNL A   1      38.694  29.610  28.493  1.00  0.00     0.009 A 
ATOM     73  C   UNL A   1      38.962  28.684  30.712  1.00  0.00     0.009 A 
ATOM     74  C   UNL A   1      37.362  29.912  28.783  1.00  0.00     0.001 A 
ATOM     75  C   UNL A   1      37.624  28.966  30.992  1.00  0.00     0.001 A 
ATOM     76  C   UNL A   1      36.828  29.586  30.030  1.00  0.00     0.000 A 
ENDBRANCH  57  71
BRANCH  58  77
ATOM     77  C   UNL A   1      48.898  26.443  27.320  1.00  0.00    -0.014 A 
ATOM     78  C   UNL A   1      49.752  25.891  28.287  1.00  0.00     0.009 A 
ATOM     79  C   UNL A   1      49.397  26.682  26.030  1.00  0.00     0.009 A 
ATOM     80  C   UNL A   1      51.084  25.608  27.974  1.00  0.00     0.001 A 
ATOM     81  C   UNL A   1      50.722  26.375  25.714  1.00  0.00     0.001 A 
ATOM     82  C   UNL A   1      51.566  25.847  26.688  1.00  0.00     0.000 A 
ENDBRANCH  58  77
BRANCH  70  83
ATOM     83  C   UNL A   1      45.864  32.398  29.259  1.00  0.00    -0.014 A 
ATOM     84  C   UNL A   1      45.863  33.365  28.242  1.00  0.00     0.009 A 
ATOM     85  C   UNL A   1      46.318  32.753  30.538  1.00  0.00     0.009 A 
ATOM     86  C   UNL A   1      46.329  34.656  28.499  1.00  0.00     0.001 A 
ATOM     87  C   UNL A   1      46.761  34.051  30.797  1.00  0.00     0.001 A 
ATOM     88  C   UNL A   1      46.773  34.999  29.776  1.00  0.00     0.000 A 
ENDBRANCH  70  83
ENDBRANCH  44  45
ENDBRANCH  37  39
ENDBRANCH  36  37
ENDBRANCH  35  36
ENDBRANCH  34  35
ENDBRANCH  33  34
ENDBRANCH  32  33
ENDBRANCH  31  32
ENDBRANCH  30  31
ENDBRANCH   1  30
TORSDOF 24
ENDMDL
MODEL 2
REMARK VINA RESULT:      -7.5      3.870      9.172
REMARK SMILES Cn1cc(S(=O)(=O)N[C@@H]2C=C[C@@H](C(=O)OCCOCCOCCOCCOC(=O)c3ccc(-c4c5nc(c(-c6ccccc6)c6ccc([nH]6)c(-c6ccccc6)c6nc(c(-c7ccccc7)c7ccc4[nH]7)C=C6)C=C5)cc3)C2)cc1C(N)=O
REMARK SMILES IDX 20 1 19 2 18 3 17 4 16 5 15 6 13 7 14 8 12 9 9 10 10 11
REMARK SMILES IDX 78 12 11 13 8 14 5 16 6 17 7 18 4 19 1 20 2 21 3 22 80 23
REMARK SMILES IDX 79 24 81 25 82 26 83 27 21 30 22 31 23 32 24 33 25 34 26 35
REMARK SMILES IDX 27 36 28 37 29 38 30 39 31 40 77 41 32 42 76 43 33 44 34 45
REMARK SMILES IDX 35 46 70 47 36 48 75 49 69 50 71 51 37 52 74 53 68 54 67 55
REMARK SMILES IDX 38 57 60 58 45 59 59 60 46 61 49 62 58 63 72 64 47 65 48 66
REMARK SMILES IDX 57 68 73 69 50 70 39 71 40 72 44 73 41 74 43 75 42 76 61 77
REMARK SMILES IDX 62 78 66 79 63 80 65 81 64 82 51 83 52 84 56 85 53 86 55 87
REMARK SMILES IDX 54 88
REMARK H PARENT 8 15 82 28 82 29 71 56 49 67
REMARK Flexibility Score: inf
ROOT
ATOM      1  C   UNL A   1      32.652  24.943  23.329  1.00  0.00     0.188 C 
ENDROOT
BRANCH   1   2
ATOM      2  C   UNL A   1      33.863  24.090  22.926  1.00  0.00     0.188 C 
BRANCH   2   3
ATOM      3  O   UNL A   1      34.190  22.941  23.698  1.00  0.00    -0.376 OA
BRANCH   3   4
ATOM      4  C   UNL A   1      34.574  23.104  25.063  1.00  0.00     0.202 C 
BRANCH   4   5
ATOM      5  C   UNL A   1      35.394  21.997  25.733  1.00  0.00     0.261 C 
BRANCH   5   6
ATOM      6  O   UNL A   1      36.554  22.486  26.438  1.00  0.00    -0.463 OA
BRANCH   6   7
ATOM      7  C   UNL A   1      37.734  22.391  25.782  1.00  0.00     0.312 C 
ATOM      8  O   UNL A   1      37.896  21.800  24.716  1.00  0.00    -0.252 OA
BRANCH   7   9
ATOM      9  C   UNL A   1      38.909  23.025  26.506  1.00  0.00     0.123 C 
ATOM     10  C   UNL A   1      41.040  24.197  26.512  1.00  0.00     0.093 C 
ATOM     11  C   UNL A   1      39.887  25.142  26.608  1.00  0.00    -0.011 C 
ATOM     12  C   UNL A   1      40.327  22.961  25.927  1.00  0.00     0.043 C 
ATOM     13  C   UNL A   1      38.708  24.506  26.611  1.00  0.00    -0.015 C 
BRANCH  10  14
ATOM     14  N   UNL A   1      41.575  23.816  27.833  1.00  0.00    -0.204 NA
ATOM     15  H   UNL A   1      41.620  24.669  28.389  1.00  0.00     0.142 HD
BRANCH  14  16
ATOM     16  S   UNL A   1      43.083  23.076  27.956  1.00  0.00     0.242 S 
ATOM     17  O   UNL A   1      43.677  23.036  26.640  1.00  0.00    -0.207 OA
ATOM     18  O   UNL A   1      42.894  21.890  28.761  1.00  0.00    -0.207 OA
BRANCH  16  19
ATOM     19  C   UNL A   1      44.107  24.083  28.909  1.00  0.00     0.100 A 
ATOM     20  C   UNL A   1      45.315  25.499  31.997  1.00  0.00     0.150 C 
ATOM     21  N   UNL A   1      45.112  25.058  30.634  1.00  0.00    -0.345 N 
ATOM     22  C   UNL A   1      43.988  24.364  30.250  1.00  0.00     0.107 A 
ATOM     23  C   UNL A   1      45.986  25.184  29.563  1.00  0.00     0.107 A 
ATOM     24  C   UNL A   1      45.294  24.704  28.455  1.00  0.00     0.055 A 
BRANCH  23  25
ATOM     25  C   UNL A   1      47.347  25.690  29.624  1.00  0.00     0.265 C 
ATOM     26  N   UNL A   1      48.183  25.253  28.636  1.00  0.00    -0.364 N 
ATOM     27  O   UNL A   1      47.792  26.422  30.500  1.00  0.00    -0.268 OA
ATOM     28  H   UNL A   1      47.842  24.665  27.925  1.00  0.00     0.160 HD
ATOM     29  H   UNL A   1      49.130  25.527  28.636  1.00  0.00     0.160 HD
ENDBRANCH  23  25
ENDBRANCH  16  19
ENDBRANCH  14  16
ENDBRANCH  10  14
ENDBRANCH   7   9
ENDBRANCH   6   7
ENDBRANCH   5   6
ENDBRANCH   4   5
ENDBRANCH   3   4
ENDBRANCH   2   3
ENDBRANCH   1   2
BRANCH   1  30
ATOM     30  O   UNL A   1      32.290  25.929  22.380  1.00  0.00    -0.377 OA
BRANCH  30  31
ATOM     31  C   UNL A   1      33.283  26.905  22.073  1.00  0.00     0.188 C 
BRANCH  31  32
ATOM     32  C   UNL A   1      33.199  28.257  22.804  1.00  0.00     0.188 C 
BRANCH  32  33
ATOM     33  O   UNL A   1      32.905  28.111  24.195  1.00  0.00    -0.376 OA
BRANCH  33  34
ATOM     34  C   UNL A   1      32.841  29.314  24.960  1.00  0.00     0.202 C 
BRANCH  34  35
ATOM     35  C   UNL A   1      32.009  29.212  26.248  1.00  0.00     0.261 C 
BRANCH  35  36
ATOM     36  O   UNL A   1      32.640  29.732  27.434  1.00  0.00    -0.460 OA
BRANCH  36  37
ATOM     37  C   UNL A   1      33.220  30.948  27.358  1.00  0.00     0.338 C 
ATOM     38  O   UNL A   1      32.672  32.018  27.172  1.00  0.00    -0.246 OA
BRANCH  37  39
ATOM     39  C   UNL A   1      34.639  30.798  27.732  1.00  0.00     0.060 A 
ATOM     40  C   UNL A   1      35.162  29.506  27.868  1.00  0.00     0.016 A 
ATOM     41  C   UNL A   1      35.439  31.917  27.974  1.00  0.00     0.016 A 
ATOM     42  C   UNL A   1      36.479  29.329  28.293  1.00  0.00     0.010 A 
ATOM     43  C   UNL A   1      36.752  31.739  28.417  1.00  0.00     0.010 A 
ATOM     44  C   UNL A   1      37.264  30.445  28.613  1.00  0.00    -0.014 A 
BRANCH  44  45
ATOM     45  C   UNL A   1      38.541  30.267  29.343  1.00  0.00     0.031 A 
ATOM     46  C   UNL A   1      38.622  30.750  30.765  1.00  0.00     0.074 A 
ATOM     47  C   UNL A   1      39.611  29.700  28.761  1.00  0.00     0.049 A 
ATOM     48  N   UNL A   1      39.642  30.754  31.583  1.00  0.00    -0.248 NA
ATOM     49  C   UNL A   1      37.383  31.301  31.341  1.00  0.00     0.031 C 
ATOM     50  C   UNL A   1      39.653  29.155  27.406  1.00  0.00     0.029 A 
ATOM     51  N   UNL A   1      40.880  29.502  29.246  1.00  0.00    -0.354 N 
ATOM     52  C   UNL A   1      39.170  31.309  32.767  1.00  0.00     0.074 A 
ATOM     53  C   UNL A   1      37.781  31.650  32.555  1.00  0.00     0.031 C 
ATOM     54  C   UNL A   1      40.894  28.696  27.162  1.00  0.00     0.029 A 
ATOM     55  C   UNL A   1      41.736  28.942  28.330  1.00  0.00     0.049 A 
ATOM     56  H   UNL A   1      41.149  29.738  30.162  1.00  0.00     0.167 HD
ATOM     57  C   UNL A   1      39.832  31.516  33.928  1.00  0.00     0.031 A 
ATOM     58  C   UNL A   1      43.055  28.683  28.420  1.00  0.00     0.031 A 
ATOM     59  C   UNL A   1      41.218  31.206  34.138  1.00  0.00     0.049 A 
ATOM     60  C   UNL A   1      43.794  29.012  29.692  1.00  0.00     0.074 A 
ATOM     61  C   UNL A   1      41.975  31.369  35.285  1.00  0.00     0.029 A 
ATOM     62  N   UNL A   1      42.060  30.681  33.171  1.00  0.00    -0.354 N 
ATOM     63  N   UNL A   1      43.329  29.506  30.814  1.00  0.00    -0.248 NA
ATOM     64  C   UNL A   1      45.241  28.748  29.705  1.00  0.00     0.031 C 
ATOM     65  C   UNL A   1      43.289  30.988  34.997  1.00  0.00     0.029 A 
ATOM     66  C   UNL A   1      43.337  30.543  33.685  1.00  0.00     0.049 A 
ATOM     67  H   UNL A   1      41.790  30.442  32.256  1.00  0.00     0.167 HD
ATOM     68  C   UNL A   1      44.419  29.589  31.672  1.00  0.00     0.074 A 
ATOM     69  C   UNL A   1      45.566  29.086  30.945  1.00  0.00     0.031 C 
ATOM     70  C   UNL A   1      44.467  30.042  32.949  1.00  0.00     0.031 A 
BRANCH  57  71
ATOM     71  C   UNL A   1      39.061  32.145  35.051  1.00  0.00    -0.014 A 
ATOM     72  C   UNL A   1      38.544  31.368  36.100  1.00  0.00     0.009 A 
ATOM     73  C   UNL A   1      38.864  33.534  35.069  1.00  0.00     0.009 A 
ATOM     74  C   UNL A   1      37.817  31.969  37.129  1.00  0.00     0.001 A 
ATOM     75  C   UNL A   1      38.157  34.134  36.111  1.00  0.00     0.001 A 
ATOM     76  C   UNL A   1      37.627  33.350  37.136  1.00  0.00     0.000 A 
ENDBRANCH  57  71
BRANCH  58  77
ATOM     77  C   UNL A   1      43.783  28.106  27.262  1.00  0.00    -0.014 A 
ATOM     78  C   UNL A   1      44.954  28.711  26.778  1.00  0.00     0.009 A 
ATOM     79  C   UNL A   1      43.293  26.962  26.613  1.00  0.00     0.009 A 
ATOM     80  C   UNL A   1      45.604  28.194  25.656  1.00  0.00     0.001 A 
ATOM     81  C   UNL A   1      43.960  26.433  25.506  1.00  0.00     0.001 A 
ATOM     82  C   UNL A   1      45.109  27.055  25.023  1.00  0.00     0.000 A 
ENDBRANCH  58  77
BRANCH  70  83
ATOM     83  C   UNL A   1      45.791  29.987  33.654  1.00  0.00    -0.014 A 
ATOM     84  C   UNL A   1      46.381  28.760  33.995  1.00  0.00     0.009 A 
ATOM     85  C   UNL A   1      46.485  31.176  33.926  1.00  0.00     0.009 A 
ATOM     86  C   UNL A   1      47.631  28.728  34.615  1.00  0.00     0.001 A 
ATOM     87  C   UNL A   1      47.745  31.140  34.524  1.00  0.00     0.001 A 
ATOM     88  C   UNL A   1      48.315  29.916  34.874  1.00  0.00     0.000 A 
ENDBRANCH  70  83
ENDBRANCH  44  45
ENDBRANCH  37  39
ENDBRANCH  36  37
ENDBRANCH  35  36
ENDBRANCH  34  35
ENDBRANCH  33  34
ENDBRANCH  32  33
ENDBRANCH  31  32
ENDBRANCH  30  31
ENDBRANCH   1  30
TORSDOF 24
ENDMDL
MODEL 3
REMARK VINA RESULT:      -7.5      9.732     14.155
REMARK SMILES Cn1cc(S(=O)(=O)N[C@@H]2C=C[C@@H](C(=O)OCCOCCOCCOCCOC(=O)c3ccc(-c4c5nc(c(-c6ccccc6)c6ccc([nH]6)c(-c6ccccc6)c6nc(c(-c7ccccc7)c7ccc4[nH]7)C=C6)C=C5)cc3)C2)cc1C(N)=O
REMARK SMILES IDX 20 1 19 2 18 3 17 4 16 5 15 6 13 7 14 8 12 9 9 10 10 11
REMARK SMILES IDX 78 12 11 13 8 14 5 16 6 17 7 18 4 19 1 20 2 21 3 22 80 23
REMARK SMILES IDX 79 24 81 25 82 26 83 27 21 30 22 31 23 32 24 33 25 34 26 35
REMARK SMILES IDX 27 36 28 37 29 38 30 39 31 40 77 41 32 42 76 43 33 44 34 45
REMARK SMILES IDX 35 46 70 47 36 48 75 49 69 50 71 51 37 52 74 53 68 54 67 55
REMARK SMILES IDX 38 57 60 58 45 59 59 60 46 61 49 62 58 63 72 64 47 65 48 66
REMARK SMILES IDX 57 68 73 69 50 70 39 71 40 72 44 73 41 74 43 75 42 76 61 77
REMARK SMILES IDX 62 78 66 79 63 80 65 81 64 82 51 83 52 84 56 85 53 86 55 87
REMARK SMILES IDX 54 88
REMARK H PARENT 8 15 82 28 82 29 71 56 49 67
REMARK Flexibility Score: inf
ROOT
ATOM      1  C   UNL A   1      35.512  33.453  30.199  1.00  0.00     0.188 C 
ENDROOT
BRANCH   1   2
ATOM      2  C   UNL A   1      35.429  33.885  28.727  1.00  0.00     0.188 C 
BRANCH   2   3
ATOM      3  O   UNL A   1      35.699  32.930  27.709  1.00  0.00    -0.376 OA
BRANCH   3   4
ATOM      4  C   UNL A   1      36.353  31.709  28.053  1.00  0.00     0.202 C 
BRANCH   4   5
ATOM      5  C   UNL A   1      35.508  30.547  28.585  1.00  0.00     0.261 C 
BRANCH   5   6
ATOM      6  O   UNL A   1      34.956  29.713  27.545  1.00  0.00    -0.463 OA
BRANCH   6   7
ATOM      7  C   UNL A   1      33.732  30.064  27.087  1.00  0.00     0.312 C 
ATOM      8  O   UNL A   1      33.055  30.986  27.536  1.00  0.00    -0.252 OA
BRANCH   7   9
ATOM      9  C   UNL A   1      33.193  29.170  25.983  1.00  0.00     0.123 C 
ATOM     10  C   UNL A   1      32.782  26.979  25.012  1.00  0.00     0.093 C 
ATOM     11  C   UNL A   1      31.618  27.455  25.817  1.00  0.00    -0.011 C 
ATOM     12  C   UNL A   1      33.898  27.863  25.603  1.00  0.00     0.043 C 
ATOM     13  C   UNL A   1      31.831  28.664  26.353  1.00  0.00    -0.015 C 
BRANCH  10  14
ATOM     14  N   UNL A   1      32.661  27.316  23.581  1.00  0.00    -0.204 NA
ATOM     15  H   UNL A   1      31.832  27.902  23.486  1.00  0.00     0.142 HD
BRANCH  14  16
ATOM     16  S   UNL A   1      32.526  26.094  22.430  1.00  0.00     0.242 S 
ATOM     17  O   UNL A   1      33.776  26.008  21.711  1.00  0.00    -0.207 OA
ATOM     18  O   UNL A   1      31.259  26.296  21.764  1.00  0.00    -0.207 OA
BRANCH  16  19
ATOM     19  C   UNL A   1      32.345  24.590  23.252  1.00  0.00     0.100 A 
ATOM     20  C   UNL A   1      33.400  21.300  24.285  1.00  0.00     0.150 C 
ATOM     21  N   UNL A   1      32.747  22.580  24.108  1.00  0.00    -0.345 N 
ATOM     22  C   UNL A   1      33.152  23.481  23.150  1.00  0.00     0.107 A 
ATOM     23  C   UNL A   1      31.716  23.117  24.866  1.00  0.00     0.107 A 
ATOM     24  C   UNL A   1      31.370  24.310  24.237  1.00  0.00     0.055 A 
BRANCH  23  25
ATOM     25  C   UNL A   1      31.154  22.543  26.076  1.00  0.00     0.265 C 
ATOM     26  N   UNL A   1      31.984  22.526  27.162  1.00  0.00    -0.364 N 
ATOM     27  O   UNL A   1      30.038  22.046  26.174  1.00  0.00    -0.268 OA
ATOM     28  H   UNL A   1      32.884  22.920  27.100  1.00  0.00     0.160 HD
ATOM     29  H   UNL A   1      31.682  22.119  28.006  1.00  0.00     0.160 HD
ENDBRANCH  23  25
ENDBRANCH  16  19
ENDBRANCH  14  16
ENDBRANCH  10  14
ENDBRANCH   7   9
ENDBRANCH   6   7
ENDBRANCH   5   6
ENDBRANCH   4   5
ENDBRANCH   3   4
ENDBRANCH   2   3
ENDBRANCH   1   2
BRANCH   1  30
ATOM     30  O   UNL A   1      34.596  34.112  31.053  1.00  0.00    -0.377 OA
BRANCH  30  31
ATOM     31  C   UNL A   1      35.147  34.733  32.212  1.00  0.00     0.188 C 
BRANCH  31  32
ATOM     32  C   UNL A   1      34.710  34.190  33.584  1.00  0.00     0.188 C 
BRANCH  32  33
ATOM     33  O   UNL A   1      35.282  32.914  33.876  1.00  0.00    -0.376 OA
BRANCH  33  34
ATOM     34  C   UNL A   1      36.705  32.825  33.811  1.00  0.00     0.202 C 
BRANCH  34  35
ATOM     35  C   UNL A   1      37.377  32.325  35.100  1.00  0.00     0.261 C 
BRANCH  35  36
ATOM     36  O   UNL A   1      37.015  33.035  36.300  1.00  0.00    -0.460 OA
BRANCH  36  37
ATOM     37  C   UNL A   1      37.566  32.629  37.463  1.00  0.00     0.338 C 
ATOM     38  O   UNL A   1      37.524  31.516  37.952  1.00  0.00    -0.246 OA
BRANCH  37  39
ATOM     39  C   UNL A   1      38.408  33.727  37.973  1.00  0.00     0.060 A 
ATOM     40  C   UNL A   1      38.936  34.646  37.058  1.00  0.00     0.016 A 
ATOM     41  C   UNL A   1      38.697  33.836  39.336  1.00  0.00     0.016 A 
ATOM     42  C   UNL A   1      39.797  35.652  37.499  1.00  0.00     0.010 A 
ATOM     43  C   UNL A   1      39.572  34.832  39.774  1.00  0.00     0.010 A 
ATOM     44  C   UNL A   1      40.153  35.720  38.852  1.00  0.00    -0.014 A 
BRANCH  44  45
ATOM     45  C   UNL A   1      41.283  36.579  39.278  1.00  0.00     0.031 A 
ATOM     46  C   UNL A   1      40.974  37.954  39.804  1.00  0.00     0.074 A 
ATOM     47  C   UNL A   1      42.556  36.158  39.196  1.00  0.00     0.049 A 
ATOM     48  N   UNL A   1      41.793  38.901  40.182  1.00  0.00    -0.248 NA
ATOM     49  C   UNL A   1      39.548  38.307  39.916  1.00  0.00     0.031 C 
ATOM     50  C   UNL A   1      42.988  34.837  38.745  1.00  0.00     0.029 A 
ATOM     51  N   UNL A   1      43.725  36.818  39.483  1.00  0.00    -0.354 N 
ATOM     52  C   UNL A   1      40.983  39.960  40.574  1.00  0.00     0.074 A 
ATOM     53  C   UNL A   1      39.612  39.550  40.368  1.00  0.00     0.031 C 
ATOM     54  C   UNL A   1      44.333  34.789  38.772  1.00  0.00     0.029 A 
ATOM     55  C   UNL A   1      44.852  36.081  39.212  1.00  0.00     0.049 A 
ATOM     56  H   UNL A   1      43.753  37.731  39.849  1.00  0.00     0.167 HD
ATOM     57  C   UNL A   1      41.346  41.168  41.065  1.00  0.00     0.031 A 
ATOM     58  C   UNL A   1      46.153  36.425  39.288  1.00  0.00     0.031 A 
ATOM     59  C   UNL A   1      42.706  41.593  41.247  1.00  0.00     0.049 A 
ATOM     60  C   UNL A   1      46.533  37.809  39.746  1.00  0.00     0.074 A 
ATOM     61  C   UNL A   1      43.174  42.795  41.749  1.00  0.00     0.029 A 
ATOM     62  N   UNL A   1      43.817  40.833  40.919  1.00  0.00    -0.354 N 
ATOM     63  N   UNL A   1      45.759  38.789  40.145  1.00  0.00    -0.248 NA
ATOM     64  C   UNL A   1      47.967  38.132  39.760  1.00  0.00     0.031 C 
ATOM     65  C   UNL A   1      44.570  42.781  41.678  1.00  0.00     0.029 A 
ATOM     66  C   UNL A   1      44.970  41.552  41.178  1.00  0.00     0.049 A 
ATOM     67  H   UNL A   1      43.789  39.919  40.556  1.00  0.00     0.167 HD
ATOM     68  C   UNL A   1      46.612  39.834  40.479  1.00  0.00     0.074 A 
ATOM     69  C   UNL A   1      47.962  39.366  40.246  1.00  0.00     0.031 C 
ATOM     70  C   UNL A   1      46.305  41.072  40.939  1.00  0.00     0.031 A 
BRANCH  57  71
ATOM     71  C   UNL A   1      40.244  42.127  41.404  1.00  0.00    -0.014 A 
ATOM     72  C   UNL A   1      39.920  43.191  40.548  1.00  0.00     0.009 A 
ATOM     73  C   UNL A   1      39.510  41.955  42.587  1.00  0.00     0.009 A 
ATOM     74  C   UNL A   1      38.901  44.083  40.887  1.00  0.00     0.001 A 
ATOM     75  C   UNL A   1      38.477  42.834  42.912  1.00  0.00     0.001 A 
ATOM     76  C   UNL A   1      38.178  43.902  42.066  1.00  0.00     0.000 A 
ENDBRANCH  57  71
BRANCH  58  77
ATOM     77  C   UNL A   1      47.205  35.454  38.894  1.00  0.00    -0.014 A 
ATOM     78  C   UNL A   1      47.642  35.374  37.563  1.00  0.00     0.009 A 
ATOM     79  C   UNL A   1      47.757  34.580  39.843  1.00  0.00     0.009 A 
ATOM     80  C   UNL A   1      48.593  34.423  37.188  1.00  0.00     0.001 A 
ATOM     81  C   UNL A   1      48.726  33.646  39.470  1.00  0.00     0.001 A 
ATOM     82  C   UNL A   1      49.136  33.562  38.141  1.00  0.00     0.000 A 
ENDBRANCH  58  77
BRANCH  70  83
ATOM     83  C   UNL A   1      47.446  41.998  41.250  1.00  0.00    -0.014 A 
ATOM     84  C   UNL A   1      48.060  41.993  42.512  1.00  0.00     0.009 A 
ATOM     85  C   UNL A   1      47.951  42.841  40.249  1.00  0.00     0.009 A 
ATOM     86  C   UNL A   1      49.145  42.833  42.770  1.00  0.00     0.001 A 
ATOM     87  C   UNL A   1      49.051  43.661  40.502  1.00  0.00     0.001 A 
ATOM     88  C   UNL A   1      49.643  43.662  41.764  1.00  0.00     0.000 A 
ENDBRANCH  70  83
ENDBRANCH  44  45
ENDBRANCH  37  39
ENDBRANCH  36  37
ENDBRANCH  35  36
ENDBRANCH  34  35
ENDBRANCH  33  34
ENDBRANCH  32  33
ENDBRANCH  31  32
ENDBRANCH  30  31
ENDBRANCH   1  30
TORSDOF 24
ENDMDL
