MODEL 1
REMARK VINA RESULT:     -11.0      0.000      0.000
REMARK SMILES Cc1ccc(-c2cc(Cl)cc3c2O[C@@H](C(F)(F)F)C(C(=O)OCCOCCOCCOCCOC(=O)c2ccc(-c4c5nc(c(-c6ccccc6)c6ccc([nH]6)c(-c6ccccc6)c6nc(c(-c7ccccc7)c7ccc4[nH]7)C=C6)C=C5)cc2)=C3)cc1
REMARK SMILES IDX 29 1 28 2 27 3 26 4 25 5 24 6 23 7 22 8 20 9 21 10 19 11
REMARK SMILES IDX 6 12 7 13 12 14 8 15 11 16 13 17 9 18 10 19 85 20 14 21 5 22
REMARK SMILES IDX 1 23 2 24 3 25 87 26 4 27 86 28 15 29 16 30 17 31 18 32
REMARK SMILES IDX 30 33 31 34 32 35 33 36 34 37 35 38 36 39 37 40 38 41 84 42
REMARK SMILES IDX 39 43 83 44 40 45 41 46 42 47 77 48 43 49 82 50 76 51 78 52
REMARK SMILES IDX 44 53 81 54 75 55 74 56 45 58 67 59 52 60 66 61 53 62 56 63
REMARK SMILES IDX 65 64 79 65 54 66 55 67 64 69 80 70 57 71 46 72 47 73 51 74
REMARK SMILES IDX 48 75 50 76 49 77 68 78 69 79 73 80 70 81 72 82 71 83 58 84
REMARK SMILES IDX 59 85 63 86 60 87 62 88 61 89
REMARK H PARENT 78 57 56 68
REMARK Flexibility Score: inf
ROOT
ATOM      1  C   UNL A   1      36.051  22.689  25.848  1.00  0.00     0.188 C 
ENDROOT
BRANCH   1   2
ATOM      2  O   UNL A   1      35.505  23.604  24.914  1.00  0.00    -0.377 OA
BRANCH   2   3
ATOM      3  C   UNL A   1      35.315  23.120  23.594  1.00  0.00     0.188 C 
BRANCH   3   4
ATOM      4  C   UNL A   1      33.974  23.320  22.886  1.00  0.00     0.188 C 
BRANCH   4   5
ATOM      5  O   UNL A   1      33.821  24.183  21.768  1.00  0.00    -0.376 OA
BRANCH   5   6
ATOM      6  C   UNL A   1      32.600  24.797  21.397  1.00  0.00     0.202 C 
BRANCH   6   7
ATOM      7  C   UNL A   1      32.452  26.352  21.148  1.00  0.00     0.261 C 
BRANCH   7   8
ATOM      8  O   UNL A   1      32.749  27.149  22.323  1.00  0.00    -0.460 OA
BRANCH   8   9
ATOM      9  C   UNL A   1      31.942  28.197  22.636  1.00  0.00     0.338 C 
ATOM     10  O   UNL A   1      32.270  29.377  22.718  1.00  0.00    -0.246 OA
BRANCH   9  11
ATOM     11  C   UNL A   1      30.490  27.726  22.582  1.00  0.00     0.087 C 
ATOM     12  C   UNL A   1      31.864  27.752  26.340  1.00  0.00     0.026 A 
ATOM     13  C   UNL A   1      32.094  26.472  26.891  1.00  0.00     0.033 A 
ATOM     14  C   UNL A   1      30.918  27.779  25.216  1.00  0.00     0.135 A 
ATOM     15  C   UNL A   1      31.556  25.303  26.353  1.00  0.00     0.042 A 
ATOM     16  C   UNL A   1      30.580  26.547  24.575  1.00  0.00     0.019 A 
ATOM     17  O   UNL A   1      30.314  28.926  24.595  1.00  0.00    -0.475 OA
ATOM     18  Cl  UNL A   1      31.947  23.793  27.071  1.00  0.00    -0.084 Cl
ATOM     19  C   UNL A   1      30.826  25.329  25.180  1.00  0.00     0.032 A 
ATOM     20  C   UNL A   1      30.164  26.539  23.139  1.00  0.00     0.027 C 
ATOM     21  C   UNL A   1      29.640  28.761  23.255  1.00  0.00     0.316 C 
BRANCH  12  22
ATOM     22  C   UNL A   1      32.953  28.724  26.879  1.00  0.00    -0.015 A 
ATOM     23  C   UNL A   1      35.873  31.868  28.025  1.00  0.00     0.044 C 
ATOM     24  C   UNL A   1      34.900  30.803  27.584  1.00  0.00    -0.051 A 
ATOM     25  C   UNL A   1      35.292  29.500  27.283  1.00  0.00     0.004 A 
ATOM     26  C   UNL A   1      33.545  31.079  27.461  1.00  0.00     0.004 A 
ATOM     27  C   UNL A   1      34.345  28.499  26.903  1.00  0.00     0.009 A 
ATOM     28  C   UNL A   1      32.603  30.078  27.133  1.00  0.00     0.009 A 
ENDBRANCH  12  22
BRANCH  21  29
ATOM     29  C   UNL A   1      29.322  29.902  22.212  1.00  0.00     0.430 C 
ATOM     30  F   UNL A   1      28.023  29.735  21.800  1.00  0.00    -0.167 F 
ATOM     31  F   UNL A   1      29.368  31.141  22.741  1.00  0.00    -0.167 F 
ATOM     32  F   UNL A   1      30.025  29.917  21.067  1.00  0.00    -0.167 F 
ENDBRANCH  21  29
ENDBRANCH   9  11
ENDBRANCH   8   9
ENDBRANCH   7   8
ENDBRANCH   6   7
ENDBRANCH   5   6
ENDBRANCH   4   5
ENDBRANCH   3   4
ENDBRANCH   2   3
ENDBRANCH   1   2
BRANCH   1  33
ATOM     33  C   UNL A   1      36.166  21.256  25.410  1.00  0.00     0.188 C 
BRANCH  33  34
ATOM     34  O   UNL A   1      37.514  20.884  25.649  1.00  0.00    -0.376 OA
BRANCH  34  35
ATOM     35  C   UNL A   1      38.438  21.953  25.708  1.00  0.00     0.202 C 
BRANCH  35  36
ATOM     36  C   UNL A   1      39.671  21.565  26.522  1.00  0.00     0.261 C 
BRANCH  36  37
ATOM     37  O   UNL A   1      40.707  21.171  25.588  1.00  0.00    -0.460 OA
BRANCH  37  38
ATOM     38  C   UNL A   1      41.888  20.774  26.139  1.00  0.00     0.338 C 
ATOM     39  O   UNL A   1      42.149  19.630  26.481  1.00  0.00    -0.246 OA
BRANCH  38  40
ATOM     40  C   UNL A   1      42.717  21.960  26.542  1.00  0.00     0.060 A 
ATOM     41  C   UNL A   1      42.787  22.337  27.895  1.00  0.00     0.016 A 
ATOM     42  C   UNL A   1      43.175  22.857  25.581  1.00  0.00     0.016 A 
ATOM     43  C   UNL A   1      43.168  23.646  28.267  1.00  0.00     0.010 A 
ATOM     44  C   UNL A   1      43.509  24.160  25.953  1.00  0.00     0.010 A 
ATOM     45  C   UNL A   1      43.461  24.600  27.289  1.00  0.00    -0.014 A 
BRANCH  45  46
ATOM     46  C   UNL A   1      43.528  26.079  27.507  1.00  0.00     0.031 A 
ATOM     47  C   UNL A   1      42.248  26.888  27.519  1.00  0.00     0.074 A 
ATOM     48  C   UNL A   1      44.653  26.597  28.087  1.00  0.00     0.049 A 
ATOM     49  N   UNL A   1      42.137  28.113  27.909  1.00  0.00    -0.248 NA
ATOM     50  C   UNL A   1      40.944  26.365  27.118  1.00  0.00     0.031 C 
ATOM     51  C   UNL A   1      44.777  27.812  28.902  1.00  0.00     0.029 A 
ATOM     52  N   UNL A   1      45.942  26.071  28.198  1.00  0.00    -0.354 N 
ATOM     53  C   UNL A   1      40.804  28.430  28.131  1.00  0.00     0.074 A 
ATOM     54  C   UNL A   1      40.099  27.320  27.542  1.00  0.00     0.031 C 
ATOM     55  C   UNL A   1      46.029  27.990  29.348  1.00  0.00     0.029 A 
ATOM     56  C   UNL A   1      46.831  27.105  28.565  1.00  0.00     0.049 A 
ATOM     57  H   UNL A   1      46.191  25.131  28.047  1.00  0.00     0.167 HD
ATOM     58  C   UNL A   1      40.491  29.543  28.882  1.00  0.00     0.031 A 
ATOM     59  C   UNL A   1      47.750  27.559  27.671  1.00  0.00     0.031 A 
ATOM     60  C   UNL A   1      41.703  30.361  29.145  1.00  0.00     0.049 A 
ATOM     61  C   UNL A   1      47.281  28.944  27.181  1.00  0.00     0.074 A 
ATOM     62  C   UNL A   1      42.288  30.968  30.243  1.00  0.00     0.029 A 
ATOM     63  N   UNL A   1      42.644  30.508  28.123  1.00  0.00    -0.354 N 
ATOM     64  N   UNL A   1      46.015  29.322  27.155  1.00  0.00    -0.248 NA
ATOM     65  C   UNL A   1      48.170  30.092  27.005  1.00  0.00     0.031 C 
ATOM     66  C   UNL A   1      43.653  31.249  29.932  1.00  0.00     0.029 A 
ATOM     67  C   UNL A   1      43.858  30.969  28.587  1.00  0.00     0.049 A 
ATOM     68  H   UNL A   1      42.461  30.307  27.176  1.00  0.00     0.167 HD
ATOM     69  C   UNL A   1      45.928  30.691  27.229  1.00  0.00     0.074 A 
ATOM     70  C   UNL A   1      47.302  31.126  27.018  1.00  0.00     0.031 C 
ATOM     71  C   UNL A   1      44.852  31.444  27.636  1.00  0.00     0.031 A 
BRANCH  58  72
ATOM     72  C   UNL A   1      39.139  29.812  29.588  1.00  0.00    -0.014 A 
ATOM     73  C   UNL A   1      38.849  31.092  30.117  1.00  0.00     0.009 A 
ATOM     74  C   UNL A   1      38.141  28.858  29.852  1.00  0.00     0.009 A 
ATOM     75  C   UNL A   1      37.756  31.367  30.962  1.00  0.00     0.001 A 
ATOM     76  C   UNL A   1      37.036  29.119  30.705  1.00  0.00     0.001 A 
ATOM     77  C   UNL A   1      36.861  30.367  31.286  1.00  0.00     0.000 A 
ENDBRANCH  58  72
BRANCH  59  78
ATOM     78  C   UNL A   1      48.475  26.356  27.122  1.00  0.00    -0.014 A 
ATOM     79  C   UNL A   1      48.813  26.471  25.738  1.00  0.00     0.009 A 
ATOM     80  C   UNL A   1      49.365  25.620  27.924  1.00  0.00     0.009 A 
ATOM     81  C   UNL A   1      50.080  26.107  25.253  1.00  0.00     0.001 A 
ATOM     82  C   UNL A   1      50.627  25.229  27.419  1.00  0.00     0.001 A 
ATOM     83  C   UNL A   1      51.007  25.526  26.110  1.00  0.00     0.000 A 
ENDBRANCH  59  78
BRANCH  71  84
ATOM     84  C   UNL A   1      44.506  32.796  27.041  1.00  0.00    -0.014 A 
ATOM     85  C   UNL A   1      44.255  32.968  25.684  1.00  0.00     0.009 A 
ATOM     86  C   UNL A   1      44.112  33.856  27.905  1.00  0.00     0.009 A 
ATOM     87  C   UNL A   1      43.625  34.126  25.218  1.00  0.00     0.001 A 
ATOM     88  C   UNL A   1      43.429  34.980  27.454  1.00  0.00     0.001 A 
ATOM     89  C   UNL A   1      43.188  35.114  26.100  1.00  0.00     0.000 A 
ENDBRANCH  71  84
ENDBRANCH  45  46
ENDBRANCH  38  40
ENDBRANCH  37  38
ENDBRANCH  36  37
ENDBRANCH  35  36
ENDBRANCH  34  35
ENDBRANCH  33  34
ENDBRANCH   1  33
TORSDOF 22
ENDMDL
MODEL 2
REMARK VINA RESULT:     -10.8      2.070      2.829
REMARK SMILES Cc1ccc(-c2cc(Cl)cc3c2O[C@@H](C(F)(F)F)C(C(=O)OCCOCCOCCOCCOC(=O)c2ccc(-c4c5nc(c(-c6ccccc6)c6ccc([nH]6)c(-c6ccccc6)c6nc(c(-c7ccccc7)c7ccc4[nH]7)C=C6)C=C5)cc2)=C3)cc1
REMARK SMILES IDX 29 1 28 2 27 3 26 4 25 5 24 6 23 7 22 8 20 9 21 10 19 11
REMARK SMILES IDX 6 12 7 13 12 14 8 15 11 16 13 17 9 18 10 19 85 20 14 21 5 22
REMARK SMILES IDX 1 23 2 24 3 25 87 26 4 27 86 28 15 29 16 30 17 31 18 32
REMARK SMILES IDX 30 33 31 34 32 35 33 36 34 37 35 38 36 39 37 40 38 41 84 42
REMARK SMILES IDX 39 43 83 44 40 45 41 46 42 47 77 48 43 49 82 50 76 51 78 52
REMARK SMILES IDX 44 53 81 54 75 55 74 56 45 58 67 59 52 60 66 61 53 62 56 63
REMARK SMILES IDX 65 64 79 65 54 66 55 67 64 69 80 70 57 71 46 72 47 73 51 74
REMARK SMILES IDX 48 75 50 76 49 77 68 78 69 79 73 80 70 81 72 82 71 83 58 84
REMARK SMILES IDX 59 85 63 86 60 87 62 88 61 89
REMARK H PARENT 78 57 56 68
REMARK Flexibility Score: inf
ROOT
ATOM      1  C   UNL A   1      35.500  20.744  25.325  1.00  0.00     0.188 C 
ENDROOT
BRANCH   1   2
ATOM      2  O   UNL A   1      34.208  21.062  25.812  1.00  0.00    -0.377 OA
BRANCH   2   3
ATOM      3  C   UNL A   1      34.142  21.588  27.128  1.00  0.00     0.188 C 
BRANCH   3   4
ATOM      4  C   UNL A   1      33.167  22.720  27.456  1.00  0.00     0.188 C 
BRANCH   4   5
ATOM      5  O   UNL A   1      31.767  22.515  27.570  1.00  0.00    -0.376 OA
BRANCH   5   6
ATOM      6  C   UNL A   1      30.813  22.992  26.638  1.00  0.00     0.202 C 
BRANCH   6   7
ATOM      7  C   UNL A   1      29.952  24.298  26.872  1.00  0.00     0.261 C 
BRANCH   7   8
ATOM      8  O   UNL A   1      30.103  25.279  25.814  1.00  0.00    -0.460 OA
BRANCH   8   9
ATOM      9  C   UNL A   1      31.332  25.485  25.269  1.00  0.00     0.338 C 
ATOM     10  O   UNL A   1      32.386  25.649  25.876  1.00  0.00    -0.246 OA
BRANCH   9  11
ATOM     11  C   UNL A   1      31.257  25.185  23.774  1.00  0.00     0.087 C 
ATOM     12  C   UNL A   1      31.700  29.105  24.442  1.00  0.00     0.026 A 
ATOM     13  C   UNL A   1      30.547  29.880  24.184  1.00  0.00     0.033 A 
ATOM     14  C   UNL A   1      31.739  27.809  23.750  1.00  0.00     0.135 A 
ATOM     15  C   UNL A   1      29.475  29.419  23.421  1.00  0.00     0.042 A 
ATOM     16  C   UNL A   1      30.534  27.303  23.172  1.00  0.00     0.019 A 
ATOM     17  O   UNL A   1      32.851  26.905  23.628  1.00  0.00    -0.475 OA
ATOM     18  Cl  UNL A   1      28.098  30.424  23.218  1.00  0.00    -0.084 Cl
ATOM     19  C   UNL A   1      29.447  28.124  22.939  1.00  0.00     0.032 A 
ATOM     20  C   UNL A   1      30.339  25.829  23.021  1.00  0.00     0.027 C 
ATOM     21  C   UNL A   1      32.594  25.490  23.171  1.00  0.00     0.316 C 
BRANCH  12  22
ATOM     22  C   UNL A   1      32.442  29.717  25.665  1.00  0.00    -0.015 A 
ATOM     23  C   UNL A   1      34.526  31.963  28.879  1.00  0.00     0.044 C 
ATOM     24  C   UNL A   1      33.856  31.219  27.752  1.00  0.00    -0.051 A 
ATOM     25  C   UNL A   1      34.395  30.069  27.181  1.00  0.00     0.004 A 
ATOM     26  C   UNL A   1      32.647  31.655  27.227  1.00  0.00     0.004 A 
ATOM     27  C   UNL A   1      33.722  29.360  26.138  1.00  0.00     0.009 A 
ATOM     28  C   UNL A   1      31.958  30.929  26.230  1.00  0.00     0.009 A 
ENDBRANCH  12  22
BRANCH  21  29
ATOM     29  C   UNL A   1      33.536  24.243  23.386  1.00  0.00     0.430 C 
ATOM     30  F   UNL A   1      33.841  23.735  22.148  1.00  0.00    -0.167 F 
ATOM     31  F   UNL A   1      34.724  24.558  23.941  1.00  0.00    -0.167 F 
ATOM     32  F   UNL A   1      33.037  23.189  24.054  1.00  0.00    -0.167 F 
ENDBRANCH  21  29
ENDBRANCH   9  11
ENDBRANCH   8   9
ENDBRANCH   7   8
ENDBRANCH   6   7
ENDBRANCH   5   6
ENDBRANCH   4   5
ENDBRANCH   3   4
ENDBRANCH   2   3
ENDBRANCH   1   2
BRANCH   1  33
ATOM     33  C   UNL A   1      36.334  21.884  24.811  1.00  0.00     0.188 C 
BRANCH  33  34
ATOM     34  O   UNL A   1      37.388  22.045  25.747  1.00  0.00    -0.376 OA
BRANCH  34  35
ATOM     35  C   UNL A   1      38.457  21.127  25.622  1.00  0.00     0.202 C 
BRANCH  35  36
ATOM     36  C   UNL A   1      39.710  21.650  26.322  1.00  0.00     0.261 C 
BRANCH  36  37
ATOM     37  O   UNL A   1      40.860  21.123  25.614  1.00  0.00    -0.460 OA
BRANCH  37  38
ATOM     38  C   UNL A   1      41.918  20.751  26.388  1.00  0.00     0.338 C 
ATOM     39  O   UNL A   1      42.063  19.645  26.886  1.00  0.00    -0.246 OA
BRANCH  38  40
ATOM     40  C   UNL A   1      42.734  21.947  26.792  1.00  0.00     0.060 A 
ATOM     41  C   UNL A   1      42.747  22.361  28.136  1.00  0.00     0.016 A 
ATOM     42  C   UNL A   1      43.234  22.815  25.826  1.00  0.00     0.016 A 
ATOM     43  C   UNL A   1      43.116  23.680  28.486  1.00  0.00     0.010 A 
ATOM     44  C   UNL A   1      43.556  24.128  26.175  1.00  0.00     0.010 A 
ATOM     45  C   UNL A   1      43.453  24.605  27.496  1.00  0.00    -0.014 A 
BRANCH  45  46
ATOM     46  C   UNL A   1      43.516  26.090  27.674  1.00  0.00     0.031 A 
ATOM     47  C   UNL A   1      42.234  26.896  27.651  1.00  0.00     0.074 A 
ATOM     48  C   UNL A   1      44.634  26.625  28.254  1.00  0.00     0.049 A 
ATOM     49  N   UNL A   1      42.118  28.131  28.007  1.00  0.00    -0.248 NA
ATOM     50  C   UNL A   1      40.935  26.361  27.250  1.00  0.00     0.031 C 
ATOM     51  C   UNL A   1      44.747  27.861  29.037  1.00  0.00     0.029 A 
ATOM     52  N   UNL A   1      45.922  26.104  28.392  1.00  0.00    -0.354 N 
ATOM     53  C   UNL A   1      40.781  28.452  28.206  1.00  0.00     0.074 A 
ATOM     54  C   UNL A   1      40.085  27.325  27.640  1.00  0.00     0.031 C 
ATOM     55  C   UNL A   1      45.994  28.054  29.491  1.00  0.00     0.029 A 
ATOM     56  C   UNL A   1      46.805  27.149  28.741  1.00  0.00     0.049 A 
ATOM     57  H   UNL A   1      46.174  25.161  28.269  1.00  0.00     0.167 HD
ATOM     58  C   UNL A   1      40.459  29.584  28.923  1.00  0.00     0.031 A 
ATOM     59  C   UNL A   1      47.733  27.581  27.846  1.00  0.00     0.031 A 
ATOM     60  C   UNL A   1      41.666  30.410  29.178  1.00  0.00     0.049 A 
ATOM     61  C   UNL A   1      47.268  28.951  27.314  1.00  0.00     0.074 A 
ATOM     62  C   UNL A   1      42.238  31.048  30.266  1.00  0.00     0.029 A 
ATOM     63  N   UNL A   1      42.619  30.532  28.163  1.00  0.00    -0.354 N 
ATOM     64  N   UNL A   1      46.001  29.326  27.264  1.00  0.00    -0.248 NA
ATOM     65  C   UNL A   1      48.157  30.096  27.116  1.00  0.00     0.031 C 
ATOM     66  C   UNL A   1      43.607  31.323  29.962  1.00  0.00     0.029 A 
ATOM     67  C   UNL A   1      43.826  31.007  28.628  1.00  0.00     0.049 A 
ATOM     68  H   UNL A   1      42.446  30.305  27.220  1.00  0.00     0.167 HD
ATOM     69  C   UNL A   1      45.912  30.697  27.300  1.00  0.00     0.074 A 
ATOM     70  C   UNL A   1      47.288  31.128  27.092  1.00  0.00     0.031 C 
ATOM     71  C   UNL A   1      44.830  31.458  27.675  1.00  0.00     0.031 A 
BRANCH  58  72
ATOM     72  C   UNL A   1      39.099  29.869  29.607  1.00  0.00    -0.014 A 
ATOM     73  C   UNL A   1      38.982  30.904  30.565  1.00  0.00     0.009 A 
ATOM     74  C   UNL A   1      37.917  29.126  29.439  1.00  0.00     0.009 A 
ATOM     75  C   UNL A   1      37.857  31.088  31.393  1.00  0.00     0.001 A 
ATOM     76  C   UNL A   1      36.778  29.298  30.268  1.00  0.00     0.001 A 
ATOM     77  C   UNL A   1      36.759  30.259  31.268  1.00  0.00     0.000 A 
ENDBRANCH  58  72
BRANCH  59  78
ATOM     78  C   UNL A   1      48.466  26.365  27.336  1.00  0.00    -0.014 A 
ATOM     79  C   UNL A   1      48.690  26.378  25.925  1.00  0.00     0.009 A 
ATOM     80  C   UNL A   1      49.448  25.732  28.119  1.00  0.00     0.009 A 
ATOM     81  C   UNL A   1      49.931  26.023  25.369  1.00  0.00     0.001 A 
ATOM     82  C   UNL A   1      50.683  25.349  27.546  1.00  0.00     0.001 A 
ATOM     83  C   UNL A   1      50.946  25.551  26.191  1.00  0.00     0.000 A 
ENDBRANCH  59  78
BRANCH  71  84
ATOM     84  C   UNL A   1      44.489  32.793  27.041  1.00  0.00    -0.014 A 
ATOM     85  C   UNL A   1      44.206  32.920  25.684  1.00  0.00     0.009 A 
ATOM     86  C   UNL A   1      44.133  33.890  27.876  1.00  0.00     0.009 A 
ATOM     87  C   UNL A   1      43.581  34.070  25.193  1.00  0.00     0.001 A 
ATOM     88  C   UNL A   1      43.455  35.007  27.401  1.00  0.00     0.001 A 
ATOM     89  C   UNL A   1      43.181  35.096  26.050  1.00  0.00     0.000 A 
ENDBRANCH  71  84
ENDBRANCH  45  46
ENDBRANCH  38  40
ENDBRANCH  37  38
ENDBRANCH  36  37
ENDBRANCH  35  36
ENDBRANCH  34  35
ENDBRANCH  33  34
ENDBRANCH   1  33
TORSDOF 22
ENDMDL
MODEL 3
REMARK VINA RESULT:     -10.5      2.433      3.455
REMARK SMILES Cc1ccc(-c2cc(Cl)cc3c2O[C@@H](C(F)(F)F)C(C(=O)OCCOCCOCCOCCOC(=O)c2ccc(-c4c5nc(c(-c6ccccc6)c6ccc([nH]6)c(-c6ccccc6)c6nc(c(-c7ccccc7)c7ccc4[nH]7)C=C6)C=C5)cc2)=C3)cc1
REMARK SMILES IDX 29 1 28 2 27 3 26 4 25 5 24 6 23 7 22 8 20 9 21 10 19 11
REMARK SMILES IDX 6 12 7 13 12 14 8 15 11 16 13 17 9 18 10 19 85 20 14 21 5 22
REMARK SMILES IDX 1 23 2 24 3 25 87 26 4 27 86 28 15 29 16 30 17 31 18 32
REMARK SMILES IDX 30 33 31 34 32 35 33 36 34 37 35 38 36 39 37 40 38 41 84 42
REMARK SMILES IDX 39 43 83 44 40 45 41 46 42 47 77 48 43 49 82 50 76 51 78 52
REMARK SMILES IDX 44 53 81 54 75 55 74 56 45 58 67 59 52 60 66 61 53 62 56 63
REMARK SMILES IDX 65 64 79 65 54 66 55 67 64 69 80 70 57 71 46 72 47 73 51 74
REMARK SMILES IDX 48 75 50 76 49 77 68 78 69 79 73 80 70 81 72 82 71 83 58 84
REMARK SMILES IDX 59 85 63 86 60 87 62 88 61 89
REMARK H PARENT 78 57 56 68
REMARK Flexibility Score: inf
ROOT
ATOM      1  C   UNL A   1      35.936  20.610  25.033  1.00  0.00     0.188 C 
ENDROOT
BRANCH   1   2
ATOM      2  O   UNL A   1      34.618  20.922  25.449  1.00  0.00    -0.377 OA
BRANCH   2   3
ATOM      3  C   UNL A   1      34.498  21.771  26.579  1.00  0.00     0.188 C 
BRANCH   3   4
ATOM      4  C   UNL A   1      33.134  22.339  26.974  1.00  0.00     0.188 C 
BRANCH   4   5
ATOM      5  O   UNL A   1      31.912  21.793  26.500  1.00  0.00    -0.376 OA
BRANCH   5   6
ATOM      6  C   UNL A   1      30.834  22.565  26.001  1.00  0.00     0.202 C 
BRANCH   6   7
ATOM      7  C   UNL A   1      30.366  23.926  26.657  1.00  0.00     0.261 C 
BRANCH   7   8
ATOM      8  O   UNL A   1      30.512  25.066  25.773  1.00  0.00    -0.460 OA
BRANCH   8   9
ATOM      9  C   UNL A   1      31.730  25.339  25.234  1.00  0.00     0.338 C 
ATOM     10  O   UNL A   1      32.786  25.482  25.843  1.00  0.00    -0.246 OA
BRANCH   9  11
ATOM     11  C   UNL A   1      31.646  25.146  23.722  1.00  0.00     0.087 C 
ATOM     12  C   UNL A   1      32.433  28.958  24.655  1.00  0.00     0.026 A 
ATOM     13  C   UNL A   1      31.358  29.849  24.443  1.00  0.00     0.033 A 
ATOM     14  C   UNL A   1      32.364  27.712  23.878  1.00  0.00     0.135 A 
ATOM     15  C   UNL A   1      30.258  29.539  23.643  1.00  0.00     0.042 A 
ATOM     16  C   UNL A   1      31.125  27.357  23.260  1.00  0.00     0.019 A 
ATOM     17  O   UNL A   1      33.391  26.721  23.702  1.00  0.00    -0.475 OA
ATOM     18  Cl  UNL A   1      28.980  30.677  23.500  1.00  0.00    -0.084 Cl
ATOM     19  C   UNL A   1      30.119  28.287  23.075  1.00  0.00     0.032 A 
ATOM     20  C   UNL A   1      30.800  25.920  23.008  1.00  0.00     0.027 C 
ATOM     21  C   UNL A   1      33.013  25.369  23.149  1.00  0.00     0.316 C 
BRANCH  12  22
ATOM     22  C   UNL A   1      33.213  29.417  25.921  1.00  0.00    -0.015 A 
ATOM     23  C   UNL A   1      35.475  31.239  29.280  1.00  0.00     0.044 C 
ATOM     24  C   UNL A   1      34.747  30.635  28.105  1.00  0.00    -0.051 A 
ATOM     25  C   UNL A   1      35.150  29.450  27.496  1.00  0.00     0.004 A 
ATOM     26  C   UNL A   1      33.619  31.245  27.573  1.00  0.00     0.004 A 
ATOM     27  C   UNL A   1      34.422  28.878  26.407  1.00  0.00     0.009 A 
ATOM     28  C   UNL A   1      32.871  30.656  26.529  1.00  0.00     0.009 A 
ENDBRANCH  12  22
BRANCH  21  29
ATOM     29  C   UNL A   1      33.837  24.030  23.286  1.00  0.00     0.430 C 
ATOM     30  F   UNL A   1      34.816  24.240  24.224  1.00  0.00    -0.167 F 
ATOM     31  F   UNL A   1      33.109  22.999  23.760  1.00  0.00    -0.167 F 
ATOM     32  F   UNL A   1      34.510  23.596  22.207  1.00  0.00    -0.167 F 
ENDBRANCH  21  29
ENDBRANCH   9  11
ENDBRANCH   8   9
ENDBRANCH   7   8
ENDBRANCH   6   7
ENDBRANCH   5   6
ENDBRANCH   4   5
ENDBRANCH   3   4
ENDBRANCH   2   3
ENDBRANCH   1   2
BRANCH   1  33
ATOM     33  C   UNL A   1      36.840  21.767  24.708  1.00  0.00     0.188 C 
BRANCH  33  34
ATOM     34  O   UNL A   1      38.158  21.315  24.974  1.00  0.00    -0.376 OA
BRANCH  34  35
ATOM     35  C   UNL A   1      38.781  21.892  26.105  1.00  0.00     0.202 C 
BRANCH  35  36
ATOM     36  C   UNL A   1      40.069  21.148  26.457  1.00  0.00     0.261 C 
BRANCH  36  37
ATOM     37  O   UNL A   1      41.153  21.780  25.730  1.00  0.00    -0.460 OA
BRANCH  37  38
ATOM     38  C   UNL A   1      42.056  22.466  26.484  1.00  0.00     0.338 C 
ATOM     39  O   UNL A   1      43.031  21.971  27.029  1.00  0.00    -0.246 OA
BRANCH  38  40
ATOM     40  C   UNL A   1      41.551  23.845  26.804  1.00  0.00     0.060 A 
ATOM     41  C   UNL A   1      41.400  24.790  25.774  1.00  0.00     0.016 A 
ATOM     42  C   UNL A   1      41.508  24.290  28.122  1.00  0.00     0.016 A 
ATOM     43  C   UNL A   1      41.360  26.174  26.057  1.00  0.00     0.010 A 
ATOM     44  C   UNL A   1      41.510  25.659  28.391  1.00  0.00     0.010 A 
ATOM     45  C   UNL A   1      41.492  26.630  27.371  1.00  0.00    -0.014 A 
BRANCH  45  46
ATOM     46  C   UNL A   1      41.819  28.032  27.779  1.00  0.00     0.031 A 
ATOM     47  C   UNL A   1      40.702  28.962  28.204  1.00  0.00     0.074 A 
ATOM     48  C   UNL A   1      43.104  28.313  28.154  1.00  0.00     0.049 A 
ATOM     49  N   UNL A   1      40.857  30.106  28.783  1.00  0.00    -0.248 NA
ATOM     50  C   UNL A   1      39.281  28.665  28.043  1.00  0.00     0.031 C 
ATOM     51  C   UNL A   1      43.573  29.346  29.086  1.00  0.00     0.029 A 
ATOM     52  N   UNL A   1      44.296  27.637  27.887  1.00  0.00    -0.354 N 
ATOM     53  C   UNL A   1      39.661  30.525  29.350  1.00  0.00     0.074 A 
ATOM     54  C   UNL A   1      38.694  29.619  28.785  1.00  0.00     0.031 C 
ATOM     55  C   UNL A   1      44.903  29.305  29.251  1.00  0.00     0.029 A 
ATOM     56  C   UNL A   1      45.384  28.487  28.184  1.00  0.00     0.049 A 
ATOM     57  H   UNL A   1      44.367  26.716  27.548  1.00  0.00     0.167 HD
ATOM     58  C   UNL A   1      39.679  31.517  30.306  1.00  0.00     0.031 A 
ATOM     59  C   UNL A   1      46.152  28.985  27.178  1.00  0.00     0.031 A 
ATOM     60  C   UNL A   1      41.025  32.138  30.399  1.00  0.00     0.049 A 
ATOM     61  C   UNL A   1      45.798  30.477  27.016  1.00  0.00     0.074 A 
ATOM     62  C   UNL A   1      41.910  32.477  31.408  1.00  0.00     0.029 A 
ATOM     63  N   UNL A   1      41.743  32.356  29.219  1.00  0.00    -0.354 N 
ATOM     64  N   UNL A   1      44.624  30.991  27.338  1.00  0.00    -0.248 NA
ATOM     65  C   UNL A   1      46.788  31.533  26.808  1.00  0.00     0.031 C 
ATOM     66  C   UNL A   1      43.206  32.655  30.835  1.00  0.00     0.029 A 
ATOM     67  C   UNL A   1      43.081  32.592  29.453  1.00  0.00     0.049 A 
ATOM     68  H   UNL A   1      41.338  32.344  28.322  1.00  0.00     0.167 HD
ATOM     69  C   UNL A   1      44.756  32.328  27.628  1.00  0.00     0.074 A 
ATOM     70  C   UNL A   1      46.104  32.638  27.171  1.00  0.00     0.031 C 
ATOM     71  C   UNL A   1      43.911  33.113  28.377  1.00  0.00     0.031 A 
BRANCH  58  72
ATOM     72  C   UNL A   1      38.559  31.807  31.337  1.00  0.00    -0.014 A 
ATOM     73  C   UNL A   1      37.971  30.751  32.071  1.00  0.00     0.009 A 
ATOM     74  C   UNL A   1      37.969  33.059  31.585  1.00  0.00     0.009 A 
ATOM     75  C   UNL A   1      36.808  30.888  32.855  1.00  0.00     0.001 A 
ATOM     76  C   UNL A   1      36.795  33.212  32.368  1.00  0.00     0.001 A 
ATOM     77  C   UNL A   1      36.195  32.120  32.978  1.00  0.00     0.000 A 
ENDBRANCH  58  72
BRANCH  59  78
ATOM     78  C   UNL A   1      46.561  27.823  26.308  1.00  0.00    -0.014 A 
ATOM     79  C   UNL A   1      46.382  28.061  24.911  1.00  0.00     0.009 A 
ATOM     80  C   UNL A   1      47.638  26.994  26.668  1.00  0.00     0.009 A 
ATOM     81  C   UNL A   1      47.366  27.716  23.968  1.00  0.00     0.001 A 
ATOM     82  C   UNL A   1      48.609  26.626  25.708  1.00  0.00     0.001 A 
ATOM     83  C   UNL A   1      48.506  27.037  24.378  1.00  0.00     0.000 A 
ENDBRANCH  59  78
BRANCH  71  84
ATOM     84  C   UNL A   1      43.650  34.577  28.081  1.00  0.00    -0.014 A 
ATOM     85  C   UNL A   1      42.899  34.991  26.985  1.00  0.00     0.009 A 
ATOM     86  C   UNL A   1      43.893  35.546  29.095  1.00  0.00     0.009 A 
ATOM     87  C   UNL A   1      42.400  36.295  26.917  1.00  0.00     0.001 A 
ATOM     88  C   UNL A   1      43.345  36.823  29.061  1.00  0.00     0.001 A 
ATOM     89  C   UNL A   1      42.596  37.198  27.962  1.00  0.00     0.000 A 
ENDBRANCH  71  84
ENDBRANCH  45  46
ENDBRANCH  38  40
ENDBRANCH  37  38
ENDBRANCH  36  37
ENDBRANCH  35  36
ENDBRANCH  34  35
ENDBRANCH  33  34
ENDBRANCH   1  33
TORSDOF 22
ENDMDL
