MODEL 1
REMARK VINA RESULT:     -11.1      0.000      0.000
REMARK SMILES Cc1cnn(C2(C(=O)OCCOCCOCCOCCOC(=O)c3ccc(-c4c5nc(c(-c6ccccc6)c6ccc([nH]6)c(-c6ccccc6)c6nc(c(-c7ccccc7)c7ccc4[nH]7)C=C6)C=C5)cc3)CCN(C(=O)c3cc4ccccc4[nH]3)CC2)c1
REMARK SMILES IDX 16 1 15 2 14 3 13 4 12 5 11 6 10 7 9 8 7 9 8 10 6 11 72 12
REMARK SMILES IDX 87 13 73 14 86 15 74 16 75 17 76 18 5 19 1 20 2 21 3 22
REMARK SMILES IDX 88 23 4 24 77 25 78 26 85 27 79 28 84 29 80 31 83 32 81 33
REMARK SMILES IDX 82 34 17 35 18 36 19 37 20 38 21 39 22 40 23 41 24 42 25 43
REMARK SMILES IDX 71 44 26 45 70 46 27 47 28 48 29 49 64 50 30 51 69 52 63 53
REMARK SMILES IDX 65 54 31 55 68 56 62 57 61 58 32 60 54 61 39 62 53 63 40 64
REMARK SMILES IDX 43 65 52 66 66 67 41 68 42 69 51 71 67 72 44 73 33 74 34 75
REMARK SMILES IDX 38 76 35 77 37 78 36 79 55 80 56 81 60 82 57 83 59 84 58 85
REMARK SMILES IDX 45 86 46 87 50 88 47 89 49 90 48 91
REMARK H PARENT 85 30 65 59 43 70
REMARK Flexibility Score: inf
ROOT
ATOM      1  C   UNL A   1      33.580  31.268  28.093  1.00  0.00     0.188 C 
ENDROOT
BRANCH   1   2
ATOM      2  O   UNL A   1      33.401  29.974  27.534  1.00  0.00    -0.377 OA
BRANCH   2   3
ATOM      3  C   UNL A   1      33.731  29.859  26.162  1.00  0.00     0.188 C 
BRANCH   3   4
ATOM      4  C   UNL A   1      33.463  28.481  25.529  1.00  0.00     0.188 C 
BRANCH   4   5
ATOM      5  O   UNL A   1      34.078  27.324  26.074  1.00  0.00    -0.376 OA
BRANCH   5   6
ATOM      6  C   UNL A   1      34.020  26.107  25.348  1.00  0.00     0.202 C 
BRANCH   6   7
ATOM      7  C   UNL A   1      34.909  24.899  25.712  1.00  0.00     0.261 C 
BRANCH   7   8
ATOM      8  O   UNL A   1      35.098  23.881  24.707  1.00  0.00    -0.461 OA
BRANCH   8   9
ATOM      9  C   UNL A   1      34.722  22.617  25.043  1.00  0.00     0.334 C 
ATOM     10  O   UNL A   1      35.534  21.720  25.269  1.00  0.00    -0.249 OA
BRANCH   9  11
ATOM     11  C   UNL A   1      33.185  22.357  24.966  1.00  0.00     0.163 C 
ATOM     12  C   UNL A   1      32.373  22.569  26.271  1.00  0.00     0.064 C 
ATOM     13  C   UNL A   1      32.797  23.421  23.918  1.00  0.00     0.064 C 
ATOM     14  C   UNL A   1      30.897  22.892  26.067  1.00  0.00     0.123 C 
ATOM     15  C   UNL A   1      31.327  23.748  23.811  1.00  0.00     0.123 C 
ATOM     16  N   UNL A   1      30.719  23.968  25.117  1.00  0.00    -0.337 N 
ATOM     17  C   UNL A   1      30.015  25.113  25.505  1.00  0.00     0.270 C 
ATOM     18  O   UNL A   1      29.722  25.328  26.683  1.00  0.00    -0.267 OA
BRANCH  11  19
ATOM     19  N   UNL A   1      32.982  20.964  24.514  1.00  0.00    -0.255 N 
ATOM     20  C   UNL A   1      32.155  18.167  22.300  1.00  0.00     0.048 C 
ATOM     21  C   UNL A   1      32.472  19.139  23.366  1.00  0.00    -0.013 A 
ATOM     22  C   UNL A   1      32.533  18.896  24.747  1.00  0.00     0.138 A 
ATOM     23  C   UNL A   1      32.757  20.485  23.249  1.00  0.00     0.113 A 
ATOM     24  N   UNL A   1      32.757  20.008  25.439  1.00  0.00    -0.180 NA
ENDBRANCH  11  19
BRANCH  17  25
ATOM     25  C   UNL A   1      29.702  26.075  24.478  1.00  0.00     0.105 A 
ATOM     26  C   UNL A   1      30.525  26.795  23.629  1.00  0.00     0.042 A 
ATOM     27  N   UNL A   1      28.414  26.451  24.172  1.00  0.00    -0.351 N 
ATOM     28  C   UNL A   1      29.761  27.868  23.111  1.00  0.00     0.000 A 
ATOM     29  C   UNL A   1      28.431  27.613  23.433  1.00  0.00     0.046 A 
ATOM     30  H   UNL A   1      27.602  25.962  24.440  1.00  0.00     0.167 HD
ATOM     31  C   UNL A   1      30.092  29.051  22.429  1.00  0.00     0.010 A 
ATOM     32  C   UNL A   1      27.390  28.463  23.050  1.00  0.00     0.026 A 
ATOM     33  C   UNL A   1      29.069  29.938  22.082  1.00  0.00     0.001 A 
ATOM     34  C   UNL A   1      27.739  29.637  22.373  1.00  0.00     0.002 A 
ENDBRANCH  17  25
ENDBRANCH   9  11
ENDBRANCH   8   9
ENDBRANCH   7   8
ENDBRANCH   6   7
ENDBRANCH   5   6
ENDBRANCH   4   5
ENDBRANCH   3   4
ENDBRANCH   2   3
ENDBRANCH   1   2
BRANCH   1  35
ATOM     35  C   UNL A   1      34.817  32.083  27.648  1.00  0.00     0.188 C 
BRANCH  35  36
ATOM     36  O   UNL A   1      34.657  33.501  27.679  1.00  0.00    -0.376 OA
BRANCH  36  37
ATOM     37  C   UNL A   1      34.998  34.259  28.829  1.00  0.00     0.202 C 
BRANCH  37  38
ATOM     38  C   UNL A   1      33.888  35.119  29.434  1.00  0.00     0.261 C 
BRANCH  38  39
ATOM     39  O   UNL A   1      33.273  34.547  30.574  1.00  0.00    -0.460 OA
BRANCH  39  40
ATOM     40  C   UNL A   1      33.473  35.216  31.725  1.00  0.00     0.338 C 
ATOM     41  O   UNL A   1      33.000  36.287  32.055  1.00  0.00    -0.246 OA
BRANCH  40  42
ATOM     42  C   UNL A   1      34.476  34.496  32.510  1.00  0.00     0.060 A 
ATOM     43  C   UNL A   1      35.657  35.193  32.749  1.00  0.00     0.016 A 
ATOM     44  C   UNL A   1      34.377  33.100  32.620  1.00  0.00     0.016 A 
ATOM     45  C   UNL A   1      36.817  34.466  32.772  1.00  0.00     0.010 A 
ATOM     46  C   UNL A   1      35.538  32.375  32.630  1.00  0.00     0.010 A 
ATOM     47  C   UNL A   1      36.733  33.082  32.583  1.00  0.00    -0.014 A 
BRANCH  47  48
ATOM     48  C   UNL A   1      37.963  32.393  32.307  1.00  0.00     0.031 A 
ATOM     49  C   UNL A   1      38.862  32.319  33.463  1.00  0.00     0.074 A 
ATOM     50  C   UNL A   1      38.244  31.865  31.104  1.00  0.00     0.049 A 
ATOM     51  N   UNL A   1      39.953  32.981  33.640  1.00  0.00    -0.248 NA
ATOM     52  C   UNL A   1      38.404  31.545  34.622  1.00  0.00     0.031 C 
ATOM     53  C   UNL A   1      37.348  31.622  29.972  1.00  0.00     0.029 A 
ATOM     54  N   UNL A   1      39.420  31.331  30.697  1.00  0.00    -0.354 N 
ATOM     55  C   UNL A   1      40.426  32.573  34.877  1.00  0.00     0.074 A 
ATOM     56  C   UNL A   1      39.358  31.834  35.505  1.00  0.00     0.031 C 
ATOM     57  C   UNL A   1      37.959  30.777  29.108  1.00  0.00     0.029 A 
ATOM     58  C   UNL A   1      39.321  30.543  29.565  1.00  0.00     0.049 A 
ATOM     59  H   UNL A   1      40.272  31.489  31.166  1.00  0.00     0.167 HD
ATOM     60  C   UNL A   1      41.744  32.658  35.190  1.00  0.00     0.031 A 
ATOM     61  C   UNL A   1      40.277  29.699  29.110  1.00  0.00     0.031 A 
ATOM     62  C   UNL A   1      42.462  33.530  34.295  1.00  0.00     0.049 A 
ATOM     63  C   UNL A   1      41.570  30.107  29.715  1.00  0.00     0.074 A 
ATOM     64  C   UNL A   1      42.367  34.866  33.961  1.00  0.00     0.029 A 
ATOM     65  N   UNL A   1      43.203  32.940  33.297  1.00  0.00    -0.354 N 
ATOM     66  N   UNL A   1      42.191  31.210  29.405  1.00  0.00    -0.248 NA
ATOM     67  C   UNL A   1      41.962  29.514  30.985  1.00  0.00     0.031 C 
ATOM     68  C   UNL A   1      42.654  34.921  32.564  1.00  0.00     0.029 A 
ATOM     69  C   UNL A   1      42.947  33.626  32.136  1.00  0.00     0.049 A 
ATOM     70  H   UNL A   1      43.805  32.169  33.397  1.00  0.00     0.167 HD
ATOM     71  C   UNL A   1      42.714  31.675  30.604  1.00  0.00     0.074 A 
ATOM     72  C   UNL A   1      42.640  30.537  31.516  1.00  0.00     0.031 C 
ATOM     73  C   UNL A   1      42.890  33.012  30.826  1.00  0.00     0.031 A 
BRANCH  60  74
ATOM     74  C   UNL A   1      42.431  31.632  36.044  1.00  0.00    -0.014 A 
ATOM     75  C   UNL A   1      43.158  32.061  37.163  1.00  0.00     0.009 A 
ATOM     76  C   UNL A   1      42.613  30.294  35.636  1.00  0.00     0.009 A 
ATOM     77  C   UNL A   1      44.062  31.209  37.806  1.00  0.00     0.001 A 
ATOM     78  C   UNL A   1      43.479  29.428  36.303  1.00  0.00     0.001 A 
ATOM     79  C   UNL A   1      44.224  29.895  37.374  1.00  0.00     0.000 A 
ENDBRANCH  60  74
BRANCH  61  80
ATOM     80  C   UNL A   1      40.091  28.402  28.430  1.00  0.00    -0.014 A 
ATOM     81  C   UNL A   1      40.666  28.163  27.174  1.00  0.00     0.009 A 
ATOM     82  C   UNL A   1      39.562  27.301  29.131  1.00  0.00     0.009 A 
ATOM     83  C   UNL A   1      40.744  26.863  26.657  1.00  0.00     0.001 A 
ATOM     84  C   UNL A   1      39.635  26.005  28.613  1.00  0.00     0.001 A 
ATOM     85  C   UNL A   1      40.240  25.785  27.381  1.00  0.00     0.000 A 
ENDBRANCH  61  80
BRANCH  73  86
ATOM     86  C   UNL A   1      42.727  33.949  29.653  1.00  0.00    -0.014 A 
ATOM     87  C   UNL A   1      41.543  34.670  29.412  1.00  0.00     0.009 A 
ATOM     88  C   UNL A   1      43.847  34.227  28.855  1.00  0.00     0.009 A 
ATOM     89  C   UNL A   1      41.473  35.612  28.380  1.00  0.00     0.001 A 
ATOM     90  C   UNL A   1      43.783  35.184  27.840  1.00  0.00     0.001 A 
ATOM     91  C   UNL A   1      42.596  35.872  27.598  1.00  0.00     0.000 A 
ENDBRANCH  73  86
ENDBRANCH  47  48
ENDBRANCH  40  42
ENDBRANCH  39  40
ENDBRANCH  38  39
ENDBRANCH  37  38
ENDBRANCH  36  37
ENDBRANCH  35  36
ENDBRANCH   1  35
TORSDOF 22
ENDMDL
MODEL 2
REMARK VINA RESULT:     -10.7      2.185      5.253
REMARK SMILES Cc1cnn(C2(C(=O)OCCOCCOCCOCCOC(=O)c3ccc(-c4c5nc(c(-c6ccccc6)c6ccc([nH]6)c(-c6ccccc6)c6nc(c(-c7ccccc7)c7ccc4[nH]7)C=C6)C=C5)cc3)CCN(C(=O)c3cc4ccccc4[nH]3)CC2)c1
REMARK SMILES IDX 16 1 15 2 14 3 13 4 12 5 11 6 10 7 9 8 7 9 8 10 6 11 72 12
REMARK SMILES IDX 87 13 73 14 86 15 74 16 75 17 76 18 5 19 1 20 2 21 3 22
REMARK SMILES IDX 88 23 4 24 77 25 78 26 85 27 79 28 84 29 80 31 83 32 81 33
REMARK SMILES IDX 82 34 17 35 18 36 19 37 20 38 21 39 22 40 23 41 24 42 25 43
REMARK SMILES IDX 71 44 26 45 70 46 27 47 28 48 29 49 64 50 30 51 69 52 63 53
REMARK SMILES IDX 65 54 31 55 68 56 62 57 61 58 32 60 54 61 39 62 53 63 40 64
REMARK SMILES IDX 43 65 52 66 66 67 41 68 42 69 51 71 67 72 44 73 33 74 34 75
REMARK SMILES IDX 38 76 35 77 37 78 36 79 55 80 56 81 60 82 57 83 59 84 58 85
REMARK SMILES IDX 45 86 46 87 50 88 47 89 49 90 48 91
REMARK H PARENT 85 30 65 59 43 70
REMARK Flexibility Score: inf
ROOT
ATOM      1  C   UNL A   1      33.651  31.182  27.581  1.00  0.00     0.188 C 
ENDROOT
BRANCH   1   2
ATOM      2  O   UNL A   1      32.752  30.113  27.322  1.00  0.00    -0.377 OA
BRANCH   2   3
ATOM      3  C   UNL A   1      32.320  30.001  25.979  1.00  0.00     0.188 C 
BRANCH   3   4
ATOM      4  C   UNL A   1      32.864  28.786  25.205  1.00  0.00     0.188 C 
BRANCH   4   5
ATOM      5  O   UNL A   1      33.239  28.930  23.844  1.00  0.00    -0.376 OA
BRANCH   5   6
ATOM      6  C   UNL A   1      33.740  27.802  23.145  1.00  0.00     0.202 C 
BRANCH   6   7
ATOM      7  C   UNL A   1      33.400  26.360  23.577  1.00  0.00     0.261 C 
BRANCH   7   8
ATOM      8  O   UNL A   1      34.485  25.524  24.030  1.00  0.00    -0.461 OA
BRANCH   8   9
ATOM      9  C   UNL A   1      34.443  24.216  23.654  1.00  0.00     0.334 C 
ATOM     10  O   UNL A   1      34.049  23.856  22.545  1.00  0.00    -0.249 OA
BRANCH   9  11
ATOM     11  C   UNL A   1      34.784  23.204  24.792  1.00  0.00     0.163 C 
ATOM     12  C   UNL A   1      35.236  21.785  24.355  1.00  0.00     0.064 C 
ATOM     13  C   UNL A   1      35.955  23.955  25.460  1.00  0.00     0.064 C 
ATOM     14  C   UNL A   1      36.099  21.043  25.369  1.00  0.00     0.123 C 
ATOM     15  C   UNL A   1      36.815  23.147  26.402  1.00  0.00     0.123 C 
ATOM     16  N   UNL A   1      37.199  21.864  25.829  1.00  0.00    -0.337 N 
ATOM     17  C   UNL A   1      38.508  21.395  25.683  1.00  0.00     0.270 C 
ATOM     18  O   UNL A   1      38.774  20.410  24.993  1.00  0.00    -0.267 OA
BRANCH  11  19
ATOM     19  N   UNL A   1      33.588  23.066  25.651  1.00  0.00    -0.255 N 
ATOM     20  C   UNL A   1      30.088  23.271  26.708  1.00  0.00     0.048 C 
ATOM     21  C   UNL A   1      31.547  23.154  26.507  1.00  0.00    -0.013 A 
ATOM     22  C   UNL A   1      32.527  22.949  27.492  1.00  0.00     0.138 A 
ATOM     23  C   UNL A   1      32.265  23.235  25.332  1.00  0.00     0.113 A 
ATOM     24  N   UNL A   1      33.755  22.979  26.987  1.00  0.00    -0.180 NA
ENDBRANCH  11  19
BRANCH  17  25
ATOM     25  C   UNL A   1      39.556  22.157  26.318  1.00  0.00     0.105 A 
ATOM     26  C   UNL A   1      40.166  23.343  25.949  1.00  0.00     0.042 A 
ATOM     27  N   UNL A   1      40.155  21.768  27.494  1.00  0.00    -0.351 N 
ATOM     28  C   UNL A   1      41.374  23.441  26.679  1.00  0.00     0.000 A 
ATOM     29  C   UNL A   1      41.331  22.463  27.670  1.00  0.00     0.046 A 
ATOM     30  H   UNL A   1      39.798  21.094  28.117  1.00  0.00     0.167 HD
ATOM     31  C   UNL A   1      42.515  24.251  26.559  1.00  0.00     0.010 A 
ATOM     32  C   UNL A   1      42.360  22.292  28.600  1.00  0.00     0.026 A 
ATOM     33  C   UNL A   1      43.576  24.060  27.448  1.00  0.00     0.001 A 
ATOM     34  C   UNL A   1      43.489  23.107  28.462  1.00  0.00     0.002 A 
ENDBRANCH  17  25
ENDBRANCH   9  11
ENDBRANCH   8   9
ENDBRANCH   7   8
ENDBRANCH   6   7
ENDBRANCH   5   6
ENDBRANCH   4   5
ENDBRANCH   3   4
ENDBRANCH   2   3
ENDBRANCH   1   2
BRANCH   1  35
ATOM     35  C   UNL A   1      33.069  32.613  27.665  1.00  0.00     0.188 C 
BRANCH  35  36
ATOM     36  O   UNL A   1      33.721  33.484  28.589  1.00  0.00    -0.376 OA
BRANCH  36  37
ATOM     37  C   UNL A   1      33.681  34.893  28.430  1.00  0.00     0.202 C 
BRANCH  37  38
ATOM     38  C   UNL A   1      33.363  35.713  29.682  1.00  0.00     0.261 C 
BRANCH  38  39
ATOM     39  O   UNL A   1      32.864  34.944  30.761  1.00  0.00    -0.460 OA
BRANCH  39  40
ATOM     40  C   UNL A   1      32.874  35.565  31.955  1.00  0.00     0.338 C 
ATOM     41  O   UNL A   1      32.210  36.525  32.300  1.00  0.00    -0.246 OA
BRANCH  40  42
ATOM     42  C   UNL A   1      33.926  34.969  32.778  1.00  0.00     0.060 A 
ATOM     43  C   UNL A   1      35.106  35.704  32.858  1.00  0.00     0.016 A 
ATOM     44  C   UNL A   1      33.855  33.601  33.083  1.00  0.00     0.016 A 
ATOM     45  C   UNL A   1      36.277  34.997  32.920  1.00  0.00     0.010 A 
ATOM     46  C   UNL A   1      35.027  32.895  33.131  1.00  0.00     0.010 A 
ATOM     47  C   UNL A   1      36.206  33.599  32.927  1.00  0.00    -0.014 A 
BRANCH  47  48
ATOM     48  C   UNL A   1      37.432  32.891  32.683  1.00  0.00     0.031 A 
ATOM     49  C   UNL A   1      38.343  32.890  33.832  1.00  0.00     0.074 A 
ATOM     50  C   UNL A   1      37.698  32.283  31.516  1.00  0.00     0.049 A 
ATOM     51  N   UNL A   1      39.438  33.560  33.954  1.00  0.00    -0.248 NA
ATOM     52  C   UNL A   1      37.896  32.197  35.045  1.00  0.00     0.031 C 
ATOM     53  C   UNL A   1      36.790  31.967  30.412  1.00  0.00     0.029 A 
ATOM     54  N   UNL A   1      38.869  31.719  31.132  1.00  0.00    -0.354 N 
ATOM     55  C   UNL A   1      39.923  33.233  35.210  1.00  0.00     0.074 A 
ATOM     56  C   UNL A   1      38.860  32.540  35.896  1.00  0.00     0.031 C 
ATOM     57  C   UNL A   1      37.390  31.065  29.600  1.00  0.00     0.029 A 
ATOM     58  C   UNL A   1      38.756  30.858  30.056  1.00  0.00     0.049 A 
ATOM     59  H   UNL A   1      39.726  31.905  31.580  1.00  0.00     0.167 HD
ATOM     60  C   UNL A   1      41.244  33.335  35.502  1.00  0.00     0.031 A 
ATOM     61  C   UNL A   1      39.705  29.983  29.648  1.00  0.00     0.031 A 
ATOM     62  C   UNL A   1      41.954  34.143  34.544  1.00  0.00     0.049 A 
ATOM     63  C   UNL A   1      41.005  30.427  30.211  1.00  0.00     0.074 A 
ATOM     64  C   UNL A   1      41.859  35.455  34.122  1.00  0.00     0.029 A 
ATOM     65  N   UNL A   1      42.683  33.487  33.579  1.00  0.00    -0.354 N 
ATOM     66  N   UNL A   1      41.625  31.504  29.822  1.00  0.00    -0.248 NA
ATOM     67  C   UNL A   1      41.410  29.918  31.513  1.00  0.00     0.031 C 
ATOM     68  C   UNL A   1      42.130  35.416  32.722  1.00  0.00     0.029 A 
ATOM     69  C   UNL A   1      42.416  34.094  32.378  1.00  0.00     0.049 A 
ATOM     70  H   UNL A   1      43.285  32.722  33.724  1.00  0.00     0.167 HD
ATOM     71  C   UNL A   1      42.162  32.047  30.981  1.00  0.00     0.074 A 
ATOM     72  C   UNL A   1      42.096  30.972  31.968  1.00  0.00     0.031 C 
ATOM     73  C   UNL A   1      42.343  33.395  31.112  1.00  0.00     0.031 A 
BRANCH  60  74
ATOM     74  C   UNL A   1      41.939  32.366  36.415  1.00  0.00    -0.014 A 
ATOM     75  C   UNL A   1      42.648  32.865  37.517  1.00  0.00     0.009 A 
ATOM     76  C   UNL A   1      42.145  31.012  36.080  1.00  0.00     0.009 A 
ATOM     77  C   UNL A   1      43.558  32.061  38.212  1.00  0.00     0.001 A 
ATOM     78  C   UNL A   1      43.017  30.195  36.799  1.00  0.00     0.001 A 
ATOM     79  C   UNL A   1      43.744  30.730  37.850  1.00  0.00     0.000 A 
ENDBRANCH  60  74
BRANCH  61  80
ATOM     80  C   UNL A   1      39.509  28.644  29.058  1.00  0.00    -0.014 A 
ATOM     81  C   UNL A   1      40.064  28.322  27.812  1.00  0.00     0.009 A 
ATOM     82  C   UNL A   1      38.991  27.592  29.838  1.00  0.00     0.009 A 
ATOM     83  C   UNL A   1      40.134  26.991  27.380  1.00  0.00     0.001 A 
ATOM     84  C   UNL A   1      39.056  26.265  29.405  1.00  0.00     0.001 A 
ATOM     85  C   UNL A   1      39.642  25.964  28.182  1.00  0.00     0.000 A 
ENDBRANCH  61  80
BRANCH  73  86
ATOM     86  C   UNL A   1      42.170  34.252  29.881  1.00  0.00    -0.014 A 
ATOM     87  C   UNL A   1      40.925  34.777  29.487  1.00  0.00     0.009 A 
ATOM     88  C   UNL A   1      43.315  34.667  29.185  1.00  0.00     0.009 A 
ATOM     89  C   UNL A   1      40.827  35.659  28.405  1.00  0.00     0.001 A 
ATOM     90  C   UNL A   1      43.219  35.566  28.119  1.00  0.00     0.001 A 
ATOM     91  C   UNL A   1      41.977  36.057  27.726  1.00  0.00     0.000 A 
ENDBRANCH  73  86
ENDBRANCH  47  48
ENDBRANCH  40  42
ENDBRANCH  39  40
ENDBRANCH  38  39
ENDBRANCH  37  38
ENDBRANCH  36  37
ENDBRANCH  35  36
ENDBRANCH   1  35
TORSDOF 22
ENDMDL
MODEL 3
REMARK VINA RESULT:     -10.4      2.558      5.597
REMARK SMILES Cc1cnn(C2(C(=O)OCCOCCOCCOCCOC(=O)c3ccc(-c4c5nc(c(-c6ccccc6)c6ccc([nH]6)c(-c6ccccc6)c6nc(c(-c7ccccc7)c7ccc4[nH]7)C=C6)C=C5)cc3)CCN(C(=O)c3cc4ccccc4[nH]3)CC2)c1
REMARK SMILES IDX 16 1 15 2 14 3 13 4 12 5 11 6 10 7 9 8 7 9 8 10 6 11 72 12
REMARK SMILES IDX 87 13 73 14 86 15 74 16 75 17 76 18 5 19 1 20 2 21 3 22
REMARK SMILES IDX 88 23 4 24 77 25 78 26 85 27 79 28 84 29 80 31 83 32 81 33
REMARK SMILES IDX 82 34 17 35 18 36 19 37 20 38 21 39 22 40 23 41 24 42 25 43
REMARK SMILES IDX 71 44 26 45 70 46 27 47 28 48 29 49 64 50 30 51 69 52 63 53
REMARK SMILES IDX 65 54 31 55 68 56 62 57 61 58 32 60 54 61 39 62 53 63 40 64
REMARK SMILES IDX 43 65 52 66 66 67 41 68 42 69 51 71 67 72 44 73 33 74 34 75
REMARK SMILES IDX 38 76 35 77 37 78 36 79 55 80 56 81 60 82 57 83 59 84 58 85
REMARK SMILES IDX 45 86 46 87 50 88 47 89 49 90 48 91
REMARK H PARENT 85 30 65 59 43 70
REMARK Flexibility Score: inf
ROOT
ATOM      1  C   UNL A   1      34.948  29.933  27.314  1.00  0.00     0.188 C 
ENDROOT
BRANCH   1   2
ATOM      2  O   UNL A   1      34.730  28.596  26.885  1.00  0.00    -0.377 OA
BRANCH   2   3
ATOM      3  C   UNL A   1      33.423  28.316  26.420  1.00  0.00     0.188 C 
BRANCH   3   4
ATOM      4  C   UNL A   1      33.341  27.597  25.062  1.00  0.00     0.188 C 
BRANCH   4   5
ATOM      5  O   UNL A   1      33.672  28.298  23.872  1.00  0.00    -0.376 OA
BRANCH   5   6
ATOM      6  C   UNL A   1      33.680  27.596  22.639  1.00  0.00     0.202 C 
BRANCH   6   7
ATOM      7  C   UNL A   1      33.396  26.081  22.562  1.00  0.00     0.261 C 
BRANCH   7   8
ATOM      8  O   UNL A   1      34.519  25.184  22.689  1.00  0.00    -0.461 OA
BRANCH   8   9
ATOM      9  C   UNL A   1      34.229  23.855  22.760  1.00  0.00     0.334 C 
ATOM     10  O   UNL A   1      33.658  23.250  21.852  1.00  0.00    -0.249 OA
BRANCH   9  11
ATOM     11  C   UNL A   1      34.538  23.199  24.141  1.00  0.00     0.163 C 
ATOM     12  C   UNL A   1      35.387  21.899  24.125  1.00  0.00     0.064 C 
ATOM     13  C   UNL A   1      35.332  24.346  24.799  1.00  0.00     0.064 C 
ATOM     14  C   UNL A   1      36.156  21.616  25.410  1.00  0.00     0.123 C 
ATOM     15  C   UNL A   1      36.129  23.987  26.030  1.00  0.00     0.123 C 
ATOM     16  N   UNL A   1      36.911  22.772  25.841  1.00  0.00    -0.337 N 
ATOM     17  C   UNL A   1      38.293  22.656  26.023  1.00  0.00     0.270 C 
ATOM     18  O   UNL A   1      38.920  21.670  25.633  1.00  0.00    -0.267 OA
BRANCH  11  19
ATOM     19  N   UNL A   1      33.249  22.902  24.801  1.00  0.00    -0.255 N 
ATOM     20  C   UNL A   1      30.301  23.364  26.925  1.00  0.00     0.048 C 
ATOM     21  C   UNL A   1      31.431  22.952  26.066  1.00  0.00    -0.013 A 
ATOM     22  C   UNL A   1      31.738  21.653  25.631  1.00  0.00     0.138 A 
ATOM     23  C   UNL A   1      32.430  23.733  25.522  1.00  0.00     0.113 A 
ATOM     24  N   UNL A   1      32.873  21.614  24.942  1.00  0.00    -0.180 NA
ENDBRANCH  11  19
BRANCH  17  25
ATOM     25  C   UNL A   1      38.975  23.774  26.626  1.00  0.00     0.105 A 
ATOM     26  C   UNL A   1      38.868  24.327  27.891  1.00  0.00     0.042 A 
ATOM     27  N   UNL A   1      39.919  24.523  25.960  1.00  0.00    -0.351 N 
ATOM     28  C   UNL A   1      39.442  25.620  27.836  1.00  0.00     0.000 A 
ATOM     29  C   UNL A   1      40.128  25.709  26.627  1.00  0.00     0.046 A 
ATOM     30  H   UNL A   1      40.376  24.252  25.131  1.00  0.00     0.167 HD
ATOM     31  C   UNL A   1      39.404  26.733  28.692  1.00  0.00     0.010 A 
ATOM     32  C   UNL A   1      40.841  26.851  26.253  1.00  0.00     0.026 A 
ATOM     33  C   UNL A   1      40.069  27.901  28.310  1.00  0.00     0.001 A 
ATOM     34  C   UNL A   1      40.791  27.950  27.118  1.00  0.00     0.002 A 
ENDBRANCH  17  25
ENDBRANCH   9  11
ENDBRANCH   8   9
ENDBRANCH   7   8
ENDBRANCH   6   7
ENDBRANCH   5   6
ENDBRANCH   4   5
ENDBRANCH   3   4
ENDBRANCH   2   3
ENDBRANCH   1   2
BRANCH   1  35
ATOM     35  C   UNL A   1      33.736  30.895  27.325  1.00  0.00     0.188 C 
BRANCH  35  36
ATOM     36  O   UNL A   1      34.060  32.284  27.348  1.00  0.00    -0.376 OA
BRANCH  36  37
ATOM     37  C   UNL A   1      33.117  33.256  27.767  1.00  0.00     0.202 C 
BRANCH  37  38
ATOM     38  C   UNL A   1      33.675  34.484  28.488  1.00  0.00     0.261 C 
BRANCH  38  39
ATOM     39  O   UNL A   1      34.815  34.215  29.284  1.00  0.00    -0.460 OA
BRANCH  39  40
ATOM     40  C   UNL A   1      34.558  33.629  30.467  1.00  0.00     0.338 C 
ATOM     41  O   UNL A   1      33.766  33.986  31.319  1.00  0.00    -0.246 OA
BRANCH  40  42
ATOM     42  C   UNL A   1      35.489  32.515  30.644  1.00  0.00     0.060 A 
ATOM     43  C   UNL A   1      35.568  32.004  31.937  1.00  0.00     0.016 A 
ATOM     44  C   UNL A   1      36.484  32.303  29.676  1.00  0.00     0.016 A 
ATOM     45  C   UNL A   1      36.794  31.566  32.361  1.00  0.00     0.010 A 
ATOM     46  C   UNL A   1      37.713  31.878  30.106  1.00  0.00     0.010 A 
ATOM     47  C   UNL A   1      37.867  31.636  31.464  1.00  0.00    -0.014 A 
BRANCH  47  48
ATOM     48  C   UNL A   1      39.181  31.465  32.018  1.00  0.00     0.031 A 
ATOM     49  C   UNL A   1      39.735  32.695  32.594  1.00  0.00     0.074 A 
ATOM     50  C   UNL A   1      39.823  30.286  32.012  1.00  0.00     0.049 A 
ATOM     51  N   UNL A   1      40.674  33.427  32.101  1.00  0.00    -0.248 NA
ATOM     52  C   UNL A   1      39.049  33.260  33.761  1.00  0.00     0.031 C 
ATOM     53  C   UNL A   1      39.294  28.949  31.736  1.00  0.00     0.029 A 
ATOM     54  N   UNL A   1      41.109  30.049  32.370  1.00  0.00    -0.354 N 
ATOM     55  C   UNL A   1      40.827  34.471  32.999  1.00  0.00     0.074 A 
ATOM     56  C   UNL A   1      39.698  34.414  33.895  1.00  0.00     0.031 C 
ATOM     57  C   UNL A   1      40.189  28.030  32.168  1.00  0.00     0.029 A 
ATOM     58  C   UNL A   1      41.390  28.718  32.616  1.00  0.00     0.049 A 
ATOM     59  H   UNL A   1      41.783  30.762  32.448  1.00  0.00     0.167 HD
ATOM     60  C   UNL A   1      41.998  35.151  33.096  1.00  0.00     0.031 A 
ATOM     61  C   UNL A   1      42.504  28.252  33.229  1.00  0.00     0.031 A 
ATOM     62  C   UNL A   1      42.852  34.930  31.957  1.00  0.00     0.049 A 
ATOM     63  C   UNL A   1      43.543  29.310  33.150  1.00  0.00     0.074 A 
ATOM     64  C   UNL A   1      42.735  35.154  30.600  1.00  0.00     0.029 A 
ATOM     65  N   UNL A   1      43.886  34.034  32.106  1.00  0.00    -0.354 N 
ATOM     66  N   UNL A   1      44.126  29.663  32.040  1.00  0.00    -0.248 NA
ATOM     67  C   UNL A   1      43.625  30.285  34.228  1.00  0.00     0.031 C 
ATOM     68  C   UNL A   1      43.384  34.044  29.983  1.00  0.00     0.029 A 
ATOM     69  C   UNL A   1      43.896  33.230  30.995  1.00  0.00     0.049 A 
ATOM     70  H   UNL A   1      44.503  33.979  32.870  1.00  0.00     0.167 HD
ATOM     71  C   UNL A   1      44.260  31.042  32.129  1.00  0.00     0.074 A 
ATOM     72  C   UNL A   1      44.042  31.353  33.539  1.00  0.00     0.031 C 
ATOM     73  C   UNL A   1      44.251  31.826  31.010  1.00  0.00     0.031 A 
BRANCH  60  74
ATOM     74  C   UNL A   1      42.514  35.673  34.405  1.00  0.00    -0.014 A 
ATOM     75  C   UNL A   1      42.674  37.056  34.566  1.00  0.00     0.009 A 
ATOM     76  C   UNL A   1      43.101  34.842  35.383  1.00  0.00     0.009 A 
ATOM     77  C   UNL A   1      43.430  37.577  35.622  1.00  0.00     0.001 A 
ATOM     78  C   UNL A   1      43.816  35.360  36.463  1.00  0.00     0.001 A 
ATOM     79  C   UNL A   1      44.002  36.729  36.566  1.00  0.00     0.000 A 
ENDBRANCH  60  74
BRANCH  61  80
ATOM     80  C   UNL A   1      42.624  27.083  34.122  1.00  0.00    -0.014 A 
ATOM     81  C   UNL A   1      41.636  26.808  35.078  1.00  0.00     0.009 A 
ATOM     82  C   UNL A   1      43.583  26.086  33.862  1.00  0.00     0.009 A 
ATOM     83  C   UNL A   1      41.588  25.565  35.722  1.00  0.00     0.001 A 
ATOM     84  C   UNL A   1      43.539  24.847  34.509  1.00  0.00     0.001 A 
ATOM     85  C   UNL A   1      42.531  24.582  35.428  1.00  0.00     0.000 A 
ENDBRANCH  61  80
BRANCH  73  86
ATOM     86  C   UNL A   1      44.331  31.139  29.668  1.00  0.00    -0.014 A 
ATOM     87  C   UNL A   1      43.191  30.738  28.947  1.00  0.00     0.009 A 
ATOM     88  C   UNL A   1      45.583  31.030  29.043  1.00  0.00     0.009 A 
ATOM     89  C   UNL A   1      43.306  30.209  27.657  1.00  0.00     0.001 A 
ATOM     90  C   UNL A   1      45.695  30.523  27.746  1.00  0.00     0.001 A 
ATOM     91  C   UNL A   1      44.559  30.107  27.056  1.00  0.00     0.000 A 
ENDBRANCH  73  86
ENDBRANCH  47  48
ENDBRANCH  40  42
ENDBRANCH  39  40
ENDBRANCH  38  39
ENDBRANCH  37  38
ENDBRANCH  36  37
ENDBRANCH  35  36
ENDBRANCH   1  35
TORSDOF 22
ENDMDL
