MODEL 1
REMARK VINA RESULT:      -8.7      0.000      0.000
REMARK SMILES C[C@@H]([NH3+])CCC(=O)N[C@H]1C=C[C@@H](C(=O)OCCOCCOCCOCCOC(=O)c2ccc(-c3c4nc(c(-c5ccccc5)c5ccc([nH]5)c(-c5ccccc5)c5nc(c(-c6ccccc6)c6ccc3[nH]6)C=C5)C=C4)cc2)C1
REMARK SMILES IDX 19 1 18 2 17 3 16 4 15 5 13 6 14 7 12 8 9 9 10 10 78 11
REMARK SMILES IDX 11 12 8 13 6 14 7 15 5 17 4 18 2 19 1 20 3 21 20 25 21 26
REMARK SMILES IDX 22 27 23 28 24 29 25 30 26 31 27 32 28 33 29 34 30 35 31 36
REMARK SMILES IDX 77 37 32 38 76 39 33 40 34 41 35 42 70 43 36 44 75 45 69 46
REMARK SMILES IDX 71 47 37 48 74 49 68 50 67 51 38 53 60 54 45 55 59 56 46 57
REMARK SMILES IDX 49 58 58 59 72 60 47 61 48 62 57 64 73 65 50 66 39 67 40 68
REMARK SMILES IDX 44 69 41 70 43 71 42 72 61 73 62 74 66 75 63 76 65 77 64 78
REMARK SMILES IDX 51 79 52 80 56 81 53 82 55 83 54 84
REMARK H PARENT 8 16 3 22 3 23 3 24 71 52 49 63
REMARK Flexibility Score: inf
ROOT
ATOM      1  C   UNL A   1      33.547  29.799  27.289  1.00  0.00     0.188 C 
ENDROOT
BRANCH   1   2
ATOM      2  O   UNL A   1      33.072  29.409  26.025  1.00  0.00    -0.376 OA
BRANCH   2   3
ATOM      3  C   UNL A   1      33.823  28.521  25.216  1.00  0.00     0.202 C 
BRANCH   3   4
ATOM      4  C   UNL A   1      33.267  27.220  24.608  1.00  0.00     0.261 C 
BRANCH   4   5
ATOM      5  O   UNL A   1      32.768  26.190  25.508  1.00  0.00    -0.463 OA
BRANCH   5   6
ATOM      6  C   UNL A   1      33.154  24.922  25.201  1.00  0.00     0.312 C 
ATOM      7  O   UNL A   1      32.439  23.942  25.414  1.00  0.00    -0.252 OA
BRANCH   6   8
ATOM      8  C   UNL A   1      34.596  24.738  24.671  1.00  0.00     0.124 C 
ATOM      9  C   UNL A   1      36.293  22.933  24.376  1.00  0.00     0.106 C 
ATOM     10  C   UNL A   1      35.367  22.998  23.221  1.00  0.00    -0.006 C 
ATOM     11  C   UNL A   1      35.729  23.972  25.402  1.00  0.00     0.048 C 
ATOM     12  C   UNL A   1      34.505  24.016  23.347  1.00  0.00    -0.014 C 
BRANCH   9  13
ATOM     13  N   UNL A   1      36.846  21.590  24.687  1.00  0.00    -0.350 N 
ATOM     14  C   UNL A   1      36.697  20.258  24.846  1.00  0.00     0.220 C 
ATOM     15  O   UNL A   1      37.785  19.686  25.051  1.00  0.00    -0.275 OA
ATOM     16  H   UNL A   1      37.801  21.752  24.865  1.00  0.00     0.164 HD
BRANCH  14  17
ATOM     17  C   UNL A   1      35.484  19.338  24.741  1.00  0.00     0.106 C 
BRANCH  17  18
ATOM     18  C   UNL A   1      34.121  19.916  25.056  1.00  0.00     0.074 C 
BRANCH  18  19
ATOM     19  C   UNL A   1      33.123  18.800  25.116  1.00  0.00     0.178 C 
ATOM     20  C   UNL A   1      33.530  17.567  24.320  1.00  0.00     0.075 C 
BRANCH  19  21
ATOM     21  N   UNL A   1      32.825  18.485  26.490  1.00  0.00    -0.355 N 
ATOM     22  H   UNL A   1      31.970  17.931  26.534  1.00  0.00     0.344 HD
ATOM     23  H   UNL A   1      32.696  19.349  27.018  1.00  0.00     0.344 HD
ATOM     24  H   UNL A   1      33.596  17.954  26.893  1.00  0.00     0.344 HD
ENDBRANCH  19  21
ENDBRANCH  18  19
ENDBRANCH  17  18
ENDBRANCH  14  17
ENDBRANCH   9  13
ENDBRANCH   6   8
ENDBRANCH   5   6
ENDBRANCH   4   5
ENDBRANCH   3   4
ENDBRANCH   2   3
ENDBRANCH   1   2
BRANCH   1  25
ATOM     25  C   UNL A   1      33.792  31.287  27.587  1.00  0.00     0.188 C 
BRANCH  25  26
ATOM     26  O   UNL A   1      35.030  31.787  28.064  1.00  0.00    -0.377 OA
BRANCH  26  27
ATOM     27  C   UNL A   1      35.079  32.620  29.215  1.00  0.00     0.188 C 
BRANCH  27  28
ATOM     28  C   UNL A   1      35.118  34.138  29.031  1.00  0.00     0.188 C 
BRANCH  28  29
ATOM     29  O   UNL A   1      34.273  34.614  27.999  1.00  0.00    -0.376 OA
BRANCH  29  30
ATOM     30  C   UNL A   1      33.257  35.531  28.404  1.00  0.00     0.202 C 
BRANCH  30  31
ATOM     31  C   UNL A   1      33.290  36.050  29.857  1.00  0.00     0.261 C 
BRANCH  31  32
ATOM     32  O   UNL A   1      32.591  35.254  30.832  1.00  0.00    -0.460 OA
BRANCH  32  33
ATOM     33  C   UNL A   1      32.686  35.635  32.116  1.00  0.00     0.338 C 
ATOM     34  O   UNL A   1      31.885  36.317  32.752  1.00  0.00    -0.246 OA
BRANCH  33  35
ATOM     35  C   UNL A   1      33.859  34.984  32.712  1.00  0.00     0.060 A 
ATOM     36  C   UNL A   1      35.102  35.621  32.626  1.00  0.00     0.016 A 
ATOM     37  C   UNL A   1      33.746  33.718  33.294  1.00  0.00     0.016 A 
ATOM     38  C   UNL A   1      36.248  34.974  33.083  1.00  0.00     0.010 A 
ATOM     39  C   UNL A   1      34.899  33.061  33.731  1.00  0.00     0.010 A 
ATOM     40  C   UNL A   1      36.159  33.671  33.590  1.00  0.00    -0.014 A 
BRANCH  40  41
ATOM     41  C   UNL A   1      37.399  32.877  33.760  1.00  0.00     0.031 A 
ATOM     42  C   UNL A   1      38.205  33.077  35.015  1.00  0.00     0.074 A 
ATOM     43  C   UNL A   1      37.781  31.969  32.846  1.00  0.00     0.049 A 
ATOM     44  N   UNL A   1      39.328  32.515  35.380  1.00  0.00    -0.248 NA
ATOM     45  C   UNL A   1      37.667  34.038  35.994  1.00  0.00     0.031 C 
ATOM     46  C   UNL A   1      37.051  31.636  31.623  1.00  0.00     0.029 A 
ATOM     47  N   UNL A   1      38.886  31.157  32.812  1.00  0.00    -0.354 N 
ATOM     48  C   UNL A   1      39.638  33.063  36.618  1.00  0.00     0.074 A 
ATOM     49  C   UNL A   1      38.597  34.015  36.936  1.00  0.00     0.031 C 
ATOM     50  C   UNL A   1      37.736  30.692  30.954  1.00  0.00     0.029 A 
ATOM     51  C   UNL A   1      38.967  30.384  31.681  1.00  0.00     0.049 A 
ATOM     52  H   UNL A   1      39.559  31.133  33.531  1.00  0.00     0.167 HD
ATOM     53  C   UNL A   1      40.696  32.800  37.420  1.00  0.00     0.031 A 
ATOM     54  C   UNL A   1      39.937  29.543  31.271  1.00  0.00     0.031 A 
ATOM     55  C   UNL A   1      41.738  31.862  37.098  1.00  0.00     0.049 A 
ATOM     56  C   UNL A   1      41.154  29.342  32.139  1.00  0.00     0.074 A 
ATOM     57  C   UNL A   1      42.843  31.509  37.853  1.00  0.00     0.029 A 
ATOM     58  N   UNL A   1      41.811  31.141  35.917  1.00  0.00    -0.354 N 
ATOM     59  N   UNL A   1      41.420  29.839  33.324  1.00  0.00    -0.248 NA
ATOM     60  C   UNL A   1      42.203  28.458  31.612  1.00  0.00     0.031 C 
ATOM     61  C   UNL A   1      43.622  30.629  37.097  1.00  0.00     0.029 A 
ATOM     62  C   UNL A   1      42.964  30.375  35.905  1.00  0.00     0.049 A 
ATOM     63  H   UNL A   1      41.143  31.169  35.194  1.00  0.00     0.167 HD
ATOM     64  C   UNL A   1      42.647  29.298  33.697  1.00  0.00     0.074 A 
ATOM     65  C   UNL A   1      43.064  28.425  32.620  1.00  0.00     0.031 C 
ATOM     66  C   UNL A   1      43.362  29.504  34.829  1.00  0.00     0.031 A 
BRANCH  53  67
ATOM     67  C   UNL A   1      40.810  33.576  38.702  1.00  0.00    -0.014 A 
ATOM     68  C   UNL A   1      40.253  33.107  39.902  1.00  0.00     0.009 A 
ATOM     69  C   UNL A   1      41.526  34.784  38.714  1.00  0.00     0.009 A 
ATOM     70  C   UNL A   1      40.386  33.847  41.079  1.00  0.00     0.001 A 
ATOM     71  C   UNL A   1      41.684  35.506  39.897  1.00  0.00     0.001 A 
ATOM     72  C   UNL A   1      41.107  35.041  41.077  1.00  0.00     0.000 A 
ENDBRANCH  53  67
BRANCH  54  73
ATOM     73  C   UNL A   1      39.830  28.846  29.960  1.00  0.00    -0.014 A 
ATOM     74  C   UNL A   1      39.280  27.557  29.873  1.00  0.00     0.009 A 
ATOM     75  C   UNL A   1      40.328  29.448  28.793  1.00  0.00     0.009 A 
ATOM     76  C   UNL A   1      39.266  26.873  28.655  1.00  0.00     0.001 A 
ATOM     77  C   UNL A   1      40.281  28.775  27.570  1.00  0.00     0.001 A 
ATOM     78  C   UNL A   1      39.764  27.483  27.504  1.00  0.00     0.000 A 
ENDBRANCH  54  73
BRANCH  66  79
ATOM     79  C   UNL A   1      44.646  28.735  34.989  1.00  0.00    -0.014 A 
ATOM     80  C   UNL A   1      44.698  27.534  35.712  1.00  0.00     0.009 A 
ATOM     81  C   UNL A   1      45.812  29.201  34.360  1.00  0.00     0.009 A 
ATOM     82  C   UNL A   1      45.902  26.834  35.833  1.00  0.00     0.001 A 
ATOM     83  C   UNL A   1      47.005  28.481  34.452  1.00  0.00     0.001 A 
ATOM     84  C   UNL A   1      47.051  27.305  35.197  1.00  0.00     0.000 A 
ENDBRANCH  66  79
ENDBRANCH  40  41
ENDBRANCH  33  35
ENDBRANCH  32  33
ENDBRANCH  31  32
ENDBRANCH  30  31
ENDBRANCH  29  30
ENDBRANCH  28  29
ENDBRANCH  27  28
ENDBRANCH  26  27
ENDBRANCH  25  26
ENDBRANCH   1  25
TORSDOF 25
ENDMDL
MODEL 2
REMARK VINA RESULT:      -8.3      4.667     10.982
REMARK SMILES C[C@@H]([NH3+])CCC(=O)N[C@H]1C=C[C@@H](C(=O)OCCOCCOCCOCCOC(=O)c2ccc(-c3c4nc(c(-c5ccccc5)c5ccc([nH]5)c(-c5ccccc5)c5nc(c(-c6ccccc6)c6ccc3[nH]6)C=C5)C=C4)cc2)C1
REMARK SMILES IDX 19 1 18 2 17 3 16 4 15 5 13 6 14 7 12 8 9 9 10 10 78 11
REMARK SMILES IDX 11 12 8 13 6 14 7 15 5 17 4 18 2 19 1 20 3 21 20 25 21 26
REMARK SMILES IDX 22 27 23 28 24 29 25 30 26 31 27 32 28 33 29 34 30 35 31 36
REMARK SMILES IDX 77 37 32 38 76 39 33 40 34 41 35 42 70 43 36 44 75 45 69 46
REMARK SMILES IDX 71 47 37 48 74 49 68 50 67 51 38 53 60 54 45 55 59 56 46 57
REMARK SMILES IDX 49 58 58 59 72 60 47 61 48 62 57 64 73 65 50 66 39 67 40 68
REMARK SMILES IDX 44 69 41 70 43 71 42 72 61 73 62 74 66 75 63 76 65 77 64 78
REMARK SMILES IDX 51 79 52 80 56 81 53 82 55 83 54 84
REMARK H PARENT 8 16 3 22 3 23 3 24 71 52 49 63
REMARK Flexibility Score: inf
ROOT
ATOM      1  C   UNL A   1      31.714  29.526  25.346  1.00  0.00     0.188 C 
ENDROOT
BRANCH   1   2
ATOM      2  O   UNL A   1      32.077  29.617  26.701  1.00  0.00    -0.376 OA
BRANCH   2   3
ATOM      3  C   UNL A   1      33.375  30.048  27.071  1.00  0.00     0.202 C 
BRANCH   3   4
ATOM      4  C   UNL A   1      34.554  29.101  27.362  1.00  0.00     0.261 C 
BRANCH   4   5
ATOM      5  O   UNL A   1      35.486  29.457  28.423  1.00  0.00    -0.463 OA
BRANCH   5   6
ATOM      6  C   UNL A   1      36.449  30.350  28.066  1.00  0.00     0.312 C 
ATOM      7  O   UNL A   1      37.275  30.118  27.183  1.00  0.00    -0.252 OA
BRANCH   6   8
ATOM      8  C   UNL A   1      36.542  31.649  28.902  1.00  0.00     0.124 C 
ATOM      9  C   UNL A   1      35.137  33.622  29.506  1.00  0.00     0.106 C 
ATOM     10  C   UNL A   1      34.893  32.483  30.423  1.00  0.00    -0.006 C 
ATOM     11  C   UNL A   1      36.113  33.060  28.418  1.00  0.00     0.048 C 
ATOM     12  C   UNL A   1      35.703  31.452  30.143  1.00  0.00    -0.014 C 
BRANCH   9  13
ATOM     13  N   UNL A   1      33.983  34.528  29.279  1.00  0.00    -0.350 N 
ATOM     14  C   UNL A   1      33.165  35.524  29.679  1.00  0.00     0.220 C 
ATOM     15  O   UNL A   1      32.357  35.853  28.789  1.00  0.00    -0.275 OA
ATOM     16  H   UNL A   1      33.643  34.275  28.389  1.00  0.00     0.164 HD
BRANCH  14  17
ATOM     17  C   UNL A   1      33.105  36.356  30.957  1.00  0.00     0.106 C 
BRANCH  17  18
ATOM     18  C   UNL A   1      32.628  35.683  32.225  1.00  0.00     0.074 C 
BRANCH  18  19
ATOM     19  C   UNL A   1      33.717  34.793  32.742  1.00  0.00     0.178 C 
ATOM     20  C   UNL A   1      34.726  35.510  33.631  1.00  0.00     0.075 C 
BRANCH  19  21
ATOM     21  N   UNL A   1      33.141  33.644  33.393  1.00  0.00    -0.355 N 
ATOM     22  H   UNL A   1      33.558  33.531  34.316  1.00  0.00     0.344 HD
ATOM     23  H   UNL A   1      33.324  32.810  32.834  1.00  0.00     0.344 HD
ATOM     24  H   UNL A   1      32.134  33.775  33.488  1.00  0.00     0.344 HD
ENDBRANCH  19  21
ENDBRANCH  18  19
ENDBRANCH  17  18
ENDBRANCH  14  17
ENDBRANCH   9  13
ENDBRANCH   6   8
ENDBRANCH   5   6
ENDBRANCH   4   5
ENDBRANCH   3   4
ENDBRANCH   2   3
ENDBRANCH   1   2
BRANCH   1  25
ATOM     25  C   UNL A   1      31.931  28.208  24.585  1.00  0.00     0.188 C 
BRANCH  25  26
ATOM     26  O   UNL A   1      33.118  27.441  24.688  1.00  0.00    -0.377 OA
BRANCH  26  27
ATOM     27  C   UNL A   1      33.130  26.222  25.420  1.00  0.00     0.188 C 
BRANCH  27  28
ATOM     28  C   UNL A   1      34.438  25.437  25.532  1.00  0.00     0.188 C 
BRANCH  28  29
ATOM     29  O   UNL A   1      34.662  24.538  24.461  1.00  0.00    -0.376 OA
BRANCH  29  30
ATOM     30  C   UNL A   1      35.854  23.757  24.547  1.00  0.00     0.202 C 
BRANCH  30  31
ATOM     31  C   UNL A   1      36.564  23.671  25.914  1.00  0.00     0.261 C 
BRANCH  31  32
ATOM     32  O   UNL A   1      37.818  24.368  26.023  1.00  0.00    -0.460 OA
BRANCH  32  33
ATOM     33  C   UNL A   1      38.866  23.675  26.498  1.00  0.00     0.338 C 
ATOM     34  O   UNL A   1      38.994  22.454  26.538  1.00  0.00    -0.246 OA
BRANCH  33  35
ATOM     35  C   UNL A   1      39.932  24.621  26.852  1.00  0.00     0.060 A 
ATOM     36  C   UNL A   1      40.416  24.633  28.165  1.00  0.00     0.016 A 
ATOM     37  C   UNL A   1      40.404  25.538  25.910  1.00  0.00     0.016 A 
ATOM     38  C   UNL A   1      41.346  25.595  28.555  1.00  0.00     0.010 A 
ATOM     39  C   UNL A   1      41.320  26.517  26.307  1.00  0.00     0.010 A 
ATOM     40  C   UNL A   1      41.762  26.573  27.642  1.00  0.00    -0.014 A 
BRANCH  40  41
ATOM     41  C   UNL A   1      42.479  27.768  28.143  1.00  0.00     0.031 A 
ATOM     42  C   UNL A   1      43.978  27.808  28.011  1.00  0.00     0.074 A 
ATOM     43  C   UNL A   1      41.817  28.815  28.666  1.00  0.00     0.049 A 
ATOM     44  N   UNL A   1      44.823  28.732  28.389  1.00  0.00    -0.248 NA
ATOM     45  C   UNL A   1      44.608  26.647  27.356  1.00  0.00     0.031 C 
ATOM     46  C   UNL A   1      40.365  28.926  28.788  1.00  0.00     0.029 A 
ATOM     47  N   UNL A   1      42.292  29.990  29.192  1.00  0.00    -0.354 N 
ATOM     48  C   UNL A   1      46.080  28.260  28.034  1.00  0.00     0.074 A 
ATOM     49  C   UNL A   1      45.893  26.961  27.428  1.00  0.00     0.031 C 
ATOM     50  C   UNL A   1      40.067  30.105  29.361  1.00  0.00     0.029 A 
ATOM     51  C   UNL A   1      41.306  30.812  29.681  1.00  0.00     0.049 A 
ATOM     52  H   UNL A   1      43.248  30.221  29.218  1.00  0.00     0.167 HD
ATOM     53  C   UNL A   1      47.285  28.854  28.201  1.00  0.00     0.031 A 
ATOM     54  C   UNL A   1      41.400  31.987  30.332  1.00  0.00     0.031 A 
ATOM     55  C   UNL A   1      47.472  30.140  28.816  1.00  0.00     0.049 A 
ATOM     56  C   UNL A   1      42.762  32.580  30.591  1.00  0.00     0.074 A 
ATOM     57  C   UNL A   1      48.651  30.837  29.013  1.00  0.00     0.029 A 
ATOM     58  N   UNL A   1      46.453  30.915  29.348  1.00  0.00    -0.354 N 
ATOM     59  N   UNL A   1      43.943  32.143  30.221  1.00  0.00    -0.248 NA
ATOM     60  C   UNL A   1      42.803  33.835  31.357  1.00  0.00     0.031 C 
ATOM     61  C   UNL A   1      48.353  32.000  29.729  1.00  0.00     0.029 A 
ATOM     62  C   UNL A   1      46.981  32.064  29.910  1.00  0.00     0.049 A 
ATOM     63  H   UNL A   1      45.496  30.682  29.329  1.00  0.00     0.167 HD
ATOM     64  C   UNL A   1      44.859  33.086  30.675  1.00  0.00     0.074 A 
ATOM     65  C   UNL A   1      44.096  34.126  31.335  1.00  0.00     0.031 C 
ATOM     66  C   UNL A   1      46.209  33.093  30.556  1.00  0.00     0.031 A 
BRANCH  53  67
ATOM     67  C   UNL A   1      48.504  28.094  27.758  1.00  0.00    -0.014 A 
ATOM     68  C   UNL A   1      48.959  28.134  26.432  1.00  0.00     0.009 A 
ATOM     69  C   UNL A   1      49.234  27.353  28.703  1.00  0.00     0.009 A 
ATOM     70  C   UNL A   1      50.101  27.426  26.055  1.00  0.00     0.001 A 
ATOM     71  C   UNL A   1      50.392  26.671  28.331  1.00  0.00     0.001 A 
ATOM     72  C   UNL A   1      50.821  26.701  27.005  1.00  0.00     0.000 A 
ENDBRANCH  53  67
BRANCH  54  73
ATOM     73  C   UNL A   1      40.178  32.679  30.825  1.00  0.00    -0.014 A 
ATOM     74  C   UNL A   1      39.611  33.741  30.102  1.00  0.00     0.009 A 
ATOM     75  C   UNL A   1      39.600  32.313  32.051  1.00  0.00     0.009 A 
ATOM     76  C   UNL A   1      38.518  34.445  30.615  1.00  0.00     0.001 A 
ATOM     77  C   UNL A   1      38.486  32.996  32.545  1.00  0.00     0.001 A 
ATOM     78  C   UNL A   1      37.955  34.070  31.834  1.00  0.00     0.000 A 
ENDBRANCH  54  73
BRANCH  66  79
ATOM     79  C   UNL A   1      46.948  34.284  31.104  1.00  0.00    -0.014 A 
ATOM     80  C   UNL A   1      47.138  35.446  30.341  1.00  0.00     0.009 A 
ATOM     81  C   UNL A   1      47.419  34.256  32.427  1.00  0.00     0.009 A 
ATOM     82  C   UNL A   1      47.818  36.542  30.881  1.00  0.00     0.001 A 
ATOM     83  C   UNL A   1      48.065  35.365  32.975  1.00  0.00     0.001 A 
ATOM     84  C   UNL A   1      48.274  36.501  32.199  1.00  0.00     0.000 A 
ENDBRANCH  66  79
ENDBRANCH  40  41
ENDBRANCH  33  35
ENDBRANCH  32  33
ENDBRANCH  31  32
ENDBRANCH  30  31
ENDBRANCH  29  30
ENDBRANCH  28  29
ENDBRANCH  27  28
ENDBRANCH  26  27
ENDBRANCH  25  26
ENDBRANCH   1  25
TORSDOF 25
ENDMDL
MODEL 3
REMARK VINA RESULT:      -8.2      4.300     11.647
REMARK SMILES C[C@@H]([NH3+])CCC(=O)N[C@H]1C=C[C@@H](C(=O)OCCOCCOCCOCCOC(=O)c2ccc(-c3c4nc(c(-c5ccccc5)c5ccc([nH]5)c(-c5ccccc5)c5nc(c(-c6ccccc6)c6ccc3[nH]6)C=C5)C=C4)cc2)C1
REMARK SMILES IDX 19 1 18 2 17 3 16 4 15 5 13 6 14 7 12 8 9 9 10 10 78 11
REMARK SMILES IDX 11 12 8 13 6 14 7 15 5 17 4 18 2 19 1 20 3 21 20 25 21 26
REMARK SMILES IDX 22 27 23 28 24 29 25 30 26 31 27 32 28 33 29 34 30 35 31 36
REMARK SMILES IDX 77 37 32 38 76 39 33 40 34 41 35 42 70 43 36 44 75 45 69 46
REMARK SMILES IDX 71 47 37 48 74 49 68 50 67 51 38 53 60 54 45 55 59 56 46 57
REMARK SMILES IDX 49 58 58 59 72 60 47 61 48 62 57 64 73 65 50 66 39 67 40 68
REMARK SMILES IDX 44 69 41 70 43 71 42 72 61 73 62 74 66 75 63 76 65 77 64 78
REMARK SMILES IDX 51 79 52 80 56 81 53 82 55 83 54 84
REMARK H PARENT 8 16 3 22 3 23 3 24 71 52 49 63
REMARK Flexibility Score: inf
ROOT
ATOM      1  C   UNL A   1      31.814  27.107  26.104  1.00  0.00     0.188 C 
ENDROOT
BRANCH   1   2
ATOM      2  O   UNL A   1      32.014  28.230  25.282  1.00  0.00    -0.376 OA
BRANCH   2   3
ATOM      3  C   UNL A   1      33.215  28.978  25.364  1.00  0.00     0.202 C 
BRANCH   3   4
ATOM      4  C   UNL A   1      33.440  30.156  26.330  1.00  0.00     0.261 C 
BRANCH   4   5
ATOM      5  O   UNL A   1      33.871  29.866  27.691  1.00  0.00    -0.463 OA
BRANCH   5   6
ATOM      6  C   UNL A   1      34.971  30.552  28.103  1.00  0.00     0.312 C 
ATOM      7  O   UNL A   1      35.997  29.991  28.488  1.00  0.00    -0.252 OA
BRANCH   6   8
ATOM      8  C   UNL A   1      34.846  32.093  28.181  1.00  0.00     0.124 C 
ATOM      9  C   UNL A   1      35.372  33.962  29.750  1.00  0.00     0.106 C 
ATOM     10  C   UNL A   1      36.540  33.623  28.902  1.00  0.00    -0.006 C 
ATOM     11  C   UNL A   1      34.292  32.887  29.394  1.00  0.00     0.048 C 
ATOM     12  C   UNL A   1      36.232  32.671  28.010  1.00  0.00    -0.014 C 
BRANCH   9  13
ATOM     13  N   UNL A   1      35.687  34.489  31.102  1.00  0.00    -0.350 N 
ATOM     14  C   UNL A   1      35.450  35.336  32.125  1.00  0.00     0.220 C 
ATOM     15  O   UNL A   1      36.174  35.096  33.111  1.00  0.00    -0.275 OA
ATOM     16  H   UNL A   1      36.454  33.949  31.404  1.00  0.00     0.164 HD
BRANCH  14  17
ATOM     17  C   UNL A   1      34.426  36.451  32.323  1.00  0.00     0.106 C 
BRANCH  17  18
ATOM     18  C   UNL A   1      33.205  36.157  33.167  1.00  0.00     0.074 C 
BRANCH  18  19
ATOM     19  C   UNL A   1      32.062  35.811  32.264  1.00  0.00     0.178 C 
ATOM     20  C   UNL A   1      30.692  36.071  32.878  1.00  0.00     0.075 C 
BRANCH  19  21
ATOM     21  N   UNL A   1      32.223  36.474  30.995  1.00  0.00    -0.355 N 
ATOM     22  H   UNL A   1      33.146  36.906  30.952  1.00  0.00     0.344 HD
ATOM     23  H   UNL A   1      31.507  37.194  30.894  1.00  0.00     0.344 HD
ATOM     24  H   UNL A   1      32.130  35.795  30.241  1.00  0.00     0.344 HD
ENDBRANCH  19  21
ENDBRANCH  18  19
ENDBRANCH  17  18
ENDBRANCH  14  17
ENDBRANCH   9  13
ENDBRANCH   6   8
ENDBRANCH   5   6
ENDBRANCH   4   5
ENDBRANCH   3   4
ENDBRANCH   2   3
ENDBRANCH   1   2
BRANCH   1  25
ATOM     25  C   UNL A   1      31.593  25.725  25.469  1.00  0.00     0.188 C 
BRANCH  25  26
ATOM     26  O   UNL A   1      32.377  24.589  25.793  1.00  0.00    -0.377 OA
BRANCH  26  27
ATOM     27  C   UNL A   1      33.718  24.481  25.333  1.00  0.00     0.188 C 
BRANCH  27  28
ATOM     28  C   UNL A   1      34.494  23.192  25.609  1.00  0.00     0.188 C 
BRANCH  28  29
ATOM     29  O   UNL A   1      35.008  22.571  24.444  1.00  0.00    -0.376 OA
BRANCH  29  30
ATOM     30  C   UNL A   1      35.529  21.254  24.623  1.00  0.00     0.202 C 
BRANCH  30  31
ATOM     31  C   UNL A   1      36.726  21.076  25.581  1.00  0.00     0.261 C 
BRANCH  31  32
ATOM     32  O   UNL A   1      37.999  21.545  25.101  1.00  0.00    -0.460 OA
BRANCH  32  33
ATOM     33  C   UNL A   1      39.079  21.254  25.845  1.00  0.00     0.338 C 
ATOM     34  O   UNL A   1      39.702  20.196  25.871  1.00  0.00    -0.246 OA
BRANCH  33  35
ATOM     35  C   UNL A   1      39.506  22.471  26.547  1.00  0.00     0.060 A 
ATOM     36  C   UNL A   1      38.825  23.668  26.299  1.00  0.00     0.016 A 
ATOM     37  C   UNL A   1      40.618  22.446  27.394  1.00  0.00     0.016 A 
ATOM     38  C   UNL A   1      39.280  24.858  26.864  1.00  0.00     0.010 A 
ATOM     39  C   UNL A   1      41.087  23.643  27.942  1.00  0.00     0.010 A 
ATOM     40  C   UNL A   1      40.443  24.859  27.646  1.00  0.00    -0.014 A 
BRANCH  40  41
ATOM     41  C   UNL A   1      41.098  26.149  27.962  1.00  0.00     0.031 A 
ATOM     42  C   UNL A   1      42.433  26.443  27.333  1.00  0.00     0.074 A 
ATOM     43  C   UNL A   1      40.506  27.060  28.754  1.00  0.00     0.049 A 
ATOM     44  N   UNL A   1      43.206  27.489  27.471  1.00  0.00    -0.248 NA
ATOM     45  C   UNL A   1      42.967  25.416  26.421  1.00  0.00     0.031 C 
ATOM     46  C   UNL A   1      39.187  26.923  29.368  1.00  0.00     0.029 A 
ATOM     47  N   UNL A   1      40.949  28.289  29.174  1.00  0.00    -0.354 N 
ATOM     48  C   UNL A   1      44.319  27.242  26.678  1.00  0.00     0.074 A 
ATOM     49  C   UNL A   1      44.134  25.941  26.076  1.00  0.00     0.031 C 
ATOM     50  C   UNL A   1      38.930  28.026  30.094  1.00  0.00     0.029 A 
ATOM     51  C   UNL A   1      40.080  28.925  30.026  1.00  0.00     0.049 A 
ATOM     52  H   UNL A   1      41.808  28.678  28.891  1.00  0.00     0.167 HD
ATOM     53  C   UNL A   1      45.401  28.028  26.470  1.00  0.00     0.031 A 
ATOM     54  C   UNL A   1      40.213  30.089  30.692  1.00  0.00     0.031 A 
ATOM     55  C   UNL A   1      45.591  29.316  27.079  1.00  0.00     0.049 A 
ATOM     56  C   UNL A   1      41.474  30.898  30.519  1.00  0.00     0.074 A 
ATOM     57  C   UNL A   1      46.645  30.199  26.916  1.00  0.00     0.029 A 
ATOM     58  N   UNL A   1      44.714  29.899  27.980  1.00  0.00    -0.354 N 
ATOM     59  N   UNL A   1      42.506  30.672  29.739  1.00  0.00    -0.248 NA
ATOM     60  C   UNL A   1      41.585  32.129  31.316  1.00  0.00     0.031 C 
ATOM     61  C   UNL A   1      46.440  31.282  27.775  1.00  0.00     0.029 A 
ATOM     62  C   UNL A   1      45.222  31.112  28.414  1.00  0.00     0.049 A 
ATOM     63  H   UNL A   1      43.857  29.509  28.269  1.00  0.00     0.167 HD
ATOM     64  C   UNL A   1      43.367  31.749  29.925  1.00  0.00     0.074 A 
ATOM     65  C   UNL A   1      42.731  32.633  30.879  1.00  0.00     0.031 C 
ATOM     66  C   UNL A   1      44.574  31.985  29.357  1.00  0.00     0.031 A 
BRANCH  53  67
ATOM     67  C   UNL A   1      46.493  27.491  25.586  1.00  0.00    -0.014 A 
ATOM     68  C   UNL A   1      47.424  26.551  26.051  1.00  0.00     0.009 A 
ATOM     69  C   UNL A   1      46.562  27.910  24.247  1.00  0.00     0.009 A 
ATOM     70  C   UNL A   1      48.420  26.063  25.202  1.00  0.00     0.001 A 
ATOM     71  C   UNL A   1      47.538  27.398  23.392  1.00  0.00     0.001 A 
ATOM     72  C   UNL A   1      48.472  26.482  23.872  1.00  0.00     0.000 A 
ENDBRANCH  53  67
BRANCH  54  73
ATOM     73  C   UNL A   1      39.147  30.556  31.619  1.00  0.00    -0.014 A 
ATOM     74  C   UNL A   1      39.242  30.325  33.001  1.00  0.00     0.009 A 
ATOM     75  C   UNL A   1      37.999  31.192  31.119  1.00  0.00     0.009 A 
ATOM     76  C   UNL A   1      38.196  30.684  33.854  1.00  0.00     0.001 A 
ATOM     77  C   UNL A   1      36.970  31.582  31.979  1.00  0.00     0.001 A 
ATOM     78  C   UNL A   1      37.062  31.315  33.344  1.00  0.00     0.000 A 
ENDBRANCH  54  73
BRANCH  66  79
ATOM     79  C   UNL A   1      45.267  33.274  29.708  1.00  0.00    -0.014 A 
ATOM     80  C   UNL A   1      46.184  33.351  30.767  1.00  0.00     0.009 A 
ATOM     81  C   UNL A   1      45.031  34.419  28.929  1.00  0.00     0.009 A 
ATOM     82  C   UNL A   1      46.822  34.559  31.063  1.00  0.00     0.001 A 
ATOM     83  C   UNL A   1      45.697  35.615  29.204  1.00  0.00     0.001 A 
ATOM     84  C   UNL A   1      46.582  35.686  30.276  1.00  0.00     0.000 A 
ENDBRANCH  66  79
ENDBRANCH  40  41
ENDBRANCH  33  35
ENDBRANCH  32  33
ENDBRANCH  31  32
ENDBRANCH  30  31
ENDBRANCH  29  30
ENDBRANCH  28  29
ENDBRANCH  27  28
ENDBRANCH  26  27
ENDBRANCH  25  26
ENDBRANCH   1  25
TORSDOF 25
ENDMDL
