MODEL 1
REMARK VINA RESULT:      -7.0      0.000      0.000
REMARK SMILES CCCCCCNC(=O)Oc1cccc(-c2ccc([C@@H](C)C(=O)OCCOCCOCCOCCOC(=O)c3ccc(-c4c5nc(c(-c6ccccc6)c6ccc([nH]6)c(-c6ccccc6)c6nc(c(-c7ccccc7)c7ccc4[nH]7)C=C6)C=C5)cc3)cc2)c1
REMARK SMILES IDX 26 1 25 2 24 3 22 4 23 5 20 6 21 7 19 8 16 9 17 10 88 11
REMARK SMILES IDX 18 12 87 13 15 14 11 15 12 16 89 17 13 18 14 19 10 20 8 21
REMARK SMILES IDX 7 22 9 24 6 25 5 26 4 27 3 28 2 29 1 30 27 31 28 32 29 33
REMARK SMILES IDX 30 34 31 35 32 36 33 37 34 38 35 39 36 40 37 41 38 42 39 43
REMARK SMILES IDX 40 44 86 45 41 46 85 47 42 48 43 49 44 50 79 51 45 52 84 53
REMARK SMILES IDX 78 54 80 55 46 56 83 57 77 58 76 59 47 61 69 62 54 63 68 64
REMARK SMILES IDX 55 65 58 66 67 67 81 68 56 69 57 70 66 72 82 73 59 74 48 75
REMARK SMILES IDX 49 76 53 77 50 78 52 79 51 80 70 81 71 82 75 83 72 84 74 85
REMARK SMILES IDX 73 86 60 87 61 88 65 89 62 90 64 91 63 92
REMARK H PARENT 7 23 80 60 58 71
REMARK Flexibility Score: inf
ROOT
ATOM      1  C   UNL A   1      40.685  30.456  31.366  1.00  0.00     0.202 C 
ENDROOT
BRANCH   1   2
ATOM      2  C   UNL A   1      41.737  29.952  30.360  1.00  0.00     0.261 C 
BRANCH   2   3
ATOM      3  O   UNL A   1      41.472  28.694  29.702  1.00  0.00    -0.463 OA
BRANCH   3   4
ATOM      4  C   UNL A   1      40.984  28.771  28.442  1.00  0.00     0.313 C 
ATOM      5  O   UNL A   1      39.919  29.323  28.165  1.00  0.00    -0.252 OA
BRANCH   4   6
ATOM      6  C   UNL A   1      41.813  28.094  27.351  1.00  0.00     0.126 C 
ATOM      7  C   UNL A   1      41.664  28.898  26.064  1.00  0.00     0.025 C 
BRANCH   6   8
ATOM      8  C   UNL A   1      41.717  26.590  27.084  1.00  0.00    -0.034 A 
ATOM      9  C   UNL A   1      41.389  23.770  26.650  1.00  0.00    -0.018 A 
ATOM     10  C   UNL A   1      42.277  24.538  25.877  1.00  0.00     0.009 A 
ATOM     11  C   UNL A   1      40.679  24.436  27.657  1.00  0.00     0.009 A 
ATOM     12  C   UNL A   1      42.442  25.923  26.089  1.00  0.00     0.005 A 
ATOM     13  C   UNL A   1      40.847  25.813  27.877  1.00  0.00     0.005 A 
BRANCH   9  14
ATOM     14  C   UNL A   1      41.231  22.312  26.452  1.00  0.00    -0.015 A 
ATOM     15  C   UNL A   1      42.042  20.157  25.643  1.00  0.00     0.133 A 
ATOM     16  C   UNL A   1      40.840  19.543  25.983  1.00  0.00     0.047 A 
ATOM     17  C   UNL A   1      42.241  21.528  25.859  1.00  0.00     0.056 A 
ATOM     18  C   UNL A   1      39.832  20.304  26.572  1.00  0.00     0.004 A 
ATOM     19  C   UNL A   1      40.028  21.672  26.804  1.00  0.00     0.009 A 
BRANCH  15  20
ATOM     20  O   UNL A   1      42.985  19.372  24.954  1.00  0.00    -0.410 OA
BRANCH  20  21
ATOM     21  C   UNL A   1      43.991  18.784  25.706  1.00  0.00     0.412 C 
ATOM     22  N   UNL A   1      45.253  19.179  25.348  1.00  0.00    -0.321 N 
ATOM     23  H   UNL A   1      45.988  18.870  25.925  1.00  0.00     0.167 HD
ATOM     24  O   UNL A   1      43.827  17.975  26.612  1.00  0.00    -0.224 OA
BRANCH  22  25
ATOM     25  C   UNL A   1      45.628  20.002  24.213  1.00  0.00     0.119 C 
BRANCH  25  26
ATOM     26  C   UNL A   1      45.603  21.497  24.534  1.00  0.00     0.021 C 
BRANCH  26  27
ATOM     27  C   UNL A   1      45.731  21.851  26.021  1.00  0.00     0.002 C 
BRANCH  27  28
ATOM     28  C   UNL A   1      45.508  23.326  26.379  1.00  0.00    -0.000 C 
BRANCH  28  29
ATOM     29  C   UNL A   1      45.821  23.712  27.826  1.00  0.00    -0.003 C 
ATOM     30  C   UNL A   1      44.581  23.912  28.684  1.00  0.00     0.004 C 
ENDBRANCH  28  29
ENDBRANCH  27  28
ENDBRANCH  26  27
ENDBRANCH  25  26
ENDBRANCH  22  25
ENDBRANCH  20  21
ENDBRANCH  15  20
ENDBRANCH   9  14
ENDBRANCH   6   8
ENDBRANCH   4   6
ENDBRANCH   3   4
ENDBRANCH   2   3
ENDBRANCH   1   2
BRANCH   1  31
ATOM     31  O   UNL A   1      39.574  29.647  31.723  1.00  0.00    -0.376 OA
BRANCH  31  32
ATOM     32  C   UNL A   1      38.248  30.148  31.615  1.00  0.00     0.188 C 
BRANCH  32  33
ATOM     33  C   UNL A   1      37.105  29.266  31.088  1.00  0.00     0.188 C 
BRANCH  33  34
ATOM     34  O   UNL A   1      37.116  29.037  29.694  1.00  0.00    -0.377 OA
BRANCH  34  35
ATOM     35  C   UNL A   1      36.149  29.740  28.934  1.00  0.00     0.188 C 
BRANCH  35  36
ATOM     36  C   UNL A   1      36.465  31.209  28.592  1.00  0.00     0.188 C 
BRANCH  36  37
ATOM     37  O   UNL A   1      35.329  31.980  28.219  1.00  0.00    -0.376 OA
BRANCH  37  38
ATOM     38  C   UNL A   1      34.700  32.785  29.207  1.00  0.00     0.202 C 
BRANCH  38  39
ATOM     39  C   UNL A   1      34.825  32.351  30.675  1.00  0.00     0.261 C 
BRANCH  39  40
ATOM     40  O   UNL A   1      35.665  33.164  31.503  1.00  0.00    -0.460 OA
BRANCH  40  41
ATOM     41  C   UNL A   1      35.129  33.689  32.624  1.00  0.00     0.338 C 
ATOM     42  O   UNL A   1      33.953  33.821  32.886  1.00  0.00    -0.246 OA
BRANCH  41  43
ATOM     43  C   UNL A   1      36.229  33.868  33.602  1.00  0.00     0.060 A 
ATOM     44  C   UNL A   1      37.467  34.329  33.137  1.00  0.00     0.016 A 
ATOM     45  C   UNL A   1      36.050  33.567  34.955  1.00  0.00     0.016 A 
ATOM     46  C   UNL A   1      38.549  34.431  34.010  1.00  0.00     0.010 A 
ATOM     47  C   UNL A   1      37.144  33.650  35.827  1.00  0.00     0.010 A 
ATOM     48  C   UNL A   1      38.409  34.034  35.346  1.00  0.00    -0.014 A 
BRANCH  48  49
ATOM     49  C   UNL A   1      39.631  33.799  36.157  1.00  0.00     0.031 A 
ATOM     50  C   UNL A   1      40.330  32.472  36.022  1.00  0.00     0.074 A 
ATOM     51  C   UNL A   1      40.155  34.754  36.944  1.00  0.00     0.049 A 
ATOM     52  N   UNL A   1      41.424  32.042  36.596  1.00  0.00    -0.248 NA
ATOM     53  C   UNL A   1      39.710  31.501  35.104  1.00  0.00     0.031 C 
ATOM     54  C   UNL A   1      39.620  36.103  37.112  1.00  0.00     0.029 A 
ATOM     55  N   UNL A   1      41.273  34.730  37.742  1.00  0.00    -0.354 N 
ATOM     56  C   UNL A   1      41.619  30.752  36.114  1.00  0.00     0.074 A 
ATOM     57  C   UNL A   1      40.510  30.456  35.236  1.00  0.00     0.031 C 
ATOM     58  C   UNL A   1      40.419  36.784  37.953  1.00  0.00     0.029 A 
ATOM     59  C   UNL A   1      41.498  35.909  38.408  1.00  0.00     0.049 A 
ATOM     60  H   UNL A   1      41.857  33.943  37.826  1.00  0.00     0.167 HD
ATOM     61  C   UNL A   1      42.635  29.893  36.368  1.00  0.00     0.031 A 
ATOM     62  C   UNL A   1      42.463  36.239  39.291  1.00  0.00     0.031 A 
ATOM     63  C   UNL A   1      43.724  30.171  37.267  1.00  0.00     0.049 A 
ATOM     64  C   UNL A   1      43.516  35.224  39.653  1.00  0.00     0.074 A 
ATOM     65  C   UNL A   1      44.799  29.366  37.597  1.00  0.00     0.029 A 
ATOM     66  N   UNL A   1      43.867  31.347  37.988  1.00  0.00    -0.354 N 
ATOM     67  N   UNL A   1      43.700  34.015  39.180  1.00  0.00    -0.248 NA
ATOM     68  C   UNL A   1      44.499  35.627  40.670  1.00  0.00     0.031 C 
ATOM     69  C   UNL A   1      45.555  30.027  38.571  1.00  0.00     0.029 A 
ATOM     70  C   UNL A   1      44.993  31.275  38.791  1.00  0.00     0.049 A 
ATOM     71  H   UNL A   1      43.257  32.118  37.938  1.00  0.00     0.167 HD
ATOM     72  C   UNL A   1      44.840  33.528  39.813  1.00  0.00     0.074 A 
ATOM     73  C   UNL A   1      45.307  34.577  40.695  1.00  0.00     0.031 C 
ATOM     74  C   UNL A   1      45.448  32.324  39.669  1.00  0.00     0.031 A 
BRANCH  61  75
ATOM     75  C   UNL A   1      42.575  28.547  35.695  1.00  0.00    -0.014 A 
ATOM     76  C   UNL A   1      43.095  28.347  34.405  1.00  0.00     0.009 A 
ATOM     77  C   UNL A   1      41.974  27.464  36.357  1.00  0.00     0.009 A 
ATOM     78  C   UNL A   1      42.965  27.108  33.773  1.00  0.00     0.001 A 
ATOM     79  C   UNL A   1      41.880  26.217  35.737  1.00  0.00     0.001 A 
ATOM     80  C   UNL A   1      42.360  26.044  34.440  1.00  0.00     0.000 A 
ENDBRANCH  61  75
BRANCH  62  81
ATOM     81  C   UNL A   1      42.486  37.598  39.896  1.00  0.00    -0.014 A 
ATOM     82  C   UNL A   1      41.801  37.857  41.093  1.00  0.00     0.009 A 
ATOM     83  C   UNL A   1      43.181  38.647  39.274  1.00  0.00     0.009 A 
ATOM     84  C   UNL A   1      41.796  39.141  41.644  1.00  0.00     0.001 A 
ATOM     85  C   UNL A   1      43.197  39.922  39.842  1.00  0.00     0.001 A 
ATOM     86  C   UNL A   1      42.499  40.171  41.022  1.00  0.00     0.000 A 
ENDBRANCH  62  81
BRANCH  74  87
ATOM     87  C   UNL A   1      46.713  32.088  40.449  1.00  0.00    -0.014 A 
ATOM     88  C   UNL A   1      46.706  31.411  41.678  1.00  0.00     0.009 A 
ATOM     89  C   UNL A   1      47.942  32.515  39.919  1.00  0.00     0.009 A 
ATOM     90  C   UNL A   1      47.897  31.200  42.376  1.00  0.00     0.001 A 
ATOM     91  C   UNL A   1      49.134  32.273  40.603  1.00  0.00     0.001 A 
ATOM     92  C   UNL A   1      49.110  31.625  41.836  1.00  0.00     0.000 A 
ENDBRANCH  74  87
ENDBRANCH  48  49
ENDBRANCH  41  43
ENDBRANCH  40  41
ENDBRANCH  39  40
ENDBRANCH  38  39
ENDBRANCH  37  38
ENDBRANCH  36  37
ENDBRANCH  35  36
ENDBRANCH  34  35
ENDBRANCH  33  34
ENDBRANCH  32  33
ENDBRANCH  31  32
ENDBRANCH   1  31
TORSDOF 29
ENDMDL
MODEL 2
REMARK VINA RESULT:      -6.8      6.605      8.699
REMARK SMILES CCCCCCNC(=O)Oc1cccc(-c2ccc([C@@H](C)C(=O)OCCOCCOCCOCCOC(=O)c3ccc(-c4c5nc(c(-c6ccccc6)c6ccc([nH]6)c(-c6ccccc6)c6nc(c(-c7ccccc7)c7ccc4[nH]7)C=C6)C=C5)cc3)cc2)c1
REMARK SMILES IDX 26 1 25 2 24 3 22 4 23 5 20 6 21 7 19 8 16 9 17 10 88 11
REMARK SMILES IDX 18 12 87 13 15 14 11 15 12 16 89 17 13 18 14 19 10 20 8 21
REMARK SMILES IDX 7 22 9 24 6 25 5 26 4 27 3 28 2 29 1 30 27 31 28 32 29 33
REMARK SMILES IDX 30 34 31 35 32 36 33 37 34 38 35 39 36 40 37 41 38 42 39 43
REMARK SMILES IDX 40 44 86 45 41 46 85 47 42 48 43 49 44 50 79 51 45 52 84 53
REMARK SMILES IDX 78 54 80 55 46 56 83 57 77 58 76 59 47 61 69 62 54 63 68 64
REMARK SMILES IDX 55 65 58 66 67 67 81 68 56 69 57 70 66 72 82 73 59 74 48 75
REMARK SMILES IDX 49 76 53 77 50 78 52 79 51 80 70 81 71 82 75 83 72 84 74 85
REMARK SMILES IDX 73 86 60 87 61 88 65 89 62 90 64 91 63 92
REMARK H PARENT 7 23 80 60 58 71
REMARK Flexibility Score: inf
ROOT
ATOM      1  C   UNL A   1      41.546  29.596  31.910  1.00  0.00     0.202 C 
ENDROOT
BRANCH   1   2
ATOM      2  C   UNL A   1      42.557  28.986  30.920  1.00  0.00     0.261 C 
BRANCH   2   3
ATOM      3  O   UNL A   1      42.037  28.093  29.911  1.00  0.00    -0.463 OA
BRANCH   3   4
ATOM      4  C   UNL A   1      41.790  28.640  28.699  1.00  0.00     0.313 C 
ATOM      5  O   UNL A   1      41.068  29.625  28.539  1.00  0.00    -0.252 OA
BRANCH   4   6
ATOM      6  C   UNL A   1      42.433  27.947  27.499  1.00  0.00     0.126 C 
ATOM      7  C   UNL A   1      42.179  28.797  26.259  1.00  0.00     0.025 C 
BRANCH   6   8
ATOM      8  C   UNL A   1      42.207  26.460  27.212  1.00  0.00    -0.034 A 
ATOM      9  C   UNL A   1      41.624  23.694  26.701  1.00  0.00    -0.018 A 
ATOM     10  C   UNL A   1      42.782  24.311  26.196  1.00  0.00     0.009 A 
ATOM     11  C   UNL A   1      40.770  24.484  27.481  1.00  0.00     0.009 A 
ATOM     12  C   UNL A   1      43.073  25.669  26.447  1.00  0.00     0.005 A 
ATOM     13  C   UNL A   1      41.059  25.833  27.741  1.00  0.00     0.005 A 
BRANCH   9  14
ATOM     14  C   UNL A   1      41.327  22.264  26.465  1.00  0.00    -0.015 A 
ATOM     15  C   UNL A   1      41.988  20.025  25.754  1.00  0.00     0.133 A 
ATOM     16  C   UNL A   1      40.686  19.558  25.912  1.00  0.00     0.047 A 
ATOM     17  C   UNL A   1      42.313  21.364  26.013  1.00  0.00     0.056 A 
ATOM     18  C   UNL A   1      39.701  20.435  26.360  1.00  0.00     0.004 A 
ATOM     19  C   UNL A   1      40.020  21.771  26.634  1.00  0.00     0.009 A 
BRANCH  15  20
ATOM     20  O   UNL A   1      42.922  19.131  25.197  1.00  0.00    -0.410 OA
BRANCH  20  21
ATOM     21  C   UNL A   1      43.694  18.389  26.080  1.00  0.00     0.412 C 
ATOM     22  N   UNL A   1      45.040  18.606  25.954  1.00  0.00    -0.321 N 
ATOM     23  H   UNL A   1      45.616  18.183  26.632  1.00  0.00     0.167 HD
ATOM     24  O   UNL A   1      43.267  17.596  26.910  1.00  0.00    -0.224 OA
BRANCH  22  25
ATOM     25  C   UNL A   1      45.714  19.389  24.935  1.00  0.00     0.119 C 
BRANCH  25  26
ATOM     26  C   UNL A   1      45.940  20.840  25.358  1.00  0.00     0.021 C 
BRANCH  26  27
ATOM     27  C   UNL A   1      45.913  21.867  24.219  1.00  0.00     0.002 C 
BRANCH  27  28
ATOM     28  C   UNL A   1      46.120  23.330  24.633  1.00  0.00    -0.000 C 
BRANCH  28  29
ATOM     29  C   UNL A   1      46.224  23.586  26.138  1.00  0.00    -0.003 C 
ATOM     30  C   UNL A   1      47.268  24.630  26.506  1.00  0.00     0.004 C 
ENDBRANCH  28  29
ENDBRANCH  27  28
ENDBRANCH  26  27
ENDBRANCH  25  26
ENDBRANCH  22  25
ENDBRANCH  20  21
ENDBRANCH  15  20
ENDBRANCH   9  14
ENDBRANCH   6   8
ENDBRANCH   4   6
ENDBRANCH   3   4
ENDBRANCH   2   3
ENDBRANCH   1   2
BRANCH   1  31
ATOM     31  O   UNL A   1      40.305  28.955  32.170  1.00  0.00    -0.376 OA
BRANCH  31  32
ATOM     32  C   UNL A   1      39.077  29.640  31.957  1.00  0.00     0.188 C 
BRANCH  32  33
ATOM     33  C   UNL A   1      37.866  28.926  31.339  1.00  0.00     0.188 C 
BRANCH  33  34
ATOM     34  O   UNL A   1      37.891  28.806  29.932  1.00  0.00    -0.377 OA
BRANCH  34  35
ATOM     35  C   UNL A   1      36.721  29.216  29.246  1.00  0.00     0.188 C 
BRANCH  35  36
ATOM     36  C   UNL A   1      36.823  30.502  28.402  1.00  0.00     0.188 C 
BRANCH  36  37
ATOM     37  O   UNL A   1      35.617  31.253  28.334  1.00  0.00    -0.376 OA
BRANCH  37  38
ATOM     38  C   UNL A   1      35.354  32.210  29.352  1.00  0.00     0.202 C 
BRANCH  38  39
ATOM     39  C   UNL A   1      36.249  32.196  30.601  1.00  0.00     0.261 C 
BRANCH  39  40
ATOM     40  O   UNL A   1      37.563  32.739  30.441  1.00  0.00    -0.460 OA
BRANCH  40  41
ATOM     41  C   UNL A   1      37.989  33.644  31.347  1.00  0.00     0.338 C 
ATOM     42  O   UNL A   1      37.531  33.849  32.451  1.00  0.00    -0.246 OA
BRANCH  41  43
ATOM     43  C   UNL A   1      39.276  34.194  30.859  1.00  0.00     0.060 A 
ATOM     44  C   UNL A   1      39.379  34.548  29.507  1.00  0.00     0.016 A 
ATOM     45  C   UNL A   1      40.371  34.341  31.713  1.00  0.00     0.016 A 
ATOM     46  C   UNL A   1      40.597  34.991  28.991  1.00  0.00     0.010 A 
ATOM     47  C   UNL A   1      41.598  34.765  31.189  1.00  0.00     0.010 A 
ATOM     48  C   UNL A   1      41.727  35.044  29.816  1.00  0.00    -0.014 A 
BRANCH  48  49
ATOM     49  C   UNL A   1      43.069  35.156  29.189  1.00  0.00     0.031 A 
ATOM     50  C   UNL A   1      43.872  33.896  28.997  1.00  0.00     0.074 A 
ATOM     51  C   UNL A   1      43.544  36.328  28.734  1.00  0.00     0.049 A 
ATOM     52  N   UNL A   1      45.049  33.731  28.449  1.00  0.00    -0.248 NA
ATOM     53  C   UNL A   1      43.255  32.651  29.485  1.00  0.00     0.031 C 
ATOM     54  C   UNL A   1      42.843  37.608  28.792  1.00  0.00     0.029 A 
ATOM     55  N   UNL A   1      44.735  36.622  28.117  1.00  0.00    -0.354 N 
ATOM     56  C   UNL A   1      45.314  32.369  28.531  1.00  0.00     0.074 A 
ATOM     57  C   UNL A   1      44.197  31.761  29.219  1.00  0.00     0.031 C 
ATOM     58  C   UNL A   1      43.613  38.551  28.221  1.00  0.00     0.029 A 
ATOM     59  C   UNL A   1      44.873  37.948  27.790  1.00  0.00     0.049 A 
ATOM     60  H   UNL A   1      45.424  35.945  27.926  1.00  0.00     0.167 HD
ATOM     61  C   UNL A   1      46.384  31.680  28.068  1.00  0.00     0.031 A 
ATOM     62  C   UNL A   1      45.904  38.601  27.216  1.00  0.00     0.031 A 
ATOM     63  C   UNL A   1      47.512  32.285  27.412  1.00  0.00     0.049 A 
ATOM     64  C   UNL A   1      47.138  37.833  26.818  1.00  0.00     0.074 A 
ATOM     65  C   UNL A   1      48.649  31.676  26.910  1.00  0.00     0.029 A 
ATOM     66  N   UNL A   1      47.650  33.645  27.179  1.00  0.00    -0.354 N 
ATOM     67  N   UNL A   1      47.372  36.544  26.886  1.00  0.00    -0.248 NA
ATOM     68  C   UNL A   1      48.250  38.616  26.257  1.00  0.00     0.031 C 
ATOM     69  C   UNL A   1      49.504  32.676  26.436  1.00  0.00     0.029 A 
ATOM     70  C   UNL A   1      48.869  33.900  26.572  1.00  0.00     0.049 A 
ATOM     71  H   UNL A   1      46.980  34.329  27.411  1.00  0.00     0.167 HD
ATOM     72  C   UNL A   1      48.639  36.357  26.342  1.00  0.00     0.074 A 
ATOM     73  C   UNL A   1      49.118  37.664  25.942  1.00  0.00     0.031 C 
ATOM     74  C   UNL A   1      49.338  35.206  26.182  1.00  0.00     0.031 A 
BRANCH  61  75
ATOM     75  C   UNL A   1      46.394  30.193  28.309  1.00  0.00    -0.014 A 
ATOM     76  C   UNL A   1      45.890  29.291  27.357  1.00  0.00     0.009 A 
ATOM     77  C   UNL A   1      46.906  29.688  29.515  1.00  0.00     0.009 A 
ATOM     78  C   UNL A   1      45.847  27.922  27.632  1.00  0.00     0.001 A 
ATOM     79  C   UNL A   1      46.895  28.316  29.771  1.00  0.00     0.001 A 
ATOM     80  C   UNL A   1      46.352  27.435  28.837  1.00  0.00     0.000 A 
ENDBRANCH  61  75
BRANCH  62  81
ATOM     81  C   UNL A   1      45.818  40.066  26.975  1.00  0.00    -0.014 A 
ATOM     82  C   UNL A   1      46.255  40.976  27.948  1.00  0.00     0.009 A 
ATOM     83  C   UNL A   1      45.284  40.563  25.775  1.00  0.00     0.009 A 
ATOM     84  C   UNL A   1      46.143  42.352  27.735  1.00  0.00     0.001 A 
ATOM     85  C   UNL A   1      45.200  41.939  25.552  1.00  0.00     0.001 A 
ATOM     86  C   UNL A   1      45.622  42.833  26.535  1.00  0.00     0.000 A 
ENDBRANCH  62  81
BRANCH  74  87
ATOM     87  C   UNL A   1      50.679  35.297  25.505  1.00  0.00    -0.014 A 
ATOM     88  C   UNL A   1      51.734  34.435  25.841  1.00  0.00     0.009 A 
ATOM     89  C   UNL A   1      50.875  36.238  24.481  1.00  0.00     0.009 A 
ATOM     90  C   UNL A   1      52.966  34.537  25.191  1.00  0.00     0.001 A 
ATOM     91  C   UNL A   1      52.096  36.316  23.810  1.00  0.00     0.001 A 
ATOM     92  C   UNL A   1      53.144  35.473  24.172  1.00  0.00     0.000 A 
ENDBRANCH  74  87
ENDBRANCH  48  49
ENDBRANCH  41  43
ENDBRANCH  40  41
ENDBRANCH  39  40
ENDBRANCH  38  39
ENDBRANCH  37  38
ENDBRANCH  36  37
ENDBRANCH  35  36
ENDBRANCH  34  35
ENDBRANCH  33  34
ENDBRANCH  32  33
ENDBRANCH  31  32
ENDBRANCH   1  31
TORSDOF 29
ENDMDL
MODEL 3
REMARK VINA RESULT:      -6.6      7.834     13.085
REMARK SMILES CCCCCCNC(=O)Oc1cccc(-c2ccc([C@@H](C)C(=O)OCCOCCOCCOCCOC(=O)c3ccc(-c4c5nc(c(-c6ccccc6)c6ccc([nH]6)c(-c6ccccc6)c6nc(c(-c7ccccc7)c7ccc4[nH]7)C=C6)C=C5)cc3)cc2)c1
REMARK SMILES IDX 26 1 25 2 24 3 22 4 23 5 20 6 21 7 19 8 16 9 17 10 88 11
REMARK SMILES IDX 18 12 87 13 15 14 11 15 12 16 89 17 13 18 14 19 10 20 8 21
REMARK SMILES IDX 7 22 9 24 6 25 5 26 4 27 3 28 2 29 1 30 27 31 28 32 29 33
REMARK SMILES IDX 30 34 31 35 32 36 33 37 34 38 35 39 36 40 37 41 38 42 39 43
REMARK SMILES IDX 40 44 86 45 41 46 85 47 42 48 43 49 44 50 79 51 45 52 84 53
REMARK SMILES IDX 78 54 80 55 46 56 83 57 77 58 76 59 47 61 69 62 54 63 68 64
REMARK SMILES IDX 55 65 58 66 67 67 81 68 56 69 57 70 66 72 82 73 59 74 48 75
REMARK SMILES IDX 49 76 53 77 50 78 52 79 51 80 70 81 71 82 75 83 72 84 74 85
REMARK SMILES IDX 73 86 60 87 61 88 65 89 62 90 64 91 63 92
REMARK H PARENT 7 23 80 60 58 71
REMARK Flexibility Score: inf
ROOT
ATOM      1  C   UNL A   1      51.289  27.416  19.510  1.00  0.00     0.202 C 
ENDROOT
BRANCH   1   2
ATOM      2  C   UNL A   1      50.353  28.077  20.540  1.00  0.00     0.261 C 
BRANCH   2   3
ATOM      3  O   UNL A   1      49.998  27.299  21.704  1.00  0.00    -0.463 OA
BRANCH   3   4
ATOM      4  C   UNL A   1      48.851  27.650  22.329  1.00  0.00     0.313 C 
ATOM      5  O   UNL A   1      47.891  28.152  21.744  1.00  0.00    -0.252 OA
BRANCH   4   6
ATOM      6  C   UNL A   1      48.806  27.424  23.840  1.00  0.00     0.126 C 
ATOM      7  C   UNL A   1      50.177  26.936  24.295  1.00  0.00     0.025 C 
BRANCH   6   8
ATOM      8  C   UNL A   1      47.681  26.624  24.501  1.00  0.00    -0.034 A 
ATOM      9  C   UNL A   1      45.683  25.031  25.813  1.00  0.00    -0.018 A 
ATOM     10  C   UNL A   1      45.410  26.334  25.361  1.00  0.00     0.009 A 
ATOM     11  C   UNL A   1      46.971  24.533  25.582  1.00  0.00     0.009 A 
ATOM     12  C   UNL A   1      46.388  27.118  24.713  1.00  0.00     0.005 A 
ATOM     13  C   UNL A   1      47.945  25.307  24.931  1.00  0.00     0.005 A 
BRANCH   9  14
ATOM     14  C   UNL A   1      44.653  24.193  26.467  1.00  0.00    -0.015 A 
ATOM     15  C   UNL A   1      42.790  22.621  26.373  1.00  0.00     0.133 A 
ATOM     16  C   UNL A   1      42.619  22.695  27.752  1.00  0.00     0.047 A 
ATOM     17  C   UNL A   1      43.784  23.367  25.726  1.00  0.00     0.056 A 
ATOM     18  C   UNL A   1      43.471  23.505  28.499  1.00  0.00     0.004 A 
ATOM     19  C   UNL A   1      44.476  24.243  27.862  1.00  0.00     0.009 A 
BRANCH  15  20
ATOM     20  O   UNL A   1      41.838  21.875  25.652  1.00  0.00    -0.410 OA
BRANCH  20  21
ATOM     21  C   UNL A   1      41.107  20.930  26.358  1.00  0.00     0.412 C 
ATOM     22  N   UNL A   1      39.772  21.219  26.451  1.00  0.00    -0.321 N 
ATOM     23  H   UNL A   1      39.200  20.523  26.848  1.00  0.00     0.167 HD
ATOM     24  O   UNL A   1      41.561  19.917  26.876  1.00  0.00    -0.224 OA
BRANCH  22  25
ATOM     25  C   UNL A   1      39.104  22.436  26.030  1.00  0.00     0.119 C 
BRANCH  25  26
ATOM     26  C   UNL A   1      37.748  22.170  25.375  1.00  0.00     0.021 C 
BRANCH  26  27
ATOM     27  C   UNL A   1      37.172  23.337  24.563  1.00  0.00     0.002 C 
BRANCH  27  28
ATOM     28  C   UNL A   1      35.644  23.472  24.578  1.00  0.00    -0.000 C 
BRANCH  28  29
ATOM     29  C   UNL A   1      34.997  23.537  25.963  1.00  0.00    -0.003 C 
ATOM     30  C   UNL A   1      33.868  24.552  26.060  1.00  0.00     0.004 C 
ENDBRANCH  28  29
ENDBRANCH  27  28
ENDBRANCH  26  27
ENDBRANCH  25  26
ENDBRANCH  22  25
ENDBRANCH  20  21
ENDBRANCH  15  20
ENDBRANCH   9  14
ENDBRANCH   6   8
ENDBRANCH   4   6
ENDBRANCH   3   4
ENDBRANCH   2   3
ENDBRANCH   1   2
BRANCH   1  31
ATOM     31  O   UNL A   1      51.885  28.180  18.472  1.00  0.00    -0.376 OA
BRANCH  31  32
ATOM     32  C   UNL A   1      52.571  29.390  18.767  1.00  0.00     0.188 C 
BRANCH  32  33
ATOM     33  C   UNL A   1      54.034  29.380  19.238  1.00  0.00     0.188 C 
BRANCH  33  34
ATOM     34  O   UNL A   1      54.215  29.452  20.638  1.00  0.00    -0.377 OA
BRANCH  34  35
ATOM     35  C   UNL A   1      55.536  29.700  21.087  1.00  0.00     0.188 C 
BRANCH  35  36
ATOM     36  C   UNL A   1      55.968  29.010  22.396  1.00  0.00     0.188 C 
BRANCH  36  37
ATOM     37  O   UNL A   1      55.909  29.847  23.545  1.00  0.00    -0.376 OA
BRANCH  37  38
ATOM     38  C   UNL A   1      54.651  30.386  23.928  1.00  0.00     0.202 C 
BRANCH  38  39
ATOM     39  C   UNL A   1      53.804  29.592  24.935  1.00  0.00     0.261 C 
BRANCH  39  40
ATOM     40  O   UNL A   1      54.052  28.183  24.993  1.00  0.00    -0.460 OA
BRANCH  40  41
ATOM     41  C   UNL A   1      54.764  27.709  26.037  1.00  0.00     0.338 C 
ATOM     42  O   UNL A   1      55.957  27.818  26.224  1.00  0.00    -0.246 OA
BRANCH  41  43
ATOM     43  C   UNL A   1      53.798  27.228  27.054  1.00  0.00     0.060 A 
ATOM     44  C   UNL A   1      52.858  26.261  26.675  1.00  0.00     0.016 A 
ATOM     45  C   UNL A   1      53.805  27.734  28.356  1.00  0.00     0.016 A 
ATOM     46  C   UNL A   1      51.881  25.843  27.578  1.00  0.00     0.010 A 
ATOM     47  C   UNL A   1      52.810  27.330  29.255  1.00  0.00     0.010 A 
ATOM     48  C   UNL A   1      51.815  26.420  28.852  1.00  0.00    -0.014 A 
BRANCH  48  49
ATOM     49  C   UNL A   1      50.578  26.247  29.656  1.00  0.00     0.031 A 
ATOM     50  C   UNL A   1      50.661  25.439  30.924  1.00  0.00     0.074 A 
ATOM     51  C   UNL A   1      49.422  26.844  29.318  1.00  0.00     0.049 A 
ATOM     52  N   UNL A   1      49.733  25.173  31.808  1.00  0.00    -0.248 NA
ATOM     53  C   UNL A   1      51.977  24.858  31.240  1.00  0.00     0.031 C 
ATOM     54  C   UNL A   1      49.221  27.708  28.157  1.00  0.00     0.029 A 
ATOM     55  N   UNL A   1      48.197  26.818  29.938  1.00  0.00    -0.354 N 
ATOM     56  C   UNL A   1      50.351  24.392  32.778  1.00  0.00     0.074 A 
ATOM     57  C   UNL A   1      51.718  24.192  32.353  1.00  0.00     0.031 C 
ATOM     58  C   UNL A   1      47.949  28.142  28.155  1.00  0.00     0.029 A 
ATOM     59  C   UNL A   1      47.238  27.559  29.292  1.00  0.00     0.049 A 
ATOM     60  H   UNL A   1      48.023  26.317  30.767  1.00  0.00     0.167 HD
ATOM     61  C   UNL A   1      49.833  23.893  33.926  1.00  0.00     0.031 A 
ATOM     62  C   UNL A   1      45.934  27.737  29.583  1.00  0.00     0.031 A 
ATOM     63  C   UNL A   1      48.465  24.062  34.336  1.00  0.00     0.049 A 
ATOM     64  C   UNL A   1      45.348  27.072  30.801  1.00  0.00     0.074 A 
ATOM     65  C   UNL A   1      47.841  23.592  35.478  1.00  0.00     0.029 A 
ATOM     66  N   UNL A   1      47.504  24.748  33.608  1.00  0.00    -0.354 N 
ATOM     67  N   UNL A   1      45.944  26.350  31.720  1.00  0.00    -0.248 NA
ATOM     68  C   UNL A   1      43.905  27.255  31.024  1.00  0.00     0.031 C 
ATOM     69  C   UNL A   1      46.486  23.935  35.406  1.00  0.00     0.029 A 
ATOM     70  C   UNL A   1      46.283  24.684  34.257  1.00  0.00     0.049 A 
ATOM     71  H   UNL A   1      47.667  25.211  32.754  1.00  0.00     0.167 HD
ATOM     72  C   UNL A   1      44.959  26.025  32.647  1.00  0.00     0.074 A 
ATOM     73  C   UNL A   1      43.731  26.637  32.183  1.00  0.00     0.031 C 
ATOM     74  C   UNL A   1      45.065  25.293  33.784  1.00  0.00     0.031 A 
BRANCH  61  75
ATOM     75  C   UNL A   1      50.755  23.072  34.789  1.00  0.00    -0.014 A 
ATOM     76  C   UNL A   1      50.627  21.676  34.878  1.00  0.00     0.009 A 
ATOM     77  C   UNL A   1      51.759  23.708  35.536  1.00  0.00     0.009 A 
ATOM     78  C   UNL A   1      51.448  20.943  35.738  1.00  0.00     0.001 A 
ATOM     79  C   UNL A   1      52.602  22.968  36.366  1.00  0.00     0.001 A 
ATOM     80  C   UNL A   1      52.437  21.589  36.480  1.00  0.00     0.000 A 
ENDBRANCH  61  75
BRANCH  62  81
ATOM     81  C   UNL A   1      45.084  28.588  28.708  1.00  0.00    -0.014 A 
ATOM     82  C   UNL A   1      45.061  29.981  28.872  1.00  0.00     0.009 A 
ATOM     83  C   UNL A   1      44.279  28.012  27.712  1.00  0.00     0.009 A 
ATOM     84  C   UNL A   1      44.238  30.777  28.072  1.00  0.00     0.001 A 
ATOM     85  C   UNL A   1      43.479  28.812  26.894  1.00  0.00     0.001 A 
ATOM     86  C   UNL A   1      43.452  30.193  27.079  1.00  0.00     0.000 A 
ENDBRANCH  62  81
BRANCH  74  87
ATOM     87  C   UNL A   1      43.831  25.148  34.634  1.00  0.00    -0.014 A 
ATOM     88  C   UNL A   1      43.399  26.175  35.487  1.00  0.00     0.009 A 
ATOM     89  C   UNL A   1      43.064  23.975  34.545  1.00  0.00     0.009 A 
ATOM     90  C   UNL A   1      42.246  26.015  36.260  1.00  0.00     0.001 A 
ATOM     91  C   UNL A   1      41.894  23.831  35.291  1.00  0.00     0.001 A 
ATOM     92  C   UNL A   1      41.491  24.846  36.156  1.00  0.00     0.000 A 
ENDBRANCH  74  87
ENDBRANCH  48  49
ENDBRANCH  41  43
ENDBRANCH  40  41
ENDBRANCH  39  40
ENDBRANCH  38  39
ENDBRANCH  37  38
ENDBRANCH  36  37
ENDBRANCH  35  36
ENDBRANCH  34  35
ENDBRANCH  33  34
ENDBRANCH  32  33
ENDBRANCH  31  32
ENDBRANCH   1  31
TORSDOF 29
ENDMDL
