MODEL 1
REMARK VINA RESULT:     -10.9      0.000      0.000
REMARK SMILES O=C(OCCOCCOCCOCCOC(=O)[C@H]1CCCN(c2cc(-c3ccccn3)nc(-c3ccccc3F)n2)C1)c1ccc(-c2c3nc(c(-c4ccccc4)c4ccc([nH]4)c(-c4ccccc4)c4nc(c(-c5ccccc5)c5ccc2[nH]5)C=C4)C=C3)cc1
REMARK SMILES IDX 9 1 8 2 7 3 6 4 5 5 4 6 3 7 2 8 1 9 43 10 44 11 90 12 45 13
REMARK SMILES IDX 89 14 46 15 47 16 48 17 83 18 49 19 88 20 82 21 84 22 50 23
REMARK SMILES IDX 87 24 81 25 80 26 51 28 73 29 58 30 72 31 59 32 62 33 71 34
REMARK SMILES IDX 85 35 60 36 61 37 70 39 86 40 63 41 52 42 53 43 57 44 54 45
REMARK SMILES IDX 56 46 55 47 74 48 75 49 79 50 76 51 78 52 77 53 64 54 65 55
REMARK SMILES IDX 69 56 66 57 68 58 67 59 10 60 11 61 12 62 13 63 14 64 15 65
REMARK SMILES IDX 16 66 17 67 18 68 19 69 42 70 20 71 22 72 21 73 23 74 24 75
REMARK SMILES IDX 41 76 25 77 33 78 32 79 26 80 27 81 31 82 28 83 30 84 29 85
REMARK SMILES IDX 34 86 35 87 39 88 36 89 38 90 40 91 37 92
REMARK H PARENT 84 27 62 38
REMARK Flexibility Score: inf
ROOT
ATOM      1  O   UNL A   1      33.951  28.761  27.581  1.00  0.00    -0.377 OA
ENDROOT
BRANCH   1   2
ATOM      2  C   UNL A   1      34.690  29.981  27.497  1.00  0.00     0.188 C 
BRANCH   2   3
ATOM      3  C   UNL A   1      33.852  31.265  27.575  1.00  0.00     0.188 C 
BRANCH   3   4
ATOM      4  O   UNL A   1      34.123  32.028  28.757  1.00  0.00    -0.376 OA
BRANCH   4   5
ATOM      5  C   UNL A   1      35.497  32.209  29.123  1.00  0.00     0.202 C 
BRANCH   5   6
ATOM      6  C   UNL A   1      35.852  31.849  30.561  1.00  0.00     0.261 C 
BRANCH   6   7
ATOM      7  O   UNL A   1      35.903  30.438  30.809  1.00  0.00    -0.460 OA
BRANCH   7   8
ATOM      8  C   UNL A   1      36.854  29.724  31.456  1.00  0.00     0.338 C 
ATOM      9  O   UNL A   1      36.653  29.432  32.634  1.00  0.00    -0.246 OA
BRANCH   8  10
ATOM     10  C   UNL A   1      38.153  29.288  30.851  1.00  0.00     0.060 A 
ATOM     11  C   UNL A   1      39.221  28.716  31.540  1.00  0.00     0.016 A 
ATOM     12  C   UNL A   1      38.272  29.396  29.455  1.00  0.00     0.016 A 
ATOM     13  C   UNL A   1      40.355  28.259  30.904  1.00  0.00     0.010 A 
ATOM     14  C   UNL A   1      39.426  28.966  28.794  1.00  0.00     0.010 A 
ATOM     15  C   UNL A   1      40.473  28.410  29.532  1.00  0.00    -0.014 A 
BRANCH  15  16
ATOM     16  C   UNL A   1      41.817  28.202  28.989  1.00  0.00     0.031 A 
ATOM     17  C   UNL A   1      42.115  26.847  28.429  1.00  0.00     0.074 A 
ATOM     18  C   UNL A   1      42.627  29.258  28.800  1.00  0.00     0.049 A 
ATOM     19  N   UNL A   1      43.223  26.388  27.919  1.00  0.00    -0.248 NA
ATOM     20  C   UNL A   1      40.999  25.880  28.417  1.00  0.00     0.031 C 
ATOM     21  C   UNL A   1      42.296  30.650  29.121  1.00  0.00     0.029 A 
ATOM     22  N   UNL A   1      43.873  29.329  28.247  1.00  0.00    -0.354 N 
ATOM     23  C   UNL A   1      42.950  25.072  27.572  1.00  0.00     0.074 A 
ATOM     24  C   UNL A   1      41.575  24.802  27.912  1.00  0.00     0.031 C 
ATOM     25  C   UNL A   1      43.320  31.439  28.756  1.00  0.00     0.029 A 
ATOM     26  C   UNL A   1      44.398  30.599  28.253  1.00  0.00     0.049 A 
ATOM     27  H   UNL A   1      44.349  28.550  27.880  1.00  0.00     0.167 HD
ATOM     28  C   UNL A   1      43.799  24.170  27.036  1.00  0.00     0.031 A 
ATOM     29  C   UNL A   1      45.640  31.004  27.934  1.00  0.00     0.031 A 
ATOM     30  C   UNL A   1      45.162  24.487  26.724  1.00  0.00     0.049 A 
ATOM     31  C   UNL A   1      46.610  29.947  27.480  1.00  0.00     0.074 A 
ATOM     32  C   UNL A   1      46.163  23.658  26.261  1.00  0.00     0.029 A 
ATOM     33  N   UNL A   1      45.709  25.759  26.851  1.00  0.00    -0.354 N 
ATOM     34  N   UNL A   1      46.394  28.671  27.251  1.00  0.00    -0.248 NA
ATOM     35  C   UNL A   1      47.995  30.373  27.256  1.00  0.00     0.031 C 
ATOM     36  C   UNL A   1      47.334  24.418  26.167  1.00  0.00     0.029 A 
ATOM     37  C   UNL A   1      47.043  25.734  26.500  1.00  0.00     0.049 A 
ATOM     38  H   UNL A   1      45.217  26.559  27.148  1.00  0.00     0.167 HD
ATOM     39  C   UNL A   1      47.607  28.146  26.834  1.00  0.00     0.074 A 
ATOM     40  C   UNL A   1      48.548  29.251  26.820  1.00  0.00     0.031 C 
ATOM     41  C   UNL A   1      47.927  26.873  26.497  1.00  0.00     0.031 A 
BRANCH  28  42
ATOM     42  C   UNL A   1      43.296  22.765  26.878  1.00  0.00    -0.014 A 
ATOM     43  C   UNL A   1      43.329  22.094  25.646  1.00  0.00     0.009 A 
ATOM     44  C   UNL A   1      42.739  22.114  27.990  1.00  0.00     0.009 A 
ATOM     45  C   UNL A   1      42.785  20.811  25.526  1.00  0.00     0.001 A 
ATOM     46  C   UNL A   1      42.221  20.823  27.874  1.00  0.00     0.001 A 
ATOM     47  C   UNL A   1      42.236  20.176  26.640  1.00  0.00     0.000 A 
ENDBRANCH  28  42
BRANCH  29  48
ATOM     48  C   UNL A   1      46.058  32.420  28.129  1.00  0.00    -0.014 A 
ATOM     49  C   UNL A   1      46.762  32.821  29.274  1.00  0.00     0.009 A 
ATOM     50  C   UNL A   1      45.707  33.398  27.181  1.00  0.00     0.009 A 
ATOM     51  C   UNL A   1      47.071  34.169  29.482  1.00  0.00     0.001 A 
ATOM     52  C   UNL A   1      46.047  34.738  27.374  1.00  0.00     0.001 A 
ATOM     53  C   UNL A   1      46.715  35.126  28.532  1.00  0.00     0.000 A 
ENDBRANCH  29  48
BRANCH  41  54
ATOM     54  C   UNL A   1      49.335  26.632  26.040  1.00  0.00    -0.014 A 
ATOM     55  C   UNL A   1      50.292  26.064  26.891  1.00  0.00     0.009 A 
ATOM     56  C   UNL A   1      49.682  26.929  24.713  1.00  0.00     0.009 A 
ATOM     57  C   UNL A   1      51.587  25.827  26.430  1.00  0.00     0.001 A 
ATOM     58  C   UNL A   1      50.965  26.657  24.244  1.00  0.00     0.001 A 
ATOM     59  C   UNL A   1      51.918  26.117  25.106  1.00  0.00     0.000 A 
ENDBRANCH  41  54
ENDBRANCH  15  16
ENDBRANCH   8  10
ENDBRANCH   7   8
ENDBRANCH   6   7
ENDBRANCH   5   6
ENDBRANCH   4   5
ENDBRANCH   3   4
ENDBRANCH   2   3
ENDBRANCH   1   2
BRANCH   1  60
ATOM     60  C   UNL A   1      33.327  28.358  26.371  1.00  0.00     0.188 C 
BRANCH  60  61
ATOM     61  C   UNL A   1      31.794  28.529  26.247  1.00  0.00     0.188 C 
BRANCH  61  62
ATOM     62  O   UNL A   1      31.431  29.592  25.378  1.00  0.00    -0.376 OA
BRANCH  62  63
ATOM     63  C   UNL A   1      31.032  29.280  24.049  1.00  0.00     0.202 C 
BRANCH  63  64
ATOM     64  C   UNL A   1      32.066  28.981  22.940  1.00  0.00     0.261 C 
BRANCH  64  65
ATOM     65  O   UNL A   1      32.444  27.611  22.814  1.00  0.00    -0.463 OA
BRANCH  65  66
ATOM     66  C   UNL A   1      31.623  26.639  22.327  1.00  0.00     0.310 C 
ATOM     67  O   UNL A   1      31.031  26.674  21.251  1.00  0.00    -0.252 OA
BRANCH  66  68
ATOM     68  C   UNL A   1      31.742  25.452  23.263  1.00  0.00     0.118 C 
ATOM     69  C   UNL A   1      30.521  25.372  24.203  1.00  0.00     0.019 C 
ATOM     70  C   UNL A   1      32.204  24.088  22.757  1.00  0.00     0.133 C 
ATOM     71  C   UNL A   1      30.750  24.391  25.344  1.00  0.00     0.022 C 
ATOM     72  N   UNL A   1      32.306  23.207  23.934  1.00  0.00    -0.356 N 
ATOM     73  C   UNL A   1      31.124  23.039  24.774  1.00  0.00     0.118 C 
BRANCH  72  74
ATOM     74  C   UNL A   1      33.314  22.278  24.115  1.00  0.00     0.133 A 
ATOM     75  C   UNL A   1      32.965  20.946  24.115  1.00  0.00     0.077 A 
ATOM     76  N   UNL A   1      34.544  22.681  24.488  1.00  0.00    -0.211 NA
ATOM     77  C   UNL A   1      33.897  20.032  24.555  1.00  0.00     0.095 A 
ATOM     78  C   UNL A   1      35.412  21.714  24.875  1.00  0.00     0.165 A 
ATOM     79  N   UNL A   1      35.130  20.400  24.937  1.00  0.00    -0.226 NA
BRANCH  77  80
ATOM     80  C   UNL A   1      33.527  18.617  24.656  1.00  0.00     0.089 A 
ATOM     81  C   UNL A   1      32.800  18.151  25.752  1.00  0.00     0.030 A 
ATOM     82  N   UNL A   1      34.048  17.778  23.723  1.00  0.00    -0.255 NA
ATOM     83  C   UNL A   1      32.606  16.783  25.905  1.00  0.00     0.004 A 
ATOM     84  C   UNL A   1      33.829  16.455  23.889  1.00  0.00     0.112 A 
ATOM     85  C   UNL A   1      33.130  15.916  24.955  1.00  0.00     0.020 A 
ENDBRANCH  77  80
BRANCH  78  86
ATOM     86  C   UNL A   1      36.747  22.093  25.346  1.00  0.00     0.055 A 
ATOM     87  C   UNL A   1      37.001  23.333  25.963  1.00  0.00     0.015 A 
ATOM     88  C   UNL A   1      37.808  21.179  25.282  1.00  0.00     0.134 A 
ATOM     89  C   UNL A   1      38.260  23.627  26.508  1.00  0.00     0.001 A 
ATOM     90  C   UNL A   1      39.067  21.467  25.815  1.00  0.00     0.040 A 
ATOM     91  F   UNL A   1      37.639  19.984  24.695  1.00  0.00    -0.206 F 
ATOM     92  C   UNL A   1      39.293  22.693  26.436  1.00  0.00     0.003 A 
ENDBRANCH  78  86
ENDBRANCH  72  74
ENDBRANCH  66  68
ENDBRANCH  65  66
ENDBRANCH  64  65
ENDBRANCH  63  64
ENDBRANCH  62  63
ENDBRANCH  61  62
ENDBRANCH  60  61
ENDBRANCH   1  60
TORSDOF 23
ENDMDL
MODEL 2
REMARK VINA RESULT:     -10.9      4.700      8.574
REMARK SMILES O=C(OCCOCCOCCOCCOC(=O)[C@H]1CCCN(c2cc(-c3ccccn3)nc(-c3ccccc3F)n2)C1)c1ccc(-c2c3nc(c(-c4ccccc4)c4ccc([nH]4)c(-c4ccccc4)c4nc(c(-c5ccccc5)c5ccc2[nH]5)C=C4)C=C3)cc1
REMARK SMILES IDX 9 1 8 2 7 3 6 4 5 5 4 6 3 7 2 8 1 9 43 10 44 11 90 12 45 13
REMARK SMILES IDX 89 14 46 15 47 16 48 17 83 18 49 19 88 20 82 21 84 22 50 23
REMARK SMILES IDX 87 24 81 25 80 26 51 28 73 29 58 30 72 31 59 32 62 33 71 34
REMARK SMILES IDX 85 35 60 36 61 37 70 39 86 40 63 41 52 42 53 43 57 44 54 45
REMARK SMILES IDX 56 46 55 47 74 48 75 49 79 50 76 51 78 52 77 53 64 54 65 55
REMARK SMILES IDX 69 56 66 57 68 58 67 59 10 60 11 61 12 62 13 63 14 64 15 65
REMARK SMILES IDX 16 66 17 67 18 68 19 69 42 70 20 71 22 72 21 73 23 74 24 75
REMARK SMILES IDX 41 76 25 77 33 78 32 79 26 80 27 81 31 82 28 83 30 84 29 85
REMARK SMILES IDX 34 86 35 87 39 88 36 89 38 90 40 91 37 92
REMARK H PARENT 84 27 62 38
REMARK Flexibility Score: inf
ROOT
ATOM      1  O   UNL A   1      34.639  31.645  27.724  1.00  0.00    -0.377 OA
ENDROOT
BRANCH   1   2
ATOM      2  C   UNL A   1      34.461  32.631  28.743  1.00  0.00     0.188 C 
BRANCH   2   3
ATOM      3  C   UNL A   1      35.364  33.867  28.628  1.00  0.00     0.188 C 
BRANCH   3   4
ATOM      4  O   UNL A   1      34.633  35.095  28.736  1.00  0.00    -0.376 OA
BRANCH   4   5
ATOM      5  C   UNL A   1      33.257  35.009  29.126  1.00  0.00     0.202 C 
BRANCH   5   6
ATOM      6  C   UNL A   1      32.596  36.327  29.517  1.00  0.00     0.261 C 
BRANCH   6   7
ATOM      7  O   UNL A   1      32.573  36.565  30.930  1.00  0.00    -0.460 OA
BRANCH   7   8
ATOM      8  C   UNL A   1      32.650  35.668  31.942  1.00  0.00     0.338 C 
ATOM      9  O   UNL A   1      31.616  35.394  32.549  1.00  0.00    -0.246 OA
BRANCH   8  10
ATOM     10  C   UNL A   1      33.913  35.006  32.401  1.00  0.00     0.060 A 
ATOM     11  C   UNL A   1      35.191  35.557  32.339  1.00  0.00     0.016 A 
ATOM     12  C   UNL A   1      33.783  33.749  33.018  1.00  0.00     0.016 A 
ATOM     13  C   UNL A   1      36.299  34.923  32.859  1.00  0.00     0.010 A 
ATOM     14  C   UNL A   1      34.898  33.077  33.525  1.00  0.00     0.010 A 
ATOM     15  C   UNL A   1      36.160  33.668  33.428  1.00  0.00    -0.014 A 
BRANCH  15  16
ATOM     16  C   UNL A   1      37.409  32.939  33.656  1.00  0.00     0.031 A 
ATOM     17  C   UNL A   1      38.046  33.096  35.000  1.00  0.00     0.074 A 
ATOM     18  C   UNL A   1      37.800  32.002  32.775  1.00  0.00     0.049 A 
ATOM     19  N   UNL A   1      39.159  32.593  35.452  1.00  0.00    -0.248 NA
ATOM     20  C   UNL A   1      37.311  33.917  35.984  1.00  0.00     0.031 C 
ATOM     21  C   UNL A   1      37.087  31.643  31.545  1.00  0.00     0.029 A 
ATOM     22  N   UNL A   1      38.867  31.149  32.804  1.00  0.00    -0.354 N 
ATOM     23  C   UNL A   1      39.279  33.073  36.749  1.00  0.00     0.074 A 
ATOM     24  C   UNL A   1      38.126  33.894  37.024  1.00  0.00     0.031 C 
ATOM     25  C   UNL A   1      37.740  30.638  30.938  1.00  0.00     0.029 A 
ATOM     26  C   UNL A   1      38.950  30.345  31.694  1.00  0.00     0.049 A 
ATOM     27  H   UNL A   1      39.512  31.115  33.547  1.00  0.00     0.167 HD
ATOM     28  C   UNL A   1      40.289  32.853  37.618  1.00  0.00     0.031 A 
ATOM     29  C   UNL A   1      39.938  29.510  31.324  1.00  0.00     0.031 A 
ATOM     30  C   UNL A   1      41.420  32.034  37.291  1.00  0.00     0.049 A 
ATOM     31  C   UNL A   1      41.123  29.400  32.246  1.00  0.00     0.074 A 
ATOM     32  C   UNL A   1      42.558  31.790  38.030  1.00  0.00     0.029 A 
ATOM     33  N   UNL A   1      41.539  31.318  36.105  1.00  0.00    -0.354 N 
ATOM     34  N   UNL A   1      41.299  29.938  33.432  1.00  0.00    -0.248 NA
ATOM     35  C   UNL A   1      42.251  28.589  31.777  1.00  0.00     0.031 C 
ATOM     36  C   UNL A   1      43.397  30.975  37.262  1.00  0.00     0.029 A 
ATOM     37  C   UNL A   1      42.747  30.652  36.078  1.00  0.00     0.049 A 
ATOM     38  H   UNL A   1      40.863  31.292  35.390  1.00  0.00     0.167 HD
ATOM     39  C   UNL A   1      42.545  29.511  33.863  1.00  0.00     0.074 A 
ATOM     40  C   UNL A   1      43.069  28.651  32.818  1.00  0.00     0.031 C 
ATOM     41  C   UNL A   1      43.208  29.800  35.010  1.00  0.00     0.031 A 
BRANCH  28  42
ATOM     42  C   UNL A   1      40.249  33.599  38.919  1.00  0.00    -0.014 A 
ATOM     43  C   UNL A   1      39.632  33.071  40.064  1.00  0.00     0.009 A 
ATOM     44  C   UNL A   1      40.813  34.883  38.984  1.00  0.00     0.009 A 
ATOM     45  C   UNL A   1      39.555  33.828  41.237  1.00  0.00     0.001 A 
ATOM     46  C   UNL A   1      40.758  35.627  40.163  1.00  0.00     0.001 A 
ATOM     47  C   UNL A   1      40.121  35.103  41.286  1.00  0.00     0.000 A 
ENDBRANCH  28  42
BRANCH  29  48
ATOM     48  C   UNL A   1      39.900  28.814  30.009  1.00  0.00    -0.014 A 
ATOM     49  C   UNL A   1      40.253  29.477  28.823  1.00  0.00     0.009 A 
ATOM     50  C   UNL A   1      39.459  27.482  29.926  1.00  0.00     0.009 A 
ATOM     51  C   UNL A   1      40.129  28.834  27.587  1.00  0.00     0.001 A 
ATOM     52  C   UNL A   1      39.370  26.831  28.694  1.00  0.00     0.001 A 
ATOM     53  C   UNL A   1      39.690  27.512  27.523  1.00  0.00     0.000 A 
ENDBRANCH  29  48
BRANCH  41  54
ATOM     54  C   UNL A   1      44.539  29.138  35.203  1.00  0.00    -0.014 A 
ATOM     55  C   UNL A   1      44.642  27.854  35.757  1.00  0.00     0.009 A 
ATOM     56  C   UNL A   1      45.700  29.794  34.765  1.00  0.00     0.009 A 
ATOM     57  C   UNL A   1      45.892  27.252  35.900  1.00  0.00     0.001 A 
ATOM     58  C   UNL A   1      46.942  29.175  34.875  1.00  0.00     0.001 A 
ATOM     59  C   UNL A   1      47.038  27.910  35.452  1.00  0.00     0.000 A 
ENDBRANCH  41  54
ENDBRANCH  15  16
ENDBRANCH   8  10
ENDBRANCH   7   8
ENDBRANCH   6   7
ENDBRANCH   5   6
ENDBRANCH   4   5
ENDBRANCH   3   4
ENDBRANCH   2   3
ENDBRANCH   1   2
BRANCH   1  60
ATOM     60  C   UNL A   1      33.552  30.745  27.570  1.00  0.00     0.188 C 
BRANCH  60  61
ATOM     61  C   UNL A   1      33.615  29.715  26.416  1.00  0.00     0.188 C 
BRANCH  61  62
ATOM     62  O   UNL A   1      32.421  29.683  25.648  1.00  0.00    -0.376 OA
BRANCH  62  63
ATOM     63  C   UNL A   1      31.620  28.507  25.682  1.00  0.00     0.202 C 
BRANCH  63  64
ATOM     64  C   UNL A   1      31.491  27.651  26.961  1.00  0.00     0.261 C 
BRANCH  64  65
ATOM     65  O   UNL A   1      31.244  26.263  26.742  1.00  0.00    -0.463 OA
BRANCH  65  66
ATOM     66  C   UNL A   1      30.515  25.778  25.698  1.00  0.00     0.310 C 
ATOM     67  O   UNL A   1      29.324  25.998  25.492  1.00  0.00    -0.252 OA
BRANCH  66  68
ATOM     68  C   UNL A   1      31.491  25.093  24.761  1.00  0.00     0.118 C 
ATOM     69  C   UNL A   1      31.368  25.662  23.332  1.00  0.00     0.019 C 
ATOM     70  C   UNL A   1      32.933  24.824  25.181  1.00  0.00     0.133 C 
ATOM     71  C   UNL A   1      32.103  24.800  22.316  1.00  0.00     0.022 C 
ATOM     72  N   UNL A   1      33.561  24.062  24.088  1.00  0.00    -0.356 N 
ATOM     73  C   UNL A   1      33.546  24.640  22.747  1.00  0.00     0.118 C 
BRANCH  72  74
ATOM     74  C   UNL A   1      34.446  23.018  24.285  1.00  0.00     0.133 A 
ATOM     75  C   UNL A   1      33.949  21.735  24.219  1.00  0.00     0.077 A 
ATOM     76  N   UNL A   1      35.692  23.265  24.734  1.00  0.00    -0.211 NA
ATOM     77  C   UNL A   1      34.746  20.707  24.672  1.00  0.00     0.095 A 
ATOM     78  C   UNL A   1      36.422  22.193  25.128  1.00  0.00     0.165 A 
ATOM     79  N   UNL A   1      35.991  20.919  25.128  1.00  0.00    -0.226 NA
BRANCH  77  80
ATOM     80  C   UNL A   1      34.213  19.342  24.703  1.00  0.00     0.089 A 
ATOM     81  C   UNL A   1      35.060  18.246  24.534  1.00  0.00     0.030 A 
ATOM     82  N   UNL A   1      32.861  19.210  24.750  1.00  0.00    -0.255 NA
ATOM     83  C   UNL A   1      34.510  16.977  24.404  1.00  0.00     0.004 A 
ATOM     84  C   UNL A   1      32.355  17.963  24.636  1.00  0.00     0.112 A 
ATOM     85  C   UNL A   1      33.130  16.830  24.455  1.00  0.00     0.020 A 
ENDBRANCH  77  80
BRANCH  78  86
ATOM     86  C   UNL A   1      37.765  22.401  25.679  1.00  0.00     0.055 A 
ATOM     87  C   UNL A   1      38.143  23.608  26.296  1.00  0.00     0.015 A 
ATOM     88  C   UNL A   1      38.696  21.353  25.694  1.00  0.00     0.134 A 
ATOM     89  C   UNL A   1      39.395  23.744  26.916  1.00  0.00     0.001 A 
ATOM     90  C   UNL A   1      39.947  21.483  26.302  1.00  0.00     0.040 A 
ATOM     91  F   UNL A   1      38.406  20.179  25.111  1.00  0.00    -0.206 F 
ATOM     92  C   UNL A   1      40.296  22.680  26.921  1.00  0.00     0.003 A 
ENDBRANCH  78  86
ENDBRANCH  72  74
ENDBRANCH  66  68
ENDBRANCH  65  66
ENDBRANCH  64  65
ENDBRANCH  63  64
ENDBRANCH  62  63
ENDBRANCH  61  62
ENDBRANCH  60  61
ENDBRANCH   1  60
TORSDOF 23
ENDMDL
MODEL 3
REMARK VINA RESULT:     -10.6      4.720      7.278
REMARK SMILES O=C(OCCOCCOCCOCCOC(=O)[C@H]1CCCN(c2cc(-c3ccccn3)nc(-c3ccccc3F)n2)C1)c1ccc(-c2c3nc(c(-c4ccccc4)c4ccc([nH]4)c(-c4ccccc4)c4nc(c(-c5ccccc5)c5ccc2[nH]5)C=C4)C=C3)cc1
REMARK SMILES IDX 9 1 8 2 7 3 6 4 5 5 4 6 3 7 2 8 1 9 43 10 44 11 90 12 45 13
REMARK SMILES IDX 89 14 46 15 47 16 48 17 83 18 49 19 88 20 82 21 84 22 50 23
REMARK SMILES IDX 87 24 81 25 80 26 51 28 73 29 58 30 72 31 59 32 62 33 71 34
REMARK SMILES IDX 85 35 60 36 61 37 70 39 86 40 63 41 52 42 53 43 57 44 54 45
REMARK SMILES IDX 56 46 55 47 74 48 75 49 79 50 76 51 78 52 77 53 64 54 65 55
REMARK SMILES IDX 69 56 66 57 68 58 67 59 10 60 11 61 12 62 13 63 14 64 15 65
REMARK SMILES IDX 16 66 17 67 18 68 19 69 42 70 20 71 22 72 21 73 23 74 24 75
REMARK SMILES IDX 41 76 25 77 33 78 32 79 26 80 27 81 31 82 28 83 30 84 29 85
REMARK SMILES IDX 34 86 35 87 39 88 36 89 38 90 40 91 37 92
REMARK H PARENT 84 27 62 38
REMARK Flexibility Score: inf
ROOT
ATOM      1  O   UNL A   1      34.911  31.271  27.664  1.00  0.00    -0.377 OA
ENDROOT
BRANCH   1   2
ATOM      2  C   UNL A   1      34.701  32.265  28.668  1.00  0.00     0.188 C 
BRANCH   2   3
ATOM      3  C   UNL A   1      35.694  33.436  28.652  1.00  0.00     0.188 C 
BRANCH   3   4
ATOM      4  O   UNL A   1      35.046  34.709  28.753  1.00  0.00    -0.376 OA
BRANCH   4   5
ATOM      5  C   UNL A   1      33.627  34.711  28.952  1.00  0.00     0.202 C 
BRANCH   5   6
ATOM      6  C   UNL A   1      33.030  36.021  29.456  1.00  0.00     0.261 C 
BRANCH   6   7
ATOM      7  O   UNL A   1      33.188  36.223  30.866  1.00  0.00    -0.460 OA
BRANCH   7   8
ATOM      8  C   UNL A   1      33.200  35.302  31.859  1.00  0.00     0.338 C 
ATOM      9  O   UNL A   1      32.125  34.984  32.363  1.00  0.00    -0.246 OA
BRANCH   8  10
ATOM     10  C   UNL A   1      34.436  34.660  32.412  1.00  0.00     0.060 A 
ATOM     11  C   UNL A   1      35.666  35.288  32.596  1.00  0.00     0.016 A 
ATOM     12  C   UNL A   1      34.318  33.331  32.854  1.00  0.00     0.016 A 
ATOM     13  C   UNL A   1      36.739  34.658  33.192  1.00  0.00     0.010 A 
ATOM     14  C   UNL A   1      35.402  32.665  33.433  1.00  0.00     0.010 A 
ATOM     15  C   UNL A   1      36.618  33.336  33.585  1.00  0.00    -0.014 A 
BRANCH  15  16
ATOM     16  C   UNL A   1      37.876  32.656  33.902  1.00  0.00     0.031 A 
ATOM     17  C   UNL A   1      38.452  31.776  32.838  1.00  0.00     0.074 A 
ATOM     18  C   UNL A   1      38.567  33.016  34.996  1.00  0.00     0.049 A 
ATOM     19  N   UNL A   1      39.527  31.040  32.866  1.00  0.00    -0.248 NA
ATOM     20  C   UNL A   1      37.728  31.739  31.551  1.00  0.00     0.031 C 
ATOM     21  C   UNL A   1      38.157  34.044  35.960  1.00  0.00     0.029 A 
ATOM     22  N   UNL A   1      39.781  32.592  35.456  1.00  0.00    -0.354 N 
ATOM     23  C   UNL A   1      39.581  30.421  31.625  1.00  0.00     0.074 A 
ATOM     24  C   UNL A   1      38.445  30.870  30.858  1.00  0.00     0.031 C 
ATOM     25  C   UNL A   1      39.111  34.170  36.897  1.00  0.00     0.029 A 
ATOM     26  C   UNL A   1      40.149  33.181  36.641  1.00  0.00     0.049 A 
ATOM     27  H   UNL A   1      40.337  31.931  34.985  1.00  0.00     0.167 HD
ATOM     28  C   UNL A   1      40.499  29.534  31.187  1.00  0.00     0.031 A 
ATOM     29  C   UNL A   1      41.190  32.893  37.444  1.00  0.00     0.031 A 
ATOM     30  C   UNL A   1      41.607  29.112  31.995  1.00  0.00     0.049 A 
ATOM     31  C   UNL A   1      42.114  31.793  36.998  1.00  0.00     0.074 A 
ATOM     32  C   UNL A   1      42.566  28.159  31.723  1.00  0.00     0.029 A 
ATOM     33  N   UNL A   1      41.895  29.638  33.248  1.00  0.00    -0.354 N 
ATOM     34  N   UNL A   1      42.113  31.119  35.870  1.00  0.00    -0.248 NA
ATOM     35  C   UNL A   1      43.171  31.398  37.935  1.00  0.00     0.031 C 
ATOM     36  C   UNL A   1      43.400  28.064  32.843  1.00  0.00     0.029 A 
ATOM     37  C   UNL A   1      43.003  29.011  33.779  1.00  0.00     0.049 A 
ATOM     38  H   UNL A   1      41.383  30.353  33.693  1.00  0.00     0.167 HD
ATOM     39  C   UNL A   1      43.180  30.238  35.949  1.00  0.00     0.074 A 
ATOM     40  C   UNL A   1      43.819  30.482  37.229  1.00  0.00     0.031 C 
ATOM     41  C   UNL A   1      43.599  29.306  35.058  1.00  0.00     0.031 A 
BRANCH  28  42
ATOM     42  C   UNL A   1      40.259  28.902  29.847  1.00  0.00    -0.014 A 
ATOM     43  C   UNL A   1      40.733  29.474  28.657  1.00  0.00     0.009 A 
ATOM     44  C   UNL A   1      39.502  27.722  29.779  1.00  0.00     0.009 A 
ATOM     45  C   UNL A   1      40.426  28.891  27.423  1.00  0.00     0.001 A 
ATOM     46  C   UNL A   1      39.219  27.127  28.549  1.00  0.00     0.001 A 
ATOM     47  C   UNL A   1      39.674  27.717  27.371  1.00  0.00     0.000 A 
ENDBRANCH  28  42
BRANCH  29  48
ATOM     48  C   UNL A   1      41.348  33.564  38.763  1.00  0.00    -0.014 A 
ATOM     49  C   UNL A   1      42.021  34.790  38.882  1.00  0.00     0.009 A 
ATOM     50  C   UNL A   1      40.864  32.949  39.931  1.00  0.00     0.009 A 
ATOM     51  C   UNL A   1      42.236  35.363  40.140  1.00  0.00     0.001 A 
ATOM     52  C   UNL A   1      41.048  33.541  41.182  1.00  0.00     0.001 A 
ATOM     53  C   UNL A   1      41.748  34.739  41.288  1.00  0.00     0.000 A 
ENDBRANCH  29  48
BRANCH  41  54
ATOM     54  C   UNL A   1      44.829  28.530  35.424  1.00  0.00    -0.014 A 
ATOM     55  C   UNL A   1      46.101  28.937  35.000  1.00  0.00     0.009 A 
ATOM     56  C   UNL A   1      44.706  27.407  36.257  1.00  0.00     0.009 A 
ATOM     57  C   UNL A   1      47.230  28.210  35.378  1.00  0.00     0.001 A 
ATOM     58  C   UNL A   1      45.838  26.706  36.663  1.00  0.00     0.001 A 
ATOM     59  C   UNL A   1      47.097  27.102  36.215  1.00  0.00     0.000 A 
ENDBRANCH  41  54
ENDBRANCH  15  16
ENDBRANCH   8  10
ENDBRANCH   7   8
ENDBRANCH   6   7
ENDBRANCH   5   6
ENDBRANCH   4   5
ENDBRANCH   3   4
ENDBRANCH   2   3
ENDBRANCH   1   2
BRANCH   1  60
ATOM     60  C   UNL A   1      33.775  30.471  27.372  1.00  0.00     0.188 C 
BRANCH  60  61
ATOM     61  C   UNL A   1      33.616  29.924  25.933  1.00  0.00     0.188 C 
BRANCH  61  62
ATOM     62  O   UNL A   1      32.257  29.728  25.570  1.00  0.00    -0.376 OA
BRANCH  62  63
ATOM     63  C   UNL A   1      31.736  28.404  25.566  1.00  0.00     0.202 C 
BRANCH  63  64
ATOM     64  C   UNL A   1      31.302  27.700  26.872  1.00  0.00     0.261 C 
BRANCH  64  65
ATOM     65  O   UNL A   1      31.349  26.274  26.838  1.00  0.00    -0.463 OA
BRANCH  65  66
ATOM     66  C   UNL A   1      30.363  25.495  26.312  1.00  0.00     0.310 C 
ATOM     67  O   UNL A   1      29.158  25.634  26.508  1.00  0.00    -0.252 OA
BRANCH  66  68
ATOM     68  C   UNL A   1      31.023  24.571  25.307  1.00  0.00     0.118 C 
ATOM     69  C   UNL A   1      30.351  24.697  23.924  1.00  0.00     0.019 C 
ATOM     70  C   UNL A   1      32.542  24.442  25.230  1.00  0.00     0.133 C 
ATOM     71  C   UNL A   1      30.779  23.579  22.984  1.00  0.00     0.022 C 
ATOM     72  N   UNL A   1      32.832  23.397  24.233  1.00  0.00    -0.356 N 
ATOM     73  C   UNL A   1      32.290  23.558  22.887  1.00  0.00     0.118 C 
BRANCH  72  74
ATOM     74  C   UNL A   1      33.840  22.460  24.370  1.00  0.00     0.133 A 
ATOM     75  C   UNL A   1      33.488  21.129  24.330  1.00  0.00     0.077 A 
ATOM     76  N   UNL A   1      35.076  22.847  24.740  1.00  0.00    -0.211 NA
ATOM     77  C   UNL A   1      34.422  20.199  24.728  1.00  0.00     0.095 A 
ATOM     78  C   UNL A   1      35.946  21.866  25.083  1.00  0.00     0.165 A 
ATOM     79  N   UNL A   1      35.662  20.551  25.106  1.00  0.00    -0.226 NA
BRANCH  77  80
ATOM     80  C   UNL A   1      34.050  18.782  24.787  1.00  0.00     0.089 A 
ATOM     81  C   UNL A   1      34.984  17.791  24.485  1.00  0.00     0.030 A 
ATOM     82  N   UNL A   1      32.738  18.500  24.997  1.00  0.00    -0.255 NA
ATOM     83  C   UNL A   1      34.564  16.470  24.388  1.00  0.00     0.004 A 
ATOM     84  C   UNL A   1      32.360  17.205  24.913  1.00  0.00     0.112 A 
ATOM     85  C   UNL A   1      33.225  16.169  24.605  1.00  0.00     0.020 A 
ENDBRANCH  77  80
BRANCH  78  86
ATOM     86  C   UNL A   1      37.289  22.226  25.549  1.00  0.00     0.055 A 
ATOM     87  C   UNL A   1      37.570  23.476  26.131  1.00  0.00     0.015 A 
ATOM     88  C   UNL A   1      38.327  21.285  25.516  1.00  0.00     0.134 A 
ATOM     89  C   UNL A   1      38.834  23.756  26.672  1.00  0.00     0.001 A 
ATOM     90  C   UNL A   1      39.591  21.558  26.045  1.00  0.00     0.040 A 
ATOM     91  F   UNL A   1      38.132  20.078  24.962  1.00  0.00    -0.206 F 
ATOM     92  C   UNL A   1      39.844  22.795  26.632  1.00  0.00     0.003 A 
ENDBRANCH  78  86
ENDBRANCH  72  74
ENDBRANCH  66  68
ENDBRANCH  65  66
ENDBRANCH  64  65
ENDBRANCH  63  64
ENDBRANCH  62  63
ENDBRANCH  61  62
ENDBRANCH  60  61
ENDBRANCH   1  60
TORSDOF 23
ENDMDL
