MODEL 1
REMARK VINA RESULT:      -9.5      0.000      0.000
REMARK SMILES O=C(OCCOCCOCCOCCOC(=O)[C@@H]1CC[C@@H](CS(=O)(=O)c2cccc(F)c2)O1)c1ccc(-c2c3nc(c(-c4ccccc4)c4ccc([nH]4)c(-c4ccccc4)c4nc(c(-c5ccccc5)c5ccc2[nH]5)C=C4)C=C3)cc1
REMARK SMILES IDX 10 1 9 2 8 3 7 4 6 5 5 6 4 7 3 8 2 9 1 10 34 11 35 12 81 13
REMARK SMILES IDX 36 14 80 15 37 16 38 17 39 18 74 19 40 20 79 21 73 22 75 23
REMARK SMILES IDX 41 24 78 25 72 26 71 27 42 29 64 30 49 31 63 32 50 33 53 34
REMARK SMILES IDX 62 35 76 36 51 37 52 38 61 40 77 41 54 42 43 43 44 44 48 45
REMARK SMILES IDX 45 46 47 47 46 48 65 49 66 50 70 51 67 52 69 53 68 54 55 55
REMARK SMILES IDX 56 56 60 57 57 58 59 59 58 60 11 61 12 62 13 63 14 64 15 65
REMARK SMILES IDX 16 66 17 67 18 68 19 69 33 70 20 71 21 72 22 73 23 74 24 75
REMARK SMILES IDX 25 76 26 77 27 78 32 79 28 80 30 81 29 82 31 83
REMARK H PARENT 75 28 53 39
REMARK Flexibility Score: inf
ROOT
ATOM      1  C   UNL A   1      36.145  23.413  24.859  1.00  0.00     0.188 C 
ENDROOT
BRANCH   1   2
ATOM      2  O   UNL A   1      36.280  22.256  25.678  1.00  0.00    -0.377 OA
BRANCH   2   3
ATOM      3  C   UNL A   1      36.291  21.002  25.006  1.00  0.00     0.188 C 
BRANCH   3   4
ATOM      4  C   UNL A   1      37.648  20.311  24.962  1.00  0.00     0.188 C 
BRANCH   4   5
ATOM      5  O   UNL A   1      38.697  21.200  25.330  1.00  0.00    -0.376 OA
BRANCH   5   6
ATOM      6  C   UNL A   1      39.728  20.684  26.172  1.00  0.00     0.202 C 
BRANCH   6   7
ATOM      7  C   UNL A   1      40.213  19.284  25.822  1.00  0.00     0.261 C 
BRANCH   7   8
ATOM      8  O   UNL A   1      41.585  19.210  25.402  1.00  0.00    -0.460 OA
BRANCH   8   9
ATOM      9  C   UNL A   1      42.681  19.835  25.888  1.00  0.00     0.338 C 
ATOM     10  O   UNL A   1      43.730  19.195  25.960  1.00  0.00    -0.246 OA
BRANCH   9  11
ATOM     11  C   UNL A   1      42.719  21.258  26.333  1.00  0.00     0.060 A 
ATOM     12  C   UNL A   1      42.732  22.369  25.496  1.00  0.00     0.016 A 
ATOM     13  C   UNL A   1      42.631  21.490  27.716  1.00  0.00     0.016 A 
ATOM     14  C   UNL A   1      42.722  23.660  25.978  1.00  0.00     0.010 A 
ATOM     15  C   UNL A   1      42.599  22.793  28.224  1.00  0.00     0.010 A 
ATOM     16  C   UNL A   1      42.674  23.876  27.344  1.00  0.00    -0.014 A 
BRANCH  16  17
ATOM     17  C   UNL A   1      42.942  25.246  27.786  1.00  0.00     0.031 A 
ATOM     18  C   UNL A   1      44.358  25.720  27.702  1.00  0.00     0.074 A 
ATOM     19  C   UNL A   1      41.916  26.079  28.033  1.00  0.00     0.049 A 
ATOM     20  N   UNL A   1      44.872  26.859  28.067  1.00  0.00    -0.248 NA
ATOM     21  C   UNL A   1      45.327  24.782  27.105  1.00  0.00     0.031 C 
ATOM     22  C   UNL A   1      40.494  25.731  27.917  1.00  0.00     0.029 A 
ATOM     23  N   UNL A   1      41.909  27.398  28.382  1.00  0.00    -0.354 N 
ATOM     24  C   UNL A   1      46.229  26.754  27.792  1.00  0.00     0.074 A 
ATOM     25  C   UNL A   1      46.462  25.447  27.227  1.00  0.00     0.031 C 
ATOM     26  C   UNL A   1      39.755  26.821  28.177  1.00  0.00     0.029 A 
ATOM     27  C   UNL A   1      40.647  27.907  28.559  1.00  0.00     0.049 A 
ATOM     28  H   UNL A   1      42.728  27.932  28.496  1.00  0.00     0.167 HD
ATOM     29  C   UNL A   1      47.190  27.675  28.017  1.00  0.00     0.031 A 
ATOM     30  C   UNL A   1      40.273  29.108  29.033  1.00  0.00     0.031 A 
ATOM     31  C   UNL A   1      46.904  28.959  28.593  1.00  0.00     0.049 A 
ATOM     32  C   UNL A   1      41.370  30.062  29.417  1.00  0.00     0.074 A 
ATOM     33  C   UNL A   1      47.778  29.961  28.961  1.00  0.00     0.029 A 
ATOM     34  N   UNL A   1      45.620  29.408  28.882  1.00  0.00    -0.354 N 
ATOM     35  N   UNL A   1      42.669  29.930  29.267  1.00  0.00    -0.248 NA
ATOM     36  C   UNL A   1      40.958  31.319  30.051  1.00  0.00     0.031 C 
ATOM     37  C   UNL A   1      47.024  30.993  29.533  1.00  0.00     0.029 A 
ATOM     38  C   UNL A   1      45.677  30.663  29.453  1.00  0.00     0.049 A 
ATOM     39  H   UNL A   1      44.793  28.904  28.706  1.00  0.00     0.167 HD
ATOM     40  C   UNL A   1      43.232  31.092  29.770  1.00  0.00     0.074 A 
ATOM     41  C   UNL A   1      42.127  31.926  30.209  1.00  0.00     0.031 C 
ATOM     42  C   UNL A   1      44.538  31.445  29.870  1.00  0.00     0.031 A 
BRANCH  29  43
ATOM     43  C   UNL A   1      48.607  27.253  27.751  1.00  0.00    -0.014 A 
ATOM     44  C   UNL A   1      49.250  27.519  26.531  1.00  0.00     0.009 A 
ATOM     45  C   UNL A   1      49.285  26.501  28.722  1.00  0.00     0.009 A 
ATOM     46  C   UNL A   1      50.519  26.996  26.271  1.00  0.00     0.001 A 
ATOM     47  C   UNL A   1      50.565  26.005  28.473  1.00  0.00     0.001 A 
ATOM     48  C   UNL A   1      51.176  26.241  27.243  1.00  0.00     0.000 A 
ENDBRANCH  29  43
BRANCH  30  49
ATOM     49  C   UNL A   1      38.836  29.427  29.247  1.00  0.00    -0.014 A 
ATOM     50  C   UNL A   1      38.211  29.168  30.475  1.00  0.00     0.009 A 
ATOM     51  C   UNL A   1      38.071  29.988  28.209  1.00  0.00     0.009 A 
ATOM     52  C   UNL A   1      36.850  29.443  30.651  1.00  0.00     0.001 A 
ATOM     53  C   UNL A   1      36.721  30.291  28.396  1.00  0.00     0.001 A 
ATOM     54  C   UNL A   1      36.108  30.007  29.614  1.00  0.00     0.000 A 
ENDBRANCH  30  49
BRANCH  42  55
ATOM     55  C   UNL A   1      44.823  32.805  30.435  1.00  0.00    -0.014 A 
ATOM     56  C   UNL A   1      44.839  33.946  29.617  1.00  0.00     0.009 A 
ATOM     57  C   UNL A   1      45.018  32.946  31.817  1.00  0.00     0.009 A 
ATOM     58  C   UNL A   1      45.080  35.201  30.175  1.00  0.00     0.001 A 
ATOM     59  C   UNL A   1      45.221  34.206  32.374  1.00  0.00     0.001 A 
ATOM     60  C   UNL A   1      45.262  35.331  31.552  1.00  0.00     0.000 A 
ENDBRANCH  42  55
ENDBRANCH  16  17
ENDBRANCH   9  11
ENDBRANCH   8   9
ENDBRANCH   7   8
ENDBRANCH   6   7
ENDBRANCH   5   6
ENDBRANCH   4   5
ENDBRANCH   3   4
ENDBRANCH   2   3
ENDBRANCH   1   2
BRANCH   1  61
ATOM     61  C   UNL A   1      36.156  23.294  23.328  1.00  0.00     0.188 C 
BRANCH  61  62
ATOM     62  O   UNL A   1      34.873  23.206  22.726  1.00  0.00    -0.376 OA
BRANCH  62  63
ATOM     63  C   UNL A   1      33.898  24.081  23.288  1.00  0.00     0.202 C 
BRANCH  63  64
ATOM     64  C   UNL A   1      33.082  24.944  22.301  1.00  0.00     0.261 C 
BRANCH  64  65
ATOM     65  O   UNL A   1      33.819  25.998  21.653  1.00  0.00    -0.461 OA
BRANCH  65  66
ATOM     66  C   UNL A   1      33.674  27.267  22.093  1.00  0.00     0.335 C 
ATOM     67  O   UNL A   1      34.276  28.230  21.632  1.00  0.00    -0.249 OA
BRANCH  66  68
ATOM     68  C   UNL A   1      32.563  27.404  23.167  1.00  0.00     0.228 C 
ATOM     69  C   UNL A   1      31.972  28.795  23.201  1.00  0.00     0.047 C 
ATOM     70  O   UNL A   1      32.762  27.110  24.554  1.00  0.00    -0.362 OA
ATOM     71  C   UNL A   1      31.012  28.663  24.365  1.00  0.00     0.036 C 
ATOM     72  C   UNL A   1      31.775  27.780  25.336  1.00  0.00     0.135 C 
BRANCH  72  73
ATOM     73  C   UNL A   1      31.009  26.908  26.336  1.00  0.00     0.174 C 
BRANCH  73  74
ATOM     74  S   UNL A   1      30.204  25.385  25.918  1.00  0.00     0.181 S 
ATOM     75  O   UNL A   1      29.146  25.125  26.885  1.00  0.00    -0.224 OA
ATOM     76  O   UNL A   1      29.867  25.461  24.513  1.00  0.00    -0.224 OA
BRANCH  74  77
ATOM     77  C   UNL A   1      31.313  24.010  26.033  1.00  0.00     0.070 A 
ATOM     78  C   UNL A   1      32.409  24.034  26.896  1.00  0.00     0.020 A 
ATOM     79  C   UNL A   1      31.068  22.890  25.230  1.00  0.00     0.059 A 
ATOM     80  C   UNL A   1      33.170  22.876  27.070  1.00  0.00     0.004 A 
ATOM     81  C   UNL A   1      31.869  21.765  25.376  1.00  0.00     0.124 A 
ATOM     82  C   UNL A   1      32.891  21.735  26.317  1.00  0.00     0.039 A 
ATOM     83  F   UNL A   1      31.643  20.689  24.612  1.00  0.00    -0.207 F 
ENDBRANCH  74  77
ENDBRANCH  73  74
ENDBRANCH  72  73
ENDBRANCH  66  68
ENDBRANCH  65  66
ENDBRANCH  64  65
ENDBRANCH  63  64
ENDBRANCH  62  63
ENDBRANCH  61  62
ENDBRANCH   1  61
TORSDOF 23
ENDMDL
MODEL 2
REMARK VINA RESULT:      -9.4      1.266      5.948
REMARK SMILES O=C(OCCOCCOCCOCCOC(=O)[C@@H]1CC[C@@H](CS(=O)(=O)c2cccc(F)c2)O1)c1ccc(-c2c3nc(c(-c4ccccc4)c4ccc([nH]4)c(-c4ccccc4)c4nc(c(-c5ccccc5)c5ccc2[nH]5)C=C4)C=C3)cc1
REMARK SMILES IDX 10 1 9 2 8 3 7 4 6 5 5 6 4 7 3 8 2 9 1 10 34 11 35 12 81 13
REMARK SMILES IDX 36 14 80 15 37 16 38 17 39 18 74 19 40 20 79 21 73 22 75 23
REMARK SMILES IDX 41 24 78 25 72 26 71 27 42 29 64 30 49 31 63 32 50 33 53 34
REMARK SMILES IDX 62 35 76 36 51 37 52 38 61 40 77 41 54 42 43 43 44 44 48 45
REMARK SMILES IDX 45 46 47 47 46 48 65 49 66 50 70 51 67 52 69 53 68 54 55 55
REMARK SMILES IDX 56 56 60 57 57 58 59 59 58 60 11 61 12 62 13 63 14 64 15 65
REMARK SMILES IDX 16 66 17 67 18 68 19 69 33 70 20 71 21 72 22 73 23 74 24 75
REMARK SMILES IDX 25 76 26 77 27 78 32 79 28 80 30 81 29 82 31 83
REMARK H PARENT 75 28 53 39
REMARK Flexibility Score: inf
ROOT
ATOM      1  C   UNL A   1      36.147  23.454  24.753  1.00  0.00     0.188 C 
ENDROOT
BRANCH   1   2
ATOM      2  O   UNL A   1      36.208  22.327  25.621  1.00  0.00    -0.377 OA
BRANCH   2   3
ATOM      3  C   UNL A   1      36.337  21.054  25.001  1.00  0.00     0.188 C 
BRANCH   3   4
ATOM      4  C   UNL A   1      37.747  20.477  25.010  1.00  0.00     0.188 C 
BRANCH   4   5
ATOM      5  O   UNL A   1      38.704  21.446  25.420  1.00  0.00    -0.376 OA
BRANCH   5   6
ATOM      6  C   UNL A   1      39.792  20.995  26.228  1.00  0.00     0.202 C 
BRANCH   6   7
ATOM      7  C   UNL A   1      40.106  19.509  26.120  1.00  0.00     0.261 C 
BRANCH   7   8
ATOM      8  O   UNL A   1      41.361  19.205  25.491  1.00  0.00    -0.460 OA
BRANCH   8   9
ATOM      9  C   UNL A   1      42.605  19.664  25.757  1.00  0.00     0.338 C 
ATOM     10  O   UNL A   1      43.535  18.858  25.752  1.00  0.00    -0.246 OA
BRANCH   9  11
ATOM     11  C   UNL A   1      42.940  21.089  26.043  1.00  0.00     0.060 A 
ATOM     12  C   UNL A   1      43.050  22.102  25.095  1.00  0.00     0.016 A 
ATOM     13  C   UNL A   1      43.051  21.453  27.395  1.00  0.00     0.016 A 
ATOM     14  C   UNL A   1      43.319  23.410  25.437  1.00  0.00     0.010 A 
ATOM     15  C   UNL A   1      43.304  22.778  27.764  1.00  0.00     0.010 A 
ATOM     16  C   UNL A   1      43.465  23.748  26.770  1.00  0.00    -0.014 A 
BRANCH  16  17
ATOM     17  C   UNL A   1      44.015  25.079  27.038  1.00  0.00     0.031 A 
ATOM     18  C   UNL A   1      43.086  26.090  27.629  1.00  0.00     0.074 A 
ATOM     19  C   UNL A   1      45.342  25.280  26.956  1.00  0.00     0.049 A 
ATOM     20  N   UNL A   1      43.299  27.341  27.918  1.00  0.00    -0.248 NA
ATOM     21  C   UNL A   1      41.728  25.616  27.957  1.00  0.00     0.031 C 
ATOM     22  C   UNL A   1      46.333  24.259  26.593  1.00  0.00     0.029 A 
ATOM     23  N   UNL A   1      46.089  26.391  27.222  1.00  0.00    -0.354 N 
ATOM     24  C   UNL A   1      42.091  27.814  28.412  1.00  0.00     0.074 A 
ATOM     25  C   UNL A   1      41.149  26.723  28.390  1.00  0.00     0.031 C 
ATOM     26  C   UNL A   1      47.561  24.795  26.675  1.00  0.00     0.029 A 
ATOM     27  C   UNL A   1      47.432  26.206  27.009  1.00  0.00     0.049 A 
ATOM     28  H   UNL A   1      45.702  27.240  27.536  1.00  0.00     0.167 HD
ATOM     29  C   UNL A   1      41.804  29.067  28.827  1.00  0.00     0.031 A 
ATOM     30  C   UNL A   1      48.428  27.109  27.035  1.00  0.00     0.031 A 
ATOM     31  C   UNL A   1      42.778  30.122  28.818  1.00  0.00     0.049 A 
ATOM     32  C   UNL A   1      48.055  28.530  27.355  1.00  0.00     0.074 A 
ATOM     33  C   UNL A   1      42.616  31.458  29.123  1.00  0.00     0.029 A 
ATOM     34  N   UNL A   1      44.113  29.938  28.476  1.00  0.00    -0.354 N 
ATOM     35  N   UNL A   1      46.888  29.016  27.715  1.00  0.00    -0.248 NA
ATOM     36  C   UNL A   1      49.123  29.530  27.255  1.00  0.00     0.031 C 
ATOM     37  C   UNL A   1      43.844  32.094  28.905  1.00  0.00     0.029 A 
ATOM     38  C   UNL A   1      44.785  31.143  28.535  1.00  0.00     0.049 A 
ATOM     39  H   UNL A   1      44.519  29.077  28.229  1.00  0.00     0.167 HD
ATOM     40  C   UNL A   1      47.081  30.374  27.904  1.00  0.00     0.074 A 
ATOM     41  C   UNL A   1      48.487  30.629  27.638  1.00  0.00     0.031 C 
ATOM     42  C   UNL A   1      46.189  31.333  28.259  1.00  0.00     0.031 A 
BRANCH  29  43
ATOM     43  C   UNL A   1      40.374  29.348  29.189  1.00  0.00    -0.014 A 
ATOM     44  C   UNL A   1      39.408  29.677  28.223  1.00  0.00     0.009 A 
ATOM     45  C   UNL A   1      40.007  29.361  30.543  1.00  0.00     0.009 A 
ATOM     46  C   UNL A   1      38.122  30.061  28.611  1.00  0.00     0.001 A 
ATOM     47  C   UNL A   1      38.712  29.715  30.927  1.00  0.00     0.001 A 
ATOM     48  C   UNL A   1      37.775  30.078  29.962  1.00  0.00     0.000 A 
ENDBRANCH  29  43
BRANCH  30  49
ATOM     49  C   UNL A   1      49.816  26.719  26.668  1.00  0.00    -0.014 A 
ATOM     50  C   UNL A   1      50.245  26.732  25.333  1.00  0.00     0.009 A 
ATOM     51  C   UNL A   1      50.725  26.316  27.662  1.00  0.00     0.009 A 
ATOM     52  C   UNL A   1      51.544  26.330  25.001  1.00  0.00     0.001 A 
ATOM     53  C   UNL A   1      52.031  25.946  27.332  1.00  0.00     0.001 A 
ATOM     54  C   UNL A   1      52.436  25.942  26.000  1.00  0.00     0.000 A 
ENDBRANCH  30  49
BRANCH  42  55
ATOM     55  C   UNL A   1      46.727  32.724  28.418  1.00  0.00    -0.014 A 
ATOM     56  C   UNL A   1      46.712  33.637  27.353  1.00  0.00     0.009 A 
ATOM     57  C   UNL A   1      47.200  33.136  29.673  1.00  0.00     0.009 A 
ATOM     58  C   UNL A   1      47.196  34.932  27.537  1.00  0.00     0.001 A 
ATOM     59  C   UNL A   1      47.646  34.441  29.862  1.00  0.00     0.001 A 
ATOM     60  C   UNL A   1      47.654  35.335  28.792  1.00  0.00     0.000 A 
ENDBRANCH  42  55
ENDBRANCH  16  17
ENDBRANCH   9  11
ENDBRANCH   8   9
ENDBRANCH   7   8
ENDBRANCH   6   7
ENDBRANCH   5   6
ENDBRANCH   4   5
ENDBRANCH   3   4
ENDBRANCH   2   3
ENDBRANCH   1   2
BRANCH   1  61
ATOM     61  C   UNL A   1      36.252  23.275  23.231  1.00  0.00     0.188 C 
BRANCH  61  62
ATOM     62  O   UNL A   1      35.008  23.214  22.549  1.00  0.00    -0.376 OA
BRANCH  62  63
ATOM     63  C   UNL A   1      33.945  23.903  23.202  1.00  0.00     0.202 C 
BRANCH  63  64
ATOM     64  C   UNL A   1      33.135  24.905  22.351  1.00  0.00     0.261 C 
BRANCH  64  65
ATOM     65  O   UNL A   1      33.905  25.960  21.745  1.00  0.00    -0.461 OA
BRANCH  65  66
ATOM     66  C   UNL A   1      33.690  27.235  22.134  1.00  0.00     0.335 C 
ATOM     67  O   UNL A   1      34.227  28.212  21.622  1.00  0.00    -0.249 OA
BRANCH  66  68
ATOM     68  C   UNL A   1      32.589  27.352  23.220  1.00  0.00     0.228 C 
ATOM     69  C   UNL A   1      31.989  28.738  23.275  1.00  0.00     0.047 C 
ATOM     70  O   UNL A   1      32.802  27.043  24.601  1.00  0.00    -0.362 OA
ATOM     71  C   UNL A   1      31.040  28.586  24.446  1.00  0.00     0.036 C 
ATOM     72  C   UNL A   1      31.818  27.698  25.399  1.00  0.00     0.135 C 
BRANCH  72  73
ATOM     73  C   UNL A   1      31.067  26.809  26.397  1.00  0.00     0.174 C 
BRANCH  73  74
ATOM     74  S   UNL A   1      30.163  25.353  25.948  1.00  0.00     0.181 S 
ATOM     75  O   UNL A   1      29.055  25.175  26.878  1.00  0.00    -0.224 OA
ATOM     76  O   UNL A   1      29.880  25.454  24.532  1.00  0.00    -0.224 OA
BRANCH  74  77
ATOM     77  C   UNL A   1      31.157  23.896  26.097  1.00  0.00     0.070 A 
ATOM     78  C   UNL A   1      30.892  22.758  25.335  1.00  0.00     0.020 A 
ATOM     79  C   UNL A   1      32.221  23.907  27.006  1.00  0.00     0.059 A 
ATOM     80  C   UNL A   1      31.787  21.686  25.368  1.00  0.00     0.004 A 
ATOM     81  C   UNL A   1      33.070  22.810  27.068  1.00  0.00     0.124 A 
ATOM     82  C   UNL A   1      32.886  21.718  26.228  1.00  0.00     0.039 A 
ATOM     83  F   UNL A   1      34.090  22.812  27.934  1.00  0.00    -0.207 F 
ENDBRANCH  74  77
ENDBRANCH  73  74
ENDBRANCH  72  73
ENDBRANCH  66  68
ENDBRANCH  65  66
ENDBRANCH  64  65
ENDBRANCH  63  64
ENDBRANCH  62  63
ENDBRANCH  61  62
ENDBRANCH   1  61
TORSDOF 23
ENDMDL
MODEL 3
REMARK VINA RESULT:      -9.2      3.813      5.855
REMARK SMILES O=C(OCCOCCOCCOCCOC(=O)[C@@H]1CC[C@@H](CS(=O)(=O)c2cccc(F)c2)O1)c1ccc(-c2c3nc(c(-c4ccccc4)c4ccc([nH]4)c(-c4ccccc4)c4nc(c(-c5ccccc5)c5ccc2[nH]5)C=C4)C=C3)cc1
REMARK SMILES IDX 10 1 9 2 8 3 7 4 6 5 5 6 4 7 3 8 2 9 1 10 34 11 35 12 81 13
REMARK SMILES IDX 36 14 80 15 37 16 38 17 39 18 74 19 40 20 79 21 73 22 75 23
REMARK SMILES IDX 41 24 78 25 72 26 71 27 42 29 64 30 49 31 63 32 50 33 53 34
REMARK SMILES IDX 62 35 76 36 51 37 52 38 61 40 77 41 54 42 43 43 44 44 48 45
REMARK SMILES IDX 45 46 47 47 46 48 65 49 66 50 70 51 67 52 69 53 68 54 55 55
REMARK SMILES IDX 56 56 60 57 57 58 59 59 58 60 11 61 12 62 13 63 14 64 15 65
REMARK SMILES IDX 16 66 17 67 18 68 19 69 33 70 20 71 21 72 22 73 23 74 24 75
REMARK SMILES IDX 25 76 26 77 27 78 32 79 28 80 30 81 29 82 31 83
REMARK H PARENT 75 28 53 39
REMARK Flexibility Score: inf
ROOT
ATOM      1  C   UNL A   1      40.455  21.943  26.078  1.00  0.00     0.188 C 
ENDROOT
BRANCH   1   2
ATOM      2  O   UNL A   1      41.109  21.504  27.264  1.00  0.00    -0.377 OA
BRANCH   2   3
ATOM      3  C   UNL A   1      42.114  20.511  27.104  1.00  0.00     0.188 C 
BRANCH   3   4
ATOM      4  C   UNL A   1      42.747  20.457  25.718  1.00  0.00     0.188 C 
BRANCH   4   5
ATOM      5  O   UNL A   1      44.165  20.373  25.796  1.00  0.00    -0.376 OA
BRANCH   5   6
ATOM      6  C   UNL A   1      44.918  21.448  25.235  1.00  0.00     0.202 C 
BRANCH   6   7
ATOM      7  C   UNL A   1      44.260  22.158  24.059  1.00  0.00     0.261 C 
BRANCH   7   8
ATOM      8  O   UNL A   1      43.683  23.434  24.375  1.00  0.00    -0.460 OA
BRANCH   8   9
ATOM      9  C   UNL A   1      44.232  24.519  24.967  1.00  0.00     0.338 C 
ATOM     10  O   UNL A   1      45.371  24.847  24.636  1.00  0.00    -0.246 OA
BRANCH   9  11
ATOM     11  C   UNL A   1      43.549  25.364  25.989  1.00  0.00     0.060 A 
ATOM     12  C   UNL A   1      43.677  26.744  26.115  1.00  0.00     0.016 A 
ATOM     13  C   UNL A   1      42.622  24.721  26.825  1.00  0.00     0.016 A 
ATOM     14  C   UNL A   1      42.979  27.469  27.057  1.00  0.00     0.010 A 
ATOM     15  C   UNL A   1      41.890  25.442  27.774  1.00  0.00     0.010 A 
ATOM     16  C   UNL A   1      42.098  26.818  27.901  1.00  0.00    -0.014 A 
BRANCH  16  17
ATOM     17  C   UNL A   1      41.608  27.596  29.041  1.00  0.00     0.031 A 
ATOM     18  C   UNL A   1      42.469  27.623  30.263  1.00  0.00     0.074 A 
ATOM     19  C   UNL A   1      40.552  28.413  28.885  1.00  0.00     0.049 A 
ATOM     20  N   UNL A   1      42.255  28.190  31.415  1.00  0.00    -0.248 NA
ATOM     21  C   UNL A   1      43.766  26.925  30.164  1.00  0.00     0.031 C 
ATOM     22  C   UNL A   1      39.798  28.596  27.639  1.00  0.00     0.029 A 
ATOM     23  N   UNL A   1      39.963  29.278  29.762  1.00  0.00    -0.354 N 
ATOM     24  C   UNL A   1      43.362  27.875  32.191  1.00  0.00     0.074 A 
ATOM     25  C   UNL A   1      44.249  27.072  31.386  1.00  0.00     0.031 C 
ATOM     26  C   UNL A   1      38.854  29.530  27.833  1.00  0.00     0.029 A 
ATOM     27  C   UNL A   1      38.885  29.940  29.230  1.00  0.00     0.049 A 
ATOM     28  H   UNL A   1      40.280  29.413  30.684  1.00  0.00     0.167 HD
ATOM     29  C   UNL A   1      43.593  28.219  33.477  1.00  0.00     0.031 A 
ATOM     30  C   UNL A   1      37.999  30.748  29.838  1.00  0.00     0.031 A 
ATOM     31  C   UNL A   1      42.669  29.011  34.238  1.00  0.00     0.049 A 
ATOM     32  C   UNL A   1      38.196  30.994  31.308  1.00  0.00     0.074 A 
ATOM     33  C   UNL A   1      42.720  29.367  35.570  1.00  0.00     0.029 A 
ATOM     34  N   UNL A   1      41.512  29.572  33.708  1.00  0.00    -0.354 N 
ATOM     35  N   UNL A   1      39.182  30.606  32.085  1.00  0.00    -0.248 NA
ATOM     36  C   UNL A   1      37.156  31.769  31.992  1.00  0.00     0.031 C 
ATOM     37  C   UNL A   1      41.558  30.092  35.861  1.00  0.00     0.029 A 
ATOM     38  C   UNL A   1      40.822  30.249  34.693  1.00  0.00     0.049 A 
ATOM     39  H   UNL A   1      41.227  29.497  32.769  1.00  0.00     0.167 HD
ATOM     40  C   UNL A   1      38.894  31.103  33.346  1.00  0.00     0.074 A 
ATOM     41  C   UNL A   1      37.649  31.841  33.220  1.00  0.00     0.031 C 
ATOM     42  C   UNL A   1      39.584  30.966  34.506  1.00  0.00     0.031 A 
BRANCH  29  43
ATOM     43  C   UNL A   1      44.812  27.630  34.126  1.00  0.00    -0.014 A 
ATOM     44  C   UNL A   1      46.038  28.314  34.173  1.00  0.00     0.009 A 
ATOM     45  C   UNL A   1      44.748  26.322  34.631  1.00  0.00     0.009 A 
ATOM     46  C   UNL A   1      47.183  27.681  34.666  1.00  0.00     0.001 A 
ATOM     47  C   UNL A   1      45.886  25.703  35.151  1.00  0.00     0.001 A 
ATOM     48  C   UNL A   1      47.105  26.378  35.156  1.00  0.00     0.000 A 
ENDBRANCH  29  43
BRANCH  30  49
ATOM     49  C   UNL A   1      36.829  31.287  29.095  1.00  0.00    -0.014 A 
ATOM     50  C   UNL A   1      35.727  30.476  28.789  1.00  0.00     0.009 A 
ATOM     51  C   UNL A   1      36.813  32.629  28.675  1.00  0.00     0.009 A 
ATOM     52  C   UNL A   1      34.648  30.991  28.060  1.00  0.00     0.001 A 
ATOM     53  C   UNL A   1      35.721  33.149  27.976  1.00  0.00     0.001 A 
ATOM     54  C   UNL A   1      34.644  32.326  27.658  1.00  0.00     0.000 A 
ENDBRANCH  30  49
BRANCH  42  55
ATOM     55  C   UNL A   1      39.020  31.666  35.707  1.00  0.00    -0.014 A 
ATOM     56  C   UNL A   1      39.221  33.039  35.912  1.00  0.00     0.009 A 
ATOM     57  C   UNL A   1      38.226  30.944  36.611  1.00  0.00     0.009 A 
ATOM     58  C   UNL A   1      38.663  33.668  37.024  1.00  0.00     0.001 A 
ATOM     59  C   UNL A   1      37.639  31.584  37.699  1.00  0.00     0.001 A 
ATOM     60  C   UNL A   1      37.866  32.943  37.911  1.00  0.00     0.000 A 
ENDBRANCH  42  55
ENDBRANCH  16  17
ENDBRANCH   9  11
ENDBRANCH   8   9
ENDBRANCH   7   8
ENDBRANCH   6   7
ENDBRANCH   5   6
ENDBRANCH   4   5
ENDBRANCH   3   4
ENDBRANCH   2   3
ENDBRANCH   1   2
BRANCH   1  61
ATOM     61  C   UNL A   1      38.935  21.790  25.920  1.00  0.00     0.188 C 
BRANCH  61  62
ATOM     62  O   UNL A   1      38.203  23.006  25.981  1.00  0.00    -0.376 OA
BRANCH  62  63
ATOM     63  C   UNL A   1      37.176  23.123  24.999  1.00  0.00     0.202 C 
BRANCH  63  64
ATOM     64  C   UNL A   1      35.725  23.233  25.514  1.00  0.00     0.261 C 
BRANCH  64  65
ATOM     65  O   UNL A   1      34.954  24.312  24.952  1.00  0.00    -0.461 OA
BRANCH  65  66
ATOM     66  C   UNL A   1      34.607  24.260  23.648  1.00  0.00     0.335 C 
ATOM     67  O   UNL A   1      34.959  23.376  22.875  1.00  0.00    -0.249 OA
BRANCH  66  68
ATOM     68  C   UNL A   1      33.604  25.375  23.250  1.00  0.00     0.228 C 
ATOM     69  C   UNL A   1      32.790  25.001  22.034  1.00  0.00     0.047 C 
ATOM     70  O   UNL A   1      33.990  26.725  22.972  1.00  0.00    -0.362 OA
ATOM     71  C   UNL A   1      31.990  26.271  21.831  1.00  0.00     0.036 C 
ATOM     72  C   UNL A   1      32.988  27.360  22.181  1.00  0.00     0.135 C 
BRANCH  72  73
ATOM     73  C   UNL A   1      32.488  28.714  22.696  1.00  0.00     0.174 C 
BRANCH  73  74
ATOM     74  S   UNL A   1      31.540  28.928  24.178  1.00  0.00     0.181 S 
ATOM     75  O   UNL A   1      31.271  27.621  24.762  1.00  0.00    -0.224 OA
ATOM     76  O   UNL A   1      32.224  29.925  24.973  1.00  0.00    -0.224 OA
BRANCH  74  77
ATOM     77  C   UNL A   1      29.956  29.642  23.841  1.00  0.00     0.070 A 
ATOM     78  C   UNL A   1      29.728  31.008  24.006  1.00  0.00     0.020 A 
ATOM     79  C   UNL A   1      28.926  28.800  23.406  1.00  0.00     0.059 A 
ATOM     80  C   UNL A   1      28.514  31.557  23.586  1.00  0.00     0.004 A 
ATOM     81  C   UNL A   1      27.705  29.355  23.045  1.00  0.00     0.124 A 
ATOM     82  C   UNL A   1      27.505  30.729  23.093  1.00  0.00     0.039 A 
ATOM     83  F   UNL A   1      26.714  28.557  22.628  1.00  0.00    -0.207 F 
ENDBRANCH  74  77
ENDBRANCH  73  74
ENDBRANCH  72  73
ENDBRANCH  66  68
ENDBRANCH  65  66
ENDBRANCH  64  65
ENDBRANCH  63  64
ENDBRANCH  62  63
ENDBRANCH  61  62
ENDBRANCH   1  61
TORSDOF 23
ENDMDL
