MODEL 1
REMARK VINA RESULT:      -9.5      0.000      0.000
REMARK SMILES Cc1ccc(/C=C2/SC(=O)N(CC(=O)OCCOCCOCCOCCOC(=O)c3ccc(-c4c5nc(c(-c6ccccc6)c6ccc([nH]6)c(-c6ccccc6)c6nc(c(-c7ccccc7)c7ccc4[nH]7)C=C6)C=C5)cc3)C2=O)cc1
REMARK SMILES IDX 21 1 20 2 19 3 18 4 17 5 16 6 15 7 13 8 14 9 12 10 11 11
REMARK SMILES IDX 6 12 7 13 8 14 78 15 9 16 79 17 10 18 5 19 1 20 2 21 3 22
REMARK SMILES IDX 81 23 4 24 80 25 22 26 23 27 24 28 25 29 26 30 27 31 28 32
REMARK SMILES IDX 29 33 30 34 31 35 77 36 32 37 76 38 33 39 34 40 35 41 70 42
REMARK SMILES IDX 36 43 75 44 69 45 71 46 37 47 74 48 68 49 67 50 38 52 60 53
REMARK SMILES IDX 45 54 59 55 46 56 49 57 58 58 72 59 47 60 48 61 57 63 73 64
REMARK SMILES IDX 50 65 39 66 40 67 44 68 41 69 43 70 42 71 61 72 62 73 66 74
REMARK SMILES IDX 63 75 65 76 64 77 51 78 52 79 56 80 53 81 55 82 54 83
REMARK H PARENT 71 51 49 62
REMARK Flexibility Score: inf
ROOT
ATOM      1  O   UNL A   1      34.228  32.117  28.690  1.00  0.00    -0.377 OA
ENDROOT
BRANCH   1   2
ATOM      2  C   UNL A   1      33.320  31.823  27.636  1.00  0.00     0.188 C 
BRANCH   2   3
ATOM      3  C   UNL A   1      33.547  30.449  26.977  1.00  0.00     0.188 C 
BRANCH   3   4
ATOM      4  O   UNL A   1      32.495  29.859  26.225  1.00  0.00    -0.376 OA
BRANCH   4   5
ATOM      5  C   UNL A   1      32.784  28.622  25.609  1.00  0.00     0.202 C 
BRANCH   5   6
ATOM      6  C   UNL A   1      33.582  28.638  24.305  1.00  0.00     0.261 C 
BRANCH   6   7
ATOM      7  O   UNL A   1      33.699  27.340  23.678  1.00  0.00    -0.462 OA
BRANCH   7   8
ATOM      8  C   UNL A   1      33.529  27.315  22.330  1.00  0.00     0.326 C 
ATOM      9  O   UNL A   1      34.104  28.059  21.548  1.00  0.00    -0.250 OA
BRANCH   8  10
ATOM     10  C   UNL A   1      32.535  26.243  21.886  1.00  0.00     0.252 C 
BRANCH  10  11
ATOM     11  N   UNL A   1      32.376  25.076  22.750  1.00  0.00    -0.257 N 
ATOM     12  C   UNL A   1      33.649  22.267  24.729  1.00  0.00     0.029 C 
ATOM     13  C   UNL A   1      32.934  23.096  23.940  1.00  0.00     0.083 C 
ATOM     14  S   UNL A   1      31.215  23.256  24.150  1.00  0.00    -0.022 SA
ATOM     15  C   UNL A   1      33.374  24.137  22.950  1.00  0.00     0.268 C 
ATOM     16  C   UNL A   1      31.174  24.840  23.381  1.00  0.00     0.294 C 
ATOM     17  O   UNL A   1      34.473  24.152  22.417  1.00  0.00    -0.268 OA
ATOM     18  O   UNL A   1      30.218  25.576  23.438  1.00  0.00    -0.261 OA
BRANCH  12  19
ATOM     19  C   UNL A   1      35.086  22.347  25.061  1.00  0.00    -0.024 A 
ATOM     20  C   UNL A   1      39.182  23.116  26.301  1.00  0.00     0.044 C 
ATOM     21  C   UNL A   1      37.776  22.774  25.903  1.00  0.00    -0.051 A 
ATOM     22  C   UNL A   1      37.456  21.794  24.956  1.00  0.00     0.004 A 
ATOM     23  C   UNL A   1      36.729  23.452  26.498  1.00  0.00     0.004 A 
ATOM     24  C   UNL A   1      36.121  21.589  24.527  1.00  0.00     0.008 A 
ATOM     25  C   UNL A   1      35.411  23.204  26.106  1.00  0.00     0.008 A 
ENDBRANCH  12  19
ENDBRANCH  10  11
ENDBRANCH   8  10
ENDBRANCH   7   8
ENDBRANCH   6   7
ENDBRANCH   5   6
ENDBRANCH   4   5
ENDBRANCH   3   4
ENDBRANCH   2   3
ENDBRANCH   1   2
BRANCH   1  26
ATOM     26  C   UNL A   1      34.276  33.506  28.998  1.00  0.00     0.188 C 
BRANCH  26  27
ATOM     27  C   UNL A   1      34.686  33.673  30.441  1.00  0.00     0.188 C 
BRANCH  27  28
ATOM     28  O   UNL A   1      34.940  32.365  30.923  1.00  0.00    -0.376 OA
BRANCH  28  29
ATOM     29  C   UNL A   1      36.231  32.131  31.455  1.00  0.00     0.202 C 
BRANCH  29  30
ATOM     30  C   UNL A   1      36.770  30.806  30.935  1.00  0.00     0.261 C 
BRANCH  30  31
ATOM     31  O   UNL A   1      38.009  31.030  30.222  1.00  0.00    -0.460 OA
BRANCH  31  32
ATOM     32  C   UNL A   1      37.986  30.608  28.921  1.00  0.00     0.338 C 
ATOM     33  O   UNL A   1      37.146  30.954  28.105  1.00  0.00    -0.246 OA
BRANCH  32  34
ATOM     34  C   UNL A   1      38.954  29.477  28.699  1.00  0.00     0.060 A 
ATOM     35  C   UNL A   1      39.799  29.104  29.764  1.00  0.00     0.016 A 
ATOM     36  C   UNL A   1      39.321  29.161  27.394  1.00  0.00     0.016 A 
ATOM     37  C   UNL A   1      41.098  28.618  29.513  1.00  0.00     0.010 A 
ATOM     38  C   UNL A   1      40.651  28.835  27.162  1.00  0.00     0.010 A 
ATOM     39  C   UNL A   1      41.571  28.570  28.204  1.00  0.00    -0.014 A 
BRANCH  39  40
ATOM     40  C   UNL A   1      42.972  28.320  27.768  1.00  0.00     0.031 A 
ATOM     41  C   UNL A   1      43.788  29.528  27.373  1.00  0.00     0.074 A 
ATOM     42  C   UNL A   1      43.615  27.145  28.032  1.00  0.00     0.049 A 
ATOM     43  N   UNL A   1      45.057  29.529  27.148  1.00  0.00    -0.248 NA
ATOM     44  C   UNL A   1      43.231  30.878  27.251  1.00  0.00     0.031 C 
ATOM     45  C   UNL A   1      45.064  26.973  28.240  1.00  0.00     0.029 A 
ATOM     46  N   UNL A   1      43.165  25.852  28.256  1.00  0.00    -0.354 N 
ATOM     47  C   UNL A   1      45.520  30.827  27.121  1.00  0.00     0.074 A 
ATOM     48  C   UNL A   1      44.331  31.636  27.171  1.00  0.00     0.031 C 
ATOM     49  C   UNL A   1      45.376  25.695  28.496  1.00  0.00     0.029 A 
ATOM     50  C   UNL A   1      44.221  24.941  28.102  1.00  0.00     0.049 A 
ATOM     51  H   UNL A   1      42.240  25.610  28.490  1.00  0.00     0.167 HD
ATOM     52  C   UNL A   1      46.868  31.051  27.149  1.00  0.00     0.031 A 
ATOM     53  C   UNL A   1      44.278  24.029  27.085  1.00  0.00     0.031 A 
ATOM     54  C   UNL A   1      47.628  29.804  26.943  1.00  0.00     0.049 A 
ATOM     55  C   UNL A   1      45.365  24.411  26.069  1.00  0.00     0.074 A 
ATOM     56  C   UNL A   1      48.652  29.146  27.606  1.00  0.00     0.029 A 
ATOM     57  N   UNL A   1      47.214  28.931  25.934  1.00  0.00    -0.354 N 
ATOM     58  N   UNL A   1      45.855  25.628  25.968  1.00  0.00    -0.248 NA
ATOM     59  C   UNL A   1      46.074  23.485  25.187  1.00  0.00     0.031 C 
ATOM     60  C   UNL A   1      48.745  27.826  27.076  1.00  0.00     0.029 A 
ATOM     61  C   UNL A   1      47.853  27.716  26.019  1.00  0.00     0.049 A 
ATOM     62  H   UNL A   1      46.548  29.158  25.246  1.00  0.00     0.167 HD
ATOM     63  C   UNL A   1      46.936  25.648  25.133  1.00  0.00     0.074 A 
ATOM     64  C   UNL A   1      47.006  24.288  24.631  1.00  0.00     0.031 C 
ATOM     65  C   UNL A   1      47.726  26.748  24.936  1.00  0.00     0.031 A 
BRANCH  52  66
ATOM     66  C   UNL A   1      47.539  32.380  27.487  1.00  0.00    -0.014 A 
ATOM     67  C   UNL A   1      48.245  33.078  26.485  1.00  0.00     0.009 A 
ATOM     68  C   UNL A   1      47.592  32.970  28.764  1.00  0.00     0.009 A 
ATOM     69  C   UNL A   1      48.979  34.248  26.741  1.00  0.00     0.001 A 
ATOM     70  C   UNL A   1      48.298  34.159  29.025  1.00  0.00     0.001 A 
ATOM     71  C   UNL A   1      49.004  34.794  28.015  1.00  0.00     0.000 A 
ENDBRANCH  52  66
BRANCH  53  72
ATOM     72  C   UNL A   1      42.977  23.299  26.953  1.00  0.00    -0.014 A 
ATOM     73  C   UNL A   1      42.827  22.653  25.700  1.00  0.00     0.009 A 
ATOM     74  C   UNL A   1      42.444  22.658  28.087  1.00  0.00     0.009 A 
ATOM     75  C   UNL A   1      42.478  21.298  25.635  1.00  0.00     0.001 A 
ATOM     76  C   UNL A   1      42.081  21.300  28.010  1.00  0.00     0.001 A 
ATOM     77  C   UNL A   1      42.170  20.605  26.801  1.00  0.00     0.000 A 
ENDBRANCH  53  72
BRANCH  65  78
ATOM     78  C   UNL A   1      48.511  27.058  23.677  1.00  0.00    -0.014 A 
ATOM     79  C   UNL A   1      47.965  27.661  22.542  1.00  0.00     0.009 A 
ATOM     80  C   UNL A   1      49.926  26.931  23.699  1.00  0.00     0.009 A 
ATOM     81  C   UNL A   1      48.779  28.091  21.485  1.00  0.00     0.001 A 
ATOM     82  C   UNL A   1      50.744  27.405  22.675  1.00  0.00     0.001 A 
ATOM     83  C   UNL A   1      50.165  27.980  21.558  1.00  0.00     0.000 A 
ENDBRANCH  65  78
ENDBRANCH  39  40
ENDBRANCH  32  34
ENDBRANCH  31  32
ENDBRANCH  30  31
ENDBRANCH  29  30
ENDBRANCH  28  29
ENDBRANCH  27  28
ENDBRANCH  26  27
ENDBRANCH   1  26
TORSDOF 22
ENDMDL
MODEL 2
REMARK VINA RESULT:      -8.9      3.353      8.964
REMARK SMILES Cc1ccc(/C=C2/SC(=O)N(CC(=O)OCCOCCOCCOCCOC(=O)c3ccc(-c4c5nc(c(-c6ccccc6)c6ccc([nH]6)c(-c6ccccc6)c6nc(c(-c7ccccc7)c7ccc4[nH]7)C=C6)C=C5)cc3)C2=O)cc1
REMARK SMILES IDX 21 1 20 2 19 3 18 4 17 5 16 6 15 7 13 8 14 9 12 10 11 11
REMARK SMILES IDX 6 12 7 13 8 14 78 15 9 16 79 17 10 18 5 19 1 20 2 21 3 22
REMARK SMILES IDX 81 23 4 24 80 25 22 26 23 27 24 28 25 29 26 30 27 31 28 32
REMARK SMILES IDX 29 33 30 34 31 35 77 36 32 37 76 38 33 39 34 40 35 41 70 42
REMARK SMILES IDX 36 43 75 44 69 45 71 46 37 47 74 48 68 49 67 50 38 52 60 53
REMARK SMILES IDX 45 54 59 55 46 56 49 57 58 58 72 59 47 60 48 61 57 63 73 64
REMARK SMILES IDX 50 65 39 66 40 67 44 68 41 69 43 70 42 71 61 72 62 73 66 74
REMARK SMILES IDX 63 75 65 76 64 77 51 78 52 79 56 80 53 81 55 82 54 83
REMARK H PARENT 71 51 49 62
REMARK Flexibility Score: inf
ROOT
ATOM      1  O   UNL A   1      41.734  22.764  26.430  1.00  0.00    -0.377 OA
ENDROOT
BRANCH   1   2
ATOM      2  C   UNL A   1      40.686  22.083  27.106  1.00  0.00     0.188 C 
BRANCH   2   3
ATOM      3  C   UNL A   1      39.296  22.280  26.472  1.00  0.00     0.188 C 
BRANCH   3   4
ATOM      4  O   UNL A   1      38.705  23.573  26.487  1.00  0.00    -0.376 OA
BRANCH   4   5
ATOM      5  C   UNL A   1      37.431  23.685  25.889  1.00  0.00     0.202 C 
BRANCH   5   6
ATOM      6  C   UNL A   1      36.704  22.398  25.501  1.00  0.00     0.261 C 
BRANCH   6   7
ATOM      7  O   UNL A   1      35.364  22.301  26.037  1.00  0.00    -0.462 OA
BRANCH   7   8
ATOM      8  C   UNL A   1      34.592  21.306  25.528  1.00  0.00     0.326 C 
ATOM      9  O   UNL A   1      35.020  20.371  24.865  1.00  0.00    -0.250 OA
BRANCH   8  10
ATOM     10  C   UNL A   1      33.114  21.474  25.879  1.00  0.00     0.252 C 
BRANCH  10  11
ATOM     11  N   UNL A   1      32.369  22.511  25.166  1.00  0.00    -0.257 N 
ATOM     12  C   UNL A   1      31.120  25.926  24.721  1.00  0.00     0.029 C 
ATOM     13  C   UNL A   1      31.295  24.588  24.748  1.00  0.00     0.083 C 
ATOM     14  S   UNL A   1      30.909  23.615  23.359  1.00  0.00    -0.022 SA
ATOM     15  C   UNL A   1      31.983  23.705  25.750  1.00  0.00     0.268 C 
ATOM     16  C   UNL A   1      31.978  22.308  23.861  1.00  0.00     0.294 C 
ATOM     17  O   UNL A   1      32.184  24.019  26.913  1.00  0.00    -0.268 OA
ATOM     18  O   UNL A   1      32.300  21.402  23.131  1.00  0.00    -0.261 OA
BRANCH  12  19
ATOM     19  C   UNL A   1      31.812  26.948  25.531  1.00  0.00    -0.024 A 
ATOM     20  C   UNL A   1      34.339  29.841  27.569  1.00  0.00     0.044 C 
ATOM     21  C   UNL A   1      33.408  28.900  26.862  1.00  0.00    -0.051 A 
ATOM     22  C   UNL A   1      32.195  28.457  27.404  1.00  0.00     0.004 A 
ATOM     23  C   UNL A   1      33.750  28.439  25.605  1.00  0.00     0.004 A 
ATOM     24  C   UNL A   1      31.407  27.478  26.750  1.00  0.00     0.008 A 
ATOM     25  C   UNL A   1      32.938  27.513  24.944  1.00  0.00     0.008 A 
ENDBRANCH  12  19
ENDBRANCH  10  11
ENDBRANCH   8  10
ENDBRANCH   7   8
ENDBRANCH   6   7
ENDBRANCH   5   6
ENDBRANCH   4   5
ENDBRANCH   3   4
ENDBRANCH   2   3
ENDBRANCH   1   2
BRANCH   1  26
ATOM     26  C   UNL A   1      42.575  21.883  25.694  1.00  0.00     0.188 C 
BRANCH  26  27
ATOM     27  C   UNL A   1      42.773  20.616  26.491  1.00  0.00     0.188 C 
BRANCH  27  28
ATOM     28  O   UNL A   1      43.570  19.772  25.679  1.00  0.00    -0.376 OA
BRANCH  28  29
ATOM     29  C   UNL A   1      44.424  20.415  24.752  1.00  0.00     0.202 C 
BRANCH  29  30
ATOM     30  C   UNL A   1      45.844  20.455  25.301  1.00  0.00     0.261 C 
BRANCH  30  31
ATOM     31  O   UNL A   1      46.610  21.462  24.599  1.00  0.00    -0.460 OA
BRANCH  31  32
ATOM     32  C   UNL A   1      45.964  22.660  24.466  1.00  0.00     0.338 C 
ATOM     33  O   UNL A   1      45.269  22.960  23.507  1.00  0.00    -0.246 OA
BRANCH  32  34
ATOM     34  C   UNL A   1      46.424  23.645  25.506  1.00  0.00     0.060 A 
ATOM     35  C   UNL A   1      45.887  23.542  26.806  1.00  0.00     0.016 A 
ATOM     36  C   UNL A   1      46.961  24.858  25.084  1.00  0.00     0.016 A 
ATOM     37  C   UNL A   1      45.688  24.695  27.593  1.00  0.00     0.010 A 
ATOM     38  C   UNL A   1      46.615  25.997  25.799  1.00  0.00     0.010 A 
ATOM     39  C   UNL A   1      45.964  25.949  27.055  1.00  0.00    -0.014 A 
BRANCH  39  40
ATOM     40  C   UNL A   1      45.598  27.270  27.633  1.00  0.00     0.031 A 
ATOM     41  C   UNL A   1      44.145  27.672  27.547  1.00  0.00     0.074 A 
ATOM     42  C   UNL A   1      46.417  27.935  28.499  1.00  0.00     0.049 A 
ATOM     43  N   UNL A   1      43.613  28.682  28.147  1.00  0.00    -0.248 NA
ATOM     44  C   UNL A   1      43.137  26.915  26.800  1.00  0.00     0.031 C 
ATOM     45  C   UNL A   1      45.990  28.845  29.578  1.00  0.00     0.029 A 
ATOM     46  N   UNL A   1      47.789  27.922  28.699  1.00  0.00    -0.354 N 
ATOM     47  C   UNL A   1      42.239  28.574  28.104  1.00  0.00     0.074 A 
ATOM     48  C   UNL A   1      41.992  27.458  27.230  1.00  0.00     0.031 C 
ATOM     49  C   UNL A   1      47.038  29.325  30.261  1.00  0.00     0.029 A 
ATOM     50  C   UNL A   1      48.180  29.050  29.437  1.00  0.00     0.049 A 
ATOM     51  H   UNL A   1      48.400  27.223  28.371  1.00  0.00     0.167 HD
ATOM     52  C   UNL A   1      41.485  29.398  28.891  1.00  0.00     0.031 A 
ATOM     53  C   UNL A   1      48.940  30.059  28.913  1.00  0.00     0.031 A 
ATOM     54  C   UNL A   1      42.300  30.472  29.489  1.00  0.00     0.049 A 
ATOM     55  C   UNL A   1      48.099  31.328  28.712  1.00  0.00     0.074 A 
ATOM     56  C   UNL A   1      42.511  30.961  30.767  1.00  0.00     0.029 A 
ATOM     57  N   UNL A   1      43.218  31.141  28.675  1.00  0.00    -0.354 N 
ATOM     58  N   UNL A   1      46.786  31.315  28.649  1.00  0.00    -0.248 NA
ATOM     59  C   UNL A   1      48.612  32.698  28.691  1.00  0.00     0.031 C 
ATOM     60  C   UNL A   1      43.651  31.816  30.730  1.00  0.00     0.029 A 
ATOM     61  C   UNL A   1      44.067  31.933  29.413  1.00  0.00     0.049 A 
ATOM     62  H   UNL A   1      43.252  31.057  27.695  1.00  0.00     0.167 HD
ATOM     63  C   UNL A   1      46.285  32.586  28.667  1.00  0.00     0.074 A 
ATOM     64  C   UNL A   1      47.472  33.421  28.646  1.00  0.00     0.031 C 
ATOM     65  C   UNL A   1      44.950  32.878  28.740  1.00  0.00     0.031 A 
BRANCH  52  66
ATOM     66  C   UNL A   1      40.015  29.184  29.244  1.00  0.00    -0.014 A 
ATOM     67  C   UNL A   1      39.015  29.578  28.330  1.00  0.00     0.009 A 
ATOM     68  C   UNL A   1      39.530  28.683  30.467  1.00  0.00     0.009 A 
ATOM     69  C   UNL A   1      37.643  29.515  28.624  1.00  0.00     0.001 A 
ATOM     70  C   UNL A   1      38.157  28.587  30.760  1.00  0.00     0.001 A 
ATOM     71  C   UNL A   1      37.211  29.015  29.843  1.00  0.00     0.000 A 
ENDBRANCH  52  66
BRANCH  53  72
ATOM     72  C   UNL A   1      50.132  29.506  28.193  1.00  0.00    -0.014 A 
ATOM     73  C   UNL A   1      50.169  29.866  26.822  1.00  0.00     0.009 A 
ATOM     74  C   UNL A   1      51.358  29.423  28.880  1.00  0.00     0.009 A 
ATOM     75  C   UNL A   1      51.319  30.443  26.268  1.00  0.00     0.001 A 
ATOM     76  C   UNL A   1      52.513  29.990  28.310  1.00  0.00     0.001 A 
ATOM     77  C   UNL A   1      52.471  30.564  27.036  1.00  0.00     0.000 A 
ENDBRANCH  53  72
BRANCH  65  78
ATOM     78  C   UNL A   1      44.287  34.124  28.188  1.00  0.00    -0.014 A 
ATOM     79  C   UNL A   1      44.265  35.356  28.846  1.00  0.00     0.009 A 
ATOM     80  C   UNL A   1      43.835  34.126  26.841  1.00  0.00     0.009 A 
ATOM     81  C   UNL A   1      43.802  36.514  28.206  1.00  0.00     0.001 A 
ATOM     82  C   UNL A   1      43.424  35.284  26.182  1.00  0.00     0.001 A 
ATOM     83  C   UNL A   1      43.399  36.482  26.873  1.00  0.00     0.000 A 
ENDBRANCH  65  78
ENDBRANCH  39  40
ENDBRANCH  32  34
ENDBRANCH  31  32
ENDBRANCH  30  31
ENDBRANCH  29  30
ENDBRANCH  28  29
ENDBRANCH  27  28
ENDBRANCH  26  27
ENDBRANCH   1  26
TORSDOF 22
ENDMDL
MODEL 3
REMARK VINA RESULT:      -8.8      2.020      2.627
REMARK SMILES Cc1ccc(/C=C2/SC(=O)N(CC(=O)OCCOCCOCCOCCOC(=O)c3ccc(-c4c5nc(c(-c6ccccc6)c6ccc([nH]6)c(-c6ccccc6)c6nc(c(-c7ccccc7)c7ccc4[nH]7)C=C6)C=C5)cc3)C2=O)cc1
REMARK SMILES IDX 21 1 20 2 19 3 18 4 17 5 16 6 15 7 13 8 14 9 12 10 11 11
REMARK SMILES IDX 6 12 7 13 8 14 78 15 9 16 79 17 10 18 5 19 1 20 2 21 3 22
REMARK SMILES IDX 81 23 4 24 80 25 22 26 23 27 24 28 25 29 26 30 27 31 28 32
REMARK SMILES IDX 29 33 30 34 31 35 77 36 32 37 76 38 33 39 34 40 35 41 70 42
REMARK SMILES IDX 36 43 75 44 69 45 71 46 37 47 74 48 68 49 67 50 38 52 60 53
REMARK SMILES IDX 45 54 59 55 46 56 49 57 58 58 72 59 47 60 48 61 57 63 73 64
REMARK SMILES IDX 50 65 39 66 40 67 44 68 41 69 43 70 42 71 61 72 62 73 66 74
REMARK SMILES IDX 63 75 65 76 64 77 51 78 52 79 56 80 53 81 55 82 54 83
REMARK H PARENT 71 51 49 62
REMARK Flexibility Score: inf
ROOT
ATOM      1  O   UNL A   1      34.523  31.692  28.250  1.00  0.00    -0.377 OA
ENDROOT
BRANCH   1   2
ATOM      2  C   UNL A   1      33.493  31.189  27.409  1.00  0.00     0.188 C 
BRANCH   2   3
ATOM      3  C   UNL A   1      33.796  29.807  26.801  1.00  0.00     0.188 C 
BRANCH   3   4
ATOM      4  O   UNL A   1      32.717  28.983  26.380  1.00  0.00    -0.376 OA
BRANCH   4   5
ATOM      5  C   UNL A   1      33.057  27.856  25.601  1.00  0.00     0.202 C 
BRANCH   5   6
ATOM      6  C   UNL A   1      33.697  28.095  24.234  1.00  0.00     0.261 C 
BRANCH   6   7
ATOM      7  O   UNL A   1      33.277  27.150  23.221  1.00  0.00    -0.462 OA
BRANCH   7   8
ATOM      8  C   UNL A   1      31.970  27.213  22.857  1.00  0.00     0.326 C 
ATOM      9  O   UNL A   1      31.367  28.252  22.623  1.00  0.00    -0.250 OA
BRANCH   8  10
ATOM     10  C   UNL A   1      31.322  25.832  22.763  1.00  0.00     0.252 C 
BRANCH  10  11
ATOM     11  N   UNL A   1      31.343  24.998  23.963  1.00  0.00    -0.257 N 
ATOM     12  C   UNL A   1      32.775  22.417  26.133  1.00  0.00     0.029 C 
ATOM     13  C   UNL A   1      31.966  23.249  25.445  1.00  0.00     0.083 C 
ATOM     14  S   UNL A   1      30.612  24.015  26.225  1.00  0.00    -0.022 SA
ATOM     15  C   UNL A   1      32.103  23.846  24.074  1.00  0.00     0.268 C 
ATOM     16  C   UNL A   1      30.549  25.318  25.042  1.00  0.00     0.294 C 
ATOM     17  O   UNL A   1      32.807  23.379  23.192  1.00  0.00    -0.268 OA
ATOM     18  O   UNL A   1      29.903  26.325  25.205  1.00  0.00    -0.261 OA
BRANCH  12  19
ATOM     19  C   UNL A   1      34.184  22.081  25.847  1.00  0.00    -0.024 A 
ATOM     20  C   UNL A   1      38.150  20.512  25.001  1.00  0.00     0.044 C 
ATOM     21  C   UNL A   1      36.793  21.109  25.234  1.00  0.00    -0.051 A 
ATOM     22  C   UNL A   1      36.590  22.422  25.673  1.00  0.00     0.004 A 
ATOM     23  C   UNL A   1      35.673  20.334  25.001  1.00  0.00     0.004 A 
ATOM     24  C   UNL A   1      35.295  22.903  25.990  1.00  0.00     0.008 A 
ATOM     25  C   UNL A   1      34.397  20.836  25.267  1.00  0.00     0.008 A 
ENDBRANCH  12  19
ENDBRANCH  10  11
ENDBRANCH   8  10
ENDBRANCH   7   8
ENDBRANCH   6   7
ENDBRANCH   5   6
ENDBRANCH   4   5
ENDBRANCH   3   4
ENDBRANCH   2   3
ENDBRANCH   1   2
BRANCH   1  26
ATOM     26  C   UNL A   1      34.457  33.103  28.413  1.00  0.00     0.188 C 
BRANCH  26  27
ATOM     27  C   UNL A   1      34.447  33.426  29.887  1.00  0.00     0.188 C 
BRANCH  27  28
ATOM     28  O   UNL A   1      34.956  32.275  30.537  1.00  0.00    -0.376 OA
BRANCH  28  29
ATOM     29  C   UNL A   1      36.322  32.312  30.904  1.00  0.00     0.202 C 
BRANCH  29  30
ATOM     30  C   UNL A   1      36.970  30.966  30.612  1.00  0.00     0.261 C 
BRANCH  30  31
ATOM     31  O   UNL A   1      38.242  30.878  31.298  1.00  0.00    -0.460 OA
BRANCH  31  32
ATOM     32  C   UNL A   1      39.326  31.037  30.480  1.00  0.00     0.338 C 
ATOM     33  O   UNL A   1      39.622  32.088  29.932  1.00  0.00    -0.246 OA
BRANCH  32  34
ATOM     34  C   UNL A   1      39.946  29.710  30.134  1.00  0.00     0.060 A 
ATOM     35  C   UNL A   1      40.626  29.007  31.149  1.00  0.00     0.016 A 
ATOM     36  C   UNL A   1      40.244  29.440  28.802  1.00  0.00     0.016 A 
ATOM     37  C   UNL A   1      41.744  28.205  30.843  1.00  0.00     0.010 A 
ATOM     38  C   UNL A   1      41.436  28.781  28.530  1.00  0.00     0.010 A 
ATOM     39  C   UNL A   1      42.218  28.163  29.534  1.00  0.00    -0.014 A 
BRANCH  39  40
ATOM     40  C   UNL A   1      43.505  27.577  29.068  1.00  0.00     0.031 A 
ATOM     41  C   UNL A   1      44.747  28.412  29.274  1.00  0.00     0.074 A 
ATOM     42  C   UNL A   1      43.640  26.247  28.796  1.00  0.00     0.049 A 
ATOM     43  N   UNL A   1      45.957  28.001  29.105  1.00  0.00    -0.248 NA
ATOM     44  C   UNL A   1      44.724  29.796  29.753  1.00  0.00     0.031 C 
ATOM     45  C   UNL A   1      44.871  25.448  28.942  1.00  0.00     0.029 A 
ATOM     46  N   UNL A   1      42.739  25.266  28.408  1.00  0.00    -0.354 N 
ATOM     47  C   UNL A   1      46.833  28.902  29.672  1.00  0.00     0.074 A 
ATOM     48  C   UNL A   1      46.009  30.020  30.048  1.00  0.00     0.031 C 
ATOM     49  C   UNL A   1      44.668  24.166  28.609  1.00  0.00     0.029 A 
ATOM     50  C   UNL A   1      43.426  24.157  27.891  1.00  0.00     0.049 A 
ATOM     51  H   UNL A   1      41.760  25.337  28.486  1.00  0.00     0.167 HD
ATOM     52  C   UNL A   1      48.143  28.543  29.831  1.00  0.00     0.031 A 
ATOM     53  C   UNL A   1      43.366  23.789  26.575  1.00  0.00     0.031 A 
ATOM     54  C   UNL A   1      48.453  27.295  29.110  1.00  0.00     0.049 A 
ATOM     55  C   UNL A   1      44.695  24.083  25.865  1.00  0.00     0.074 A 
ATOM     56  C   UNL A   1      49.036  26.081  29.435  1.00  0.00     0.029 A 
ATOM     57  N   UNL A   1      47.972  27.142  27.807  1.00  0.00    -0.354 N 
ATOM     58  N   UNL A   1      45.583  24.935  26.329  1.00  0.00    -0.248 NA
ATOM     59  C   UNL A   1      45.202  23.390  24.680  1.00  0.00     0.031 C 
ATOM     60  C   UNL A   1      48.773  25.166  28.374  1.00  0.00     0.029 A 
ATOM     61  C   UNL A   1      48.125  25.851  27.357  1.00  0.00     0.049 A 
ATOM     62  H   UNL A   1      47.574  27.868  27.276  1.00  0.00     0.167 HD
ATOM     63  C   UNL A   1      46.747  24.859  25.619  1.00  0.00     0.074 A 
ATOM     64  C   UNL A   1      46.443  23.909  24.564  1.00  0.00     0.031 C 
ATOM     65  C   UNL A   1      47.889  25.535  25.953  1.00  0.00     0.031 A 
BRANCH  52  66
ATOM     66  C   UNL A   1      49.148  29.241  30.743  1.00  0.00    -0.014 A 
ATOM     67  C   UNL A   1      49.087  29.031  32.137  1.00  0.00     0.009 A 
ATOM     68  C   UNL A   1      50.124  30.169  30.330  1.00  0.00     0.009 A 
ATOM     69  C   UNL A   1      49.903  29.718  33.051  1.00  0.00     0.001 A 
ATOM     70  C   UNL A   1      50.969  30.839  31.235  1.00  0.00     0.001 A 
ATOM     71  C   UNL A   1      50.850  30.624  32.599  1.00  0.00     0.000 A 
ENDBRANCH  52  66
BRANCH  53  72
ATOM     72  C   UNL A   1      41.946  23.753  26.098  1.00  0.00    -0.014 A 
ATOM     73  C   UNL A   1      41.204  22.676  26.645  1.00  0.00     0.009 A 
ATOM     74  C   UNL A   1      41.273  24.972  25.890  1.00  0.00     0.009 A 
ATOM     75  C   UNL A   1      39.968  22.904  27.264  1.00  0.00     0.001 A 
ATOM     76  C   UNL A   1      40.024  25.189  26.503  1.00  0.00     0.001 A 
ATOM     77  C   UNL A   1      39.411  24.178  27.249  1.00  0.00     0.000 A 
ENDBRANCH  53  72
BRANCH  65  78
ATOM     78  C   UNL A   1      48.965  25.987  24.985  1.00  0.00    -0.014 A 
ATOM     79  C   UNL A   1      48.708  26.628  23.772  1.00  0.00     0.009 A 
ATOM     80  C   UNL A   1      50.323  25.955  25.402  1.00  0.00     0.009 A 
ATOM     81  C   UNL A   1      49.745  27.186  23.011  1.00  0.00     0.001 A 
ATOM     82  C   UNL A   1      51.351  26.555  24.676  1.00  0.00     0.001 A 
ATOM     83  C   UNL A   1      51.060  27.166  23.469  1.00  0.00     0.000 A 
ENDBRANCH  65  78
ENDBRANCH  39  40
ENDBRANCH  32  34
ENDBRANCH  31  32
ENDBRANCH  30  31
ENDBRANCH  29  30
ENDBRANCH  28  29
ENDBRANCH  27  28
ENDBRANCH  26  27
ENDBRANCH   1  26
TORSDOF 22
ENDMDL
