MODEL 1
REMARK VINA RESULT:     -11.8      0.000      0.000
REMARK SMILES COc1cccc([C@@H]2CC(c3cccc(C)c3)=NN2C(=O)CCC(=O)OCCOCCOCCOCCOC(=O)c2ccc(-c3c4nc(c(-c5ccccc5)c5ccc([nH]5)c(-c5ccccc5)c5nc(c(-c6ccccc6)c6ccc3[nH]6)C=C5)C=C4)cc2)c1
REMARK SMILES IDX 30 1 29 2 28 3 27 4 26 5 24 6 25 7 23 8 22 9 20 10 21 11
REMARK SMILES IDX 19 12 8 13 9 14 10 15 18 16 7 17 3 18 4 19 89 20 5 21 6 22
REMARK SMILES IDX 2 23 1 24 11 25 12 26 17 27 13 28 15 29 14 30 16 31 31 32
REMARK SMILES IDX 32 33 33 34 34 35 35 36 36 37 37 38 38 39 39 40 40 41 41 42
REMARK SMILES IDX 42 43 88 44 43 45 87 46 44 47 45 48 46 49 81 50 47 51 86 52
REMARK SMILES IDX 80 53 82 54 48 55 85 56 79 57 78 58 49 60 71 61 56 62 70 63
REMARK SMILES IDX 57 64 60 65 69 66 83 67 58 68 59 69 68 71 84 72 61 73 50 74
REMARK SMILES IDX 51 75 55 76 52 77 54 78 53 79 72 80 73 81 77 82 74 83 76 84
REMARK SMILES IDX 75 85 62 86 63 87 67 88 64 89 66 90 65 91
REMARK H PARENT 82 59 60 70
REMARK Flexibility Score: inf
ROOT
ATOM      1  C   UNL A   1      36.256  34.015  33.146  1.00  0.00     0.188 C 
ENDROOT
BRANCH   1   2
ATOM      2  O   UNL A   1      35.678  35.284  33.671  1.00  0.00    -0.376 OA
BRANCH   2   3
ATOM      3  C   UNL A   1      34.355  35.925  33.794  1.00  0.00     0.202 C 
BRANCH   3   4
ATOM      4  C   UNL A   1      33.946  37.225  33.055  1.00  0.00     0.261 C 
BRANCH   4   5
ATOM      5  O   UNL A   1      34.066  37.074  31.656  1.00  0.00    -0.463 OA
BRANCH   5   6
ATOM      6  C   UNL A   1      33.148  36.237  31.148  1.00  0.00     0.306 C 
ATOM      7  O   UNL A   1      31.945  36.468  31.102  1.00  0.00    -0.252 OA
BRANCH   6   8
ATOM      8  C   UNL A   1      33.745  34.976  30.620  1.00  0.00     0.132 C 
BRANCH   8   9
ATOM      9  C   UNL A   1      34.038  34.787  29.137  1.00  0.00     0.114 C 
BRANCH   9  10
ATOM     10  C   UNL A   1      33.497  33.617  28.317  1.00  0.00     0.243 C 
ATOM     11  O   UNL A   1      32.408  33.928  27.774  1.00  0.00    -0.273 OA
BRANCH  10  12
ATOM     12  N   UNL A   1      34.024  32.333  28.096  1.00  0.00    -0.225 N 
ATOM     13  C   UNL A   1      34.098  30.871  27.145  1.00  0.00     0.147 C 
ATOM     14  C   UNL A   1      35.537  30.378  27.613  1.00  0.00     0.091 C 
ATOM     15  C   UNL A   1      35.722  31.183  28.877  1.00  0.00     0.071 C 
ATOM     16  N   UNL A   1      34.944  32.175  29.073  1.00  0.00    -0.174 NA
BRANCH  13  17
ATOM     17  C   UNL A   1      32.668  29.734  26.608  1.00  0.00    -0.019 A 
ATOM     18  C   UNL A   1      31.558  28.220  24.179  1.00  0.00     0.119 A 
ATOM     19  C   UNL A   1      31.081  26.806  25.101  1.00  0.00     0.046 A 
ATOM     20  C   UNL A   1      32.378  29.592  24.875  1.00  0.00     0.052 A 
ATOM     21  C   UNL A   1      31.291  26.787  26.854  1.00  0.00     0.004 A 
ATOM     22  C   UNL A   1      31.930  28.339  27.658  1.00  0.00     0.006 A 
BRANCH  18  23
ATOM     23  O   UNL A   1      31.006  28.296  22.907  1.00  0.00    -0.497 OA
ATOM     24  C   UNL A   1      29.848  29.126  22.802  1.00  0.00     0.278 C 
ENDBRANCH  18  23
ENDBRANCH  13  17
BRANCH  15  25
ATOM     25  C   UNL A   1      36.682  30.965  29.958  1.00  0.00    -0.002 A 
ATOM     26  C   UNL A   1      37.701  31.935  30.082  1.00  0.00     0.010 A 
ATOM     27  C   UNL A   1      36.765  29.743  30.593  1.00  0.00     0.013 A 
ATOM     28  C   UNL A   1      38.870  31.625  30.749  1.00  0.00     0.001 A 
ATOM     29  C   UNL A   1      37.927  29.451  31.309  1.00  0.00    -0.050 A 
ATOM     30  C   UNL A   1      38.989  30.369  31.335  1.00  0.00     0.003 A 
ATOM     31  C   UNL A   1      38.017  28.185  32.099  1.00  0.00     0.044 C 
ENDBRANCH  15  25
ENDBRANCH  10  12
ENDBRANCH   9  10
ENDBRANCH   8   9
ENDBRANCH   6   8
ENDBRANCH   5   6
ENDBRANCH   4   5
ENDBRANCH   3   4
ENDBRANCH   2   3
ENDBRANCH   1   2
BRANCH   1  32
ATOM     32  C   UNL A   1      36.593  32.218  33.594  1.00  0.00     0.188 C 
BRANCH  32  33
ATOM     33  O   UNL A   1      37.817  31.386  34.437  1.00  0.00    -0.377 OA
BRANCH  33  34
ATOM     34  C   UNL A   1      38.218  31.131  36.109  1.00  0.00     0.188 C 
BRANCH  34  35
ATOM     35  C   UNL A   1      37.481  32.078  37.584  1.00  0.00     0.188 C 
BRANCH  35  36
ATOM     36  O   UNL A   1      38.517  32.248  39.050  1.00  0.00    -0.376 OA
BRANCH  36  37
ATOM     37  C   UNL A   1      38.204  33.464  40.631  1.00  0.00     0.202 C 
BRANCH  37  38
ATOM     38  C   UNL A   1      38.836  35.286  40.650  1.00  0.00     0.261 C 
BRANCH  38  39
ATOM     39  O   UNL A   1      38.977  36.256  39.321  1.00  0.00    -0.460 OA
BRANCH  39  40
ATOM     40  C   UNL A   1      40.046  36.464  38.440  1.00  0.00     0.338 C 
ATOM     41  O   UNL A   1      40.858  37.373  38.563  1.00  0.00    -0.246 OA
BRANCH  40  42
ATOM     42  C   UNL A   1      40.335  35.357  37.369  1.00  0.00     0.060 A 
ATOM     43  C   UNL A   1      41.596  34.700  37.307  1.00  0.00     0.016 A 
ATOM     44  C   UNL A   1      39.451  35.027  36.338  1.00  0.00     0.016 A 
ATOM     45  C   UNL A   1      41.937  33.723  36.305  1.00  0.00     0.010 A 
ATOM     46  C   UNL A   1      39.814  34.099  35.299  1.00  0.00     0.010 A 
ATOM     47  C   UNL A   1      41.064  33.438  35.247  1.00  0.00    -0.014 A 
BRANCH  47  48
ATOM     48  C   UNL A   1      41.497  32.714  33.976  1.00  0.00     0.031 A 
ATOM     49  C   UNL A   1      41.833  31.242  34.066  1.00  0.00     0.074 A 
ATOM     50  C   UNL A   1      41.602  33.238  32.732  1.00  0.00     0.049 A 
ATOM     51  N   UNL A   1      42.349  30.443  33.162  1.00  0.00    -0.248 NA
ATOM     52  C   UNL A   1      41.494  30.581  35.331  1.00  0.00     0.031 C 
ATOM     53  C   UNL A   1      41.088  34.529  32.314  1.00  0.00     0.029 A 
ATOM     54  N   UNL A   1      42.183  32.730  31.570  1.00  0.00    -0.354 N 
ATOM     55  C   UNL A   1      42.392  29.185  33.746  1.00  0.00     0.074 A 
ATOM     56  C   UNL A   1      41.879  29.337  35.093  1.00  0.00     0.031 C 
ATOM     57  C   UNL A   1      41.431  34.730  31.028  1.00  0.00     0.029 A 
ATOM     58  C   UNL A   1      42.274  33.654  30.551  1.00  0.00     0.049 A 
ATOM     59  H   UNL A   1      42.497  31.802  31.484  1.00  0.00     0.167 HD
ATOM     60  C   UNL A   1      42.810  28.009  33.217  1.00  0.00     0.031 A 
ATOM     61  C   UNL A   1      42.955  33.692  29.381  1.00  0.00     0.031 A 
ATOM     62  C   UNL A   1      43.349  27.830  31.892  1.00  0.00     0.049 A 
ATOM     63  C   UNL A   1      43.623  32.447  28.885  1.00  0.00     0.074 A 
ATOM     64  C   UNL A   1      43.791  26.659  31.296  1.00  0.00     0.029 A 
ATOM     65  N   UNL A   1      43.542  28.840  30.962  1.00  0.00    -0.354 N 
ATOM     66  N   UNL A   1      43.667  31.274  29.459  1.00  0.00    -0.248 NA
ATOM     67  C   UNL A   1      44.250  32.496  27.554  1.00  0.00     0.031 C 
ATOM     68  C   UNL A   1      44.328  26.973  30.043  1.00  0.00     0.029 A 
ATOM     69  C   UNL A   1      44.149  28.326  29.822  1.00  0.00     0.049 A 
ATOM     70  H   UNL A   1      43.288  29.782  31.091  1.00  0.00     0.167 HD
ATOM     71  C   UNL A   1      44.263  30.428  28.538  1.00  0.00     0.074 A 
ATOM     72  C   UNL A   1      44.567  31.222  27.367  1.00  0.00     0.031 C 
ATOM     73  C   UNL A   1      44.499  29.101  28.660  1.00  0.00     0.031 A 
BRANCH  60  74
ATOM     74  C   UNL A   1      42.763  26.811  34.125  1.00  0.00    -0.014 A 
ATOM     75  C   UNL A   1      43.913  26.066  34.427  1.00  0.00     0.009 A 
ATOM     76  C   UNL A   1      41.536  26.433  34.694  1.00  0.00     0.009 A 
ATOM     77  C   UNL A   1      43.827  24.942  35.252  1.00  0.00     0.001 A 
ATOM     78  C   UNL A   1      41.460  25.330  35.543  1.00  0.00     0.001 A 
ATOM     79  C   UNL A   1      42.602  24.579  35.812  1.00  0.00     0.000 A 
ENDBRANCH  60  74
BRANCH  61  80
ATOM     80  C   UNL A   1      43.075  34.958  28.589  1.00  0.00    -0.014 A 
ATOM     81  C   UNL A   1      42.102  35.341  27.652  1.00  0.00     0.009 A 
ATOM     82  C   UNL A   1      44.213  35.771  28.735  1.00  0.00     0.009 A 
ATOM     83  C   UNL A   1      42.263  36.504  26.888  1.00  0.00     0.001 A 
ATOM     84  C   UNL A   1      44.362  36.946  27.985  1.00  0.00     0.001 A 
ATOM     85  C   UNL A   1      43.385  37.312  27.062  1.00  0.00     0.000 A 
ENDBRANCH  61  80
BRANCH  73  86
ATOM     86  C   UNL A   1      45.103  28.410  27.471  1.00  0.00    -0.014 A 
ATOM     87  C   UNL A   1      46.495  28.331  27.298  1.00  0.00     0.009 A 
ATOM     88  C   UNL A   1      44.265  27.846  26.498  1.00  0.00     0.009 A 
ATOM     89  C   UNL A   1      47.032  27.749  26.148  1.00  0.00     0.001 A 
ATOM     90  C   UNL A   1      44.805  27.232  25.366  1.00  0.00     0.001 A 
ATOM     91  C   UNL A   1      46.187  27.197  25.186  1.00  0.00     0.000 A 
ENDBRANCH  73  86
ENDBRANCH  47  48
ENDBRANCH  40  42
ENDBRANCH  39  40
ENDBRANCH  38  39
ENDBRANCH  37  38
ENDBRANCH  36  37
ENDBRANCH  35  36
ENDBRANCH  34  35
ENDBRANCH  33  34
ENDBRANCH  32  33
ENDBRANCH   1  32
TORSDOF 26
ENDMDL
MODEL 2
REMARK VINA RESULT:     -10.4      0.839      5.445
REMARK SMILES COc1cccc([C@@H]2CC(c3cccc(C)c3)=NN2C(=O)CCC(=O)OCCOCCOCCOCCOC(=O)c2ccc(-c3c4nc(c(-c5ccccc5)c5ccc([nH]5)c(-c5ccccc5)c5nc(c(-c6ccccc6)c6ccc3[nH]6)C=C5)C=C4)cc2)c1
REMARK SMILES IDX 30 1 29 2 28 3 27 4 26 5 24 6 25 7 23 8 22 9 20 10 21 11
REMARK SMILES IDX 19 12 8 13 9 14 10 15 18 16 7 17 3 18 4 19 89 20 5 21 6 22
REMARK SMILES IDX 2 23 1 24 11 25 12 26 17 27 13 28 15 29 14 30 16 31 31 32
REMARK SMILES IDX 32 33 33 34 34 35 35 36 36 37 37 38 38 39 39 40 40 41 41 42
REMARK SMILES IDX 42 43 88 44 43 45 87 46 44 47 45 48 46 49 81 50 47 51 86 52
REMARK SMILES IDX 80 53 82 54 48 55 85 56 79 57 78 58 49 60 71 61 56 62 70 63
REMARK SMILES IDX 57 64 60 65 69 66 83 67 58 68 59 69 68 71 84 72 61 73 50 74
REMARK SMILES IDX 51 75 55 76 52 77 54 78 53 79 72 80 73 81 77 82 74 83 76 84
REMARK SMILES IDX 75 85 62 86 63 87 67 88 64 89 66 90 65 91
REMARK H PARENT 82 59 60 70
REMARK Flexibility Score: inf
ROOT
ATOM      1  C   UNL A   1      35.695  34.720  33.304  1.00  0.00     0.188 C 
ENDROOT
BRANCH   1   2
ATOM      2  O   UNL A   1      35.164  36.096  33.521  1.00  0.00    -0.376 OA
BRANCH   2   3
ATOM      3  C   UNL A   1      33.894  36.826  33.353  1.00  0.00     0.202 C 
BRANCH   3   4
ATOM      4  C   UNL A   1      33.546  37.696  32.119  1.00  0.00     0.261 C 
BRANCH   4   5
ATOM      5  O   UNL A   1      33.600  36.935  30.930  1.00  0.00    -0.463 OA
BRANCH   5   6
ATOM      6  C   UNL A   1      32.889  35.800  31.013  1.00  0.00     0.306 C 
ATOM      7  O   UNL A   1      31.750  35.723  31.461  1.00  0.00    -0.252 OA
BRANCH   6   8
ATOM      8  C   UNL A   1      33.626  34.616  30.482  1.00  0.00     0.132 C 
BRANCH   8   9
ATOM      9  C   UNL A   1      33.937  34.463  29.000  1.00  0.00     0.114 C 
BRANCH   9  10
ATOM     10  C   UNL A   1      33.354  33.352  28.130  1.00  0.00     0.243 C 
ATOM     11  O   UNL A   1      32.283  33.729  27.595  1.00  0.00    -0.273 OA
BRANCH  10  12
ATOM     12  N   UNL A   1      33.830  32.057  27.857  1.00  0.00    -0.225 N 
ATOM     13  C   UNL A   1      33.800  30.608  26.885  1.00  0.00     0.147 C 
ATOM     14  C   UNL A   1      35.253  30.069  27.251  1.00  0.00     0.091 C 
ATOM     15  C   UNL A   1      35.543  30.850  28.510  1.00  0.00     0.071 C 
ATOM     16  N   UNL A   1      34.807  31.860  28.770  1.00  0.00    -0.174 NA
BRANCH  13  17
ATOM     17  C   UNL A   1      32.307  29.518  26.428  1.00  0.00    -0.019 A 
ATOM     18  C   UNL A   1      30.908  28.209  24.030  1.00  0.00     0.119 A 
ATOM     19  C   UNL A   1      30.529  26.723  24.882  1.00  0.00     0.046 A 
ATOM     20  C   UNL A   1      31.815  29.519  24.734  1.00  0.00     0.052 A 
ATOM     21  C   UNL A   1      30.942  26.560  26.591  1.00  0.00     0.004 A 
ATOM     22  C   UNL A   1      31.684  28.041  27.439  1.00  0.00     0.006 A 
BRANCH  18  23
ATOM     23  O   UNL A   1      30.211  28.389  22.842  1.00  0.00    -0.497 OA
ATOM     24  C   UNL A   1      29.027  29.182  22.952  1.00  0.00     0.278 C 
ENDBRANCH  18  23
ENDBRANCH  13  17
BRANCH  15  25
ATOM     25  C   UNL A   1      36.564  30.591  29.523  1.00  0.00    -0.002 A 
ATOM     26  C   UNL A   1      36.087  30.292  30.818  1.00  0.00     0.010 A 
ATOM     27  C   UNL A   1      37.883  30.929  29.298  1.00  0.00     0.013 A 
ATOM     28  C   UNL A   1      36.913  30.455  31.912  1.00  0.00     0.001 A 
ATOM     29  C   UNL A   1      38.730  31.044  30.402  1.00  0.00    -0.050 A 
ATOM     30  C   UNL A   1      38.226  30.862  31.700  1.00  0.00     0.003 A 
ATOM     31  C   UNL A   1      40.188  31.304  30.197  1.00  0.00     0.044 C 
ENDBRANCH  15  25
ENDBRANCH  10  12
ENDBRANCH   9  10
ENDBRANCH   8   9
ENDBRANCH   6   8
ENDBRANCH   5   6
ENDBRANCH   4   5
ENDBRANCH   3   4
ENDBRANCH   2   3
ENDBRANCH   1   2
BRANCH   1  32
ATOM     32  C   UNL A   1      35.780  33.003  34.069  1.00  0.00     0.188 C 
BRANCH  32  33
ATOM     33  O   UNL A   1      36.939  32.125  34.956  1.00  0.00    -0.377 OA
BRANCH  33  34
ATOM     34  C   UNL A   1      37.757  32.334  36.477  1.00  0.00     0.188 C 
BRANCH  34  35
ATOM     35  C   UNL A   1      37.011  33.122  38.038  1.00  0.00     0.188 C 
BRANCH  35  36
ATOM     36  O   UNL A   1      37.486  32.408  39.625  1.00  0.00    -0.376 OA
BRANCH  36  37
ATOM     37  C   UNL A   1      38.258  33.379  41.217  1.00  0.00     0.202 C 
BRANCH  37  38
ATOM     38  C   UNL A   1      39.278  35.003  41.017  1.00  0.00     0.261 C 
BRANCH  38  39
ATOM     39  O   UNL A   1      38.981  36.180  39.897  1.00  0.00    -0.460 OA
BRANCH  39  40
ATOM     40  C   UNL A   1      39.680  36.551  38.742  1.00  0.00     0.338 C 
ATOM     41  O   UNL A   1      40.091  37.686  38.533  1.00  0.00    -0.246 OA
BRANCH  40  42
ATOM     42  C   UNL A   1      40.139  35.411  37.769  1.00  0.00     0.060 A 
ATOM     43  C   UNL A   1      41.268  34.596  38.064  1.00  0.00     0.016 A 
ATOM     44  C   UNL A   1      39.572  35.193  36.510  1.00  0.00     0.016 A 
ATOM     45  C   UNL A   1      41.771  33.580  37.177  1.00  0.00     0.010 A 
ATOM     46  C   UNL A   1      40.113  34.222  35.595  1.00  0.00     0.010 A 
ATOM     47  C   UNL A   1      41.228  33.404  35.897  1.00  0.00    -0.014 A 
BRANCH  47  48
ATOM     48  C   UNL A   1      41.931  32.625  34.790  1.00  0.00     0.031 A 
ATOM     49  C   UNL A   1      42.179  33.320  33.468  1.00  0.00     0.074 A 
ATOM     50  C   UNL A   1      42.395  31.355  34.851  1.00  0.00     0.049 A 
ATOM     51  N   UNL A   1      42.633  32.833  32.338  1.00  0.00    -0.248 NA
ATOM     52  C   UNL A   1      41.921  34.763  33.443  1.00  0.00     0.031 C 
ATOM     53  C   UNL A   1      42.536  30.566  36.060  1.00  0.00     0.029 A 
ATOM     54  N   UNL A   1      42.848  30.495  33.850  1.00  0.00    -0.354 N 
ATOM     55  C   UNL A   1      42.722  33.910  31.468  1.00  0.00     0.074 A 
ATOM     56  C   UNL A   1      42.243  35.069  32.195  1.00  0.00     0.031 C 
ATOM     57  C   UNL A   1      42.971  29.338  35.721  1.00  0.00     0.029 A 
ATOM     58  C   UNL A   1      43.042  29.201  34.282  1.00  0.00     0.049 A 
ATOM     59  H   UNL A   1      43.014  30.785  32.924  1.00  0.00     0.167 HD
ATOM     60  C   UNL A   1      43.165  33.943  30.187  1.00  0.00     0.031 A 
ATOM     61  C   UNL A   1      43.226  28.021  33.645  1.00  0.00     0.031 A 
ATOM     62  C   UNL A   1      43.623  32.805  29.430  1.00  0.00     0.049 A 
ATOM     63  C   UNL A   1      43.496  28.020  32.172  1.00  0.00     0.074 A 
ATOM     64  C   UNL A   1      44.087  32.775  28.124  1.00  0.00     0.029 A 
ATOM     65  N   UNL A   1      43.659  31.498  29.889  1.00  0.00    -0.354 N 
ATOM     66  N   UNL A   1      43.558  29.046  31.365  1.00  0.00    -0.248 NA
ATOM     67  C   UNL A   1      43.810  26.729  31.539  1.00  0.00     0.031 C 
ATOM     68  C   UNL A   1      44.322  31.443  27.766  1.00  0.00     0.029 A 
ATOM     69  C   UNL A   1      44.083  30.649  28.873  1.00  0.00     0.049 A 
ATOM     70  H   UNL A   1      43.419  31.213  30.800  1.00  0.00     0.167 HD
ATOM     71  C   UNL A   1      43.982  28.540  30.147  1.00  0.00     0.074 A 
ATOM     72  C   UNL A   1      44.160  27.114  30.319  1.00  0.00     0.031 C 
ATOM     73  C   UNL A   1      44.229  29.223  29.005  1.00  0.00     0.031 A 
BRANCH  60  74
ATOM     74  C   UNL A   1      43.106  35.274  29.492  1.00  0.00    -0.014 A 
ATOM     75  C   UNL A   1      41.969  35.687  28.779  1.00  0.00     0.009 A 
ATOM     76  C   UNL A   1      44.215  36.133  29.563  1.00  0.00     0.009 A 
ATOM     77  C   UNL A   1      41.959  36.919  28.122  1.00  0.00     0.001 A 
ATOM     78  C   UNL A   1      44.189  37.375  28.931  1.00  0.00     0.001 A 
ATOM     79  C   UNL A   1      43.067  37.763  28.202  1.00  0.00     0.000 A 
ENDBRANCH  60  74
BRANCH  61  80
ATOM     80  C   UNL A   1      43.140  26.717  34.378  1.00  0.00    -0.014 A 
ATOM     81  C   UNL A   1      41.906  26.137  34.715  1.00  0.00     0.009 A 
ATOM     82  C   UNL A   1      44.315  26.068  34.796  1.00  0.00     0.009 A 
ATOM     83  C   UNL A   1      41.853  24.942  35.445  1.00  0.00     0.001 A 
ATOM     84  C   UNL A   1      44.260  24.861  35.507  1.00  0.00     0.001 A 
ATOM     85  C   UNL A   1      43.028  24.298  35.830  1.00  0.00     0.000 A 
ENDBRANCH  61  80
BRANCH  73  86
ATOM     86  C   UNL A   1      44.749  28.427  27.841  1.00  0.00    -0.014 A 
ATOM     87  C   UNL A   1      46.126  28.245  27.635  1.00  0.00     0.009 A 
ATOM     88  C   UNL A   1      43.845  27.869  26.925  1.00  0.00     0.009 A 
ATOM     89  C   UNL A   1      46.587  27.564  26.505  1.00  0.00     0.001 A 
ATOM     90  C   UNL A   1      44.307  27.157  25.817  1.00  0.00     0.001 A 
ATOM     91  C   UNL A   1      45.677  27.019  25.600  1.00  0.00     0.000 A 
ENDBRANCH  73  86
ENDBRANCH  47  48
ENDBRANCH  40  42
ENDBRANCH  39  40
ENDBRANCH  38  39
ENDBRANCH  37  38
ENDBRANCH  36  37
ENDBRANCH  35  36
ENDBRANCH  34  35
ENDBRANCH  33  34
ENDBRANCH  32  33
ENDBRANCH   1  32
TORSDOF 26
ENDMDL
MODEL 3
REMARK VINA RESULT:      -9.4      3.618      8.111
REMARK SMILES COc1cccc([C@@H]2CC(c3cccc(C)c3)=NN2C(=O)CCC(=O)OCCOCCOCCOCCOC(=O)c2ccc(-c3c4nc(c(-c5ccccc5)c5ccc([nH]5)c(-c5ccccc5)c5nc(c(-c6ccccc6)c6ccc3[nH]6)C=C5)C=C4)cc2)c1
REMARK SMILES IDX 30 1 29 2 28 3 27 4 26 5 24 6 25 7 23 8 22 9 20 10 21 11
REMARK SMILES IDX 19 12 8 13 9 14 10 15 18 16 7 17 3 18 4 19 89 20 5 21 6 22
REMARK SMILES IDX 2 23 1 24 11 25 12 26 17 27 13 28 15 29 14 30 16 31 31 32
REMARK SMILES IDX 32 33 33 34 34 35 35 36 36 37 37 38 38 39 39 40 40 41 41 42
REMARK SMILES IDX 42 43 88 44 43 45 87 46 44 47 45 48 46 49 81 50 47 51 86 52
REMARK SMILES IDX 80 53 82 54 48 55 85 56 79 57 78 58 49 60 71 61 56 62 70 63
REMARK SMILES IDX 57 64 60 65 69 66 83 67 58 68 59 69 68 71 84 72 61 73 50 74
REMARK SMILES IDX 51 75 55 76 52 77 54 78 53 79 72 80 73 81 77 82 74 83 76 84
REMARK SMILES IDX 75 85 62 86 63 87 67 88 64 89 66 90 65 91
REMARK H PARENT 82 59 60 70
REMARK Flexibility Score: inf
ROOT
ATOM      1  C   UNL A   1      36.060  34.480  32.376  1.00  0.00     0.188 C 
ENDROOT
BRANCH   1   2
ATOM      2  O   UNL A   1      35.352  35.692  32.879  1.00  0.00    -0.376 OA
BRANCH   2   3
ATOM      3  C   UNL A   1      33.986  36.086  33.272  1.00  0.00     0.202 C 
BRANCH   3   4
ATOM      4  C   UNL A   1      32.753  36.005  32.336  1.00  0.00     0.261 C 
BRANCH   4   5
ATOM      5  O   UNL A   1      33.092  35.410  31.100  1.00  0.00    -0.463 OA
BRANCH   5   6
ATOM      6  C   UNL A   1      33.084  36.290  30.087  1.00  0.00     0.306 C 
ATOM      7  O   UNL A   1      32.972  37.504  30.220  1.00  0.00    -0.252 OA
BRANCH   6   8
ATOM      8  C   UNL A   1      33.243  35.639  28.754  1.00  0.00     0.132 C 
BRANCH   8   9
ATOM      9  C   UNL A   1      33.427  34.134  28.614  1.00  0.00     0.114 C 
BRANCH   9  10
ATOM     10  C   UNL A   1      34.794  33.459  28.524  1.00  0.00     0.243 C 
ATOM     11  O   UNL A   1      35.710  34.319  28.548  1.00  0.00    -0.273 OA
BRANCH  10  12
ATOM     12  N   UNL A   1      35.141  32.099  28.437  1.00  0.00    -0.225 N 
ATOM     13  C   UNL A   1      36.196  30.777  28.865  1.00  0.00     0.147 C 
ATOM     14  C   UNL A   1      35.175  29.586  28.598  1.00  0.00     0.091 C 
ATOM     15  C   UNL A   1      34.148  30.275  27.730  1.00  0.00     0.071 C 
ATOM     16  N   UNL A   1      34.157  31.550  27.692  1.00  0.00    -0.174 NA
BRANCH  13  17
ATOM     17  C   UNL A   1      38.088  30.664  28.681  1.00  0.00    -0.019 A 
ATOM     18  C   UNL A   1      40.688  30.690  30.314  1.00  0.00     0.119 A 
ATOM     19  C   UNL A   1      41.469  29.446  29.355  1.00  0.00     0.046 A 
ATOM     20  C   UNL A   1      39.052  31.229  30.045  1.00  0.00     0.052 A 
ATOM     21  C   UNL A   1      40.646  28.779  27.942  1.00  0.00     0.004 A 
ATOM     22  C   UNL A   1      39.001  29.516  27.480  1.00  0.00     0.006 A 
BRANCH  18  23
ATOM     23  O   UNL A   1      41.543  31.410  31.137  1.00  0.00    -0.497 OA
ATOM     24  C   UNL A   1      41.516  31.030  32.515  1.00  0.00     0.278 C 
ENDBRANCH  18  23
ENDBRANCH  13  17
BRANCH  15  25
ATOM     25  C   UNL A   1      33.128  29.667  26.878  1.00  0.00    -0.002 A 
ATOM     26  C   UNL A   1      32.228  28.790  27.523  1.00  0.00     0.010 A 
ATOM     27  C   UNL A   1      33.243  29.703  25.503  1.00  0.00     0.013 A 
ATOM     28  C   UNL A   1      31.528  27.855  26.787  1.00  0.00     0.001 A 
ATOM     29  C   UNL A   1      32.496  28.790  24.756  1.00  0.00    -0.050 A 
ATOM     30  C   UNL A   1      31.690  27.841  25.405  1.00  0.00     0.003 A 
ATOM     31  C   UNL A   1      32.509  28.863  23.264  1.00  0.00     0.044 C 
ENDBRANCH  15  25
ENDBRANCH  10  12
ENDBRANCH   9  10
ENDBRANCH   8   9
ENDBRANCH   6   8
ENDBRANCH   5   6
ENDBRANCH   4   5
ENDBRANCH   3   4
ENDBRANCH   2   3
ENDBRANCH   1   2
BRANCH   1  32
ATOM     32  C   UNL A   1      36.178  32.614  32.583  1.00  0.00     0.188 C 
BRANCH  32  33
ATOM     33  O   UNL A   1      37.280  31.541  33.315  1.00  0.00    -0.377 OA
BRANCH  33  34
ATOM     34  C   UNL A   1      38.267  31.562  34.747  1.00  0.00     0.188 C 
BRANCH  34  35
ATOM     35  C   UNL A   1      37.945  32.608  36.302  1.00  0.00     0.188 C 
BRANCH  35  36
ATOM     36  O   UNL A   1      38.056  31.768  37.894  1.00  0.00    -0.376 OA
BRANCH  36  37
ATOM     37  C   UNL A   1      38.219  32.622  39.715  1.00  0.00     0.202 C 
BRANCH  37  38
ATOM     38  C   UNL A   1      39.030  34.356  39.953  1.00  0.00     0.261 C 
BRANCH  38  39
ATOM     39  O   UNL A   1      38.694  35.693  39.045  1.00  0.00    -0.460 OA
BRANCH  39  40
ATOM     40  C   UNL A   1      39.520  36.727  38.584  1.00  0.00     0.338 C 
ATOM     41  O   UNL A   1      39.541  37.849  39.075  1.00  0.00    -0.246 OA
BRANCH  40  42
ATOM     42  C   UNL A   1      40.618  36.366  37.526  1.00  0.00     0.060 A 
ATOM     43  C   UNL A   1      42.004  36.481  37.830  1.00  0.00     0.016 A 
ATOM     44  C   UNL A   1      40.336  36.035  36.198  1.00  0.00     0.016 A 
ATOM     45  C   UNL A   1      43.053  36.226  36.877  1.00  0.00     0.010 A 
ATOM     46  C   UNL A   1      41.382  35.842  35.228  1.00  0.00     0.010 A 
ATOM     47  C   UNL A   1      42.759  35.945  35.536  1.00  0.00    -0.014 A 
BRANCH  47  48
ATOM     48  C   UNL A   1      43.792  36.031  34.417  1.00  0.00     0.031 A 
ATOM     49  C   UNL A   1      44.002  37.365  33.734  1.00  0.00     0.074 A 
ATOM     50  C   UNL A   1      44.586  35.035  33.958  1.00  0.00     0.049 A 
ATOM     51  N   UNL A   1      44.718  37.661  32.675  1.00  0.00    -0.248 NA
ATOM     52  C   UNL A   1      43.351  38.519  34.363  1.00  0.00     0.031 C 
ATOM     53  C   UNL A   1      44.785  33.751  34.603  1.00  0.00     0.029 A 
ATOM     54  N   UNL A   1      45.390  34.954  32.821  1.00  0.00    -0.354 N 
ATOM     55  C   UNL A   1      44.610  39.034  32.514  1.00  0.00     0.074 A 
ATOM     56  C   UNL A   1      43.732  39.506  33.566  1.00  0.00     0.031 C 
ATOM     57  C   UNL A   1      45.592  33.003  33.826  1.00  0.00     0.029 A 
ATOM     58  C   UNL A   1      45.886  33.690  32.586  1.00  0.00     0.049 A 
ATOM     59  H   UNL A   1      45.585  35.726  32.242  1.00  0.00     0.167 HD
ATOM     60  C   UNL A   1      45.189  39.837  31.587  1.00  0.00     0.031 A 
ATOM     61  C   UNL A   1      46.478  33.101  31.520  1.00  0.00     0.031 A 
ATOM     62  C   UNL A   1      46.045  39.396  30.514  1.00  0.00     0.049 A 
ATOM     63  C   UNL A   1      46.926  33.951  30.372  1.00  0.00     0.074 A 
ATOM     64  C   UNL A   1      46.664  40.164  29.541  1.00  0.00     0.029 A 
ATOM     65  N   UNL A   1      46.391  38.079  30.254  1.00  0.00    -0.354 N 
ATOM     66  N   UNL A   1      46.799  35.245  30.230  1.00  0.00    -0.248 NA
ATOM     67  C   UNL A   1      47.674  33.292  29.288  1.00  0.00     0.031 C 
ATOM     68  C   UNL A   1      47.313  39.307  28.644  1.00  0.00     0.029 A 
ATOM     69  C   UNL A   1      47.166  38.010  29.103  1.00  0.00     0.049 A 
ATOM     70  H   UNL A   1      46.125  37.307  30.804  1.00  0.00     0.167 HD
ATOM     71  C   UNL A   1      47.504  35.567  29.083  1.00  0.00     0.074 A 
ATOM     72  C   UNL A   1      48.056  34.334  28.562  1.00  0.00     0.031 C 
ATOM     73  C   UNL A   1      47.694  36.794  28.541  1.00  0.00     0.031 A 
BRANCH  60  74
ATOM     74  C   UNL A   1      44.845  41.299  31.658  1.00  0.00    -0.014 A 
ATOM     75  C   UNL A   1      45.623  42.207  32.392  1.00  0.00     0.009 A 
ATOM     76  C   UNL A   1      43.719  41.770  30.963  1.00  0.00     0.009 A 
ATOM     77  C   UNL A   1      45.258  43.554  32.457  1.00  0.00     0.001 A 
ATOM     78  C   UNL A   1      43.376  43.120  31.006  1.00  0.00     0.001 A 
ATOM     79  C   UNL A   1      44.138  44.009  31.761  1.00  0.00     0.000 A 
ENDBRANCH  60  74
BRANCH  61  80
ATOM     80  C   UNL A   1      46.671  31.617  31.456  1.00  0.00    -0.014 A 
ATOM     81  C   UNL A   1      45.842  30.796  30.675  1.00  0.00     0.009 A 
ATOM     82  C   UNL A   1      47.670  31.005  32.235  1.00  0.00     0.009 A 
ATOM     83  C   UNL A   1      46.012  29.404  30.672  1.00  0.00     0.001 A 
ATOM     84  C   UNL A   1      47.852  29.615  32.213  1.00  0.00     0.001 A 
ATOM     85  C   UNL A   1      47.023  28.816  31.430  1.00  0.00     0.000 A 
ENDBRANCH  61  80
BRANCH  73  86
ATOM     86  C   UNL A   1      48.564  36.865  27.319  1.00  0.00    -0.014 A 
ATOM     87  C   UNL A   1      49.917  37.233  27.404  1.00  0.00     0.009 A 
ATOM     88  C   UNL A   1      48.015  36.581  26.060  1.00  0.00     0.009 A 
ATOM     89  C   UNL A   1      50.687  37.365  26.246  1.00  0.00     0.001 A 
ATOM     90  C   UNL A   1      48.797  36.678  24.908  1.00  0.00     0.001 A 
ATOM     91  C   UNL A   1      50.127  37.084  25.001  1.00  0.00     0.000 A 
ENDBRANCH  73  86
ENDBRANCH  47  48
ENDBRANCH  40  42
ENDBRANCH  39  40
ENDBRANCH  38  39
ENDBRANCH  37  38
ENDBRANCH  36  37
ENDBRANCH  35  36
ENDBRANCH  34  35
ENDBRANCH  33  34
ENDBRANCH  32  33
ENDBRANCH   1  32
TORSDOF 26
ENDMDL
