MODEL 1
REMARK VINA RESULT:     -10.3      0.000      0.000
REMARK SMILES C[C@H]1N=N[C@H](S/C(=C/c2ccc(-c3cccc(Cl)c3)o2)C(=O)OCCOCCOCCOCCOC(=O)c2ccc(-c3c4nc(c(-c5ccccc5)c5ccc([nH]5)c(-c5ccccc5)c5nc(c(-c6ccccc6)c6ccc3[nH]6)C=C5)C=C4)cc2)[NH2+]1
REMARK SMILES IDX 29 1 28 2 27 3 26 4 25 5 24 6 23 7 21 8 22 9 7 10 8 11 6 12
REMARK SMILES IDX 5 13 1 14 2 15 3 16 86 17 4 18 9 21 10 22 20 23 11 24 12 25
REMARK SMILES IDX 13 26 14 27 19 28 15 29 17 30 16 31 18 32 30 33 31 34 32 35
REMARK SMILES IDX 33 36 34 37 35 38 36 39 37 40 38 41 39 42 85 43 40 44 84 45
REMARK SMILES IDX 41 46 42 47 43 48 78 49 44 50 83 51 77 52 79 53 45 54 82 55
REMARK SMILES IDX 76 56 75 57 46 59 68 60 53 61 67 62 54 63 57 64 66 65 80 66
REMARK SMILES IDX 55 67 56 68 65 70 81 71 58 72 47 73 48 74 52 75 49 76 51 77
REMARK SMILES IDX 50 78 69 79 70 80 74 81 71 82 73 83 72 84 59 85 60 86 64 87
REMARK SMILES IDX 61 88 63 89 62 90
REMARK H PARENT 86 19 86 20 79 58 57 69
REMARK Flexibility Score: inf
ROOT
ATOM      1  O   UNL A   1      35.338  33.542  28.604  1.00  0.00    -0.377 OA
ENDROOT
BRANCH   1   2
ATOM      2  C   UNL A   1      35.649  32.304  27.989  1.00  0.00     0.188 C 
BRANCH   2   3
ATOM      3  C   UNL A   1      34.498  31.311  27.707  1.00  0.00     0.188 C 
BRANCH   3   4
ATOM      4  O   UNL A   1      34.843  29.941  27.756  1.00  0.00    -0.376 OA
BRANCH   4   5
ATOM      5  C   UNL A   1      34.367  29.010  26.803  1.00  0.00     0.202 C 
BRANCH   5   6
ATOM      6  C   UNL A   1      33.017  29.117  26.078  1.00  0.00     0.261 C 
BRANCH   6   7
ATOM      7  O   UNL A   1      32.797  28.144  25.067  1.00  0.00    -0.459 OA
BRANCH   7   8
ATOM      8  C   UNL A   1      32.666  28.558  23.783  1.00  0.00     0.345 C 
ATOM      9  O   UNL A   1      33.551  29.011  23.076  1.00  0.00    -0.246 OA
BRANCH   8  10
ATOM     10  C   UNL A   1      31.263  28.263  23.329  1.00  0.00     0.104 C 
ATOM     11  C   UNL A   1      30.962  27.138  22.646  1.00  0.00     0.070 C 
BRANCH  10  12
ATOM     12  S   UNL A   1      30.231  29.655  23.547  1.00  0.00    -0.028 SA
BRANCH  12  13
ATOM     13  C   UNL A   1      29.031  29.703  22.186  1.00  0.00     0.393 C 
ATOM     14  C   UNL A   1      27.805  32.680  20.677  1.00  0.00     0.106 C 
ATOM     15  C   UNL A   1      28.383  31.818  21.793  1.00  0.00     0.324 C 
ATOM     16  N   UNL A   1      27.281  31.084  22.436  1.00  0.00    -0.126 NA
ATOM     17  N   UNL A   1      29.346  30.829  21.296  1.00  0.00    -0.293 N 
ATOM     18  N   UNL A   1      27.632  29.894  22.630  1.00  0.00    -0.115 NA
ATOM     19  H   UNL A   1      30.310  31.145  21.410  1.00  0.00     0.350 HD
ATOM     20  H   UNL A   1      29.278  30.623  20.299  1.00  0.00     0.350 HD
ENDBRANCH  12  13
ENDBRANCH  10  12
BRANCH  11  21
ATOM     21  C   UNL A   1      31.890  26.072  22.394  1.00  0.00     0.128 A 
ATOM     22  C   UNL A   1      32.525  25.684  21.215  1.00  0.00     0.051 A 
ATOM     23  O   UNL A   1      32.322  25.198  23.387  1.00  0.00    -0.457 OA
ATOM     24  C   UNL A   1      33.251  24.505  21.466  1.00  0.00     0.051 A 
ATOM     25  C   UNL A   1      33.137  24.264  22.814  1.00  0.00     0.134 A 
BRANCH  25  26
ATOM     26  C   UNL A   1      33.775  23.276  23.670  1.00  0.00     0.019 A 
ATOM     27  C   UNL A   1      34.984  23.625  24.301  1.00  0.00     0.012 A 
ATOM     28  C   UNL A   1      33.268  21.986  23.851  1.00  0.00     0.032 A 
ATOM     29  C   UNL A   1      35.690  22.705  25.074  1.00  0.00     0.002 A 
ATOM     30  C   UNL A   1      33.974  21.073  24.642  1.00  0.00     0.041 A 
ATOM     31  C   UNL A   1      35.188  21.420  25.237  1.00  0.00     0.020 A 
ATOM     32  Cl  UNL A   1      33.338  19.502  24.926  1.00  0.00    -0.084 Cl
ENDBRANCH  25  26
ENDBRANCH  11  21
ENDBRANCH   8  10
ENDBRANCH   7   8
ENDBRANCH   6   7
ENDBRANCH   5   6
ENDBRANCH   4   5
ENDBRANCH   3   4
ENDBRANCH   2   3
ENDBRANCH   1   2
BRANCH   1  33
ATOM     33  C   UNL A   1      33.981  33.896  28.844  1.00  0.00     0.188 C 
BRANCH  33  34
ATOM     34  C   UNL A   1      33.578  35.127  29.690  1.00  0.00     0.188 C 
BRANCH  34  35
ATOM     35  O   UNL A   1      33.132  34.842  31.003  1.00  0.00    -0.376 OA
BRANCH  35  36
ATOM     36  C   UNL A   1      34.066  34.873  32.065  1.00  0.00     0.202 C 
BRANCH  36  37
ATOM     37  C   UNL A   1      34.310  33.572  32.842  1.00  0.00     0.261 C 
BRANCH  37  38
ATOM     38  O   UNL A   1      35.375  32.740  32.359  1.00  0.00    -0.460 OA
BRANCH  38  39
ATOM     39  C   UNL A   1      36.358  32.432  33.227  1.00  0.00     0.338 C 
ATOM     40  O   UNL A   1      36.272  32.319  34.440  1.00  0.00    -0.246 OA
BRANCH  39  41
ATOM     41  C   UNL A   1      37.551  32.083  32.435  1.00  0.00     0.060 A 
ATOM     42  C   UNL A   1      37.588  32.380  31.065  1.00  0.00     0.016 A 
ATOM     43  C   UNL A   1      38.629  31.457  33.056  1.00  0.00     0.016 A 
ATOM     44  C   UNL A   1      38.705  32.029  30.306  1.00  0.00     0.010 A 
ATOM     45  C   UNL A   1      39.727  31.074  32.285  1.00  0.00     0.010 A 
ATOM     46  C   UNL A   1      39.764  31.338  30.905  1.00  0.00    -0.014 A 
BRANCH  46  47
ATOM     47  C   UNL A   1      40.810  30.698  30.072  1.00  0.00     0.031 A 
ATOM     48  C   UNL A   1      42.061  31.481  29.785  1.00  0.00     0.074 A 
ATOM     49  C   UNL A   1      40.662  29.455  29.579  1.00  0.00     0.049 A 
ATOM     50  N   UNL A   1      43.088  31.167  29.038  1.00  0.00    -0.248 NA
ATOM     51  C   UNL A   1      42.162  32.805  30.422  1.00  0.00     0.031 C 
ATOM     52  C   UNL A   1      39.516  28.578  29.811  1.00  0.00     0.029 A 
ATOM     53  N   UNL A   1      41.493  28.720  28.770  1.00  0.00    -0.354 N 
ATOM     54  C   UNL A   1      43.943  32.261  29.101  1.00  0.00     0.074 A 
ATOM     55  C   UNL A   1      43.302  33.259  29.926  1.00  0.00     0.031 C 
ATOM     56  C   UNL A   1      39.718  27.418  29.160  1.00  0.00     0.029 A 
ATOM     57  C   UNL A   1      40.986  27.489  28.433  1.00  0.00     0.049 A 
ATOM     58  H   UNL A   1      42.370  29.044  28.460  1.00  0.00     0.167 HD
ATOM     59  C   UNL A   1      45.160  32.421  28.529  1.00  0.00     0.031 A 
ATOM     60  C   UNL A   1      41.481  26.538  27.616  1.00  0.00     0.031 A 
ATOM     61  C   UNL A   1      45.793  31.436  27.696  1.00  0.00     0.049 A 
ATOM     62  C   UNL A   1      42.804  26.768  26.928  1.00  0.00     0.074 A 
ATOM     63  C   UNL A   1      47.031  31.495  27.081  1.00  0.00     0.029 A 
ATOM     64  N   UNL A   1      45.232  30.217  27.352  1.00  0.00    -0.354 N 
ATOM     65  N   UNL A   1      43.618  27.794  27.017  1.00  0.00    -0.248 NA
ATOM     66  C   UNL A   1      43.278  25.705  26.030  1.00  0.00     0.031 C 
ATOM     67  C   UNL A   1      47.190  30.339  26.312  1.00  0.00     0.029 A 
ATOM     68  C   UNL A   1      46.085  29.526  26.510  1.00  0.00     0.049 A 
ATOM     69  H   UNL A   1      44.355  29.890  27.662  1.00  0.00     0.167 HD
ATOM     70  C   UNL A   1      44.713  27.483  26.217  1.00  0.00     0.074 A 
ATOM     71  C   UNL A   1      44.465  26.169  25.663  1.00  0.00     0.031 C 
ATOM     72  C   UNL A   1      45.826  28.217  25.967  1.00  0.00     0.031 A 
BRANCH  59  73
ATOM     73  C   UNL A   1      45.861  33.731  28.757  1.00  0.00    -0.014 A 
ATOM     74  C   UNL A   1      45.669  34.827  27.900  1.00  0.00     0.009 A 
ATOM     75  C   UNL A   1      46.720  33.875  29.858  1.00  0.00     0.009 A 
ATOM     76  C   UNL A   1      46.353  36.024  28.118  1.00  0.00     0.001 A 
ATOM     77  C   UNL A   1      47.375  35.084  30.094  1.00  0.00     0.001 A 
ATOM     78  C   UNL A   1      47.201  36.154  29.217  1.00  0.00     0.000 A 
ENDBRANCH  59  73
BRANCH  60  79
ATOM     79  C   UNL A   1      40.722  25.279  27.384  1.00  0.00    -0.014 A 
ATOM     80  C   UNL A   1      41.154  24.066  27.942  1.00  0.00     0.009 A 
ATOM     81  C   UNL A   1      39.575  25.278  26.572  1.00  0.00     0.009 A 
ATOM     82  C   UNL A   1      40.473  22.877  27.670  1.00  0.00     0.001 A 
ATOM     83  C   UNL A   1      38.877  24.093  26.329  1.00  0.00     0.001 A 
ATOM     84  C   UNL A   1      39.333  22.892  26.869  1.00  0.00     0.000 A 
ENDBRANCH  60  79
BRANCH  72  85
ATOM     85  C   UNL A   1      46.887  27.598  25.098  1.00  0.00    -0.014 A 
ATOM     86  C   UNL A   1      47.052  27.973  23.755  1.00  0.00     0.009 A 
ATOM     87  C   UNL A   1      47.772  26.658  25.653  1.00  0.00     0.009 A 
ATOM     88  C   UNL A   1      48.058  27.391  22.978  1.00  0.00     0.001 A 
ATOM     89  C   UNL A   1      48.797  26.105  24.884  1.00  0.00     0.001 A 
ATOM     90  C   UNL A   1      48.932  26.464  23.545  1.00  0.00     0.000 A 
ENDBRANCH  72  85
ENDBRANCH  46  47
ENDBRANCH  39  41
ENDBRANCH  38  39
ENDBRANCH  37  38
ENDBRANCH  36  37
ENDBRANCH  35  36
ENDBRANCH  34  35
ENDBRANCH  33  34
ENDBRANCH   1  33
TORSDOF 24
ENDMDL
MODEL 2
REMARK VINA RESULT:      -9.8      2.955      4.866
REMARK SMILES C[C@H]1N=N[C@H](S/C(=C/c2ccc(-c3cccc(Cl)c3)o2)C(=O)OCCOCCOCCOCCOC(=O)c2ccc(-c3c4nc(c(-c5ccccc5)c5ccc([nH]5)c(-c5ccccc5)c5nc(c(-c6ccccc6)c6ccc3[nH]6)C=C5)C=C4)cc2)[NH2+]1
REMARK SMILES IDX 29 1 28 2 27 3 26 4 25 5 24 6 23 7 21 8 22 9 7 10 8 11 6 12
REMARK SMILES IDX 5 13 1 14 2 15 3 16 86 17 4 18 9 21 10 22 20 23 11 24 12 25
REMARK SMILES IDX 13 26 14 27 19 28 15 29 17 30 16 31 18 32 30 33 31 34 32 35
REMARK SMILES IDX 33 36 34 37 35 38 36 39 37 40 38 41 39 42 85 43 40 44 84 45
REMARK SMILES IDX 41 46 42 47 43 48 78 49 44 50 83 51 77 52 79 53 45 54 82 55
REMARK SMILES IDX 76 56 75 57 46 59 68 60 53 61 67 62 54 63 57 64 66 65 80 66
REMARK SMILES IDX 55 67 56 68 65 70 81 71 58 72 47 73 48 74 52 75 49 76 51 77
REMARK SMILES IDX 50 78 69 79 70 80 74 81 71 82 73 83 72 84 59 85 60 86 64 87
REMARK SMILES IDX 61 88 63 89 62 90
REMARK H PARENT 86 19 86 20 79 58 57 69
REMARK Flexibility Score: inf
ROOT
ATOM      1  O   UNL A   1      34.037  31.301  27.373  1.00  0.00    -0.377 OA
ENDROOT
BRANCH   1   2
ATOM      2  C   UNL A   1      32.950  30.400  27.250  1.00  0.00     0.188 C 
BRANCH   2   3
ATOM      3  C   UNL A   1      32.800  29.602  25.934  1.00  0.00     0.188 C 
BRANCH   3   4
ATOM      4  O   UNL A   1      31.758  28.646  25.911  1.00  0.00    -0.376 OA
BRANCH   4   5
ATOM      5  C   UNL A   1      31.896  27.369  26.504  1.00  0.00     0.202 C 
BRANCH   5   6
ATOM      6  C   UNL A   1      32.960  26.334  26.109  1.00  0.00     0.261 C 
BRANCH   6   7
ATOM      7  O   UNL A   1      32.545  24.978  26.197  1.00  0.00    -0.459 OA
BRANCH   7   8
ATOM      8  C   UNL A   1      31.440  24.592  25.512  1.00  0.00     0.345 C 
ATOM      9  O   UNL A   1      30.287  24.894  25.772  1.00  0.00    -0.246 OA
BRANCH   8  10
ATOM     10  C   UNL A   1      31.879  23.813  24.303  1.00  0.00     0.104 C 
ATOM     11  C   UNL A   1      31.994  24.395  23.090  1.00  0.00     0.070 C 
BRANCH  10  12
ATOM     12  S   UNL A   1      31.911  22.101  24.642  1.00  0.00    -0.028 SA
BRANCH  12  13
ATOM     13  C   UNL A   1      33.331  21.750  25.717  1.00  0.00     0.393 C 
ATOM     14  C   UNL A   1      36.710  21.606  24.621  1.00  0.00     0.106 C 
ATOM     15  C   UNL A   1      35.195  21.499  24.489  1.00  0.00     0.324 C 
ATOM     16  N   UNL A   1      34.773  20.186  25.004  1.00  0.00    -0.126 NA
ATOM     17  N   UNL A   1      34.492  22.529  25.263  1.00  0.00    -0.293 N 
ATOM     18  N   UNL A   1      33.747  20.330  25.714  1.00  0.00    -0.115 NA
ATOM     19  H   UNL A   1      34.215  23.319  24.680  1.00  0.00     0.350 HD
ATOM     20  H   UNL A   1      35.041  22.959  26.007  1.00  0.00     0.350 HD
ENDBRANCH  12  13
ENDBRANCH  10  12
BRANCH  11  21
ATOM     21  C   UNL A   1      31.839  25.803  22.850  1.00  0.00     0.128 A 
ATOM     22  C   UNL A   1      32.786  26.776  22.537  1.00  0.00     0.051 A 
ATOM     23  O   UNL A   1      30.607  26.446  22.905  1.00  0.00    -0.457 OA
ATOM     24  C   UNL A   1      32.147  28.030  22.516  1.00  0.00     0.051 A 
ATOM     25  C   UNL A   1      30.809  27.781  22.702  1.00  0.00     0.134 A 
BRANCH  25  26
ATOM     26  C   UNL A   1      29.652  28.660  22.643  1.00  0.00     0.019 A 
ATOM     27  C   UNL A   1      28.445  28.210  23.210  1.00  0.00     0.012 A 
ATOM     28  C   UNL A   1      29.674  29.904  22.004  1.00  0.00     0.032 A 
ATOM     29  C   UNL A   1      27.277  28.965  23.124  1.00  0.00     0.002 A 
ATOM     30  C   UNL A   1      28.501  30.664  21.936  1.00  0.00     0.041 A 
ATOM     31  C   UNL A   1      27.303  30.193  22.474  1.00  0.00     0.020 A 
ATOM     32  Cl  UNL A   1      28.520  32.220  21.208  1.00  0.00    -0.084 Cl
ENDBRANCH  25  26
ENDBRANCH  11  21
ENDBRANCH   8  10
ENDBRANCH   7   8
ENDBRANCH   6   7
ENDBRANCH   5   6
ENDBRANCH   4   5
ENDBRANCH   3   4
ENDBRANCH   2   3
ENDBRANCH   1   2
BRANCH   1  33
ATOM     33  C   UNL A   1      34.001  32.329  28.356  1.00  0.00     0.188 C 
BRANCH  33  34
ATOM     34  C   UNL A   1      33.867  33.826  27.990  1.00  0.00     0.188 C 
BRANCH  34  35
ATOM     35  O   UNL A   1      34.399  34.733  28.938  1.00  0.00    -0.376 OA
BRANCH  35  36
ATOM     36  C   UNL A   1      33.597  35.123  30.037  1.00  0.00     0.202 C 
BRANCH  36  37
ATOM     37  C   UNL A   1      34.097  34.778  31.446  1.00  0.00     0.261 C 
BRANCH  37  38
ATOM     38  O   UNL A   1      35.409  34.204  31.526  1.00  0.00    -0.460 OA
BRANCH  38  39
ATOM     39  C   UNL A   1      35.489  32.876  31.738  1.00  0.00     0.338 C 
ATOM     40  O   UNL A   1      34.601  32.128  32.118  1.00  0.00    -0.246 OA
BRANCH  39  41
ATOM     41  C   UNL A   1      36.813  32.434  31.265  1.00  0.00     0.060 A 
ATOM     42  C   UNL A   1      37.222  32.734  29.959  1.00  0.00     0.016 A 
ATOM     43  C   UNL A   1      37.644  31.717  32.123  1.00  0.00     0.016 A 
ATOM     44  C   UNL A   1      38.465  32.296  29.499  1.00  0.00     0.010 A 
ATOM     45  C   UNL A   1      38.869  31.249  31.647  1.00  0.00     0.010 A 
ATOM     46  C   UNL A   1      39.278  31.517  30.329  1.00  0.00    -0.014 A 
BRANCH  46  47
ATOM     47  C   UNL A   1      40.448  30.797  29.773  1.00  0.00     0.031 A 
ATOM     48  C   UNL A   1      41.758  31.532  29.694  1.00  0.00     0.074 A 
ATOM     49  C   UNL A   1      40.361  29.525  29.345  1.00  0.00     0.049 A 
ATOM     50  N   UNL A   1      42.903  31.144  29.196  1.00  0.00    -0.248 NA
ATOM     51  C   UNL A   1      41.772  32.897  30.247  1.00  0.00     0.031 C 
ATOM     52  C   UNL A   1      39.162  28.689  29.398  1.00  0.00     0.029 A 
ATOM     53  N   UNL A   1      41.312  28.715  28.775  1.00  0.00    -0.354 N 
ATOM     54  C   UNL A   1      43.764  32.223  29.357  1.00  0.00     0.074 A 
ATOM     55  C   UNL A   1      43.004  33.291  29.965  1.00  0.00     0.031 C 
ATOM     56  C   UNL A   1      39.452  27.481  28.883  1.00  0.00     0.029 A 
ATOM     57  C   UNL A   1      40.842  27.473  28.427  1.00  0.00     0.049 A 
ATOM     58  H   UNL A   1      42.244  28.999  28.629  1.00  0.00     0.167 HD
ATOM     59  C   UNL A   1      45.076  32.317  29.036  1.00  0.00     0.031 A 
ATOM     60  C   UNL A   1      41.460  26.455  27.794  1.00  0.00     0.031 A 
ATOM     61  C   UNL A   1      45.830  31.261  28.419  1.00  0.00     0.049 A 
ATOM     62  C   UNL A   1      42.901  26.609  27.377  1.00  0.00     0.074 A 
ATOM     63  C   UNL A   1      47.169  31.250  28.067  1.00  0.00     0.029 A 
ATOM     64  N   UNL A   1      45.309  30.031  28.052  1.00  0.00    -0.354 N 
ATOM     65  N   UNL A   1      43.715  27.622  27.559  1.00  0.00    -0.248 NA
ATOM     66  C   UNL A   1      43.511  25.473  26.669  1.00  0.00     0.031 C 
ATOM     67  C   UNL A   1      47.440  30.038  27.427  1.00  0.00     0.029 A 
ATOM     68  C   UNL A   1      46.291  29.264  27.450  1.00  0.00     0.049 A 
ATOM     69  H   UNL A   1      44.378  29.745  28.198  1.00  0.00     0.167 HD
ATOM     70  C   UNL A   1      44.938  27.232  27.023  1.00  0.00     0.074 A 
ATOM     71  C   UNL A   1      44.762  25.885  26.521  1.00  0.00     0.031 C 
ATOM     72  C   UNL A   1      46.103  27.923  26.957  1.00  0.00     0.031 A 
BRANCH  59  73
ATOM     73  C   UNL A   1      45.761  33.626  29.313  1.00  0.00    -0.014 A 
ATOM     74  C   UNL A   1      46.414  33.871  30.532  1.00  0.00     0.009 A 
ATOM     75  C   UNL A   1      45.763  34.628  28.330  1.00  0.00     0.009 A 
ATOM     76  C   UNL A   1      47.020  35.105  30.775  1.00  0.00     0.001 A 
ATOM     77  C   UNL A   1      46.400  35.848  28.563  1.00  0.00     0.001 A 
ATOM     78  C   UNL A   1      47.017  36.091  29.788  1.00  0.00     0.000 A 
ENDBRANCH  59  73
BRANCH  60  79
ATOM     79  C   UNL A   1      40.721  25.198  27.498  1.00  0.00    -0.014 A 
ATOM     80  C   UNL A   1      41.112  23.981  28.078  1.00  0.00     0.009 A 
ATOM     81  C   UNL A   1      39.637  25.202  26.604  1.00  0.00     0.009 A 
ATOM     82  C   UNL A   1      40.453  22.794  27.749  1.00  0.00     0.001 A 
ATOM     83  C   UNL A   1      38.960  24.018  26.302  1.00  0.00     0.001 A 
ATOM     84  C   UNL A   1      39.376  22.814  26.866  1.00  0.00     0.000 A 
ENDBRANCH  60  79
BRANCH  72  85
ATOM     85  C   UNL A   1      47.296  27.222  26.366  1.00  0.00    -0.014 A 
ATOM     86  C   UNL A   1      47.614  27.326  25.003  1.00  0.00     0.009 A 
ATOM     87  C   UNL A   1      48.147  26.484  27.205  1.00  0.00     0.009 A 
ATOM     88  C   UNL A   1      48.738  26.676  24.488  1.00  0.00     0.001 A 
ATOM     89  C   UNL A   1      49.289  25.865  26.695  1.00  0.00     0.001 A 
ATOM     90  C   UNL A   1      49.577  25.951  25.335  1.00  0.00     0.000 A 
ENDBRANCH  72  85
ENDBRANCH  46  47
ENDBRANCH  39  41
ENDBRANCH  38  39
ENDBRANCH  37  38
ENDBRANCH  36  37
ENDBRANCH  35  36
ENDBRANCH  34  35
ENDBRANCH  33  34
ENDBRANCH   1  33
TORSDOF 24
ENDMDL
MODEL 3
REMARK VINA RESULT:      -9.2      1.737      2.114
REMARK SMILES C[C@H]1N=N[C@H](S/C(=C/c2ccc(-c3cccc(Cl)c3)o2)C(=O)OCCOCCOCCOCCOC(=O)c2ccc(-c3c4nc(c(-c5ccccc5)c5ccc([nH]5)c(-c5ccccc5)c5nc(c(-c6ccccc6)c6ccc3[nH]6)C=C5)C=C4)cc2)[NH2+]1
REMARK SMILES IDX 29 1 28 2 27 3 26 4 25 5 24 6 23 7 21 8 22 9 7 10 8 11 6 12
REMARK SMILES IDX 5 13 1 14 2 15 3 16 86 17 4 18 9 21 10 22 20 23 11 24 12 25
REMARK SMILES IDX 13 26 14 27 19 28 15 29 17 30 16 31 18 32 30 33 31 34 32 35
REMARK SMILES IDX 33 36 34 37 35 38 36 39 37 40 38 41 39 42 85 43 40 44 84 45
REMARK SMILES IDX 41 46 42 47 43 48 78 49 44 50 83 51 77 52 79 53 45 54 82 55
REMARK SMILES IDX 76 56 75 57 46 59 68 60 53 61 67 62 54 63 57 64 66 65 80 66
REMARK SMILES IDX 55 67 56 68 65 70 81 71 58 72 47 73 48 74 52 75 49 76 51 77
REMARK SMILES IDX 50 78 69 79 70 80 74 81 71 82 73 83 72 84 59 85 60 86 64 87
REMARK SMILES IDX 61 88 63 89 62 90
REMARK H PARENT 86 19 86 20 79 58 57 69
REMARK Flexibility Score: inf
ROOT
ATOM      1  O   UNL A   1      34.972  31.936  27.921  1.00  0.00    -0.377 OA
ENDROOT
BRANCH   1   2
ATOM      2  C   UNL A   1      34.139  30.863  27.517  1.00  0.00     0.188 C 
BRANCH   2   3
ATOM      3  C   UNL A   1      34.803  29.517  27.142  1.00  0.00     0.188 C 
BRANCH   3   4
ATOM      4  O   UNL A   1      33.980  28.373  27.263  1.00  0.00    -0.376 OA
BRANCH   4   5
ATOM      5  C   UNL A   1      32.569  28.463  27.308  1.00  0.00     0.202 C 
BRANCH   5   6
ATOM      6  C   UNL A   1      31.609  27.403  26.746  1.00  0.00     0.261 C 
BRANCH   6   7
ATOM      7  O   UNL A   1      32.107  26.668  25.637  1.00  0.00    -0.459 OA
BRANCH   7   8
ATOM      8  C   UNL A   1      32.121  27.260  24.417  1.00  0.00     0.345 C 
ATOM      9  O   UNL A   1      33.047  27.885  23.929  1.00  0.00    -0.246 OA
BRANCH   8  10
ATOM     10  C   UNL A   1      30.836  26.924  23.711  1.00  0.00     0.104 C 
ATOM     11  C   UNL A   1      30.743  25.865  22.878  1.00  0.00     0.070 C 
BRANCH  10  12
ATOM     12  S   UNL A   1      29.669  28.209  23.895  1.00  0.00    -0.028 SA
BRANCH  12  13
ATOM     13  C   UNL A   1      30.254  29.659  22.973  1.00  0.00     0.393 C 
ATOM     14  C   UNL A   1      28.247  32.473  22.143  1.00  0.00     0.106 C 
ATOM     15  C   UNL A   1      28.533  31.013  22.475  1.00  0.00     0.324 C 
ATOM     16  N   UNL A   1      28.988  30.336  21.250  1.00  0.00    -0.126 NA
ATOM     17  N   UNL A   1      29.589  30.865  23.484  1.00  0.00    -0.293 N 
ATOM     18  N   UNL A   1      29.969  29.600  21.523  1.00  0.00    -0.115 NA
ATOM     19  H   UNL A   1      29.203  30.719  24.418  1.00  0.00     0.350 HD
ATOM     20  H   UNL A   1      30.194  31.677  23.598  1.00  0.00     0.350 HD
ENDBRANCH  12  13
ENDBRANCH  10  12
BRANCH  11  21
ATOM     21  C   UNL A   1      31.787  24.900  22.676  1.00  0.00     0.128 A 
ATOM     22  C   UNL A   1      32.799  24.847  21.720  1.00  0.00     0.051 A 
ATOM     23  O   UNL A   1      31.943  23.779  23.485  1.00  0.00    -0.457 OA
ATOM     24  C   UNL A   1      33.498  23.636  21.875  1.00  0.00     0.051 A 
ATOM     25  C   UNL A   1      32.974  23.031  22.991  1.00  0.00     0.134 A 
BRANCH  25  26
ATOM     26  C   UNL A   1      33.378  21.836  23.715  1.00  0.00     0.019 A 
ATOM     27  C   UNL A   1      34.603  21.861  24.407  1.00  0.00     0.012 A 
ATOM     28  C   UNL A   1      32.630  20.655  23.710  1.00  0.00     0.032 A 
ATOM     29  C   UNL A   1      35.090  20.730  25.060  1.00  0.00     0.002 A 
ATOM     30  C   UNL A   1      33.118  19.528  24.381  1.00  0.00     0.041 A 
ATOM     31  C   UNL A   1      34.349  19.555  25.037  1.00  0.00     0.020 A 
ATOM     32  Cl  UNL A   1      32.187  18.085  24.438  1.00  0.00    -0.084 Cl
ENDBRANCH  25  26
ENDBRANCH  11  21
ENDBRANCH   8  10
ENDBRANCH   7   8
ENDBRANCH   6   7
ENDBRANCH   5   6
ENDBRANCH   4   5
ENDBRANCH   3   4
ENDBRANCH   2   3
ENDBRANCH   1   2
BRANCH   1  33
ATOM     33  C   UNL A   1      34.404  33.210  28.204  1.00  0.00     0.188 C 
BRANCH  33  34
ATOM     34  C   UNL A   1      34.759  34.016  29.476  1.00  0.00     0.188 C 
BRANCH  34  35
ATOM     35  O   UNL A   1      33.819  33.933  30.530  1.00  0.00    -0.376 OA
BRANCH  35  36
ATOM     36  C   UNL A   1      34.241  34.225  31.849  1.00  0.00     0.202 C 
BRANCH  36  37
ATOM     37  C   UNL A   1      34.383  33.054  32.831  1.00  0.00     0.261 C 
BRANCH  37  38
ATOM     38  O   UNL A   1      35.599  32.299  32.740  1.00  0.00    -0.460 OA
BRANCH  38  39
ATOM     39  C   UNL A   1      36.531  32.516  33.688  1.00  0.00     0.338 C 
ATOM     40  O   UNL A   1      36.354  32.905  34.832  1.00  0.00    -0.246 OA
BRANCH  39  41
ATOM     41  C   UNL A   1      37.820  32.038  33.155  1.00  0.00     0.060 A 
ATOM     42  C   UNL A   1      38.283  32.516  31.922  1.00  0.00     0.016 A 
ATOM     43  C   UNL A   1      38.563  31.111  33.882  1.00  0.00     0.016 A 
ATOM     44  C   UNL A   1      39.490  32.048  31.401  1.00  0.00     0.010 A 
ATOM     45  C   UNL A   1      39.749  30.618  33.340  1.00  0.00     0.010 A 
ATOM     46  C   UNL A   1      40.210  31.066  32.090  1.00  0.00    -0.014 A 
BRANCH  46  47
ATOM     47  C   UNL A   1      41.322  30.345  31.425  1.00  0.00     0.031 A 
ATOM     48  C   UNL A   1      42.709  30.909  31.558  1.00  0.00     0.074 A 
ATOM     49  C   UNL A   1      41.115  29.218  30.720  1.00  0.00     0.049 A 
ATOM     50  N   UNL A   1      43.830  30.499  31.023  1.00  0.00    -0.248 NA
ATOM     51  C   UNL A   1      42.847  32.107  32.404  1.00  0.00     0.031 C 
ATOM     52  C   UNL A   1      39.827  28.549  30.543  1.00  0.00     0.029 A 
ATOM     53  N   UNL A   1      41.999  28.441  30.014  1.00  0.00    -0.354 N 
ATOM     54  C   UNL A   1      44.799  31.399  31.452  1.00  0.00     0.074 A 
ATOM     55  C   UNL A   1      44.130  32.395  32.259  1.00  0.00     0.031 C 
ATOM     56  C   UNL A   1      40.007  27.457  29.779  1.00  0.00     0.029 A 
ATOM     57  C   UNL A   1      41.411  27.374  29.380  1.00  0.00     0.049 A 
ATOM     58  H   UNL A   1      42.965  28.630  29.967  1.00  0.00     0.167 HD
ATOM     59  C   UNL A   1      46.130  31.395  31.205  1.00  0.00     0.031 A 
ATOM     60  C   UNL A   1      41.945  26.451  28.555  1.00  0.00     0.031 A 
ATOM     61  C   UNL A   1      46.793  30.415  30.391  1.00  0.00     0.049 A 
ATOM     62  C   UNL A   1      43.417  26.510  28.231  1.00  0.00     0.074 A 
ATOM     63  C   UNL A   1      48.141  30.313  30.091  1.00  0.00     0.029 A 
ATOM     64  N   UNL A   1      46.157  29.370  29.739  1.00  0.00    -0.354 N 
ATOM     65  N   UNL A   1      44.330  27.348  28.664  1.00  0.00    -0.248 NA
ATOM     66  C   UNL A   1      43.934  25.490  27.307  1.00  0.00     0.031 C 
ATOM     67  C   UNL A   1      48.309  29.247  29.203  1.00  0.00     0.029 A 
ATOM     68  C   UNL A   1      47.079  28.637  29.013  1.00  0.00     0.049 A 
ATOM     69  H   UNL A   1      45.192  29.179  29.786  1.00  0.00     0.167 HD
ATOM     70  C   UNL A   1      45.530  26.934  28.095  1.00  0.00     0.074 A 
ATOM     71  C   UNL A   1      45.231  25.764  27.297  1.00  0.00     0.031 C 
ATOM     72  C   UNL A   1      46.768  27.471  28.225  1.00  0.00     0.031 A 
BRANCH  59  73
ATOM     73  C   UNL A   1      46.942  32.515  31.792  1.00  0.00    -0.014 A 
ATOM     74  C   UNL A   1      47.159  33.713  31.090  1.00  0.00     0.009 A 
ATOM     75  C   UNL A   1      47.490  32.374  33.076  1.00  0.00     0.009 A 
ATOM     76  C   UNL A   1      47.941  34.727  31.646  1.00  0.00     0.001 A 
ATOM     77  C   UNL A   1      48.242  33.405  33.644  1.00  0.00     0.001 A 
ATOM     78  C   UNL A   1      48.477  34.575  32.924  1.00  0.00     0.000 A 
ENDBRANCH  59  73
BRANCH  60  79
ATOM     79  C   UNL A   1      41.086  25.392  27.959  1.00  0.00    -0.014 A 
ATOM     80  C   UNL A   1      41.232  24.049  28.340  1.00  0.00     0.009 A 
ATOM     81  C   UNL A   1      40.134  25.715  26.978  1.00  0.00     0.009 A 
ATOM     82  C   UNL A   1      40.466  23.051  27.732  1.00  0.00     0.001 A 
ATOM     83  C   UNL A   1      39.346  24.720  26.397  1.00  0.00     0.001 A 
ATOM     84  C   UNL A   1      39.520  23.388  26.766  1.00  0.00     0.000 A 
ENDBRANCH  60  79
BRANCH  72  85
ATOM     85  C   UNL A   1      47.906  26.772  27.532  1.00  0.00    -0.014 A 
ATOM     86  C   UNL A   1      48.583  25.696  28.125  1.00  0.00     0.009 A 
ATOM     87  C   UNL A   1      48.270  27.169  26.234  1.00  0.00     0.009 A 
ATOM     88  C   UNL A   1      49.625  25.056  27.447  1.00  0.00     0.001 A 
ATOM     89  C   UNL A   1      49.288  26.507  25.546  1.00  0.00     0.001 A 
ATOM     90  C   UNL A   1      49.972  25.458  26.158  1.00  0.00     0.000 A 
ENDBRANCH  72  85
ENDBRANCH  46  47
ENDBRANCH  39  41
ENDBRANCH  38  39
ENDBRANCH  37  38
ENDBRANCH  36  37
ENDBRANCH  35  36
ENDBRANCH  34  35
ENDBRANCH  33  34
ENDBRANCH   1  33
TORSDOF 24
ENDMDL
