MODEL 1
REMARK VINA RESULT:      -9.7      0.000      0.000
REMARK SMILES CCc1ccc2c(c1)C=C(C(=O)OCCOCCOCCOCCOC(=O)c1ccc(-c3c4nc(c(-c5ccccc5)c5ccc([nH]5)c(-c5ccccc5)c5nc(c(-c6ccccc6)c6ccc3[nH]6)C=C5)C=C4)cc1)[C@H](C(F)(F)F)O2
REMARK SMILES IDX 20 1 19 2 18 3 17 4 16 5 15 6 14 7 13 8 11 9 12 10 10 11
REMARK SMILES IDX 3 12 4 13 8 14 5 15 7 16 6 17 9 18 81 19 76 20 2 21 1 22
REMARK SMILES IDX 77 23 78 24 79 25 80 26 21 27 22 28 23 29 24 30 25 31 26 32
REMARK SMILES IDX 27 33 28 34 29 35 75 36 30 37 74 38 31 39 32 40 33 41 68 42
REMARK SMILES IDX 34 43 73 44 67 45 69 46 35 47 72 48 66 49 65 50 36 52 58 53
REMARK SMILES IDX 43 54 57 55 44 56 47 57 56 58 70 59 45 60 46 61 55 63 71 64
REMARK SMILES IDX 48 65 37 66 38 67 42 68 39 69 41 70 40 71 59 72 60 73 64 74
REMARK SMILES IDX 61 75 63 76 62 77 49 78 50 79 54 80 51 81 53 82 52 83
REMARK H PARENT 69 51 47 62
REMARK Flexibility Score: inf
ROOT
ATOM      1  C   UNL A   1      42.891  18.816  25.746  1.00  0.00     0.188 C 
ENDROOT
BRANCH   1   2
ATOM      2  O   UNL A   1      41.611  19.346  25.408  1.00  0.00    -0.377 OA
BRANCH   2   3
ATOM      3  C   UNL A   1      40.867  20.056  26.386  1.00  0.00     0.188 C 
BRANCH   3   4
ATOM      4  C   UNL A   1      40.080  21.302  25.933  1.00  0.00     0.188 C 
BRANCH   4   5
ATOM      5  O   UNL A   1      38.682  21.204  26.144  1.00  0.00    -0.376 OA
BRANCH   5   6
ATOM      6  C   UNL A   1      37.810  21.645  25.120  1.00  0.00     0.202 C 
BRANCH   6   7
ATOM      7  C   UNL A   1      36.315  21.327  25.262  1.00  0.00     0.261 C 
BRANCH   7   8
ATOM      8  O   UNL A   1      35.466  22.450  25.531  1.00  0.00    -0.460 OA
BRANCH   8   9
ATOM      9  C   UNL A   1      34.235  22.200  26.032  1.00  0.00     0.338 C 
ATOM     10  O   UNL A   1      33.933  21.275  26.763  1.00  0.00    -0.246 OA
BRANCH   9  11
ATOM     11  C   UNL A   1      33.337  23.321  25.687  1.00  0.00     0.087 C 
ATOM     12  C   UNL A   1      31.779  27.857  26.287  1.00  0.00    -0.047 A 
ATOM     13  C   UNL A   1      31.222  27.802  24.999  1.00  0.00     0.007 A 
ATOM     14  C   UNL A   1      32.413  26.712  26.796  1.00  0.00     0.015 A 
ATOM     15  C   UNL A   1      31.307  26.642  24.227  1.00  0.00     0.047 A 
ATOM     16  C   UNL A   1      32.535  25.559  26.010  1.00  0.00     0.018 A 
ATOM     17  C   UNL A   1      31.959  25.527  24.736  1.00  0.00     0.128 A 
ATOM     18  C   UNL A   1      33.375  24.441  26.431  1.00  0.00     0.027 C 
ATOM     19  O   UNL A   1      32.079  24.447  23.901  1.00  0.00    -0.475 OA
ATOM     20  C   UNL A   1      32.315  23.181  24.577  1.00  0.00     0.316 C 
BRANCH  12  21
ATOM     21  C   UNL A   1      31.690  29.165  27.042  1.00  0.00     0.032 C 
ATOM     22  C   UNL A   1      32.195  30.406  26.317  1.00  0.00     0.009 C 
ENDBRANCH  12  21
BRANCH  20  23
ATOM     23  C   UNL A   1      32.519  22.097  23.506  1.00  0.00     0.430 C 
ATOM     24  F   UNL A   1      32.475  20.853  24.037  1.00  0.00    -0.167 F 
ATOM     25  F   UNL A   1      31.504  22.141  22.601  1.00  0.00    -0.167 F 
ATOM     26  F   UNL A   1      33.670  22.234  22.821  1.00  0.00    -0.167 F 
ENDBRANCH  20  23
ENDBRANCH   9  11
ENDBRANCH   8   9
ENDBRANCH   7   8
ENDBRANCH   6   7
ENDBRANCH   5   6
ENDBRANCH   4   5
ENDBRANCH   3   4
ENDBRANCH   2   3
ENDBRANCH   1   2
BRANCH   1  27
ATOM     27  C   UNL A   1      44.103  18.904  24.783  1.00  0.00     0.188 C 
BRANCH  27  28
ATOM     28  O   UNL A   1      45.367  18.687  25.388  1.00  0.00    -0.376 OA
BRANCH  28  29
ATOM     29  C   UNL A   1      46.315  19.736  25.343  1.00  0.00     0.202 C 
BRANCH  29  30
ATOM     30  C   UNL A   1      45.892  21.002  24.587  1.00  0.00     0.261 C 
BRANCH  30  31
ATOM     31  O   UNL A   1      45.084  21.929  25.330  1.00  0.00    -0.460 OA
BRANCH  31  32
ATOM     32  C   UNL A   1      44.207  22.671  24.623  1.00  0.00     0.338 C 
ATOM     33  O   UNL A   1      43.841  22.484  23.472  1.00  0.00    -0.246 OA
BRANCH  32  34
ATOM     34  C   UNL A   1      43.596  23.652  25.540  1.00  0.00     0.060 A 
ATOM     35  C   UNL A   1      43.967  24.999  25.433  1.00  0.00     0.016 A 
ATOM     36  C   UNL A   1      42.666  23.245  26.499  1.00  0.00     0.016 A 
ATOM     37  C   UNL A   1      43.446  25.935  26.322  1.00  0.00     0.010 A 
ATOM     38  C   UNL A   1      42.160  24.183  27.404  1.00  0.00     0.010 A 
ATOM     39  C   UNL A   1      42.582  25.522  27.346  1.00  0.00    -0.014 A 
BRANCH  39  40
ATOM     40  C   UNL A   1      42.299  26.451  28.464  1.00  0.00     0.031 A 
ATOM     41  C   UNL A   1      43.265  26.498  29.618  1.00  0.00     0.074 A 
ATOM     42  C   UNL A   1      41.243  27.284  28.431  1.00  0.00     0.049 A 
ATOM     43  N   UNL A   1      43.246  27.252  30.686  1.00  0.00    -0.248 NA
ATOM     44  C   UNL A   1      44.406  25.568  29.556  1.00  0.00     0.031 C 
ATOM     45  C   UNL A   1      40.261  27.366  27.351  1.00  0.00     0.029 A 
ATOM     46  N   UNL A   1      40.829  28.227  29.338  1.00  0.00    -0.354 N 
ATOM     47  C   UNL A   1      44.367  26.885  31.424  1.00  0.00     0.074 A 
ATOM     48  C   UNL A   1      45.021  25.818  30.701  1.00  0.00     0.031 C 
ATOM     49  C   UNL A   1      39.359  28.313  27.657  1.00  0.00     0.029 A 
ATOM     50  C   UNL A   1      39.682  28.881  28.965  1.00  0.00     0.049 A 
ATOM     51  H   UNL A   1      41.310  28.417  30.175  1.00  0.00     0.167 HD
ATOM     52  C   UNL A   1      44.817  27.397  32.594  1.00  0.00     0.031 A 
ATOM     53  C   UNL A   1      38.969  29.823  29.613  1.00  0.00     0.031 A 
ATOM     54  C   UNL A   1      44.157  28.448  33.321  1.00  0.00     0.049 A 
ATOM     55  C   UNL A   1      39.450  30.322  30.951  1.00  0.00     0.074 A 
ATOM     56  C   UNL A   1      44.541  29.045  34.509  1.00  0.00     0.029 A 
ATOM     57  N   UNL A   1      42.970  29.050  32.935  1.00  0.00    -0.354 N 
ATOM     58  N   UNL A   1      40.527  29.992  31.621  1.00  0.00    -0.248 NA
ATOM     59  C   UNL A   1      38.619  31.338  31.613  1.00  0.00     0.031 C 
ATOM     60  C   UNL A   1      43.550  29.961  34.876  1.00  0.00     0.029 A 
ATOM     61  C   UNL A   1      42.589  29.990  33.878  1.00  0.00     0.049 A 
ATOM     62  H   UNL A   1      42.471  28.840  32.113  1.00  0.00     0.167 HD
ATOM     63  C   UNL A   1      40.520  30.782  32.765  1.00  0.00     0.074 A 
ATOM     64  C   UNL A   1      39.344  31.621  32.685  1.00  0.00     0.031 C 
ATOM     65  C   UNL A   1      41.410  30.813  33.789  1.00  0.00     0.031 A 
BRANCH  52  66
ATOM     66  C   UNL A   1      46.064  26.794  33.179  1.00  0.00    -0.014 A 
ATOM     67  C   UNL A   1      46.007  25.712  34.072  1.00  0.00     0.009 A 
ATOM     68  C   UNL A   1      47.319  27.298  32.806  1.00  0.00     0.009 A 
ATOM     69  C   UNL A   1      47.180  25.171  34.604  1.00  0.00     0.001 A 
ATOM     70  C   UNL A   1      48.491  26.736  33.314  1.00  0.00     0.001 A 
ATOM     71  C   UNL A   1      48.421  25.679  34.219  1.00  0.00     0.000 A 
ENDBRANCH  52  66
BRANCH  53  72
ATOM     72  C   UNL A   1      37.709  30.349  29.020  1.00  0.00    -0.014 A 
ATOM     73  C   UNL A   1      37.590  31.702  28.664  1.00  0.00     0.009 A 
ATOM     74  C   UNL A   1      36.605  29.502  28.836  1.00  0.00     0.009 A 
ATOM     75  C   UNL A   1      36.381  32.199  28.169  1.00  0.00     0.001 A 
ATOM     76  C   UNL A   1      35.410  29.994  28.309  1.00  0.00     0.001 A 
ATOM     77  C   UNL A   1      35.295  31.345  27.987  1.00  0.00     0.000 A 
ENDBRANCH  53  72
BRANCH  65  78
ATOM     78  C   UNL A   1      41.163  31.817  34.885  1.00  0.00    -0.014 A 
ATOM     79  C   UNL A   1      41.698  33.114  34.830  1.00  0.00     0.009 A 
ATOM     80  C   UNL A   1      40.363  31.462  35.982  1.00  0.00     0.009 A 
ATOM     81  C   UNL A   1      41.480  34.013  35.875  1.00  0.00     0.001 A 
ATOM     82  C   UNL A   1      40.115  32.374  37.007  1.00  0.00     0.001 A 
ATOM     83  C   UNL A   1      40.686  33.645  36.961  1.00  0.00     0.000 A 
ENDBRANCH  65  78
ENDBRANCH  39  40
ENDBRANCH  32  34
ENDBRANCH  31  32
ENDBRANCH  30  31
ENDBRANCH  29  30
ENDBRANCH  28  29
ENDBRANCH  27  28
ENDBRANCH   1  27
TORSDOF 22
ENDMDL
MODEL 2
REMARK VINA RESULT:      -9.7      2.003      3.797
REMARK SMILES CCc1ccc2c(c1)C=C(C(=O)OCCOCCOCCOCCOC(=O)c1ccc(-c3c4nc(c(-c5ccccc5)c5ccc([nH]5)c(-c5ccccc5)c5nc(c(-c6ccccc6)c6ccc3[nH]6)C=C5)C=C4)cc1)[C@H](C(F)(F)F)O2
REMARK SMILES IDX 20 1 19 2 18 3 17 4 16 5 15 6 14 7 13 8 11 9 12 10 10 11
REMARK SMILES IDX 3 12 4 13 8 14 5 15 7 16 6 17 9 18 81 19 76 20 2 21 1 22
REMARK SMILES IDX 77 23 78 24 79 25 80 26 21 27 22 28 23 29 24 30 25 31 26 32
REMARK SMILES IDX 27 33 28 34 29 35 75 36 30 37 74 38 31 39 32 40 33 41 68 42
REMARK SMILES IDX 34 43 73 44 67 45 69 46 35 47 72 48 66 49 65 50 36 52 58 53
REMARK SMILES IDX 43 54 57 55 44 56 47 57 56 58 70 59 45 60 46 61 55 63 71 64
REMARK SMILES IDX 48 65 37 66 38 67 42 68 39 69 41 70 40 71 59 72 60 73 64 74
REMARK SMILES IDX 61 75 63 76 62 77 49 78 50 79 54 80 51 81 53 82 52 83
REMARK H PARENT 69 51 47 62
REMARK Flexibility Score: inf
ROOT
ATOM      1  C   UNL A   1      43.391  18.472  25.905  1.00  0.00     0.188 C 
ENDROOT
BRANCH   1   2
ATOM      2  O   UNL A   1      42.246  19.058  26.520  1.00  0.00    -0.377 OA
BRANCH   2   3
ATOM      3  C   UNL A   1      41.957  20.429  26.297  1.00  0.00     0.188 C 
BRANCH   3   4
ATOM      4  C   UNL A   1      40.805  21.066  27.099  1.00  0.00     0.188 C 
BRANCH   4   5
ATOM      5  O   UNL A   1      40.260  22.227  26.496  1.00  0.00    -0.376 OA
BRANCH   5   6
ATOM      6  C   UNL A   1      38.896  22.218  26.119  1.00  0.00     0.202 C 
BRANCH   6   7
ATOM      7  C   UNL A   1      38.064  23.478  26.399  1.00  0.00     0.261 C 
BRANCH   7   8
ATOM      8  O   UNL A   1      36.699  23.426  25.964  1.00  0.00    -0.460 OA
BRANCH   8   9
ATOM      9  C   UNL A   1      36.468  23.199  24.651  1.00  0.00     0.338 C 
ATOM     10  O   UNL A   1      37.102  23.663  23.721  1.00  0.00    -0.246 OA
BRANCH   9  11
ATOM     11  C   UNL A   1      35.423  22.163  24.517  1.00  0.00     0.087 C 
ATOM     12  C   UNL A   1      33.911  17.585  24.853  1.00  0.00    -0.047 A 
ATOM     13  C   UNL A   1      32.589  18.059  24.903  1.00  0.00     0.007 A 
ATOM     14  C   UNL A   1      34.952  18.512  24.694  1.00  0.00     0.015 A 
ATOM     15  C   UNL A   1      32.311  19.424  24.815  1.00  0.00     0.047 A 
ATOM     16  C   UNL A   1      34.680  19.885  24.645  1.00  0.00     0.018 A 
ATOM     17  C   UNL A   1      33.355  20.330  24.683  1.00  0.00     0.128 A 
ATOM     18  C   UNL A   1      35.755  20.873  24.701  1.00  0.00     0.027 C 
ATOM     19  O   UNL A   1      33.023  21.658  24.681  1.00  0.00    -0.475 OA
ATOM     20  C   UNL A   1      34.019  22.531  24.080  1.00  0.00     0.316 C 
BRANCH  12  21
ATOM     21  C   UNL A   1      34.135  16.096  25.006  1.00  0.00     0.032 C 
ATOM     22  C   UNL A   1      32.931  15.265  25.430  1.00  0.00     0.009 C 
ENDBRANCH  12  21
BRANCH  20  23
ATOM     23  C   UNL A   1      33.544  23.984  24.242  1.00  0.00     0.430 C 
ATOM     24  F   UNL A   1      32.480  24.074  25.074  1.00  0.00    -0.167 F 
ATOM     25  F   UNL A   1      34.521  24.731  24.822  1.00  0.00    -0.167 F 
ATOM     26  F   UNL A   1      33.230  24.575  23.074  1.00  0.00    -0.167 F 
ENDBRANCH  20  23
ENDBRANCH   9  11
ENDBRANCH   8   9
ENDBRANCH   7   8
ENDBRANCH   6   7
ENDBRANCH   5   6
ENDBRANCH   4   5
ENDBRANCH   3   4
ENDBRANCH   2   3
ENDBRANCH   1   2
BRANCH   1  27
ATOM     27  C   UNL A   1      44.198  19.198  24.797  1.00  0.00     0.188 C 
BRANCH  27  28
ATOM     28  O   UNL A   1      45.567  19.411  25.093  1.00  0.00    -0.376 OA
BRANCH  28  29
ATOM     29  C   UNL A   1      46.023  20.746  25.206  1.00  0.00     0.202 C 
BRANCH  29  30
ATOM     30  C   UNL A   1      44.989  21.843  24.923  1.00  0.00     0.261 C 
BRANCH  30  31
ATOM     31  O   UNL A   1      44.908  22.890  25.903  1.00  0.00    -0.460 OA
BRANCH  31  32
ATOM     32  C   UNL A   1      44.950  24.157  25.442  1.00  0.00     0.338 C 
ATOM     33  O   UNL A   1      45.478  24.551  24.413  1.00  0.00    -0.246 OA
BRANCH  32  34
ATOM     34  C   UNL A   1      44.073  24.982  26.294  1.00  0.00     0.060 A 
ATOM     35  C   UNL A   1      44.327  26.356  26.395  1.00  0.00     0.016 A 
ATOM     36  C   UNL A   1      43.010  24.403  26.991  1.00  0.00     0.016 A 
ATOM     37  C   UNL A   1      43.548  27.147  27.235  1.00  0.00     0.010 A 
ATOM     38  C   UNL A   1      42.242  25.195  27.849  1.00  0.00     0.010 A 
ATOM     39  C   UNL A   1      42.537  26.560  28.008  1.00  0.00    -0.014 A 
BRANCH  39  40
ATOM     40  C   UNL A   1      41.943  27.335  29.121  1.00  0.00     0.031 A 
ATOM     41  C   UNL A   1      42.663  27.357  30.442  1.00  0.00     0.074 A 
ATOM     42  C   UNL A   1      40.822  28.058  28.949  1.00  0.00     0.049 A 
ATOM     43  N   UNL A   1      42.356  27.991  31.545  1.00  0.00    -0.248 NA
ATOM     44  C   UNL A   1      43.895  26.556  30.530  1.00  0.00     0.031 C 
ATOM     45  C   UNL A   1      40.057  28.155  27.707  1.00  0.00     0.029 A 
ATOM     46  N   UNL A   1      40.138  28.857  29.831  1.00  0.00    -0.354 N 
ATOM     47  C   UNL A   1      43.354  27.661  32.456  1.00  0.00     0.074 A 
ATOM     48  C   UNL A   1      44.252  26.745  31.791  1.00  0.00     0.031 C 
ATOM     49  C   UNL A   1      39.009  28.972  27.906  1.00  0.00     0.029 A 
ATOM     50  C   UNL A   1      39.012  29.430  29.294  1.00  0.00     0.049 A 
ATOM     51  H   UNL A   1      40.428  29.006  30.760  1.00  0.00     0.167 HD
ATOM     52  C   UNL A   1      43.514  28.091  33.730  1.00  0.00     0.031 A 
ATOM     53  C   UNL A   1      38.085  30.225  29.864  1.00  0.00     0.031 A 
ATOM     54  C   UNL A   1      42.611  28.990  34.397  1.00  0.00     0.049 A 
ATOM     55  C   UNL A   1      38.246  30.627  31.308  1.00  0.00     0.074 A 
ATOM     56  C   UNL A   1      42.694  29.496  35.684  1.00  0.00     0.029 A 
ATOM     57  N   UNL A   1      41.456  29.509  33.836  1.00  0.00    -0.354 N 
ATOM     58  N   UNL A   1      39.210  30.337  32.147  1.00  0.00    -0.248 NA
ATOM     59  C   UNL A   1      37.193  31.482  31.874  1.00  0.00     0.031 C 
ATOM     60  C   UNL A   1      41.552  30.267  35.921  1.00  0.00     0.029 A 
ATOM     61  C   UNL A   1      40.798  30.304  34.759  1.00  0.00     0.049 A 
ATOM     62  H   UNL A   1      41.148  29.337  32.917  1.00  0.00     0.167 HD
ATOM     63  C   UNL A   1      38.896  31.000  33.329  1.00  0.00     0.074 A 
ATOM     64  C   UNL A   1      37.666  31.723  33.088  1.00  0.00     0.031 C 
ATOM     65  C   UNL A   1      39.569  31.012  34.508  1.00  0.00     0.031 A 
BRANCH  52  66
ATOM     66  C   UNL A   1      44.691  27.556  34.499  1.00  0.00    -0.014 A 
ATOM     67  C   UNL A   1      45.879  28.293  34.629  1.00  0.00     0.009 A 
ATOM     68  C   UNL A   1      44.598  26.305  35.128  1.00  0.00     0.009 A 
ATOM     69  C   UNL A   1      46.960  27.772  35.346  1.00  0.00     0.001 A 
ATOM     70  C   UNL A   1      45.667  25.801  35.871  1.00  0.00     0.001 A 
ATOM     71  C   UNL A   1      46.850  26.531  35.972  1.00  0.00     0.000 A 
ENDBRANCH  52  66
BRANCH  53  72
ATOM     72  C   UNL A   1      36.907  30.684  29.080  1.00  0.00    -0.014 A 
ATOM     73  C   UNL A   1      35.924  29.775  28.657  1.00  0.00     0.009 A 
ATOM     74  C   UNL A   1      36.778  32.035  28.720  1.00  0.00     0.009 A 
ATOM     75  C   UNL A   1      34.856  30.205  27.865  1.00  0.00     0.001 A 
ATOM     76  C   UNL A   1      35.692  32.468  27.958  1.00  0.00     0.001 A 
ATOM     77  C   UNL A   1      34.738  31.551  27.521  1.00  0.00     0.000 A 
ENDBRANCH  53  72
BRANCH  65  78
ATOM     78  C   UNL A   1      39.006  31.868  35.612  1.00  0.00    -0.014 A 
ATOM     79  C   UNL A   1      39.233  33.252  35.661  1.00  0.00     0.009 A 
ATOM     80  C   UNL A   1      38.216  31.277  36.611  1.00  0.00     0.009 A 
ATOM     81  C   UNL A   1      38.726  34.015  36.714  1.00  0.00     0.001 A 
ATOM     82  C   UNL A   1      37.679  32.048  37.642  1.00  0.00     0.001 A 
ATOM     83  C   UNL A   1      37.947  33.414  37.701  1.00  0.00     0.000 A 
ENDBRANCH  65  78
ENDBRANCH  39  40
ENDBRANCH  32  34
ENDBRANCH  31  32
ENDBRANCH  30  31
ENDBRANCH  29  30
ENDBRANCH  28  29
ENDBRANCH  27  28
ENDBRANCH   1  27
TORSDOF 22
ENDMDL
MODEL 3
REMARK VINA RESULT:      -9.5      2.091      6.583
REMARK SMILES CCc1ccc2c(c1)C=C(C(=O)OCCOCCOCCOCCOC(=O)c1ccc(-c3c4nc(c(-c5ccccc5)c5ccc([nH]5)c(-c5ccccc5)c5nc(c(-c6ccccc6)c6ccc3[nH]6)C=C5)C=C4)cc1)[C@H](C(F)(F)F)O2
REMARK SMILES IDX 20 1 19 2 18 3 17 4 16 5 15 6 14 7 13 8 11 9 12 10 10 11
REMARK SMILES IDX 3 12 4 13 8 14 5 15 7 16 6 17 9 18 81 19 76 20 2 21 1 22
REMARK SMILES IDX 77 23 78 24 79 25 80 26 21 27 22 28 23 29 24 30 25 31 26 32
REMARK SMILES IDX 27 33 28 34 29 35 75 36 30 37 74 38 31 39 32 40 33 41 68 42
REMARK SMILES IDX 34 43 73 44 67 45 69 46 35 47 72 48 66 49 65 50 36 52 58 53
REMARK SMILES IDX 43 54 57 55 44 56 47 57 56 58 70 59 45 60 46 61 55 63 71 64
REMARK SMILES IDX 48 65 37 66 38 67 42 68 39 69 41 70 40 71 59 72 60 73 64 74
REMARK SMILES IDX 61 75 63 76 62 77 49 78 50 79 54 80 51 81 53 82 52 83
REMARK H PARENT 69 51 47 62
REMARK Flexibility Score: inf
ROOT
ATOM      1  C   UNL A   1      42.548  20.664  26.428  1.00  0.00     0.188 C 
ENDROOT
BRANCH   1   2
ATOM      2  O   UNL A   1      41.380  20.419  25.648  1.00  0.00    -0.377 OA
BRANCH   2   3
ATOM      3  C   UNL A   1      40.099  20.599  26.230  1.00  0.00     0.188 C 
BRANCH   3   4
ATOM      4  C   UNL A   1      39.484  22.013  26.202  1.00  0.00     0.188 C 
BRANCH   4   5
ATOM      5  O   UNL A   1      38.080  22.022  26.002  1.00  0.00    -0.376 OA
BRANCH   5   6
ATOM      6  C   UNL A   1      37.558  21.407  24.839  1.00  0.00     0.202 C 
BRANCH   6   7
ATOM      7  C   UNL A   1      36.052  21.535  24.572  1.00  0.00     0.261 C 
BRANCH   7   8
ATOM      8  O   UNL A   1      35.431  22.719  25.090  1.00  0.00    -0.460 OA
BRANCH   8   9
ATOM      9  C   UNL A   1      34.777  23.517  24.215  1.00  0.00     0.338 C 
ATOM     10  O   UNL A   1      34.772  23.400  23.004  1.00  0.00    -0.246 OA
BRANCH   9  11
ATOM     11  C   UNL A   1      33.930  24.465  24.967  1.00  0.00     0.087 C 
ATOM     12  C   UNL A   1      33.142  28.792  26.974  1.00  0.00    -0.047 A 
ATOM     13  C   UNL A   1      31.764  28.524  26.931  1.00  0.00     0.007 A 
ATOM     14  C   UNL A   1      34.033  27.802  26.528  1.00  0.00     0.015 A 
ATOM     15  C   UNL A   1      31.281  27.310  26.440  1.00  0.00     0.047 A 
ATOM     16  C   UNL A   1      33.552  26.598  25.999  1.00  0.00     0.018 A 
ATOM     17  C   UNL A   1      32.175  26.353  25.980  1.00  0.00     0.128 A 
ATOM     18  C   UNL A   1      34.444  25.654  25.332  1.00  0.00     0.027 C 
ATOM     19  O   UNL A   1      31.638  25.215  25.438  1.00  0.00    -0.475 OA
ATOM     20  C   UNL A   1      32.536  24.072  25.413  1.00  0.00     0.316 C 
BRANCH  12  21
ATOM     21  C   UNL A   1      33.586  30.150  27.472  1.00  0.00     0.032 C 
ATOM     22  C   UNL A   1      35.086  30.363  27.625  1.00  0.00     0.009 C 
ENDBRANCH  12  21
BRANCH  20  23
ATOM     23  C   UNL A   1      31.820  22.916  24.695  1.00  0.00     0.430 C 
ATOM     24  F   UNL A   1      30.560  22.743  25.155  1.00  0.00    -0.167 F 
ATOM     25  F   UNL A   1      31.688  23.202  23.372  1.00  0.00    -0.167 F 
ATOM     26  F   UNL A   1      32.478  21.744  24.785  1.00  0.00    -0.167 F 
ENDBRANCH  20  23
ENDBRANCH   9  11
ENDBRANCH   8   9
ENDBRANCH   7   8
ENDBRANCH   6   7
ENDBRANCH   5   6
ENDBRANCH   4   5
ENDBRANCH   3   4
ENDBRANCH   2   3
ENDBRANCH   1   2
BRANCH   1  27
ATOM     27  C   UNL A   1      43.439  21.916  26.213  1.00  0.00     0.188 C 
BRANCH  27  28
ATOM     28  O   UNL A   1      42.762  23.057  25.717  1.00  0.00    -0.376 OA
BRANCH  28  29
ATOM     29  C   UNL A   1      43.467  23.925  24.849  1.00  0.00     0.202 C 
BRANCH  29  30
ATOM     30  C   UNL A   1      43.683  25.358  25.352  1.00  0.00     0.261 C 
BRANCH  30  31
ATOM     31  O   UNL A   1      42.695  26.317  24.942  1.00  0.00    -0.460 OA
BRANCH  31  32
ATOM     32  C   UNL A   1      41.510  26.279  25.585  1.00  0.00     0.338 C 
ATOM     33  O   UNL A   1      40.533  25.607  25.292  1.00  0.00    -0.246 OA
BRANCH  32  34
ATOM     34  C   UNL A   1      41.644  27.046  26.838  1.00  0.00     0.060 A 
ATOM     35  C   UNL A   1      41.064  26.539  28.007  1.00  0.00     0.016 A 
ATOM     36  C   UNL A   1      42.336  28.260  26.857  1.00  0.00     0.016 A 
ATOM     37  C   UNL A   1      41.130  27.270  29.190  1.00  0.00     0.010 A 
ATOM     38  C   UNL A   1      42.383  29.003  28.040  1.00  0.00     0.010 A 
ATOM     39  C   UNL A   1      41.742  28.531  29.198  1.00  0.00    -0.014 A 
BRANCH  39  40
ATOM     40  C   UNL A   1      41.522  29.428  30.356  1.00  0.00     0.031 A 
ATOM     41  C   UNL A   1      40.285  30.284  30.374  1.00  0.00     0.074 A 
ATOM     42  C   UNL A   1      42.367  29.438  31.402  1.00  0.00     0.049 A 
ATOM     43  N   UNL A   1      39.863  31.116  31.291  1.00  0.00    -0.248 NA
ATOM     44  C   UNL A   1      39.404  30.188  29.197  1.00  0.00     0.031 C 
ATOM     45  C   UNL A   1      43.576  28.624  31.525  1.00  0.00     0.029 A 
ATOM     46  N   UNL A   1      42.327  30.162  32.568  1.00  0.00    -0.354 N 
ATOM     47  C   UNL A   1      38.673  31.643  30.801  1.00  0.00     0.074 A 
ATOM     48  C   UNL A   1      38.460  31.068  29.492  1.00  0.00     0.031 C 
ATOM     49  C   UNL A   1      44.161  28.891  32.705  1.00  0.00     0.029 A 
ATOM     50  C   UNL A   1      43.386  29.915  33.405  1.00  0.00     0.049 A 
ATOM     51  H   UNL A   1      41.606  30.796  32.783  1.00  0.00     0.167 HD
ATOM     52  C   UNL A   1      37.828  32.521  31.391  1.00  0.00     0.031 A 
ATOM     53  C   UNL A   1      43.700  30.464  34.595  1.00  0.00     0.031 A 
ATOM     54  C   UNL A   1      38.049  33.106  32.687  1.00  0.00     0.049 A 
ATOM     55  C   UNL A   1      42.781  31.496  35.196  1.00  0.00     0.074 A 
ATOM     56  C   UNL A   1      37.244  33.996  33.378  1.00  0.00     0.029 A 
ATOM     57  N   UNL A   1      39.159  32.869  33.482  1.00  0.00    -0.354 N 
ATOM     58  N   UNL A   1      41.644  31.961  34.739  1.00  0.00    -0.248 NA
ATOM     59  C   UNL A   1      43.187  32.066  36.488  1.00  0.00     0.031 C 
ATOM     60  C   UNL A   1      37.902  34.348  34.561  1.00  0.00     0.029 A 
ATOM     61  C   UNL A   1      39.078  33.620  34.643  1.00  0.00     0.049 A 
ATOM     62  H   UNL A   1      39.896  32.257  33.254  1.00  0.00     0.167 HD
ATOM     63  C   UNL A   1      41.183  32.852  35.702  1.00  0.00     0.074 A 
ATOM     64  C   UNL A   1      42.154  32.844  36.776  1.00  0.00     0.031 C 
ATOM     65  C   UNL A   1      40.056  33.608  35.700  1.00  0.00     0.031 A 
BRANCH  52  66
ATOM     66  C   UNL A   1      36.606  32.933  30.617  1.00  0.00    -0.014 A 
ATOM     67  C   UNL A   1      35.335  32.420  30.923  1.00  0.00     0.009 A 
ATOM     68  C   UNL A   1      36.725  33.875  29.584  1.00  0.00     0.009 A 
ATOM     69  C   UNL A   1      34.216  32.817  30.187  1.00  0.00     0.001 A 
ATOM     70  C   UNL A   1      35.601  34.294  28.871  1.00  0.00     0.001 A 
ATOM     71  C   UNL A   1      34.349  33.759  29.166  1.00  0.00     0.000 A 
ENDBRANCH  52  66
BRANCH  53  72
ATOM     72  C   UNL A   1      44.950  30.065  35.298  1.00  0.00    -0.014 A 
ATOM     73  C   UNL A   1      46.162  30.724  35.042  1.00  0.00     0.009 A 
ATOM     74  C   UNL A   1      44.940  28.996  36.209  1.00  0.00     0.009 A 
ATOM     75  C   UNL A   1      47.342  30.299  35.657  1.00  0.00     0.001 A 
ATOM     76  C   UNL A   1      46.114  28.597  36.848  1.00  0.00     0.001 A 
ATOM     77  C   UNL A   1      47.317  29.240  36.563  1.00  0.00     0.000 A 
ENDBRANCH  53  72
BRANCH  65  78
ATOM     78  C   UNL A   1      39.794  34.456  36.916  1.00  0.00    -0.014 A 
ATOM     79  C   UNL A   1      40.137  35.817  36.953  1.00  0.00     0.009 A 
ATOM     80  C   UNL A   1      39.173  33.885  38.038  1.00  0.00     0.009 A 
ATOM     81  C   UNL A   1      39.912  36.572  38.106  1.00  0.00     0.001 A 
ATOM     82  C   UNL A   1      38.915  34.650  39.175  1.00  0.00     0.001 A 
ATOM     83  C   UNL A   1      39.298  35.990  39.214  1.00  0.00     0.000 A 
ENDBRANCH  65  78
ENDBRANCH  39  40
ENDBRANCH  32  34
ENDBRANCH  31  32
ENDBRANCH  30  31
ENDBRANCH  29  30
ENDBRANCH  28  29
ENDBRANCH  27  28
ENDBRANCH   1  27
TORSDOF 22
ENDMDL
