MODEL 1
REMARK VINA RESULT:      -5.8      0.000      0.000
REMARK SMILES Cc1cc(=O)c(Oc2ccc(C(=O)OCCOCCOCCOCCOC(=O)c3ccc(-c4c5nc(c(-c6ccccc6)c6ccc([nH]6)c(-c6ccccc6)c6nc(c(-c7ccccc7)c7ccc4[nH]7)C=C6)C=C5)cc3)cc2)c(-c2ccc(S(C)(=O)=O)cc2)o1
REMARK SMILES IDX 19 1 18 2 17 3 16 4 15 5 14 6 12 7 13 8 11 9 8 10 9 11 78 12
REMARK SMILES IDX 10 13 77 14 7 15 6 16 1 17 2 18 3 19 90 20 4 21 79 22 5 23
REMARK SMILES IDX 80 24 81 25 89 26 82 27 88 28 83 29 84 30 85 31 86 32 87 33
REMARK SMILES IDX 20 34 21 35 22 36 23 37 24 38 25 39 26 40 27 41 28 42 29 43
REMARK SMILES IDX 30 44 76 45 31 46 75 47 32 48 33 49 34 50 69 51 35 52 74 53
REMARK SMILES IDX 68 54 70 55 36 56 73 57 67 58 66 59 37 61 59 62 44 63 58 64
REMARK SMILES IDX 45 65 48 66 57 67 71 68 46 69 47 70 56 72 72 73 49 74 38 75
REMARK SMILES IDX 39 76 43 77 40 78 42 79 41 80 60 81 61 82 65 83 62 84 64 85
REMARK SMILES IDX 63 86 50 87 51 88 55 89 52 90 54 91 53 92
REMARK H PARENT 70 60 48 71
REMARK Flexibility Score: inf
ROOT
ATOM      1  C   UNL A   1      49.494  36.843  27.930  1.00  0.00     0.188 C 
ENDROOT
BRANCH   1   2
ATOM      2  C   UNL A   1      49.552  36.093  26.630  1.00  0.00     0.188 C 
BRANCH   2   3
ATOM      3  O   UNL A   1      48.707  34.953  26.568  1.00  0.00    -0.376 OA
BRANCH   3   4
ATOM      4  C   UNL A   1      47.945  34.893  25.355  1.00  0.00     0.202 C 
BRANCH   4   5
ATOM      5  C   UNL A   1      46.420  34.780  25.558  1.00  0.00     0.261 C 
BRANCH   5   6
ATOM      6  O   UNL A   1      45.989  33.559  26.214  1.00  0.00    -0.460 OA
BRANCH   6   7
ATOM      7  C   UNL A   1      44.929  32.887  25.696  1.00  0.00     0.338 C 
ATOM      8  O   UNL A   1      44.413  33.111  24.615  1.00  0.00    -0.246 OA
BRANCH   7   9
ATOM      9  C   UNL A   1      44.613  31.690  26.553  1.00  0.00     0.060 A 
ATOM     10  C   UNL A   1      44.163  29.555  28.357  1.00  0.00     0.127 A 
ATOM     11  C   UNL A   1      45.421  29.738  27.794  1.00  0.00     0.048 A 
ATOM     12  C   UNL A   1      43.119  30.410  27.982  1.00  0.00     0.048 A 
ATOM     13  C   UNL A   1      45.652  30.818  26.919  1.00  0.00     0.019 A 
ATOM     14  C   UNL A   1      43.336  31.466  27.087  1.00  0.00     0.019 A 
BRANCH  10  15
ATOM     15  O   UNL A   1      43.790  28.474  29.106  1.00  0.00    -0.449 OA
BRANCH  15  16
ATOM     16  C   UNL A   1      43.384  27.225  28.675  1.00  0.00     0.217 A 
ATOM     17  C   UNL A   1      41.710  23.292  27.983  1.00  0.00     0.088 C 
ATOM     18  C   UNL A   1      42.148  24.705  28.199  1.00  0.00     0.105 A 
ATOM     19  C   UNL A   1      41.347  25.669  28.659  1.00  0.00     0.098 A 
ATOM     20  O   UNL A   1      43.467  24.937  27.886  1.00  0.00    -0.457 OA
ATOM     21  C   UNL A   1      41.907  27.013  28.870  1.00  0.00     0.228 A 
ATOM     22  C   UNL A   1      44.064  26.155  28.191  1.00  0.00     0.180 A 
ATOM     23  O   UNL A   1      41.159  27.917  29.234  1.00  0.00    -0.285 OA
BRANCH  22  24
ATOM     24  C   UNL A   1      45.504  26.048  27.932  1.00  0.00     0.021 A 
ATOM     25  C   UNL A   1      46.415  26.188  28.996  1.00  0.00     0.013 A 
ATOM     26  C   UNL A   1      45.986  25.925  26.631  1.00  0.00     0.013 A 
ATOM     27  C   UNL A   1      47.793  26.105  28.777  1.00  0.00     0.021 A 
ATOM     28  C   UNL A   1      47.359  25.874  26.415  1.00  0.00     0.021 A 
ATOM     29  C   UNL A   1      48.257  25.924  27.480  1.00  0.00     0.067 A 
BRANCH  29  30
ATOM     30  S   UNL A   1      49.979  25.590  27.176  1.00  0.00     0.175 S 
ATOM     31  C   UNL A   1      50.840  26.804  28.136  1.00  0.00     0.163 C 
ATOM     32  O   UNL A   1      50.268  24.283  27.735  1.00  0.00    -0.224 OA
ATOM     33  O   UNL A   1      50.213  25.853  25.770  1.00  0.00    -0.224 OA
ENDBRANCH  29  30
ENDBRANCH  22  24
ENDBRANCH  15  16
ENDBRANCH  10  15
ENDBRANCH   7   9
ENDBRANCH   6   7
ENDBRANCH   5   6
ENDBRANCH   4   5
ENDBRANCH   3   4
ENDBRANCH   2   3
ENDBRANCH   1   2
BRANCH   1  34
ATOM     34  O   UNL A   1      48.697  38.010  27.910  1.00  0.00    -0.377 OA
BRANCH  34  35
ATOM     35  C   UNL A   1      47.342  37.745  28.230  1.00  0.00     0.188 C 
BRANCH  35  36
ATOM     36  C   UNL A   1      46.249  38.116  27.198  1.00  0.00     0.188 C 
BRANCH  36  37
ATOM     37  O   UNL A   1      46.337  39.265  26.351  1.00  0.00    -0.376 OA
BRANCH  37  38
ATOM     38  C   UNL A   1      45.187  39.995  25.951  1.00  0.00     0.202 C 
BRANCH  38  39
ATOM     39  C   UNL A   1      44.234  40.423  27.058  1.00  0.00     0.261 C 
BRANCH  39  40
ATOM     40  O   UNL A   1      43.025  39.672  26.923  1.00  0.00    -0.460 OA
BRANCH  40  41
ATOM     41  C   UNL A   1      42.381  39.396  28.072  1.00  0.00     0.338 C 
ATOM     42  O   UNL A   1      41.455  40.025  28.567  1.00  0.00    -0.246 OA
BRANCH  41  43
ATOM     43  C   UNL A   1      42.812  38.058  28.528  1.00  0.00     0.060 A 
ATOM     44  C   UNL A   1      43.435  37.867  29.769  1.00  0.00     0.016 A 
ATOM     45  C   UNL A   1      42.688  36.990  27.625  1.00  0.00     0.016 A 
ATOM     46  C   UNL A   1      43.904  36.604  30.118  1.00  0.00     0.010 A 
ATOM     47  C   UNL A   1      43.175  35.732  27.965  1.00  0.00     0.010 A 
ATOM     48  C   UNL A   1      43.748  35.528  29.228  1.00  0.00    -0.014 A 
BRANCH  48  49
ATOM     49  C   UNL A   1      43.887  34.152  29.741  1.00  0.00     0.031 A 
ATOM     50  C   UNL A   1      45.197  33.446  29.819  1.00  0.00     0.074 A 
ATOM     51  C   UNL A   1      42.744  33.565  30.143  1.00  0.00     0.049 A 
ATOM     52  N   UNL A   1      45.450  32.273  30.338  1.00  0.00    -0.248 NA
ATOM     53  C   UNL A   1      46.369  34.124  29.249  1.00  0.00     0.031 C 
ATOM     54  C   UNL A   1      41.421  34.196  30.088  1.00  0.00     0.029 A 
ATOM     55  N   UNL A   1      42.503  32.333  30.684  1.00  0.00    -0.354 N 
ATOM     56  C   UNL A   1      46.814  32.075  30.180  1.00  0.00     0.074 A 
ATOM     57  C   UNL A   1      47.329  33.234  29.480  1.00  0.00     0.031 C 
ATOM     58  C   UNL A   1      40.513  33.359  30.604  1.00  0.00     0.029 A 
ATOM     59  C   UNL A   1      41.182  32.125  30.994  1.00  0.00     0.049 A 
ATOM     60  H   UNL A   1      43.208  31.661  30.838  1.00  0.00     0.167 HD
ATOM     61  C   UNL A   1      47.553  31.021  30.602  1.00  0.00     0.031 A 
ATOM     62  C   UNL A   1      40.572  31.061  31.542  1.00  0.00     0.031 A 
ATOM     63  C   UNL A   1      46.999  29.869  31.271  1.00  0.00     0.049 A 
ATOM     64  C   UNL A   1      41.414  29.891  31.952  1.00  0.00     0.074 A 
ATOM     65  C   UNL A   1      47.667  28.763  31.766  1.00  0.00     0.029 A 
ATOM     66  N   UNL A   1      45.650  29.668  31.526  1.00  0.00    -0.354 N 
ATOM     67  N   UNL A   1      42.715  29.750  31.871  1.00  0.00    -0.248 NA
ATOM     68  C   UNL A   1      40.715  28.744  32.544  1.00  0.00     0.031 C 
ATOM     69  C   UNL A   1      46.718  27.860  32.250  1.00  0.00     0.029 A 
ATOM     70  C   UNL A   1      45.463  28.437  32.135  1.00  0.00     0.049 A 
ATOM     71  H   UNL A   1      44.931  30.304  31.307  1.00  0.00     0.167 HD
ATOM     72  C   UNL A   1      42.996  28.508  32.419  1.00  0.00     0.074 A 
ATOM     73  C   UNL A   1      41.730  27.946  32.849  1.00  0.00     0.031 C 
ATOM     74  C   UNL A   1      44.195  27.890  32.550  1.00  0.00     0.031 A 
BRANCH  61  75
ATOM     75  C   UNL A   1      49.039  31.043  30.371  1.00  0.00    -0.014 A 
ATOM     76  C   UNL A   1      49.564  30.640  29.132  1.00  0.00     0.009 A 
ATOM     77  C   UNL A   1      49.927  31.321  31.422  1.00  0.00     0.009 A 
ATOM     78  C   UNL A   1      50.941  30.487  28.956  1.00  0.00     0.001 A 
ATOM     79  C   UNL A   1      51.307  31.193  31.236  1.00  0.00     0.001 A 
ATOM     80  C   UNL A   1      51.812  30.764  30.009  1.00  0.00     0.000 A 
ENDBRANCH  61  75
BRANCH  62  81
ATOM     81  C   UNL A   1      39.104  31.103  31.767  1.00  0.00    -0.014 A 
ATOM     82  C   UNL A   1      38.582  31.580  32.981  1.00  0.00     0.009 A 
ATOM     83  C   UNL A   1      38.221  30.586  30.808  1.00  0.00     0.009 A 
ATOM     84  C   UNL A   1      37.213  31.512  33.242  1.00  0.00     0.001 A 
ATOM     85  C   UNL A   1      36.848  30.552  31.057  1.00  0.00     0.001 A 
ATOM     86  C   UNL A   1      36.346  31.004  32.276  1.00  0.00     0.000 A 
ENDBRANCH  62  81
BRANCH  74  87
ATOM     87  C   UNL A   1      44.210  26.529  33.188  1.00  0.00    -0.014 A 
ATOM     88  C   UNL A   1      44.266  26.415  34.587  1.00  0.00     0.009 A 
ATOM     89  C   UNL A   1      44.279  25.365  32.407  1.00  0.00     0.009 A 
ATOM     90  C   UNL A   1      44.418  25.166  35.190  1.00  0.00     0.001 A 
ATOM     91  C   UNL A   1      44.395  24.114  33.016  1.00  0.00     0.001 A 
ATOM     92  C   UNL A   1      44.477  24.017  34.405  1.00  0.00     0.000 A 
ENDBRANCH  74  87
ENDBRANCH  48  49
ENDBRANCH  41  43
ENDBRANCH  40  41
ENDBRANCH  39  40
ENDBRANCH  38  39
ENDBRANCH  37  38
ENDBRANCH  36  37
ENDBRANCH  35  36
ENDBRANCH  34  35
ENDBRANCH   1  34
TORSDOF 24
ENDMDL
MODEL 2
REMARK VINA RESULT:      -5.7      3.988     10.512
REMARK SMILES Cc1cc(=O)c(Oc2ccc(C(=O)OCCOCCOCCOCCOC(=O)c3ccc(-c4c5nc(c(-c6ccccc6)c6ccc([nH]6)c(-c6ccccc6)c6nc(c(-c7ccccc7)c7ccc4[nH]7)C=C6)C=C5)cc3)cc2)c(-c2ccc(S(C)(=O)=O)cc2)o1
REMARK SMILES IDX 19 1 18 2 17 3 16 4 15 5 14 6 12 7 13 8 11 9 8 10 9 11 78 12
REMARK SMILES IDX 10 13 77 14 7 15 6 16 1 17 2 18 3 19 90 20 4 21 79 22 5 23
REMARK SMILES IDX 80 24 81 25 89 26 82 27 88 28 83 29 84 30 85 31 86 32 87 33
REMARK SMILES IDX 20 34 21 35 22 36 23 37 24 38 25 39 26 40 27 41 28 42 29 43
REMARK SMILES IDX 30 44 76 45 31 46 75 47 32 48 33 49 34 50 69 51 35 52 74 53
REMARK SMILES IDX 68 54 70 55 36 56 73 57 67 58 66 59 37 61 59 62 44 63 58 64
REMARK SMILES IDX 45 65 48 66 57 67 71 68 46 69 47 70 56 72 72 73 49 74 38 75
REMARK SMILES IDX 39 76 43 77 40 78 42 79 41 80 60 81 61 82 65 83 62 84 64 85
REMARK SMILES IDX 63 86 50 87 51 88 55 89 52 90 54 91 53 92
REMARK H PARENT 70 60 48 71
REMARK Flexibility Score: inf
ROOT
ATOM      1  C   UNL A   1      52.274  22.424  32.905  1.00  0.00     0.188 C 
ENDROOT
BRANCH   1   2
ATOM      2  C   UNL A   1      52.301  23.900  33.180  1.00  0.00     0.188 C 
BRANCH   2   3
ATOM      3  O   UNL A   1      52.374  24.716  32.019  1.00  0.00    -0.376 OA
BRANCH   3   4
ATOM      4  C   UNL A   1      51.434  25.798  32.040  1.00  0.00     0.202 C 
BRANCH   4   5
ATOM      5  C   UNL A   1      50.017  25.427  31.556  1.00  0.00     0.261 C 
BRANCH   5   6
ATOM      6  O   UNL A   1      49.922  25.141  30.137  1.00  0.00    -0.460 OA
BRANCH   6   7
ATOM      7  C   UNL A   1      49.521  26.135  29.303  1.00  0.00     0.338 C 
ATOM      8  O   UNL A   1      50.019  27.245  29.240  1.00  0.00    -0.246 OA
BRANCH   7   9
ATOM      9  C   UNL A   1      48.511  25.604  28.320  1.00  0.00     0.060 A 
ATOM     10  C   UNL A   1      46.758  24.382  26.463  1.00  0.00     0.127 A 
ATOM     11  C   UNL A   1      48.020  24.802  26.058  1.00  0.00     0.048 A 
ATOM     12  C   UNL A   1      46.355  24.616  27.784  1.00  0.00     0.048 A 
ATOM     13  C   UNL A   1      48.903  25.384  26.989  1.00  0.00     0.019 A 
ATOM     14  C   UNL A   1      47.218  25.223  28.706  1.00  0.00     0.019 A 
BRANCH  10  15
ATOM     15  O   UNL A   1      45.776  23.933  25.625  1.00  0.00    -0.449 OA
BRANCH  15  16
ATOM     16  C   UNL A   1      44.835  22.945  25.852  1.00  0.00     0.217 A 
ATOM     17  C   UNL A   1      42.076  19.608  25.852  1.00  0.00     0.088 C 
ATOM     18  C   UNL A   1      43.141  20.657  25.861  1.00  0.00     0.105 A 
ATOM     19  C   UNL A   1      44.377  20.464  25.397  1.00  0.00     0.098 A 
ATOM     20  O   UNL A   1      42.736  21.861  26.387  1.00  0.00    -0.457 OA
ATOM     21  C   UNL A   1      45.325  21.589  25.419  1.00  0.00     0.228 A 
ATOM     22  C   UNL A   1      43.558  22.980  26.309  1.00  0.00     0.180 A 
ATOM     23  O   UNL A   1      46.482  21.399  25.052  1.00  0.00    -0.285 OA
BRANCH  22  24
ATOM     24  C   UNL A   1      42.799  24.150  26.764  1.00  0.00     0.021 A 
ATOM     25  C   UNL A   1      42.743  24.453  28.138  1.00  0.00     0.013 A 
ATOM     26  C   UNL A   1      42.038  24.897  25.868  1.00  0.00     0.013 A 
ATOM     27  C   UNL A   1      42.015  25.552  28.602  1.00  0.00     0.021 A 
ATOM     28  C   UNL A   1      41.291  25.971  26.339  1.00  0.00     0.021 A 
ATOM     29  C   UNL A   1      41.308  26.324  27.688  1.00  0.00     0.067 A 
BRANCH  29  30
ATOM     30  S   UNL A   1      40.552  27.854  28.191  1.00  0.00     0.175 S 
ATOM     31  C   UNL A   1      39.300  27.369  29.346  1.00  0.00     0.163 C 
ATOM     32  O   UNL A   1      41.559  28.614  28.909  1.00  0.00    -0.224 OA
ATOM     33  O   UNL A   1      39.914  28.412  27.016  1.00  0.00    -0.224 OA
ENDBRANCH  29  30
ENDBRANCH  22  24
ENDBRANCH  15  16
ENDBRANCH  10  15
ENDBRANCH   7   9
ENDBRANCH   6   7
ENDBRANCH   5   6
ENDBRANCH   4   5
ENDBRANCH   3   4
ENDBRANCH   2   3
ENDBRANCH   1   2
BRANCH   1  34
ATOM     34  O   UNL A   1      52.300  21.602  34.055  1.00  0.00    -0.377 OA
BRANCH  34  35
ATOM     35  C   UNL A   1      51.038  21.530  34.696  1.00  0.00     0.188 C 
BRANCH  35  36
ATOM     36  C   UNL A   1      49.780  21.275  33.831  1.00  0.00     0.188 C 
BRANCH  36  37
ATOM     37  O   UNL A   1      48.714  20.416  34.240  1.00  0.00    -0.376 OA
BRANCH  37  38
ATOM     38  C   UNL A   1      47.498  20.922  34.770  1.00  0.00     0.202 C 
BRANCH  38  39
ATOM     39  C   UNL A   1      47.424  22.427  34.985  1.00  0.00     0.261 C 
BRANCH  39  40
ATOM     40  O   UNL A   1      46.336  22.937  34.211  1.00  0.00    -0.460 OA
BRANCH  40  41
ATOM     41  C   UNL A   1      45.302  23.431  34.916  1.00  0.00     0.338 C 
ATOM     42  O   UNL A   1      44.784  22.936  35.909  1.00  0.00    -0.246 OA
BRANCH  41  43
ATOM     43  C   UNL A   1      45.039  24.805  34.441  1.00  0.00     0.060 A 
ATOM     44  C   UNL A   1      46.026  25.799  34.476  1.00  0.00     0.016 A 
ATOM     45  C   UNL A   1      43.726  25.124  34.060  1.00  0.00     0.016 A 
ATOM     46  C   UNL A   1      45.707  27.101  34.101  1.00  0.00     0.010 A 
ATOM     47  C   UNL A   1      43.401  26.430  33.705  1.00  0.00     0.010 A 
ATOM     48  C   UNL A   1      44.401  27.411  33.686  1.00  0.00    -0.014 A 
BRANCH  48  49
ATOM     49  C   UNL A   1      44.168  28.662  32.939  1.00  0.00     0.031 A 
ATOM     50  C   UNL A   1      43.712  29.922  33.592  1.00  0.00     0.074 A 
ATOM     51  C   UNL A   1      44.398  28.597  31.615  1.00  0.00     0.049 A 
ATOM     52  N   UNL A   1      43.565  31.102  33.050  1.00  0.00    -0.248 NA
ATOM     53  C   UNL A   1      43.376  29.863  35.022  1.00  0.00     0.031 C 
ATOM     54  C   UNL A   1      44.840  27.391  30.905  1.00  0.00     0.029 A 
ATOM     55  N   UNL A   1      44.312  29.546  30.635  1.00  0.00    -0.354 N 
ATOM     56  C   UNL A   1      43.140  31.938  34.072  1.00  0.00     0.074 A 
ATOM     57  C   UNL A   1      43.014  31.120  35.261  1.00  0.00     0.031 C 
ATOM     58  C   UNL A   1      45.015  27.682  29.611  1.00  0.00     0.029 A 
ATOM     59  C   UNL A   1      44.668  29.081  29.394  1.00  0.00     0.049 A 
ATOM     60  H   UNL A   1      44.024  30.474  30.803  1.00  0.00     0.167 HD
ATOM     61  C   UNL A   1      42.896  33.268  34.007  1.00  0.00     0.031 A 
ATOM     62  C   UNL A   1      44.721  29.709  28.208  1.00  0.00     0.031 A 
ATOM     63  C   UNL A   1      43.003  34.046  32.796  1.00  0.00     0.049 A 
ATOM     64  C   UNL A   1      44.396  31.172  28.164  1.00  0.00     0.074 A 
ATOM     65  C   UNL A   1      42.809  35.406  32.632  1.00  0.00     0.029 A 
ATOM     66  N   UNL A   1      43.320  33.534  31.545  1.00  0.00    -0.354 N 
ATOM     67  N   UNL A   1      44.075  31.970  29.153  1.00  0.00    -0.248 NA
ATOM     68  C   UNL A   1      44.460  31.827  26.852  1.00  0.00     0.031 C 
ATOM     69  C   UNL A   1      42.931  35.704  31.273  1.00  0.00     0.029 A 
ATOM     70  C   UNL A   1      43.285  34.545  30.599  1.00  0.00     0.049 A 
ATOM     71  H   UNL A   1      43.536  32.592  31.358  1.00  0.00     0.167 HD
ATOM     72  C   UNL A   1      43.916  33.226  28.590  1.00  0.00     0.074 A 
ATOM     73  C   UNL A   1      44.199  33.087  27.174  1.00  0.00     0.031 C 
ATOM     74  C   UNL A   1      43.563  34.388  29.192  1.00  0.00     0.031 A 
BRANCH  61  75
ATOM     75  C   UNL A   1      42.495  33.991  35.264  1.00  0.00    -0.014 A 
ATOM     76  C   UNL A   1      41.136  34.182  35.562  1.00  0.00     0.009 A 
ATOM     77  C   UNL A   1      43.458  34.612  36.076  1.00  0.00     0.009 A 
ATOM     78  C   UNL A   1      40.747  34.997  36.627  1.00  0.00     0.001 A 
ATOM     79  C   UNL A   1      43.067  35.406  37.158  1.00  0.00     0.001 A 
ATOM     80  C   UNL A   1      41.713  35.609  37.424  1.00  0.00     0.000 A 
ENDBRANCH  61  75
BRANCH  62  81
ATOM     81  C   UNL A   1      45.144  28.951  27.003  1.00  0.00    -0.014 A 
ATOM     82  C   UNL A   1      44.230  28.130  26.320  1.00  0.00     0.009 A 
ATOM     83  C   UNL A   1      46.481  28.971  26.582  1.00  0.00     0.009 A 
ATOM     84  C   UNL A   1      44.651  27.325  25.260  1.00  0.00     0.001 A 
ATOM     85  C   UNL A   1      46.892  28.193  25.498  1.00  0.00     0.001 A 
ATOM     86  C   UNL A   1      45.982  27.363  24.846  1.00  0.00     0.000 A 
ENDBRANCH  62  81
BRANCH  74  87
ATOM     87  C   UNL A   1      43.463  35.616  28.331  1.00  0.00    -0.014 A 
ATOM     88  C   UNL A   1      44.589  36.436  28.151  1.00  0.00     0.009 A 
ATOM     89  C   UNL A   1      42.234  36.020  27.789  1.00  0.00     0.009 A 
ATOM     90  C   UNL A   1      44.480  37.648  27.470  1.00  0.00     0.001 A 
ATOM     91  C   UNL A   1      42.137  37.217  27.077  1.00  0.00     0.001 A 
ATOM     92  C   UNL A   1      43.256  38.035  26.929  1.00  0.00     0.000 A 
ENDBRANCH  74  87
ENDBRANCH  48  49
ENDBRANCH  41  43
ENDBRANCH  40  41
ENDBRANCH  39  40
ENDBRANCH  38  39
ENDBRANCH  37  38
ENDBRANCH  36  37
ENDBRANCH  35  36
ENDBRANCH  34  35
ENDBRANCH   1  34
TORSDOF 24
ENDMDL
MODEL 3
REMARK VINA RESULT:      -5.6      4.466     11.435
REMARK SMILES Cc1cc(=O)c(Oc2ccc(C(=O)OCCOCCOCCOCCOC(=O)c3ccc(-c4c5nc(c(-c6ccccc6)c6ccc([nH]6)c(-c6ccccc6)c6nc(c(-c7ccccc7)c7ccc4[nH]7)C=C6)C=C5)cc3)cc2)c(-c2ccc(S(C)(=O)=O)cc2)o1
REMARK SMILES IDX 19 1 18 2 17 3 16 4 15 5 14 6 12 7 13 8 11 9 8 10 9 11 78 12
REMARK SMILES IDX 10 13 77 14 7 15 6 16 1 17 2 18 3 19 90 20 4 21 79 22 5 23
REMARK SMILES IDX 80 24 81 25 89 26 82 27 88 28 83 29 84 30 85 31 86 32 87 33
REMARK SMILES IDX 20 34 21 35 22 36 23 37 24 38 25 39 26 40 27 41 28 42 29 43
REMARK SMILES IDX 30 44 76 45 31 46 75 47 32 48 33 49 34 50 69 51 35 52 74 53
REMARK SMILES IDX 68 54 70 55 36 56 73 57 67 58 66 59 37 61 59 62 44 63 58 64
REMARK SMILES IDX 45 65 48 66 57 67 71 68 46 69 47 70 56 72 72 73 49 74 38 75
REMARK SMILES IDX 39 76 43 77 40 78 42 79 41 80 60 81 61 82 65 83 62 84 64 85
REMARK SMILES IDX 63 86 50 87 51 88 55 89 52 90 54 91 53 92
REMARK H PARENT 70 60 48 71
REMARK Flexibility Score: inf
ROOT
ATOM      1  C   UNL A   1      41.425  24.569  27.271  1.00  0.00     0.188 C 
ENDROOT
BRANCH   1   2
ATOM      2  C   UNL A   1      42.401  25.180  28.236  1.00  0.00     0.188 C 
BRANCH   2   3
ATOM      3  O   UNL A   1      41.905  26.309  28.941  1.00  0.00    -0.376 OA
BRANCH   3   4
ATOM      4  C   UNL A   1      42.519  27.536  28.526  1.00  0.00     0.202 C 
BRANCH   4   5
ATOM      5  C   UNL A   1      41.528  28.637  28.095  1.00  0.00     0.261 C 
BRANCH   5   6
ATOM      6  O   UNL A   1      40.132  28.309  28.317  1.00  0.00    -0.460 OA
BRANCH   6   7
ATOM      7  C   UNL A   1      39.198  29.266  28.080  1.00  0.00     0.338 C 
ATOM      8  O   UNL A   1      38.814  29.618  26.978  1.00  0.00    -0.246 OA
BRANCH   7   9
ATOM      9  C   UNL A   1      38.554  29.686  29.375  1.00  0.00     0.060 A 
ATOM     10  C   UNL A   1      37.446  30.253  31.918  1.00  0.00     0.127 A 
ATOM     11  C   UNL A   1      36.936  29.211  31.152  1.00  0.00     0.048 A 
ATOM     12  C   UNL A   1      38.478  31.042  31.392  1.00  0.00     0.048 A 
ATOM     13  C   UNL A   1      37.506  28.911  29.899  1.00  0.00     0.019 A 
ATOM     14  C   UNL A   1      39.027  30.767  30.133  1.00  0.00     0.019 A 
BRANCH  10  15
ATOM     15  O   UNL A   1      36.891  30.719  33.077  1.00  0.00    -0.449 OA
BRANCH  15  16
ATOM     16  C   UNL A   1      37.374  31.689  33.936  1.00  0.00     0.217 A 
ATOM     17  C   UNL A   1      38.829  34.177  37.166  1.00  0.00     0.088 C 
ATOM     18  C   UNL A   1      38.458  33.242  36.061  1.00  0.00     0.105 A 
ATOM     19  C   UNL A   1      38.913  31.991  35.963  1.00  0.00     0.098 A 
ATOM     20  O   UNL A   1      37.590  33.778  35.140  1.00  0.00    -0.457 OA
ATOM     21  C   UNL A   1      38.441  31.151  34.852  1.00  0.00     0.228 A 
ATOM     22  C   UNL A   1      37.022  32.981  34.152  1.00  0.00     0.180 A 
ATOM     23  O   UNL A   1      38.904  30.021  34.722  1.00  0.00    -0.285 OA
BRANCH  22  24
ATOM     24  C   UNL A   1      35.999  33.763  33.450  1.00  0.00     0.021 A 
ATOM     25  C   UNL A   1      35.896  33.677  32.049  1.00  0.00     0.013 A 
ATOM     26  C   UNL A   1      35.206  34.677  34.139  1.00  0.00     0.013 A 
ATOM     27  C   UNL A   1      34.940  34.421  31.352  1.00  0.00     0.021 A 
ATOM     28  C   UNL A   1      34.277  35.438  33.437  1.00  0.00     0.021 A 
ATOM     29  C   UNL A   1      34.115  35.286  32.060  1.00  0.00     0.067 A 
BRANCH  29  30
ATOM     30  S   UNL A   1      32.742  36.085  31.257  1.00  0.00     0.175 S 
ATOM     31  C   UNL A   1      31.445  36.050  32.463  1.00  0.00     0.163 C 
ATOM     32  O   UNL A   1      33.119  37.469  31.038  1.00  0.00    -0.224 OA
ATOM     33  O   UNL A   1      32.364  35.243  30.139  1.00  0.00    -0.224 OA
ENDBRANCH  29  30
ENDBRANCH  22  24
ENDBRANCH  15  16
ENDBRANCH  10  15
ENDBRANCH   7   9
ENDBRANCH   6   7
ENDBRANCH   5   6
ENDBRANCH   4   5
ENDBRANCH   3   4
ENDBRANCH   2   3
ENDBRANCH   1   2
BRANCH   1  34
ATOM     34  O   UNL A   1      41.885  23.406  26.613  1.00  0.00    -0.377 OA
BRANCH  34  35
ATOM     35  C   UNL A   1      42.520  23.699  25.380  1.00  0.00     0.188 C 
BRANCH  35  36
ATOM     36  C   UNL A   1      43.975  23.217  25.162  1.00  0.00     0.188 C 
BRANCH  36  37
ATOM     37  O   UNL A   1      45.061  24.110  24.911  1.00  0.00    -0.376 OA
BRANCH  37  38
ATOM     38  C   UNL A   1      45.476  25.080  25.862  1.00  0.00     0.202 C 
BRANCH  38  39
ATOM     39  C   UNL A   1      46.710  24.741  26.684  1.00  0.00     0.261 C 
BRANCH  39  40
ATOM     40  O   UNL A   1      47.172  25.938  27.314  1.00  0.00    -0.460 OA
BRANCH  40  41
ATOM     41  C   UNL A   1      46.301  26.525  28.157  1.00  0.00     0.338 C 
ATOM     42  O   UNL A   1      45.660  25.983  29.048  1.00  0.00    -0.246 OA
BRANCH  41  43
ATOM     43  C   UNL A   1      46.422  27.988  27.994  1.00  0.00     0.060 A 
ATOM     44  C   UNL A   1      45.839  28.660  26.911  1.00  0.00     0.016 A 
ATOM     45  C   UNL A   1      47.245  28.680  28.896  1.00  0.00     0.016 A 
ATOM     46  C   UNL A   1      46.053  30.026  26.751  1.00  0.00     0.010 A 
ATOM     47  C   UNL A   1      47.477  30.041  28.725  1.00  0.00     0.010 A 
ATOM     48  C   UNL A   1      46.849  30.724  27.675  1.00  0.00    -0.014 A 
BRANCH  48  49
ATOM     49  C   UNL A   1      46.758  32.196  27.725  1.00  0.00     0.031 A 
ATOM     50  C   UNL A   1      47.845  33.091  27.236  1.00  0.00     0.074 A 
ATOM     51  C   UNL A   1      45.618  32.689  28.244  1.00  0.00     0.049 A 
ATOM     52  N   UNL A   1      47.836  34.394  27.146  1.00  0.00    -0.248 NA
ATOM     53  C   UNL A   1      49.098  32.460  26.796  1.00  0.00     0.031 C 
ATOM     54  C   UNL A   1      44.512  31.869  28.750  1.00  0.00     0.029 A 
ATOM     55  N   UNL A   1      45.188  33.974  28.421  1.00  0.00    -0.354 N 
ATOM     56  C   UNL A   1      49.069  34.747  26.618  1.00  0.00     0.074 A 
ATOM     57  C   UNL A   1      49.819  33.520  26.445  1.00  0.00     0.031 C 
ATOM     58  C   UNL A   1      43.519  32.671  29.152  1.00  0.00     0.029 A 
ATOM     59  C   UNL A   1      43.930  34.056  28.962  1.00  0.00     0.049 A 
ATOM     60  H   UNL A   1      45.727  34.764  28.182  1.00  0.00     0.167 HD
ATOM     61  C   UNL A   1      49.510  35.987  26.301  1.00  0.00     0.031 A 
ATOM     62  C   UNL A   1      43.179  35.128  29.267  1.00  0.00     0.031 A 
ATOM     63  C   UNL A   1      48.745  37.192  26.516  1.00  0.00     0.049 A 
ATOM     64  C   UNL A   1      43.720  36.489  28.947  1.00  0.00     0.074 A 
ATOM     65  C   UNL A   1      49.090  38.494  26.199  1.00  0.00     0.029 A 
ATOM     66  N   UNL A   1      47.492  37.244  27.111  1.00  0.00    -0.354 N 
ATOM     67  N   UNL A   1      44.854  36.805  28.372  1.00  0.00    -0.248 NA
ATOM     68  C   UNL A   1      42.875  37.637  29.295  1.00  0.00     0.031 C 
ATOM     69  C   UNL A   1      48.084  39.339  26.671  1.00  0.00     0.029 A 
ATOM     70  C   UNL A   1      47.071  38.560  27.208  1.00  0.00     0.049 A 
ATOM     71  H   UNL A   1      46.980  36.462  27.421  1.00  0.00     0.167 HD
ATOM     72  C   UNL A   1      44.856  38.187  28.271  1.00  0.00     0.074 A 
ATOM     73  C   UNL A   1      43.596  38.647  28.824  1.00  0.00     0.031 C 
ATOM     74  C   UNL A   1      45.816  39.001  27.768  1.00  0.00     0.031 A 
BRANCH  61  75
ATOM     75  C   UNL A   1      50.874  36.132  25.681  1.00  0.00    -0.014 A 
ATOM     76  C   UNL A   1      51.007  36.202  24.285  1.00  0.00     0.009 A 
ATOM     77  C   UNL A   1      52.034  36.049  26.467  1.00  0.00     0.009 A 
ATOM     78  C   UNL A   1      52.268  36.160  23.686  1.00  0.00     0.001 A 
ATOM     79  C   UNL A   1      53.297  36.034  25.867  1.00  0.00     0.001 A 
ATOM     80  C   UNL A   1      53.412  36.076  24.478  1.00  0.00     0.000 A 
ENDBRANCH  61  75
BRANCH  62  81
ATOM     81  C   UNL A   1      41.831  34.925  29.857  1.00  0.00    -0.014 A 
ATOM     82  C   UNL A   1      41.690  34.607  31.219  1.00  0.00     0.009 A 
ATOM     83  C   UNL A   1      40.686  34.960  29.048  1.00  0.00     0.009 A 
ATOM     84  C   UNL A   1      40.436  34.300  31.751  1.00  0.00     0.001 A 
ATOM     85  C   UNL A   1      39.429  34.687  29.591  1.00  0.00     0.001 A 
ATOM     86  C   UNL A   1      39.306  34.347  30.937  1.00  0.00     0.000 A 
ENDBRANCH  62  81
BRANCH  74  87
ATOM     87  C   UNL A   1      45.553  40.481  27.784  1.00  0.00    -0.014 A 
ATOM     88  C   UNL A   1      45.752  41.212  28.966  1.00  0.00     0.009 A 
ATOM     89  C   UNL A   1      45.006  41.130  26.666  1.00  0.00     0.009 A 
ATOM     90  C   UNL A   1      45.384  42.556  29.038  1.00  0.00     0.001 A 
ATOM     91  C   UNL A   1      44.672  42.483  26.731  1.00  0.00     0.001 A 
ATOM     92  C   UNL A   1      44.849  43.192  27.920  1.00  0.00     0.000 A 
ENDBRANCH  74  87
ENDBRANCH  48  49
ENDBRANCH  41  43
ENDBRANCH  40  41
ENDBRANCH  39  40
ENDBRANCH  38  39
ENDBRANCH  37  38
ENDBRANCH  36  37
ENDBRANCH  35  36
ENDBRANCH  34  35
ENDBRANCH   1  34
TORSDOF 24
ENDMDL
