MODEL 1
REMARK VINA RESULT:      -9.9      0.000      0.000
REMARK SMILES NS(=O)(=O)c1ccc(/N=N/c2ccc(O)c(C(=O)OCCOCCOCCOCCOC(=O)c3ccc(-c4c5nc(c(-c6ccccc6)c6ccc([nH]6)c(-c6ccccc6)c6nc(c(-c7ccccc7)c7ccc4[nH]7)C=C6)C=C5)cc3)c2)cc1
REMARK SMILES IDX 24 1 23 2 22 3 21 4 20 5 19 6 17 7 18 8 16 9 11 10 12 11
REMARK SMILES IDX 82 12 13 13 14 14 10 15 9 16 8 17 5 18 6 19 84 20 7 21 83 22
REMARK SMILES IDX 2 23 3 24 4 25 1 26 15 29 25 31 26 32 27 33 28 34 29 35
REMARK SMILES IDX 30 36 31 37 32 38 33 39 34 40 35 41 81 42 36 43 80 44 37 45
REMARK SMILES IDX 38 46 39 47 74 48 40 49 79 50 73 51 75 52 41 53 78 54 72 55
REMARK SMILES IDX 71 56 42 58 64 59 49 60 63 61 50 62 53 63 62 64 76 65 51 66
REMARK SMILES IDX 52 67 61 69 77 70 54 71 43 72 44 73 48 74 45 75 47 76 46 77
REMARK SMILES IDX 65 78 66 79 70 80 67 81 69 82 68 83 55 84 56 85 60 86 57 87
REMARK SMILES IDX 59 88 58 89
REMARK H PARENT 1 27 1 28 15 30 75 57 53 68
REMARK Flexibility Score: inf
ROOT
ATOM      1  C   UNL A   1      33.599  29.074  26.914  1.00  0.00     0.188 C 
ENDROOT
BRANCH   1   2
ATOM      2  C   UNL A   1      32.447  29.253  25.904  1.00  0.00     0.188 C 
BRANCH   2   3
ATOM      3  O   UNL A   1      32.886  29.668  24.623  1.00  0.00    -0.376 OA
BRANCH   3   4
ATOM      4  C   UNL A   1      32.611  28.866  23.493  1.00  0.00     0.202 C 
BRANCH   4   5
ATOM      5  C   UNL A   1      32.958  27.368  23.507  1.00  0.00     0.261 C 
BRANCH   5   6
ATOM      6  O   UNL A   1      32.117  26.493  22.748  1.00  0.00    -0.460 OA
BRANCH   6   7
ATOM      7  C   UNL A   1      32.714  25.523  22.025  1.00  0.00     0.342 C 
ATOM      8  O   UNL A   1      33.190  25.632  20.906  1.00  0.00    -0.246 OA
BRANCH   7   9
ATOM      9  C   UNL A   1      32.962  24.359  22.904  1.00  0.00     0.104 A 
ATOM     10  C   UNL A   1      34.508  22.854  24.042  1.00  0.00     0.087 A 
ATOM     11  C   UNL A   1      33.423  22.015  24.339  1.00  0.00     0.034 A 
ATOM     12  C   UNL A   1      34.264  24.027  23.309  1.00  0.00     0.049 A 
ATOM     13  C   UNL A   1      32.126  22.334  23.931  1.00  0.00     0.049 A 
ATOM     14  C   UNL A   1      31.896  23.508  23.222  1.00  0.00     0.130 A 
BRANCH  10  15
ATOM     15  N   UNL A   1      35.786  22.423  24.456  1.00  0.00    -0.151 NA
ATOM     16  N   UNL A   1      36.346  23.216  25.239  1.00  0.00    -0.151 NA
BRANCH  16  17
ATOM     17  C   UNL A   1      37.618  22.774  25.669  1.00  0.00     0.086 A 
ATOM     18  C   UNL A   1      40.123  21.736  26.418  1.00  0.00     0.082 A 
ATOM     19  C   UNL A   1      39.205  20.919  25.759  1.00  0.00     0.024 A 
ATOM     20  C   UNL A   1      39.805  23.061  26.720  1.00  0.00     0.024 A 
ATOM     21  C   UNL A   1      37.961  21.441  25.391  1.00  0.00     0.031 A 
ATOM     22  C   UNL A   1      38.558  23.572  26.344  1.00  0.00     0.031 A 
BRANCH  18  23
ATOM     23  S   UNL A   1      41.702  21.093  26.887  1.00  0.00     0.238 S 
ATOM     24  O   UNL A   1      42.122  21.718  28.118  1.00  0.00    -0.207 OA
ATOM     25  O   UNL A   1      42.539  21.036  25.709  1.00  0.00    -0.207 OA
BRANCH  23  26
ATOM     26  N   UNL A   1      41.362  19.500  27.298  1.00  0.00    -0.225 NA
ATOM     27  H   UNL A   1      40.924  19.030  26.507  1.00  0.00     0.137 HD
ATOM     28  H   UNL A   1      40.726  19.483  28.097  1.00  0.00     0.137 HD
ENDBRANCH  23  26
ENDBRANCH  18  23
ENDBRANCH  16  17
ENDBRANCH  10  15
BRANCH  14  29
ATOM     29  O   UNL A   1      30.608  23.727  22.814  1.00  0.00    -0.507 OA
ATOM     30  H   UNL A   1      30.180  23.105  22.260  1.00  0.00     0.293 HD
ENDBRANCH  14  29
ENDBRANCH   7   9
ENDBRANCH   6   7
ENDBRANCH   5   6
ENDBRANCH   4   5
ENDBRANCH   3   4
ENDBRANCH   2   3
ENDBRANCH   1   2
BRANCH   1  31
ATOM     31  O   UNL A   1      34.269  30.244  27.362  1.00  0.00    -0.377 OA
BRANCH  31  32
ATOM     32  C   UNL A   1      33.523  31.435  27.610  1.00  0.00     0.188 C 
BRANCH  32  33
ATOM     33  C   UNL A   1      34.150  32.693  28.266  1.00  0.00     0.188 C 
BRANCH  33  34
ATOM     34  O   UNL A   1      33.414  33.890  28.091  1.00  0.00    -0.376 OA
BRANCH  34  35
ATOM     35  C   UNL A   1      33.963  35.092  28.596  1.00  0.00     0.202 C 
BRANCH  35  36
ATOM     36  C   UNL A   1      33.097  35.888  29.580  1.00  0.00     0.261 C 
BRANCH  36  37
ATOM     37  O   UNL A   1      32.599  35.159  30.712  1.00  0.00    -0.460 OA
BRANCH  37  38
ATOM     38  C   UNL A   1      32.876  35.655  31.937  1.00  0.00     0.338 C 
ATOM     39  O   UNL A   1      32.214  36.443  32.584  1.00  0.00    -0.246 OA
BRANCH  38  40
ATOM     40  C   UNL A   1      34.052  34.922  32.450  1.00  0.00     0.060 A 
ATOM     41  C   UNL A   1      35.318  35.519  32.380  1.00  0.00     0.016 A 
ATOM     42  C   UNL A   1      33.897  33.656  33.018  1.00  0.00     0.016 A 
ATOM     43  C   UNL A   1      36.440  34.836  32.851  1.00  0.00     0.010 A 
ATOM     44  C   UNL A   1      35.021  32.963  33.467  1.00  0.00     0.010 A 
ATOM     45  C   UNL A   1      36.301  33.536  33.356  1.00  0.00    -0.014 A 
BRANCH  45  46
ATOM     46  C   UNL A   1      37.502  32.697  33.580  1.00  0.00     0.031 A 
ATOM     47  C   UNL A   1      38.297  32.918  34.838  1.00  0.00     0.074 A 
ATOM     48  C   UNL A   1      37.880  31.758  32.697  1.00  0.00     0.049 A 
ATOM     49  N   UNL A   1      39.414  32.359  35.224  1.00  0.00    -0.248 NA
ATOM     50  C   UNL A   1      37.757  33.908  35.786  1.00  0.00     0.031 C 
ATOM     51  C   UNL A   1      37.169  31.411  31.469  1.00  0.00     0.029 A 
ATOM     52  N   UNL A   1      38.972  30.926  32.702  1.00  0.00    -0.354 N 
ATOM     53  C   UNL A   1      39.717  32.937  36.451  1.00  0.00     0.074 A 
ATOM     54  C   UNL A   1      38.684  33.910  36.731  1.00  0.00     0.031 C 
ATOM     55  C   UNL A   1      37.850  30.442  30.832  1.00  0.00     0.029 A 
ATOM     56  C   UNL A   1      39.063  30.130  31.586  1.00  0.00     0.049 A 
ATOM     57  H   UNL A   1      39.629  30.902  33.436  1.00  0.00     0.167 HD
ATOM     58  C   UNL A   1      40.759  32.679  37.275  1.00  0.00     0.031 A 
ATOM     59  C   UNL A   1      40.029  29.270  31.208  1.00  0.00     0.031 A 
ATOM     60  C   UNL A   1      41.798  31.727  36.987  1.00  0.00     0.049 A 
ATOM     61  C   UNL A   1      41.230  29.069  32.097  1.00  0.00     0.074 A 
ATOM     62  C   UNL A   1      42.892  31.384  37.761  1.00  0.00     0.029 A 
ATOM     63  N   UNL A   1      41.876  30.973  35.826  1.00  0.00    -0.354 N 
ATOM     64  N   UNL A   1      41.496  29.602  33.266  1.00  0.00    -0.248 NA
ATOM     65  C   UNL A   1      42.264  28.141  31.614  1.00  0.00     0.031 C 
ATOM     66  C   UNL A   1      43.668  30.473  37.039  1.00  0.00     0.029 A 
ATOM     67  C   UNL A   1      43.018  30.190  35.849  1.00  0.00     0.049 A 
ATOM     68  H   UNL A   1      41.217  30.990  35.095  1.00  0.00     0.167 HD
ATOM     69  C   UNL A   1      42.705  29.048  33.672  1.00  0.00     0.074 A 
ATOM     70  C   UNL A   1      43.113  28.129  32.632  1.00  0.00     0.031 C 
ATOM     71  C   UNL A   1      43.411  29.277  34.807  1.00  0.00     0.031 A 
BRANCH  58  72
ATOM     72  C   UNL A   1      40.849  33.475  38.547  1.00  0.00    -0.014 A 
ATOM     73  C   UNL A   1      40.290  33.007  39.747  1.00  0.00     0.009 A 
ATOM     74  C   UNL A   1      41.528  34.705  38.550  1.00  0.00     0.009 A 
ATOM     75  C   UNL A   1      40.378  33.771  40.913  1.00  0.00     0.001 A 
ATOM     76  C   UNL A   1      41.643  35.450  39.724  1.00  0.00     0.001 A 
ATOM     77  C   UNL A   1      41.059  34.988  40.902  1.00  0.00     0.000 A 
ENDBRANCH  58  72
BRANCH  59  78
ATOM     78  C   UNL A   1      39.923  28.546  29.912  1.00  0.00    -0.014 A 
ATOM     79  C   UNL A   1      39.471  27.219  29.867  1.00  0.00     0.009 A 
ATOM     80  C   UNL A   1      40.302  29.172  28.714  1.00  0.00     0.009 A 
ATOM     81  C   UNL A   1      39.431  26.524  28.654  1.00  0.00     0.001 A 
ATOM     82  C   UNL A   1      40.230  28.487  27.499  1.00  0.00     0.001 A 
ATOM     83  C   UNL A   1      39.805  27.161  27.471  1.00  0.00     0.000 A 
ENDBRANCH  59  78
BRANCH  71  84
ATOM     84  C   UNL A   1      44.676  28.488  35.010  1.00  0.00    -0.014 A 
ATOM     85  C   UNL A   1      44.666  27.226  35.626  1.00  0.00     0.009 A 
ATOM     86  C   UNL A   1      45.893  28.996  34.528  1.00  0.00     0.009 A 
ATOM     87  C   UNL A   1      45.853  26.509  35.786  1.00  0.00     0.001 A 
ATOM     88  C   UNL A   1      47.073  28.263  34.658  1.00  0.00     0.001 A 
ATOM     89  C   UNL A   1      47.053  27.024  35.297  1.00  0.00     0.000 A 
ENDBRANCH  71  84
ENDBRANCH  45  46
ENDBRANCH  38  40
ENDBRANCH  37  38
ENDBRANCH  36  37
ENDBRANCH  35  36
ENDBRANCH  34  35
ENDBRANCH  33  34
ENDBRANCH  32  33
ENDBRANCH  31  32
ENDBRANCH   1  31
TORSDOF 25
ENDMDL
MODEL 2
REMARK VINA RESULT:      -9.3      3.975      9.003
REMARK SMILES NS(=O)(=O)c1ccc(/N=N/c2ccc(O)c(C(=O)OCCOCCOCCOCCOC(=O)c3ccc(-c4c5nc(c(-c6ccccc6)c6ccc([nH]6)c(-c6ccccc6)c6nc(c(-c7ccccc7)c7ccc4[nH]7)C=C6)C=C5)cc3)c2)cc1
REMARK SMILES IDX 24 1 23 2 22 3 21 4 20 5 19 6 17 7 18 8 16 9 11 10 12 11
REMARK SMILES IDX 82 12 13 13 14 14 10 15 9 16 8 17 5 18 6 19 84 20 7 21 83 22
REMARK SMILES IDX 2 23 3 24 4 25 1 26 15 29 25 31 26 32 27 33 28 34 29 35
REMARK SMILES IDX 30 36 31 37 32 38 33 39 34 40 35 41 81 42 36 43 80 44 37 45
REMARK SMILES IDX 38 46 39 47 74 48 40 49 79 50 73 51 75 52 41 53 78 54 72 55
REMARK SMILES IDX 71 56 42 58 64 59 49 60 63 61 50 62 53 63 62 64 76 65 51 66
REMARK SMILES IDX 52 67 61 69 77 70 54 71 43 72 44 73 48 74 45 75 47 76 46 77
REMARK SMILES IDX 65 78 66 79 70 80 67 81 69 82 68 83 55 84 56 85 60 86 57 87
REMARK SMILES IDX 59 88 58 89
REMARK H PARENT 1 27 1 28 15 30 75 57 53 68
REMARK Flexibility Score: inf
ROOT
ATOM      1  C   UNL A   1      36.051  23.951  25.461  1.00  0.00     0.188 C 
ENDROOT
BRANCH   1   2
ATOM      2  C   UNL A   1      36.869  22.646  25.392  1.00  0.00     0.188 C 
BRANCH   2   3
ATOM      3  O   UNL A   1      38.220  22.811  25.787  1.00  0.00    -0.376 OA
BRANCH   3   4
ATOM      4  C   UNL A   1      39.103  21.710  25.742  1.00  0.00     0.202 C 
BRANCH   4   5
ATOM      5  C   UNL A   1      40.483  21.799  26.416  1.00  0.00     0.261 C 
BRANCH   5   6
ATOM      6  O   UNL A   1      41.622  21.449  25.624  1.00  0.00    -0.460 OA
BRANCH   6   7
ATOM      7  C   UNL A   1      42.188  20.243  25.840  1.00  0.00     0.342 C 
ATOM      8  O   UNL A   1      41.609  19.181  26.004  1.00  0.00    -0.246 OA
BRANCH   7   9
ATOM      9  C   UNL A   1      43.640  20.345  25.570  1.00  0.00     0.104 A 
ATOM     10  C   UNL A   1      45.677  21.675  25.407  1.00  0.00     0.087 A 
ATOM     11  C   UNL A   1      46.309  20.577  24.805  1.00  0.00     0.034 A 
ATOM     12  C   UNL A   1      44.329  21.549  25.778  1.00  0.00     0.049 A 
ATOM     13  C   UNL A   1      45.627  19.379  24.585  1.00  0.00     0.049 A 
ATOM     14  C   UNL A   1      44.298  19.260  24.975  1.00  0.00     0.130 A 
BRANCH  10  15
ATOM     15  N   UNL A   1      46.434  22.858  25.543  1.00  0.00    -0.151 NA
ATOM     16  N   UNL A   1      46.244  23.446  26.627  1.00  0.00    -0.151 NA
BRANCH  16  17
ATOM     17  C   UNL A   1      47.018  24.620  26.770  1.00  0.00     0.086 A 
ATOM     18  C   UNL A   1      48.533  26.943  27.245  1.00  0.00     0.082 A 
ATOM     19  C   UNL A   1      47.767  26.393  28.274  1.00  0.00     0.024 A 
ATOM     20  C   UNL A   1      48.544  26.356  25.979  1.00  0.00     0.024 A 
ATOM     21  C   UNL A   1      47.015  25.239  28.030  1.00  0.00     0.031 A 
ATOM     22  C   UNL A   1      47.790  25.200  25.749  1.00  0.00     0.031 A 
BRANCH  18  23
ATOM     23  S   UNL A   1      49.492  28.399  27.537  1.00  0.00     0.238 S 
ATOM     24  O   UNL A   1      49.373  29.280  26.401  1.00  0.00    -0.207 OA
ATOM     25  O   UNL A   1      50.766  28.001  28.094  1.00  0.00    -0.207 OA
BRANCH  23  26
ATOM     26  N   UNL A   1      48.657  29.167  28.777  1.00  0.00    -0.225 NA
ATOM     27  H   UNL A   1      47.904  28.563  29.105  1.00  0.00     0.137 HD
ATOM     28  H   UNL A   1      48.263  30.043  28.431  1.00  0.00     0.137 HD
ENDBRANCH  23  26
ENDBRANCH  18  23
ENDBRANCH  16  17
ENDBRANCH  10  15
BRANCH  14  29
ATOM     29  O   UNL A   1      43.682  18.074  24.682  1.00  0.00    -0.507 OA
ATOM     30  H   UNL A   1      44.156  17.269  24.756  1.00  0.00     0.293 HD
ENDBRANCH  14  29
ENDBRANCH   7   9
ENDBRANCH   6   7
ENDBRANCH   5   6
ENDBRANCH   4   5
ENDBRANCH   3   4
ENDBRANCH   2   3
ENDBRANCH   1   2
BRANCH   1  31
ATOM     31  O   UNL A   1      34.635  23.842  25.439  1.00  0.00    -0.377 OA
BRANCH  31  32
ATOM     32  C   UNL A   1      33.834  24.931  25.898  1.00  0.00     0.188 C 
BRANCH  32  33
ATOM     33  C   UNL A   1      33.124  25.914  24.931  1.00  0.00     0.188 C 
BRANCH  33  34
ATOM     34  O   UNL A   1      33.048  27.252  25.386  1.00  0.00    -0.376 OA
BRANCH  34  35
ATOM     35  C   UNL A   1      31.812  27.930  25.264  1.00  0.00     0.202 C 
BRANCH  35  36
ATOM     36  C   UNL A   1      31.769  29.382  25.758  1.00  0.00     0.261 C 
BRANCH  36  37
ATOM     37  O   UNL A   1      33.032  30.062  25.823  1.00  0.00    -0.460 OA
BRANCH  37  38
ATOM     38  C   UNL A   1      33.191  30.977  26.803  1.00  0.00     0.338 C 
ATOM     39  O   UNL A   1      32.360  31.752  27.234  1.00  0.00    -0.246 OA
BRANCH  38  40
ATOM     40  C   UNL A   1      34.522  30.749  27.403  1.00  0.00     0.060 A 
ATOM     41  C   UNL A   1      34.955  29.437  27.637  1.00  0.00     0.016 A 
ATOM     42  C   UNL A   1      35.345  31.833  27.715  1.00  0.00     0.016 A 
ATOM     43  C   UNL A   1      36.204  29.206  28.214  1.00  0.00     0.010 A 
ATOM     44  C   UNL A   1      36.585  31.603  28.313  1.00  0.00     0.010 A 
ATOM     45  C   UNL A   1      37.005  30.291  28.595  1.00  0.00    -0.014 A 
BRANCH  45  46
ATOM     46  C   UNL A   1      38.184  30.070  29.465  1.00  0.00     0.031 A 
ATOM     47  C   UNL A   1      39.337  29.278  28.910  1.00  0.00     0.074 A 
ATOM     48  C   UNL A   1      38.240  30.560  30.714  1.00  0.00     0.049 A 
ATOM     49  N   UNL A   1      40.443  28.898  29.496  1.00  0.00    -0.248 NA
ATOM     50  C   UNL A   1      39.222  28.855  27.504  1.00  0.00     0.031 C 
ATOM     51  C   UNL A   1      37.215  31.385  31.349  1.00  0.00     0.029 A 
ATOM     52  N   UNL A   1      39.210  30.424  31.677  1.00  0.00    -0.354 N 
ATOM     53  C   UNL A   1      41.148  28.182  28.536  1.00  0.00     0.074 A 
ATOM     54  C   UNL A   1      40.334  28.155  27.340  1.00  0.00     0.031 C 
ATOM     55  C   UNL A   1      37.606  31.674  32.603  1.00  0.00     0.029 A 
ATOM     56  C   UNL A   1      38.887  31.023  32.871  1.00  0.00     0.049 A 
ATOM     57  H   UNL A   1      40.055  29.943  31.527  1.00  0.00     0.167 HD
ATOM     58  C   UNL A   1      42.367  27.603  28.636  1.00  0.00     0.031 A 
ATOM     59  C   UNL A   1      39.541  31.020  34.049  1.00  0.00     0.031 A 
ATOM     60  C   UNL A   1      43.168  27.612  29.831  1.00  0.00     0.049 A 
ATOM     61  C   UNL A   1      40.853  30.287  34.165  1.00  0.00     0.074 A 
ATOM     62  C   UNL A   1      44.421  27.062  30.033  1.00  0.00     0.029 A 
ATOM     63  N   UNL A   1      42.786  28.192  31.031  1.00  0.00    -0.354 N 
ATOM     64  N   UNL A   1      41.523  29.633  33.245  1.00  0.00    -0.248 NA
ATOM     65  C   UNL A   1      41.502  30.295  35.485  1.00  0.00     0.031 C 
ATOM     66  C   UNL A   1      44.768  27.250  31.373  1.00  0.00     0.029 A 
ATOM     67  C   UNL A   1      43.765  27.984  31.987  1.00  0.00     0.049 A 
ATOM     68  H   UNL A   1      41.944  28.679  31.181  1.00  0.00     0.167 HD
ATOM     69  C   UNL A   1      42.684  29.186  33.866  1.00  0.00     0.074 A 
ATOM     70  C   UNL A   1      42.634  29.653  35.234  1.00  0.00     0.031 C 
ATOM     71  C   UNL A   1      43.703  28.457  33.346  1.00  0.00     0.031 A 
BRANCH  58  72
ATOM     72  C   UNL A   1      42.886  26.870  27.431  1.00  0.00    -0.014 A 
ATOM     73  C   UNL A   1      42.520  25.540  27.166  1.00  0.00     0.009 A 
ATOM     74  C   UNL A   1      43.736  27.531  26.529  1.00  0.00     0.009 A 
ATOM     75  C   UNL A   1      43.025  24.878  26.045  1.00  0.00     0.001 A 
ATOM     76  C   UNL A   1      44.212  26.877  25.392  1.00  0.00     0.001 A 
ATOM     77  C   UNL A   1      43.865  25.548  25.156  1.00  0.00     0.000 A 
ENDBRANCH  58  72
BRANCH  59  78
ATOM     78  C   UNL A   1      38.959  31.713  35.230  1.00  0.00    -0.014 A 
ATOM     79  C   UNL A   1      38.311  30.988  36.241  1.00  0.00     0.009 A 
ATOM     80  C   UNL A   1      39.023  33.112  35.338  1.00  0.00     0.009 A 
ATOM     81  C   UNL A   1      37.713  31.649  37.317  1.00  0.00     0.001 A 
ATOM     82  C   UNL A   1      38.454  33.768  36.431  1.00  0.00     0.001 A 
ATOM     83  C   UNL A   1      37.790  33.038  37.414  1.00  0.00     0.000 A 
ENDBRANCH  59  78
BRANCH  71  84
ATOM     84  C   UNL A   1      44.873  28.158  34.245  1.00  0.00    -0.014 A 
ATOM     85  C   UNL A   1      45.953  29.046  34.367  1.00  0.00     0.009 A 
ATOM     86  C   UNL A   1      44.867  26.988  35.020  1.00  0.00     0.009 A 
ATOM     87  C   UNL A   1      47.018  28.751  35.221  1.00  0.00     0.001 A 
ATOM     88  C   UNL A   1      45.915  26.711  35.900  1.00  0.00     0.001 A 
ATOM     89  C   UNL A   1      46.994  27.588  35.991  1.00  0.00     0.000 A 
ENDBRANCH  71  84
ENDBRANCH  45  46
ENDBRANCH  38  40
ENDBRANCH  37  38
ENDBRANCH  36  37
ENDBRANCH  35  36
ENDBRANCH  34  35
ENDBRANCH  33  34
ENDBRANCH  32  33
ENDBRANCH  31  32
ENDBRANCH   1  31
TORSDOF 25
ENDMDL
MODEL 3
REMARK VINA RESULT:      -9.1      5.853     11.873
REMARK SMILES NS(=O)(=O)c1ccc(/N=N/c2ccc(O)c(C(=O)OCCOCCOCCOCCOC(=O)c3ccc(-c4c5nc(c(-c6ccccc6)c6ccc([nH]6)c(-c6ccccc6)c6nc(c(-c7ccccc7)c7ccc4[nH]7)C=C6)C=C5)cc3)c2)cc1
REMARK SMILES IDX 24 1 23 2 22 3 21 4 20 5 19 6 17 7 18 8 16 9 11 10 12 11
REMARK SMILES IDX 82 12 13 13 14 14 10 15 9 16 8 17 5 18 6 19 84 20 7 21 83 22
REMARK SMILES IDX 2 23 3 24 4 25 1 26 15 29 25 31 26 32 27 33 28 34 29 35
REMARK SMILES IDX 30 36 31 37 32 38 33 39 34 40 35 41 81 42 36 43 80 44 37 45
REMARK SMILES IDX 38 46 39 47 74 48 40 49 79 50 73 51 75 52 41 53 78 54 72 55
REMARK SMILES IDX 71 56 42 58 64 59 49 60 63 61 50 62 53 63 62 64 76 65 51 66
REMARK SMILES IDX 52 67 61 69 77 70 54 71 43 72 44 73 48 74 45 75 47 76 46 77
REMARK SMILES IDX 65 78 66 79 70 80 67 81 69 82 68 83 55 84 56 85 60 86 57 87
REMARK SMILES IDX 59 88 58 89
REMARK H PARENT 1 27 1 28 15 30 75 57 53 68
REMARK Flexibility Score: inf
ROOT
ATOM      1  C   UNL A   1      37.040  22.291  25.204  1.00  0.00     0.188 C 
ENDROOT
BRANCH   1   2
ATOM      2  C   UNL A   1      35.862  21.779  24.350  1.00  0.00     0.188 C 
BRANCH   2   3
ATOM      3  O   UNL A   1      35.004  20.897  25.054  1.00  0.00    -0.376 OA
BRANCH   3   4
ATOM      4  C   UNL A   1      33.604  21.045  24.945  1.00  0.00     0.202 C 
BRANCH   4   5
ATOM      5  C   UNL A   1      32.856  22.020  25.869  1.00  0.00     0.261 C 
BRANCH   5   6
ATOM      6  O   UNL A   1      31.557  22.452  25.453  1.00  0.00    -0.460 OA
BRANCH   6   7
ATOM      7  C   UNL A   1      31.005  23.496  26.106  1.00  0.00     0.342 C 
ATOM      8  O   UNL A   1      30.583  23.504  27.251  1.00  0.00    -0.246 OA
BRANCH   7   9
ATOM      9  C   UNL A   1      31.242  24.727  25.319  1.00  0.00     0.104 A 
ATOM     10  C   UNL A   1      31.856  27.085  25.206  1.00  0.00     0.087 A 
ATOM     11  C   UNL A   1      31.427  27.100  23.870  1.00  0.00     0.034 A 
ATOM     12  C   UNL A   1      31.748  25.886  25.928  1.00  0.00     0.049 A 
ATOM     13  C   UNL A   1      30.914  25.954  23.260  1.00  0.00     0.049 A 
ATOM     14  C   UNL A   1      30.829  24.768  23.981  1.00  0.00     0.130 A 
BRANCH  10  15
ATOM     15  N   UNL A   1      32.316  28.304  25.748  1.00  0.00    -0.151 NA
ATOM     16  N   UNL A   1      33.372  28.188  26.401  1.00  0.00    -0.151 NA
BRANCH  16  17
ATOM     17  C   UNL A   1      33.842  29.413  26.927  1.00  0.00     0.086 A 
ATOM     18  C   UNL A   1      34.595  31.904  27.996  1.00  0.00     0.082 A 
ATOM     19  C   UNL A   1      33.266  31.678  27.638  1.00  0.00     0.024 A 
ATOM     20  C   UNL A   1      35.557  30.909  27.817  1.00  0.00     0.024 A 
ATOM     21  C   UNL A   1      32.899  30.438  27.105  1.00  0.00     0.031 A 
ATOM     22  C   UNL A   1      35.176  29.671  27.286  1.00  0.00     0.031 A 
BRANCH  18  23
ATOM     23  S   UNL A   1      35.076  33.465  28.674  1.00  0.00     0.238 S 
ATOM     24  O   UNL A   1      34.712  34.514  27.753  1.00  0.00    -0.207 OA
ATOM     25  O   UNL A   1      36.406  33.331  29.227  1.00  0.00    -0.207 OA
BRANCH  23  26
ATOM     26  N   UNL A   1      34.040  33.651  29.984  1.00  0.00    -0.225 NA
ATOM     27  H   UNL A   1      34.564  33.999  30.785  1.00  0.00     0.137 HD
ATOM     28  H   UNL A   1      33.621  32.749  30.218  1.00  0.00     0.137 HD
ENDBRANCH  23  26
ENDBRANCH  18  23
ENDBRANCH  16  17
ENDBRANCH  10  15
BRANCH  14  29
ATOM     29  O   UNL A   1      30.269  23.701  23.331  1.00  0.00    -0.507 OA
ATOM     30  H   UNL A   1      29.415  23.402  23.573  1.00  0.00     0.293 HD
ENDBRANCH  14  29
ENDBRANCH   7   9
ENDBRANCH   6   7
ENDBRANCH   5   6
ENDBRANCH   4   5
ENDBRANCH   3   4
ENDBRANCH   2   3
ENDBRANCH   1   2
BRANCH   1  31
ATOM     31  O   UNL A   1      37.931  21.326  25.743  1.00  0.00    -0.377 OA
BRANCH  31  32
ATOM     32  C   UNL A   1      39.328  21.608  25.804  1.00  0.00     0.188 C 
BRANCH  32  33
ATOM     33  C   UNL A   1      40.349  20.646  26.464  1.00  0.00     0.188 C 
BRANCH  33  34
ATOM     34  O   UNL A   1      40.704  19.520  25.682  1.00  0.00    -0.376 OA
BRANCH  34  35
ATOM     35  C   UNL A   1      41.906  18.841  25.994  1.00  0.00     0.202 C 
BRANCH  35  36
ATOM     36  C   UNL A   1      43.213  19.605  25.750  1.00  0.00     0.261 C 
BRANCH  36  37
ATOM     37  O   UNL A   1      43.777  19.484  24.435  1.00  0.00    -0.460 OA
BRANCH  37  38
ATOM     38  C   UNL A   1      45.030  19.953  24.254  1.00  0.00     0.338 C 
ATOM     39  O   UNL A   1      45.930  19.437  23.620  1.00  0.00    -0.246 OA
BRANCH  38  40
ATOM     40  C   UNL A   1      45.071  21.320  24.814  1.00  0.00     0.060 A 
ATOM     41  C   UNL A   1      44.663  22.401  24.021  1.00  0.00     0.016 A 
ATOM     42  C   UNL A   1      45.495  21.526  26.128  1.00  0.00     0.016 A 
ATOM     43  C   UNL A   1      44.707  23.698  24.532  1.00  0.00     0.010 A 
ATOM     44  C   UNL A   1      45.561  22.826  26.632  1.00  0.00     0.010 A 
ATOM     45  C   UNL A   1      45.198  23.920  25.825  1.00  0.00    -0.014 A 
BRANCH  45  46
ATOM     46  C   UNL A   1      45.525  25.296  26.266  1.00  0.00     0.031 A 
ATOM     47  C   UNL A   1      44.411  26.152  26.805  1.00  0.00     0.074 A 
ATOM     48  C   UNL A   1      46.777  25.780  26.199  1.00  0.00     0.049 A 
ATOM     49  N   UNL A   1      44.434  27.402  27.189  1.00  0.00    -0.248 NA
ATOM     50  C   UNL A   1      43.091  25.508  26.921  1.00  0.00     0.031 C 
ATOM     51  C   UNL A   1      47.951  25.036  25.748  1.00  0.00     0.029 A 
ATOM     52  N   UNL A   1      47.263  27.025  26.510  1.00  0.00    -0.354 N 
ATOM     53  C   UNL A   1      43.133  27.697  27.580  1.00  0.00     0.074 A 
ATOM     54  C   UNL A   1      42.340  26.508  27.358  1.00  0.00     0.031 C 
ATOM     55  C   UNL A   1      49.024  25.846  25.801  1.00  0.00     0.029 A 
ATOM     56  C   UNL A   1      48.604  27.172  26.251  1.00  0.00     0.049 A 
ATOM     57  H   UNL A   1      46.704  27.745  26.881  1.00  0.00     0.167 HD
ATOM     58  C   UNL A   1      42.641  28.854  28.082  1.00  0.00     0.031 A 
ATOM     59  C   UNL A   1      49.393  28.261  26.343  1.00  0.00     0.031 A 
ATOM     60  C   UNL A   1      43.425  30.043  28.282  1.00  0.00     0.049 A 
ATOM     61  C   UNL A   1      48.802  29.565  26.815  1.00  0.00     0.074 A 
ATOM     62  C   UNL A   1      43.023  31.263  28.795  1.00  0.00     0.029 A 
ATOM     63  N   UNL A   1      44.770  30.163  27.967  1.00  0.00    -0.354 N 
ATOM     64  N   UNL A   1      47.577  29.828  27.204  1.00  0.00    -0.248 NA
ATOM     65  C   UNL A   1      49.707  30.723  26.864  1.00  0.00     0.031 C 
ATOM     66  C   UNL A   1      44.107  32.143  28.727  1.00  0.00     0.029 A 
ATOM     67  C   UNL A   1      45.205  31.448  28.244  1.00  0.00     0.049 A 
ATOM     68  H   UNL A   1      45.331  29.442  27.602  1.00  0.00     0.167 HD
ATOM     69  C   UNL A   1      47.575  31.168  27.576  1.00  0.00     0.074 A 
ATOM     70  C   UNL A   1      48.922  31.658  27.380  1.00  0.00     0.031 C 
ATOM     71  C   UNL A   1      46.550  31.923  28.045  1.00  0.00     0.031 A 
BRANCH  58  72
ATOM     72  C   UNL A   1      41.174  28.898  28.406  1.00  0.00    -0.014 A 
ATOM     73  C   UNL A   1      40.214  29.196  27.425  1.00  0.00     0.009 A 
ATOM     74  C   UNL A   1      40.742  28.611  29.711  1.00  0.00     0.009 A 
ATOM     75  C   UNL A   1      38.857  29.242  27.755  1.00  0.00     0.001 A 
ATOM     76  C   UNL A   1      39.384  28.625  30.029  1.00  0.00     0.001 A 
ATOM     77  C   UNL A   1      38.443  28.951  29.054  1.00  0.00     0.000 A 
ENDBRANCH  58  72
BRANCH  59  78
ATOM     78  C   UNL A   1      50.828  28.181  25.957  1.00  0.00    -0.014 A 
ATOM     79  C   UNL A   1      51.225  28.377  24.625  1.00  0.00     0.009 A 
ATOM     80  C   UNL A   1      51.808  27.877  26.916  1.00  0.00     0.009 A 
ATOM     81  C   UNL A   1      52.567  28.241  24.258  1.00  0.00     0.001 A 
ATOM     82  C   UNL A   1      53.152  27.774  26.553  1.00  0.00     0.001 A 
ATOM     83  C   UNL A   1      53.529  27.945  25.223  1.00  0.00     0.000 A 
ENDBRANCH  59  78
BRANCH  71  84
ATOM     84  C   UNL A   1      46.852  33.348  28.423  1.00  0.00    -0.014 A 
ATOM     85  C   UNL A   1      46.656  34.406  27.521  1.00  0.00     0.009 A 
ATOM     86  C   UNL A   1      47.292  33.639  29.723  1.00  0.00     0.009 A 
ATOM     87  C   UNL A   1      46.929  35.720  27.904  1.00  0.00     0.001 A 
ATOM     88  C   UNL A   1      47.531  34.957  30.116  1.00  0.00     0.001 A 
ATOM     89  C   UNL A   1      47.360  35.995  29.202  1.00  0.00     0.000 A 
ENDBRANCH  71  84
ENDBRANCH  45  46
ENDBRANCH  38  40
ENDBRANCH  37  38
ENDBRANCH  36  37
ENDBRANCH  35  36
ENDBRANCH  34  35
ENDBRANCH  33  34
ENDBRANCH  32  33
ENDBRANCH  31  32
ENDBRANCH   1  31
TORSDOF 25
ENDMDL
