MODEL 1
REMARK VINA RESULT:      -9.5      0.000      0.000
REMARK SMILES C/C(=N\Nc1nc(-c2ccc(Cl)cc2)cs1)c1nnn(-c2ccc(C(=O)OCCOCCOCCOCCOC(=O)c3ccc(-c4c5nc(c(-c6ccccc6)c6ccc([nH]6)c(-c6ccccc6)c6nc(c(-c7ccccc7)c7ccc4[nH]7)C=C6)C=C5)cc3)cc2)c1C
REMARK SMILES IDX 31 1 30 2 29 3 28 4 27 5 25 6 26 7 24 8 21 9 22 10 91 11
REMARK SMILES IDX 23 12 90 13 20 14 17 15 18 16 92 17 19 18 93 19 2 20 1 21
REMARK SMILES IDX 3 22 4 23 5 25 6 26 16 27 7 28 15 29 8 30 9 31 14 32 10 33
REMARK SMILES IDX 13 34 11 35 12 36 32 37 33 38 34 39 35 40 36 41 37 42 38 43
REMARK SMILES IDX 39 44 40 45 41 46 42 47 43 48 89 49 44 50 88 51 45 52 46 53
REMARK SMILES IDX 47 54 82 55 48 56 87 57 81 58 83 59 49 60 86 61 80 62 79 63
REMARK SMILES IDX 50 65 72 66 57 67 71 68 58 69 61 70 70 71 84 72 59 73 60 74
REMARK SMILES IDX 69 76 85 77 62 78 51 79 52 80 56 81 53 82 55 83 54 84 73 85
REMARK SMILES IDX 74 86 78 87 75 88 77 89 76 90 63 91 64 92 68 93 65 94 67 95
REMARK SMILES IDX 66 96
REMARK H PARENT 4 24 83 64 61 75
REMARK Flexibility Score: inf
ROOT
ATOM      1  C   UNL A   1      29.502  30.219  22.007  1.00  0.00     0.188 C 
ENDROOT
BRANCH   1   2
ATOM      2  O   UNL A   1      28.500  29.245  21.754  1.00  0.00    -0.376 OA
BRANCH   2   3
ATOM      3  C   UNL A   1      27.639  28.872  22.809  1.00  0.00     0.202 C 
BRANCH   3   4
ATOM      4  C   UNL A   1      27.960  27.574  23.558  1.00  0.00     0.261 C 
BRANCH   4   5
ATOM      5  O   UNL A   1      29.307  27.106  23.440  1.00  0.00    -0.460 OA
BRANCH   5   6
ATOM      6  C   UNL A   1      29.779  26.290  24.395  1.00  0.00     0.338 C 
ATOM      7  O   UNL A   1      29.199  25.951  25.431  1.00  0.00    -0.246 OA
BRANCH   6   8
ATOM      8  C   UNL A   1      31.056  25.717  23.923  1.00  0.00     0.060 A 
ATOM      9  C   UNL A   1      33.492  24.596  23.218  1.00  0.00     0.067 A 
ATOM     10  C   UNL A   1      32.349  23.787  23.221  1.00  0.00     0.029 A 
ATOM     11  C   UNL A   1      33.398  25.979  23.414  1.00  0.00     0.029 A 
ATOM     12  C   UNL A   1      31.130  24.352  23.600  1.00  0.00     0.018 A 
ATOM     13  C   UNL A   1      32.179  26.540  23.770  1.00  0.00     0.018 A 
BRANCH   9  14
ATOM     14  N   UNL A   1      34.758  23.982  23.325  1.00  0.00    -0.217 N 
ATOM     15  C   UNL A   1      36.298  22.616  24.040  1.00  0.00     0.132 A 
ATOM     16  N   UNL A   1      36.454  22.777  22.692  1.00  0.00    -0.128 NA
ATOM     17  C   UNL A   1      35.244  23.398  24.483  1.00  0.00     0.071 A 
ATOM     18  N   UNL A   1      35.464  23.553  22.256  1.00  0.00    -0.061 NA
ATOM     19  C   UNL A   1      34.562  23.428  25.807  1.00  0.00     0.069 C 
BRANCH  15  20
ATOM     20  C   UNL A   1      36.950  21.591  24.840  1.00  0.00     0.087 C 
ATOM     21  C   UNL A   1      36.040  20.455  25.249  1.00  0.00     0.071 C 
ATOM     22  N   UNL A   1      38.184  21.827  25.187  1.00  0.00    -0.176 NA
BRANCH  22  23
ATOM     23  N   UNL A   1      38.877  21.055  26.092  1.00  0.00    -0.252 N 
ATOM     24  H   UNL A   1      38.399  20.250  26.397  1.00  0.00     0.193 HD
BRANCH  23  25
ATOM     25  C   UNL A   1      40.110  21.220  26.635  1.00  0.00     0.203 A 
ATOM     26  N   UNL A   1      40.458  22.152  27.488  1.00  0.00    -0.219 NA
ATOM     27  S   UNL A   1      41.427  20.221  26.124  1.00  0.00    -0.103 S 
ATOM     28  C   UNL A   1      41.827  22.306  27.505  1.00  0.00     0.084 A 
ATOM     29  C   UNL A   1      42.533  21.347  26.813  1.00  0.00     0.097 A 
BRANCH  28  30
ATOM     30  C   UNL A   1      42.400  23.482  28.131  1.00  0.00     0.001 A 
ATOM     31  C   UNL A   1      43.626  23.374  28.799  1.00  0.00     0.012 A 
ATOM     32  C   UNL A   1      41.677  24.680  28.204  1.00  0.00     0.012 A 
ATOM     33  C   UNL A   1      44.135  24.458  29.517  1.00  0.00     0.021 A 
ATOM     34  C   UNL A   1      42.181  25.761  28.933  1.00  0.00     0.021 A 
ATOM     35  C   UNL A   1      43.410  25.645  29.584  1.00  0.00     0.041 A 
ATOM     36  Cl  UNL A   1      44.021  26.970  30.495  1.00  0.00    -0.084 Cl
ENDBRANCH  28  30
ENDBRANCH  23  25
ENDBRANCH  22  23
ENDBRANCH  15  20
ENDBRANCH   9  14
ENDBRANCH   6   8
ENDBRANCH   5   6
ENDBRANCH   4   5
ENDBRANCH   3   4
ENDBRANCH   2   3
ENDBRANCH   1   2
BRANCH   1  37
ATOM     37  C   UNL A   1      29.157  31.141  23.195  1.00  0.00     0.188 C 
BRANCH  37  38
ATOM     38  O   UNL A   1      29.817  30.921  24.433  1.00  0.00    -0.377 OA
BRANCH  38  39
ATOM     39  C   UNL A   1      30.887  29.982  24.514  1.00  0.00     0.188 C 
BRANCH  39  40
ATOM     40  C   UNL A   1      31.655  29.664  25.826  1.00  0.00     0.188 C 
BRANCH  40  41
ATOM     41  O   UNL A   1      32.977  30.172  25.911  1.00  0.00    -0.376 OA
BRANCH  41  42
ATOM     42  C   UNL A   1      33.425  30.775  27.107  1.00  0.00     0.202 C 
BRANCH  42  43
ATOM     43  C   UNL A   1      34.689  30.173  27.703  1.00  0.00     0.261 C 
BRANCH  43  44
ATOM     44  O   UNL A   1      35.687  31.129  28.026  1.00  0.00    -0.460 OA
BRANCH  44  45
ATOM     45  C   UNL A   1      35.811  31.391  29.331  1.00  0.00     0.338 C 
ATOM     46  O   UNL A   1      35.032  32.031  30.047  1.00  0.00    -0.246 OA
BRANCH  45  47
ATOM     47  C   UNL A   1      37.129  30.962  29.771  1.00  0.00     0.060 A 
ATOM     48  C   UNL A   1      38.129  31.931  29.783  1.00  0.00     0.016 A 
ATOM     49  C   UNL A   1      37.411  29.586  29.842  1.00  0.00     0.016 A 
ATOM     50  C   UNL A   1      39.430  31.508  29.660  1.00  0.00     0.010 A 
ATOM     51  C   UNL A   1      38.712  29.166  29.706  1.00  0.00     0.010 A 
ATOM     52  C   UNL A   1      39.693  30.134  29.539  1.00  0.00    -0.014 A 
BRANCH  52  53
ATOM     53  C   UNL A   1      41.068  29.756  29.329  1.00  0.00     0.031 A 
ATOM     54  C   UNL A   1      41.897  29.923  30.531  1.00  0.00     0.074 A 
ATOM     55  C   UNL A   1      41.563  29.305  28.165  1.00  0.00     0.049 A 
ATOM     56  N   UNL A   1      42.729  30.879  30.760  1.00  0.00    -0.248 NA
ATOM     57  C   UNL A   1      41.649  29.029  31.668  1.00  0.00     0.031 C 
ATOM     58  C   UNL A   1      40.839  28.846  26.981  1.00  0.00     0.029 A 
ATOM     59  N   UNL A   1      42.867  29.093  27.845  1.00  0.00    -0.354 N 
ATOM     60  C   UNL A   1      43.279  30.594  31.998  1.00  0.00     0.074 A 
ATOM     61  C   UNL A   1      42.460  29.561  32.583  1.00  0.00     0.031 C 
ATOM     62  C   UNL A   1      41.706  28.212  26.157  1.00  0.00     0.029 A 
ATOM     63  C   UNL A   1      43.052  28.352  26.691  1.00  0.00     0.049 A 
ATOM     64  H   UNL A   1      43.614  29.436  28.387  1.00  0.00     0.167 HD
ATOM     65  C   UNL A   1      44.532  31.021  32.308  1.00  0.00     0.031 A 
ATOM     66  C   UNL A   1      44.230  27.853  26.250  1.00  0.00     0.031 A 
ATOM     67  C   UNL A   1      44.977  32.076  31.431  1.00  0.00     0.049 A 
ATOM     68  C   UNL A   1      45.319  28.643  26.866  1.00  0.00     0.074 A 
ATOM     69  C   UNL A   1      44.522  33.337  31.099  1.00  0.00     0.029 A 
ATOM     70  N   UNL A   1      45.874  31.725  30.452  1.00  0.00    -0.354 N 
ATOM     71  N   UNL A   1      45.583  29.877  26.546  1.00  0.00    -0.248 NA
ATOM     72  C   UNL A   1      45.912  28.187  28.114  1.00  0.00     0.031 C 
ATOM     73  C   UNL A   1      44.852  33.507  29.721  1.00  0.00     0.029 A 
ATOM     74  C   UNL A   1      45.523  32.362  29.292  1.00  0.00     0.049 A 
ATOM     75  H   UNL A   1      46.640  31.117  30.566  1.00  0.00     0.167 HD
ATOM     76  C   UNL A   1      45.973  30.472  27.736  1.00  0.00     0.074 A 
ATOM     77  C   UNL A   1      46.304  29.360  28.619  1.00  0.00     0.031 C 
ATOM     78  C   UNL A   1      45.712  31.793  27.974  1.00  0.00     0.031 A 
BRANCH  65  79
ATOM     79  C   UNL A   1      45.504  30.146  33.059  1.00  0.00    -0.014 A 
ATOM     80  C   UNL A   1      45.887  30.532  34.354  1.00  0.00     0.009 A 
ATOM     81  C   UNL A   1      46.285  29.152  32.436  1.00  0.00     0.009 A 
ATOM     82  C   UNL A   1      47.041  30.014  34.952  1.00  0.00     0.001 A 
ATOM     83  C   UNL A   1      47.410  28.599  33.048  1.00  0.00     0.001 A 
ATOM     84  C   UNL A   1      47.806  29.055  34.294  1.00  0.00     0.000 A 
ENDBRANCH  65  79
BRANCH  66  85
ATOM     85  C   UNL A   1      44.492  26.601  25.513  1.00  0.00    -0.014 A 
ATOM     86  C   UNL A   1      45.810  26.190  25.261  1.00  0.00     0.009 A 
ATOM     87  C   UNL A   1      43.461  25.666  25.309  1.00  0.00     0.009 A 
ATOM     88  C   UNL A   1      46.092  24.875  24.876  1.00  0.00     0.001 A 
ATOM     89  C   UNL A   1      43.742  24.355  24.915  1.00  0.00     0.001 A 
ATOM     90  C   UNL A   1      45.059  23.953  24.719  1.00  0.00     0.000 A 
ENDBRANCH  66  85
BRANCH  78  91
ATOM     91  C   UNL A   1      45.337  32.656  26.795  1.00  0.00    -0.014 A 
ATOM     92  C   UNL A   1      44.085  32.596  26.157  1.00  0.00     0.009 A 
ATOM     93  C   UNL A   1      46.248  33.638  26.376  1.00  0.00     0.009 A 
ATOM     94  C   UNL A   1      43.778  33.458  25.099  1.00  0.00     0.001 A 
ATOM     95  C   UNL A   1      45.931  34.516  25.337  1.00  0.00     0.001 A 
ATOM     96  C   UNL A   1      44.701  34.419  24.692  1.00  0.00     0.000 A 
ENDBRANCH  78  91
ENDBRANCH  52  53
ENDBRANCH  45  47
ENDBRANCH  44  45
ENDBRANCH  43  44
ENDBRANCH  42  43
ENDBRANCH  41  42
ENDBRANCH  40  41
ENDBRANCH  39  40
ENDBRANCH  38  39
ENDBRANCH  37  38
ENDBRANCH   1  37
TORSDOF 25
ENDMDL
MODEL 2
REMARK VINA RESULT:      -8.6      3.429      5.568
REMARK SMILES C/C(=N\Nc1nc(-c2ccc(Cl)cc2)cs1)c1nnn(-c2ccc(C(=O)OCCOCCOCCOCCOC(=O)c3ccc(-c4c5nc(c(-c6ccccc6)c6ccc([nH]6)c(-c6ccccc6)c6nc(c(-c7ccccc7)c7ccc4[nH]7)C=C6)C=C5)cc3)cc2)c1C
REMARK SMILES IDX 31 1 30 2 29 3 28 4 27 5 25 6 26 7 24 8 21 9 22 10 91 11
REMARK SMILES IDX 23 12 90 13 20 14 17 15 18 16 92 17 19 18 93 19 2 20 1 21
REMARK SMILES IDX 3 22 4 23 5 25 6 26 16 27 7 28 15 29 8 30 9 31 14 32 10 33
REMARK SMILES IDX 13 34 11 35 12 36 32 37 33 38 34 39 35 40 36 41 37 42 38 43
REMARK SMILES IDX 39 44 40 45 41 46 42 47 43 48 89 49 44 50 88 51 45 52 46 53
REMARK SMILES IDX 47 54 82 55 48 56 87 57 81 58 83 59 49 60 86 61 80 62 79 63
REMARK SMILES IDX 50 65 72 66 57 67 71 68 58 69 61 70 70 71 84 72 59 73 60 74
REMARK SMILES IDX 69 76 85 77 62 78 51 79 52 80 56 81 53 82 55 83 54 84 73 85
REMARK SMILES IDX 74 86 78 87 75 88 77 89 76 90 63 91 64 92 68 93 65 94 67 95
REMARK SMILES IDX 66 96
REMARK H PARENT 4 24 83 64 61 75
REMARK Flexibility Score: inf
ROOT
ATOM      1  C   UNL A   1      28.780  31.438  21.481  1.00  0.00     0.188 C 
ENDROOT
BRANCH   1   2
ATOM      2  O   UNL A   1      28.055  30.217  21.483  1.00  0.00    -0.376 OA
BRANCH   2   3
ATOM      3  C   UNL A   1      27.361  29.846  22.655  1.00  0.00     0.202 C 
BRANCH   3   4
ATOM      4  C   UNL A   1      27.435  28.376  23.085  1.00  0.00     0.261 C 
BRANCH   4   5
ATOM      5  O   UNL A   1      28.754  27.846  23.256  1.00  0.00    -0.460 OA
BRANCH   5   6
ATOM      6  C   UNL A   1      28.886  26.680  23.906  1.00  0.00     0.338 C 
ATOM      7  O   UNL A   1      28.035  26.122  24.606  1.00  0.00    -0.246 OA
BRANCH   6   8
ATOM      8  C   UNL A   1      30.173  26.073  23.509  1.00  0.00     0.060 A 
ATOM      9  C   UNL A   1      32.639  24.938  22.946  1.00  0.00     0.067 A 
ATOM     10  C   UNL A   1      31.553  24.098  23.220  1.00  0.00     0.029 A 
ATOM     11  C   UNL A   1      32.465  26.320  22.804  1.00  0.00     0.029 A 
ATOM     12  C   UNL A   1      30.320  24.677  23.526  1.00  0.00     0.018 A 
ATOM     13  C   UNL A   1      31.231  26.888  23.088  1.00  0.00     0.018 A 
BRANCH   9  14
ATOM     14  N   UNL A   1      33.946  24.435  23.120  1.00  0.00    -0.217 N 
ATOM     15  C   UNL A   1      35.679  23.591  24.137  1.00  0.00     0.132 A 
ATOM     16  N   UNL A   1      35.595  23.037  22.891  1.00  0.00    -0.128 NA
ATOM     17  C   UNL A   1      34.659  24.514  24.304  1.00  0.00     0.071 A 
ATOM     18  N   UNL A   1      34.494  23.504  22.309  1.00  0.00    -0.061 NA
ATOM     19  C   UNL A   1      34.207  25.233  25.528  1.00  0.00     0.069 C 
BRANCH  15  20
ATOM     20  C   UNL A   1      36.527  23.104  25.213  1.00  0.00     0.087 C 
ATOM     21  C   UNL A   1      35.969  21.904  25.945  1.00  0.00     0.071 C 
ATOM     22  N   UNL A   1      37.589  23.811  25.477  1.00  0.00    -0.176 NA
BRANCH  22  23
ATOM     23  N   UNL A   1      38.389  23.595  26.577  1.00  0.00    -0.252 N 
ATOM     24  H   UNL A   1      38.025  23.940  27.424  1.00  0.00     0.193 HD
BRANCH  23  25
ATOM     25  C   UNL A   1      39.597  22.987  26.686  1.00  0.00     0.203 A 
ATOM     26  N   UNL A   1      40.742  23.582  26.920  1.00  0.00    -0.219 NA
ATOM     27  S   UNL A   1      39.746  21.288  26.392  1.00  0.00    -0.103 S 
ATOM     28  C   UNL A   1      41.792  22.772  26.549  1.00  0.00     0.084 A 
ATOM     29  C   UNL A   1      41.449  21.479  26.223  1.00  0.00     0.097 A 
BRANCH  28  30
ATOM     30  C   UNL A   1      43.119  23.345  26.426  1.00  0.00     0.001 A 
ATOM     31  C   UNL A   1      43.458  24.048  25.263  1.00  0.00     0.012 A 
ATOM     32  C   UNL A   1      44.107  23.079  27.385  1.00  0.00     0.012 A 
ATOM     33  C   UNL A   1      44.764  24.498  25.066  1.00  0.00     0.021 A 
ATOM     34  C   UNL A   1      45.418  23.520  27.182  1.00  0.00     0.021 A 
ATOM     35  C   UNL A   1      45.739  24.229  26.024  1.00  0.00     0.041 A 
ATOM     36  Cl  UNL A   1      47.357  24.756  25.768  1.00  0.00    -0.084 Cl
ENDBRANCH  28  30
ENDBRANCH  23  25
ENDBRANCH  22  23
ENDBRANCH  15  20
ENDBRANCH   9  14
ENDBRANCH   6   8
ENDBRANCH   5   6
ENDBRANCH   4   5
ENDBRANCH   3   4
ENDBRANCH   2   3
ENDBRANCH   1   2
BRANCH   1  37
ATOM     37  C   UNL A   1      28.357  32.390  22.619  1.00  0.00     0.188 C 
BRANCH  37  38
ATOM     38  O   UNL A   1      28.751  32.073  23.945  1.00  0.00    -0.377 OA
BRANCH  38  39
ATOM     39  C   UNL A   1      30.056  31.552  24.197  1.00  0.00     0.188 C 
BRANCH  39  40
ATOM     40  C   UNL A   1      30.679  31.443  25.615  1.00  0.00     0.188 C 
BRANCH  40  41
ATOM     41  O   UNL A   1      31.523  30.324  25.838  1.00  0.00    -0.376 OA
BRANCH  41  42
ATOM     42  C   UNL A   1      32.386  30.304  26.956  1.00  0.00     0.202 C 
BRANCH  42  43
ATOM     43  C   UNL A   1      33.363  31.468  27.042  1.00  0.00     0.261 C 
BRANCH  43  44
ATOM     44  O   UNL A   1      34.369  31.306  28.031  1.00  0.00    -0.460 OA
BRANCH  44  45
ATOM     45  C   UNL A   1      35.277  32.286  28.072  1.00  0.00     0.338 C 
ATOM     46  O   UNL A   1      35.241  33.370  27.479  1.00  0.00    -0.246 OA
BRANCH  45  47
ATOM     47  C   UNL A   1      36.448  31.807  28.790  1.00  0.00     0.060 A 
ATOM     48  C   UNL A   1      36.320  30.588  29.451  1.00  0.00     0.016 A 
ATOM     49  C   UNL A   1      37.499  32.703  29.055  1.00  0.00     0.016 A 
ATOM     50  C   UNL A   1      37.139  30.359  30.530  1.00  0.00     0.010 A 
ATOM     51  C   UNL A   1      38.307  32.477  30.142  1.00  0.00     0.010 A 
ATOM     52  C   UNL A   1      38.063  31.344  30.909  1.00  0.00    -0.014 A 
BRANCH  52  53
ATOM     53  C   UNL A   1      38.835  31.084  32.097  1.00  0.00     0.031 A 
ATOM     54  C   UNL A   1      38.468  31.957  33.221  1.00  0.00     0.074 A 
ATOM     55  C   UNL A   1      39.799  30.153  32.189  1.00  0.00     0.049 A 
ATOM     56  N   UNL A   1      39.123  32.984  33.637  1.00  0.00    -0.248 NA
ATOM     57  C   UNL A   1      37.148  31.772  33.835  1.00  0.00     0.031 C 
ATOM     58  C   UNL A   1      40.100  29.056  31.271  1.00  0.00     0.029 A 
ATOM     59  N   UNL A   1      40.677  29.966  33.210  1.00  0.00    -0.354 N 
ATOM     60  C   UNL A   1      38.402  33.462  34.718  1.00  0.00     0.074 A 
ATOM     61  C   UNL A   1      37.122  32.799  34.683  1.00  0.00     0.031 C 
ATOM     62  C   UNL A   1      40.948  28.195  31.881  1.00  0.00     0.029 A 
ATOM     63  C   UNL A   1      41.351  28.759  33.161  1.00  0.00     0.049 A 
ATOM     64  H   UNL A   1      40.819  30.632  33.922  1.00  0.00     0.167 HD
ATOM     65  C   UNL A   1      39.028  34.138  35.718  1.00  0.00     0.031 A 
ATOM     66  C   UNL A   1      42.139  28.251  34.137  1.00  0.00     0.031 A 
ATOM     67  C   UNL A   1      40.327  34.620  35.314  1.00  0.00     0.049 A 
ATOM     68  C   UNL A   1      42.587  29.374  34.991  1.00  0.00     0.074 A 
ATOM     69  C   UNL A   1      40.802  35.452  34.320  1.00  0.00     0.029 A 
ATOM     70  N   UNL A   1      41.414  33.920  35.777  1.00  0.00    -0.354 N 
ATOM     71  N   UNL A   1      43.440  30.277  34.604  1.00  0.00    -0.248 NA
ATOM     72  C   UNL A   1      41.817  29.718  36.177  1.00  0.00     0.031 C 
ATOM     73  C   UNL A   1      42.070  34.912  33.949  1.00  0.00     0.029 A 
ATOM     74  C   UNL A   1      42.322  33.804  34.758  1.00  0.00     0.049 A 
ATOM     75  H   UNL A   1      41.522  33.562  36.688  1.00  0.00     0.167 HD
ATOM     76  C   UNL A   1      43.003  31.451  35.197  1.00  0.00     0.074 A 
ATOM     77  C   UNL A   1      42.108  31.018  36.265  1.00  0.00     0.031 C 
ATOM     78  C   UNL A   1      43.185  32.655  34.578  1.00  0.00     0.031 A 
BRANCH  65  79
ATOM     79  C   UNL A   1      38.677  33.914  37.168  1.00  0.00    -0.014 A 
ATOM     80  C   UNL A   1      39.041  34.897  38.103  1.00  0.00     0.009 A 
ATOM     81  C   UNL A   1      38.296  32.659  37.682  1.00  0.00     0.009 A 
ATOM     82  C   UNL A   1      39.105  34.608  39.469  1.00  0.00     0.001 A 
ATOM     83  C   UNL A   1      38.315  32.380  39.049  1.00  0.00     0.001 A 
ATOM     84  C   UNL A   1      38.751  33.347  39.941  1.00  0.00     0.000 A 
ENDBRANCH  65  79
BRANCH  66  85
ATOM     85  C   UNL A   1      42.352  26.842  34.521  1.00  0.00    -0.014 A 
ATOM     86  C   UNL A   1      43.614  26.247  34.361  1.00  0.00     0.009 A 
ATOM     87  C   UNL A   1      41.402  26.167  35.309  1.00  0.00     0.009 A 
ATOM     88  C   UNL A   1      43.932  25.051  35.014  1.00  0.00     0.001 A 
ATOM     89  C   UNL A   1      41.717  24.967  35.953  1.00  0.00     0.001 A 
ATOM     90  C   UNL A   1      42.989  24.420  35.822  1.00  0.00     0.000 A 
ENDBRANCH  66  85
BRANCH  78  91
ATOM     91  C   UNL A   1      44.180  32.718  33.446  1.00  0.00    -0.014 A 
ATOM     92  C   UNL A   1      45.565  32.860  33.638  1.00  0.00     0.009 A 
ATOM     93  C   UNL A   1      43.708  32.525  32.138  1.00  0.00     0.009 A 
ATOM     94  C   UNL A   1      46.444  32.861  32.549  1.00  0.00     0.001 A 
ATOM     95  C   UNL A   1      44.587  32.500  31.053  1.00  0.00     0.001 A 
ATOM     96  C   UNL A   1      45.953  32.679  31.258  1.00  0.00     0.000 A 
ENDBRANCH  78  91
ENDBRANCH  52  53
ENDBRANCH  45  47
ENDBRANCH  44  45
ENDBRANCH  43  44
ENDBRANCH  42  43
ENDBRANCH  41  42
ENDBRANCH  40  41
ENDBRANCH  39  40
ENDBRANCH  38  39
ENDBRANCH  37  38
ENDBRANCH   1  37
TORSDOF 25
ENDMDL
MODEL 3
REMARK VINA RESULT:      -8.6      2.207      4.531
REMARK SMILES C/C(=N\Nc1nc(-c2ccc(Cl)cc2)cs1)c1nnn(-c2ccc(C(=O)OCCOCCOCCOCCOC(=O)c3ccc(-c4c5nc(c(-c6ccccc6)c6ccc([nH]6)c(-c6ccccc6)c6nc(c(-c7ccccc7)c7ccc4[nH]7)C=C6)C=C5)cc3)cc2)c1C
REMARK SMILES IDX 31 1 30 2 29 3 28 4 27 5 25 6 26 7 24 8 21 9 22 10 91 11
REMARK SMILES IDX 23 12 90 13 20 14 17 15 18 16 92 17 19 18 93 19 2 20 1 21
REMARK SMILES IDX 3 22 4 23 5 25 6 26 16 27 7 28 15 29 8 30 9 31 14 32 10 33
REMARK SMILES IDX 13 34 11 35 12 36 32 37 33 38 34 39 35 40 36 41 37 42 38 43
REMARK SMILES IDX 39 44 40 45 41 46 42 47 43 48 89 49 44 50 88 51 45 52 46 53
REMARK SMILES IDX 47 54 82 55 48 56 87 57 81 58 83 59 49 60 86 61 80 62 79 63
REMARK SMILES IDX 50 65 72 66 57 67 71 68 58 69 61 70 70 71 84 72 59 73 60 74
REMARK SMILES IDX 69 76 85 77 62 78 51 79 52 80 56 81 53 82 55 83 54 84 73 85
REMARK SMILES IDX 74 86 78 87 75 88 77 89 76 90 63 91 64 92 68 93 65 94 67 95
REMARK SMILES IDX 66 96
REMARK H PARENT 4 24 83 64 61 75
REMARK Flexibility Score: inf
ROOT
ATOM      1  C   UNL A   1      29.504  30.295  22.089  1.00  0.00     0.188 C 
ENDROOT
BRANCH   1   2
ATOM      2  O   UNL A   1      28.755  29.125  21.799  1.00  0.00    -0.376 OA
BRANCH   2   3
ATOM      3  C   UNL A   1      27.724  28.746  22.686  1.00  0.00     0.202 C 
BRANCH   3   4
ATOM      4  C   UNL A   1      27.995  27.560  23.620  1.00  0.00     0.261 C 
BRANCH   4   5
ATOM      5  O   UNL A   1      29.262  26.916  23.451  1.00  0.00    -0.460 OA
BRANCH   5   6
ATOM      6  C   UNL A   1      29.701  26.118  24.436  1.00  0.00     0.338 C 
ATOM      7  O   UNL A   1      29.106  25.837  25.482  1.00  0.00    -0.246 OA
BRANCH   6   8
ATOM      8  C   UNL A   1      30.957  25.481  23.990  1.00  0.00     0.060 A 
ATOM      9  C   UNL A   1      33.387  24.322  23.326  1.00  0.00     0.067 A 
ATOM     10  C   UNL A   1      32.375  23.516  23.861  1.00  0.00     0.029 A 
ATOM     11  C   UNL A   1      33.140  25.657  22.984  1.00  0.00     0.029 A 
ATOM     12  C   UNL A   1      31.162  24.110  24.216  1.00  0.00     0.018 A 
ATOM     13  C   UNL A   1      31.925  26.238  23.319  1.00  0.00     0.018 A 
BRANCH   9  14
ATOM     14  N   UNL A   1      34.725  23.884  23.420  1.00  0.00    -0.217 N 
ATOM     15  C   UNL A   1      36.472  22.850  24.212  1.00  0.00     0.132 A 
ATOM     16  N   UNL A   1      36.510  22.783  22.849  1.00  0.00    -0.128 NA
ATOM     17  C   UNL A   1      35.361  23.575  24.611  1.00  0.00     0.071 A 
ATOM     18  N   UNL A   1      35.403  23.351  22.379  1.00  0.00    -0.061 NA
ATOM     19  C   UNL A   1      34.776  23.767  25.967  1.00  0.00     0.069 C 
BRANCH  15  20
ATOM     20  C   UNL A   1      37.303  22.065  25.112  1.00  0.00     0.087 C 
ATOM     21  C   UNL A   1      36.867  20.625  25.257  1.00  0.00     0.071 C 
ATOM     22  N   UNL A   1      38.236  22.714  25.750  1.00  0.00    -0.176 NA
BRANCH  22  23
ATOM     23  N   UNL A   1      38.980  22.163  26.769  1.00  0.00    -0.252 N 
ATOM     24  H   UNL A   1      38.460  21.902  27.562  1.00  0.00     0.193 HD
BRANCH  23  25
ATOM     25  C   UNL A   1      40.313  21.921  26.861  1.00  0.00     0.203 A 
ATOM     26  N   UNL A   1      41.255  22.826  26.969  1.00  0.00    -0.219 NA
ATOM     27  S   UNL A   1      40.916  20.306  26.717  1.00  0.00    -0.103 S 
ATOM     28  C   UNL A   1      42.476  22.298  26.611  1.00  0.00     0.084 A 
ATOM     29  C   UNL A   1      42.493  20.933  26.428  1.00  0.00     0.097 A 
BRANCH  28  30
ATOM     30  C   UNL A   1      43.588  23.194  26.355  1.00  0.00     0.001 A 
ATOM     31  C   UNL A   1      43.467  24.167  25.355  1.00  0.00     0.012 A 
ATOM     32  C   UNL A   1      44.824  23.002  26.988  1.00  0.00     0.012 A 
ATOM     33  C   UNL A   1      44.565  24.955  25.004  1.00  0.00     0.021 A 
ATOM     34  C   UNL A   1      45.925  23.784  26.627  1.00  0.00     0.021 A 
ATOM     35  C   UNL A   1      45.789  24.758  25.639  1.00  0.00     0.041 A 
ATOM     36  Cl  UNL A   1      47.150  25.707  25.184  1.00  0.00    -0.084 Cl
ENDBRANCH  28  30
ENDBRANCH  23  25
ENDBRANCH  22  23
ENDBRANCH  15  20
ENDBRANCH   9  14
ENDBRANCH   6   8
ENDBRANCH   5   6
ENDBRANCH   4   5
ENDBRANCH   3   4
ENDBRANCH   2   3
ENDBRANCH   1   2
BRANCH   1  37
ATOM     37  C   UNL A   1      29.180  30.888  23.477  1.00  0.00     0.188 C 
BRANCH  37  38
ATOM     38  O   UNL A   1      30.147  30.759  24.508  1.00  0.00    -0.377 OA
BRANCH  38  39
ATOM     39  C   UNL A   1      31.029  29.637  24.523  1.00  0.00     0.188 C 
BRANCH  39  40
ATOM     40  C   UNL A   1      31.892  29.238  25.751  1.00  0.00     0.188 C 
BRANCH  40  41
ATOM     41  O   UNL A   1      32.953  30.123  26.078  1.00  0.00    -0.376 OA
BRANCH  41  42
ATOM     42  C   UNL A   1      32.746  31.151  27.024  1.00  0.00     0.202 C 
BRANCH  42  43
ATOM     43  C   UNL A   1      33.931  31.442  27.934  1.00  0.00     0.261 C 
BRANCH  43  44
ATOM     44  O   UNL A   1      34.041  32.804  28.321  1.00  0.00    -0.460 OA
BRANCH  44  45
ATOM     45  C   UNL A   1      34.484  32.998  29.567  1.00  0.00     0.338 C 
ATOM     46  O   UNL A   1      34.028  33.773  30.415  1.00  0.00    -0.246 OA
BRANCH  45  47
ATOM     47  C   UNL A   1      35.739  32.281  29.733  1.00  0.00     0.060 A 
ATOM     48  C   UNL A   1      35.803  31.367  30.782  1.00  0.00     0.016 A 
ATOM     49  C   UNL A   1      36.888  32.756  29.075  1.00  0.00     0.016 A 
ATOM     50  C   UNL A   1      37.040  31.084  31.307  1.00  0.00     0.010 A 
ATOM     51  C   UNL A   1      38.123  32.481  29.610  1.00  0.00     0.010 A 
ATOM     52  C   UNL A   1      38.172  31.711  30.766  1.00  0.00    -0.014 A 
BRANCH  52  53
ATOM     53  C   UNL A   1      39.432  31.439  31.411  1.00  0.00     0.031 A 
ATOM     54  C   UNL A   1      40.191  32.660  31.720  1.00  0.00     0.074 A 
ATOM     55  C   UNL A   1      39.888  30.211  31.702  1.00  0.00     0.049 A 
ATOM     56  N   UNL A   1      41.205  33.115  31.069  1.00  0.00    -0.248 NA
ATOM     57  C   UNL A   1      39.662  33.556  32.754  1.00  0.00     0.031 C 
ATOM     58  C   UNL A   1      39.162  28.942  31.698  1.00  0.00     0.029 A 
ATOM     59  N   UNL A   1      41.126  29.870  32.149  1.00  0.00    -0.354 N 
ATOM     60  C   UNL A   1      41.585  34.262  31.745  1.00  0.00     0.074 A 
ATOM     61  C   UNL A   1      40.508  34.581  32.651  1.00  0.00     0.031 C 
ATOM     62  C   UNL A   1      39.913  28.007  32.327  1.00  0.00     0.029 A 
ATOM     63  C   UNL A   1      41.214  28.578  32.639  1.00  0.00     0.049 A 
ATOM     64  H   UNL A   1      41.893  30.488  32.126  1.00  0.00     0.167 HD
ATOM     65  C   UNL A   1      42.877  34.681  31.716  1.00  0.00     0.031 A 
ATOM     66  C   UNL A   1      42.270  28.052  33.301  1.00  0.00     0.031 A 
ATOM     67  C   UNL A   1      43.617  34.078  30.634  1.00  0.00     0.049 A 
ATOM     68  C   UNL A   1      43.468  28.850  32.955  1.00  0.00     0.074 A 
ATOM     69  C   UNL A   1      43.494  34.039  29.259  1.00  0.00     0.029 A 
ATOM     70  N   UNL A   1      44.474  33.057  30.969  1.00  0.00    -0.354 N 
ATOM     71  N   UNL A   1      44.034  28.827  31.784  1.00  0.00    -0.248 NA
ATOM     72  C   UNL A   1      43.849  29.968  33.805  1.00  0.00     0.031 C 
ATOM     73  C   UNL A   1      43.951  32.742  28.875  1.00  0.00     0.029 A 
ATOM     74  C   UNL A   1      44.364  32.070  30.026  1.00  0.00     0.049 A 
ATOM     75  H   UNL A   1      45.067  33.040  31.754  1.00  0.00     0.167 HD
ATOM     76  C   UNL A   1      44.468  30.128  31.578  1.00  0.00     0.074 A 
ATOM     77  C   UNL A   1      44.467  30.735  32.904  1.00  0.00     0.031 C 
ATOM     78  C   UNL A   1      44.506  30.660  30.320  1.00  0.00     0.031 A 
BRANCH  65  79
ATOM     79  C   UNL A   1      43.563  35.224  32.944  1.00  0.00    -0.014 A 
ATOM     80  C   UNL A   1      43.840  34.340  34.001  1.00  0.00     0.009 A 
ATOM     81  C   UNL A   1      43.656  36.602  33.228  1.00  0.00     0.009 A 
ATOM     82  C   UNL A   1      44.106  34.814  35.290  1.00  0.00     0.001 A 
ATOM     83  C   UNL A   1      43.967  37.078  34.502  1.00  0.00     0.001 A 
ATOM     84  C   UNL A   1      44.161  36.182  35.541  1.00  0.00     0.000 A 
ENDBRANCH  65  79
BRANCH  66  85
ATOM     85  C   UNL A   1      42.284  27.050  34.385  1.00  0.00    -0.014 A 
ATOM     86  C   UNL A   1      43.254  26.036  34.400  1.00  0.00     0.009 A 
ATOM     87  C   UNL A   1      41.530  27.256  35.554  1.00  0.00     0.009 A 
ATOM     88  C   UNL A   1      43.501  25.294  35.561  1.00  0.00     0.001 A 
ATOM     89  C   UNL A   1      41.770  26.510  36.711  1.00  0.00     0.001 A 
ATOM     90  C   UNL A   1      42.770  25.542  36.720  1.00  0.00     0.000 A 
ENDBRANCH  66  85
BRANCH  78  91
ATOM     91  C   UNL A   1      44.427  29.707  29.153  1.00  0.00    -0.014 A 
ATOM     92  C   UNL A   1      45.483  28.860  28.771  1.00  0.00     0.009 A 
ATOM     93  C   UNL A   1      43.203  29.588  28.475  1.00  0.00     0.009 A 
ATOM     94  C   UNL A   1      45.332  27.961  27.710  1.00  0.00     0.001 A 
ATOM     95  C   UNL A   1      43.045  28.672  27.434  1.00  0.00     0.001 A 
ATOM     96  C   UNL A   1      44.112  27.867  27.044  1.00  0.00     0.000 A 
ENDBRANCH  78  91
ENDBRANCH  52  53
ENDBRANCH  45  47
ENDBRANCH  44  45
ENDBRANCH  43  44
ENDBRANCH  42  43
ENDBRANCH  41  42
ENDBRANCH  40  41
ENDBRANCH  39  40
ENDBRANCH  38  39
ENDBRANCH  37  38
ENDBRANCH   1  37
TORSDOF 25
ENDMDL
