MODEL 1
REMARK VINA RESULT:      -9.4      0.000      0.000
REMARK SMILES O=C(COc1ccc([N+](=O)[O-])cc1)Nc1ccc(C(=O)OCCOCCOCCOCCOC(=O)c2ccc(-c3c4nc(c(-c5ccccc5)c5ccc([nH]5)c(-c5ccccc5)c5nc(c(-c6ccccc6)c6ccc3[nH]6)C=C5)C=C4)cc2)c(O)c1
REMARK SMILES IDX 25 1 24 2 23 3 22 4 21 5 19 6 20 7 18 8 15 9 16 10 86 11
REMARK SMILES IDX 17 12 84 13 14 14 1 15 2 16 3 18 4 19 5 20 6 21 13 22 7 23
REMARK SMILES IDX 12 24 8 25 9 26 10 27 11 28 85 29 26 31 27 32 28 33 29 34
REMARK SMILES IDX 30 35 31 36 32 37 33 38 34 39 35 40 36 41 37 42 83 43 38 44
REMARK SMILES IDX 82 45 39 46 40 47 41 48 76 49 42 50 81 51 75 52 77 53 43 54
REMARK SMILES IDX 80 55 74 56 73 57 44 59 66 60 51 61 65 62 52 63 55 64 64 65
REMARK SMILES IDX 78 66 53 67 54 68 63 70 79 71 56 72 45 73 46 74 50 75 47 76
REMARK SMILES IDX 49 77 48 78 67 79 68 80 72 81 69 82 71 83 70 84 57 85 58 86
REMARK SMILES IDX 62 87 59 88 61 89 60 90
REMARK H PARENT 14 17 85 30 77 58 55 69
REMARK Flexibility Score: inf
ROOT
ATOM      1  C   UNL A   1      29.793  31.082  24.895  1.00  0.00     0.188 C 
ENDROOT
BRANCH   1   2
ATOM      2  O   UNL A   1      29.245  31.932  23.904  1.00  0.00    -0.376 OA
BRANCH   2   3
ATOM      3  C   UNL A   1      27.906  31.756  23.492  1.00  0.00     0.202 C 
BRANCH   3   4
ATOM      4  C   UNL A   1      27.648  31.194  22.090  1.00  0.00     0.261 C 
BRANCH   4   5
ATOM      5  O   UNL A   1      28.036  29.832  21.907  1.00  0.00    -0.460 OA
BRANCH   5   6
ATOM      6  C   UNL A   1      27.651  28.956  22.858  1.00  0.00     0.341 C 
ATOM      7  O   UNL A   1      26.526  28.834  23.316  1.00  0.00    -0.246 OA
BRANCH   6   8
ATOM      8  C   UNL A   1      28.748  27.996  23.114  1.00  0.00     0.101 A 
ATOM      9  C   UNL A   1      30.880  26.200  23.374  1.00  0.00     0.045 A 
ATOM     10  C   UNL A   1      31.111  27.488  22.879  1.00  0.00     0.027 A 
ATOM     11  C   UNL A   1      29.618  25.871  23.872  1.00  0.00     0.073 A 
ATOM     12  C   UNL A   1      30.041  28.372  22.720  1.00  0.00     0.022 A 
ATOM     13  C   UNL A   1      28.556  26.766  23.747  1.00  0.00     0.132 A 
BRANCH   9  14
ATOM     14  N   UNL A   1      31.907  25.251  23.193  1.00  0.00    -0.323 N 
ATOM     15  O   UNL A   1      32.793  25.170  25.355  1.00  0.00    -0.271 OA
ATOM     16  C   UNL A   1      32.663  24.707  24.224  1.00  0.00     0.262 C 
ATOM     17  H   UNL A   1      32.102  24.955  22.274  1.00  0.00     0.170 HD
BRANCH  16  18
ATOM     18  C   UNL A   1      33.305  23.368  23.850  1.00  0.00     0.329 C 
BRANCH  18  19
ATOM     19  O   UNL A   1      33.872  22.630  24.932  1.00  0.00    -0.484 OA
BRANCH  19  20
ATOM     20  C   UNL A   1      33.771  21.268  24.813  1.00  0.00     0.120 A 
ATOM     21  C   UNL A   1      34.923  20.518  25.064  1.00  0.00     0.053 A 
ATOM     22  C   UNL A   1      32.635  20.642  24.297  1.00  0.00     0.053 A 
ATOM     23  C   UNL A   1      34.945  19.145  24.792  1.00  0.00     0.089 A 
ATOM     24  C   UNL A   1      32.650  19.275  24.005  1.00  0.00     0.089 A 
ATOM     25  C   UNL A   1      33.809  18.531  24.243  1.00  0.00     0.269 A 
BRANCH  25  26
ATOM     26  N   UNL A   1      33.847  17.110  23.874  1.00  0.00     0.062 N 
ATOM     27  O   UNL A   1      33.346  16.783  22.790  1.00  0.00    -0.258 OA
ATOM     28  O   UNL A   1      34.367  16.321  24.675  1.00  0.00    -0.258 OA
ENDBRANCH  25  26
ENDBRANCH  19  20
ENDBRANCH  18  19
ENDBRANCH  16  18
ENDBRANCH   9  14
BRANCH  13  29
ATOM     29  O   UNL A   1      27.325  26.398  24.209  1.00  0.00    -0.507 OA
ATOM     30  H   UNL A   1      26.694  26.030  23.622  1.00  0.00     0.293 HD
ENDBRANCH  13  29
ENDBRANCH   6   8
ENDBRANCH   5   6
ENDBRANCH   4   5
ENDBRANCH   3   4
ENDBRANCH   2   3
ENDBRANCH   1   2
BRANCH   1  31
ATOM     31  C   UNL A   1      30.997  31.673  25.676  1.00  0.00     0.188 C 
BRANCH  31  32
ATOM     32  O   UNL A   1      31.798  30.896  26.563  1.00  0.00    -0.377 OA
BRANCH  32  33
ATOM     33  C   UNL A   1      31.780  29.479  26.477  1.00  0.00     0.188 C 
BRANCH  33  34
ATOM     34  C   UNL A   1      32.925  28.773  25.717  1.00  0.00     0.188 C 
BRANCH  34  35
ATOM     35  O   UNL A   1      34.210  29.288  26.022  1.00  0.00    -0.376 OA
BRANCH  35  36
ATOM     36  C   UNL A   1      34.681  29.148  27.351  1.00  0.00     0.202 C 
BRANCH  36  37
ATOM     37  C   UNL A   1      35.121  30.405  28.117  1.00  0.00     0.261 C 
BRANCH  37  38
ATOM     38  O   UNL A   1      36.516  30.520  28.432  1.00  0.00    -0.460 OA
BRANCH  38  39
ATOM     39  C   UNL A   1      36.998  29.757  29.440  1.00  0.00     0.338 C 
ATOM     40  O   UNL A   1      36.407  29.375  30.425  1.00  0.00    -0.246 OA
BRANCH  39  41
ATOM     41  C   UNL A   1      38.348  29.309  29.029  1.00  0.00     0.060 A 
ATOM     42  C   UNL A   1      39.222  28.789  29.993  1.00  0.00     0.016 A 
ATOM     43  C   UNL A   1      38.734  29.386  27.689  1.00  0.00     0.016 A 
ATOM     44  C   UNL A   1      40.501  28.370  29.621  1.00  0.00     0.010 A 
ATOM     45  C   UNL A   1      40.021  28.990  27.322  1.00  0.00     0.010 A 
ATOM     46  C   UNL A   1      40.921  28.510  28.292  1.00  0.00    -0.014 A 
BRANCH  46  47
ATOM     47  C   UNL A   1      42.354  28.359  27.950  1.00  0.00     0.031 A 
ATOM     48  C   UNL A   1      43.274  29.518  28.217  1.00  0.00     0.074 A 
ATOM     49  C   UNL A   1      42.838  27.219  27.430  1.00  0.00     0.049 A 
ATOM     50  N   UNL A   1      44.553  29.642  27.969  1.00  0.00    -0.248 NA
ATOM     51  C   UNL A   1      42.662  30.699  28.848  1.00  0.00     0.031 C 
ATOM     52  C   UNL A   1      42.066  26.005  27.179  1.00  0.00     0.029 A 
ATOM     53  N   UNL A   1      44.108  26.904  27.016  1.00  0.00    -0.354 N 
ATOM     54  C   UNL A   1      44.896  30.915  28.407  1.00  0.00     0.074 A 
ATOM     55  C   UNL A   1      43.685  31.538  28.895  1.00  0.00     0.031 C 
ATOM     56  C   UNL A   1      42.881  25.072  26.659  1.00  0.00     0.029 A 
ATOM     57  C   UNL A   1      44.221  25.637  26.504  1.00  0.00     0.049 A 
ATOM     58  H   UNL A   1      44.866  27.529  27.083  1.00  0.00     0.167 HD
ATOM     59  C   UNL A   1      46.111  31.513  28.411  1.00  0.00     0.031 A 
ATOM     60  C   UNL A   1      45.282  25.013  25.956  1.00  0.00     0.031 A 
ATOM     61  C   UNL A   1      47.307  30.907  27.891  1.00  0.00     0.049 A 
ATOM     62  C   UNL A   1      46.599  25.741  25.859  1.00  0.00     0.074 A 
ATOM     63  C   UNL A   1      48.589  31.427  27.843  1.00  0.00     0.029 A 
ATOM     64  N   UNL A   1      47.365  29.648  27.313  1.00  0.00    -0.354 N 
ATOM     65  N   UNL A   1      46.919  26.937  26.290  1.00  0.00    -0.248 NA
ATOM     66  C   UNL A   1      47.700  25.025  25.199  1.00  0.00     0.031 C 
ATOM     67  C   UNL A   1      49.407  30.510  27.174  1.00  0.00     0.029 A 
ATOM     68  C   UNL A   1      48.652  29.387  26.874  1.00  0.00     0.049 A 
ATOM     69  H   UNL A   1      46.603  29.030  27.227  1.00  0.00     0.167 HD
ATOM     70  C   UNL A   1      48.267  27.103  25.989  1.00  0.00     0.074 A 
ATOM     71  C   UNL A   1      48.703  25.879  25.346  1.00  0.00     0.031 C 
ATOM     72  C   UNL A   1      49.072  28.168  26.229  1.00  0.00     0.031 A 
BRANCH  59  73
ATOM     73  C   UNL A   1      46.177  32.918  28.948  1.00  0.00    -0.014 A 
ATOM     74  C   UNL A   1      45.732  34.015  28.192  1.00  0.00     0.009 A 
ATOM     75  C   UNL A   1      46.709  33.149  30.226  1.00  0.00     0.009 A 
ATOM     76  C   UNL A   1      45.874  35.317  28.678  1.00  0.00     0.001 A 
ATOM     77  C   UNL A   1      46.815  34.447  30.726  1.00  0.00     0.001 A 
ATOM     78  C   UNL A   1      46.413  35.531  29.946  1.00  0.00     0.000 A 
ENDBRANCH  59  73
BRANCH  60  79
ATOM     79  C   UNL A   1      45.152  23.619  25.458  1.00  0.00    -0.014 A 
ATOM     80  C   UNL A   1      45.594  22.541  26.239  1.00  0.00     0.009 A 
ATOM     81  C   UNL A   1      44.591  23.357  24.197  1.00  0.00     0.009 A 
ATOM     82  C   UNL A   1      45.497  21.232  25.762  1.00  0.00     0.001 A 
ATOM     83  C   UNL A   1      44.467  22.044  23.735  1.00  0.00     0.001 A 
ATOM     84  C   UNL A   1      44.927  20.983  24.514  1.00  0.00     0.000 A 
ENDBRANCH  60  79
BRANCH  72  85
ATOM     85  C   UNL A   1      50.520  28.043  25.834  1.00  0.00    -0.014 A 
ATOM     86  C   UNL A   1      50.936  28.194  24.503  1.00  0.00     0.009 A 
ATOM     87  C   UNL A   1      51.489  27.814  26.825  1.00  0.00     0.009 A 
ATOM     88  C   UNL A   1      52.288  28.079  24.167  1.00  0.00     0.001 A 
ATOM     89  C   UNL A   1      52.842  27.735  26.492  1.00  0.00     0.001 A 
ATOM     90  C   UNL A   1      53.240  27.855  25.162  1.00  0.00     0.000 A 
ENDBRANCH  72  85
ENDBRANCH  46  47
ENDBRANCH  39  41
ENDBRANCH  38  39
ENDBRANCH  37  38
ENDBRANCH  36  37
ENDBRANCH  35  36
ENDBRANCH  34  35
ENDBRANCH  33  34
ENDBRANCH  32  33
ENDBRANCH  31  32
ENDBRANCH   1  31
TORSDOF 26
ENDMDL
MODEL 2
REMARK VINA RESULT:      -9.2      6.796      9.760
REMARK SMILES O=C(COc1ccc([N+](=O)[O-])cc1)Nc1ccc(C(=O)OCCOCCOCCOCCOC(=O)c2ccc(-c3c4nc(c(-c5ccccc5)c5ccc([nH]5)c(-c5ccccc5)c5nc(c(-c6ccccc6)c6ccc3[nH]6)C=C5)C=C4)cc2)c(O)c1
REMARK SMILES IDX 25 1 24 2 23 3 22 4 21 5 19 6 20 7 18 8 15 9 16 10 86 11
REMARK SMILES IDX 17 12 84 13 14 14 1 15 2 16 3 18 4 19 5 20 6 21 13 22 7 23
REMARK SMILES IDX 12 24 8 25 9 26 10 27 11 28 85 29 26 31 27 32 28 33 29 34
REMARK SMILES IDX 30 35 31 36 32 37 33 38 34 39 35 40 36 41 37 42 83 43 38 44
REMARK SMILES IDX 82 45 39 46 40 47 41 48 76 49 42 50 81 51 75 52 77 53 43 54
REMARK SMILES IDX 80 55 74 56 73 57 44 59 66 60 51 61 65 62 52 63 55 64 64 65
REMARK SMILES IDX 78 66 53 67 54 68 63 70 79 71 56 72 45 73 46 74 50 75 47 76
REMARK SMILES IDX 49 77 48 78 67 79 68 80 72 81 69 82 71 83 70 84 57 85 58 86
REMARK SMILES IDX 62 87 59 88 61 89 60 90
REMARK H PARENT 14 17 85 30 77 58 55 69
REMARK Flexibility Score: inf
ROOT
ATOM      1  C   UNL A   1      32.446  27.219  24.156  1.00  0.00     0.188 C 
ENDROOT
BRANCH   1   2
ATOM      2  O   UNL A   1      31.545  26.250  24.658  1.00  0.00    -0.376 OA
BRANCH   2   3
ATOM      3  C   UNL A   1      31.738  24.885  24.350  1.00  0.00     0.202 C 
BRANCH   3   4
ATOM      4  C   UNL A   1      32.490  24.014  25.362  1.00  0.00     0.261 C 
BRANCH   4   5
ATOM      5  O   UNL A   1      32.318  22.607  25.189  1.00  0.00    -0.460 OA
BRANCH   5   6
ATOM      6  C   UNL A   1      32.858  22.059  24.082  1.00  0.00     0.341 C 
ATOM      7  O   UNL A   1      32.269  21.793  23.045  1.00  0.00    -0.246 OA
BRANCH   6   8
ATOM      8  C   UNL A   1      34.331  22.028  24.218  1.00  0.00     0.101 A 
ATOM      9  C   UNL A   1      37.089  22.003  24.703  1.00  0.00     0.045 A 
ATOM     10  C   UNL A   1      36.255  21.102  25.374  1.00  0.00     0.027 A 
ATOM     11  C   UNL A   1      36.560  22.805  23.689  1.00  0.00     0.073 A 
ATOM     12  C   UNL A   1      34.876  21.138  25.154  1.00  0.00     0.022 A 
ATOM     13  C   UNL A   1      35.187  22.815  23.444  1.00  0.00     0.132 A 
BRANCH   9  14
ATOM     14  N   UNL A   1      38.397  22.160  25.204  1.00  0.00    -0.323 N 
ATOM     15  O   UNL A   1      38.077  23.960  26.662  1.00  0.00    -0.271 OA
ATOM     16  C   UNL A   1      38.740  23.012  26.248  1.00  0.00     0.262 C 
ATOM     17  H   UNL A   1      39.115  21.631  24.788  1.00  0.00     0.170 HD
BRANCH  16  18
ATOM     18  C   UNL A   1      40.051  22.618  26.933  1.00  0.00     0.329 C 
BRANCH  18  19
ATOM     19  O   UNL A   1      40.236  21.221  27.158  1.00  0.00    -0.484 OA
BRANCH  19  20
ATOM     20  C   UNL A   1      41.434  20.722  26.717  1.00  0.00     0.120 A 
ATOM     21  C   UNL A   1      42.375  21.642  26.248  1.00  0.00     0.053 A 
ATOM     22  C   UNL A   1      41.668  19.354  26.566  1.00  0.00     0.053 A 
ATOM     23  C   UNL A   1      43.545  21.199  25.621  1.00  0.00     0.089 A 
ATOM     24  C   UNL A   1      42.824  18.899  25.926  1.00  0.00     0.089 A 
ATOM     25  C   UNL A   1      43.756  19.823  25.444  1.00  0.00     0.269 A 
BRANCH  25  26
ATOM     26  N   UNL A   1      44.937  19.348  24.713  1.00  0.00     0.062 N 
ATOM     27  O   UNL A   1      44.750  18.733  23.653  1.00  0.00    -0.258 OA
ATOM     28  O   UNL A   1      46.050  19.579  25.205  1.00  0.00    -0.258 OA
ENDBRANCH  25  26
ENDBRANCH  19  20
ENDBRANCH  18  19
ENDBRANCH  16  18
ENDBRANCH   9  14
BRANCH  13  29
ATOM     29  O   UNL A   1      34.697  23.640  22.472  1.00  0.00    -0.507 OA
ATOM     30  H   UNL A   1      34.524  23.304  21.614  1.00  0.00     0.293 HD
ENDBRANCH  13  29
ENDBRANCH   6   8
ENDBRANCH   5   6
ENDBRANCH   4   5
ENDBRANCH   3   4
ENDBRANCH   2   3
ENDBRANCH   1   2
BRANCH   1  31
ATOM     31  C   UNL A   1      33.565  27.649  25.141  1.00  0.00     0.188 C 
BRANCH  31  32
ATOM     32  O   UNL A   1      33.296  28.100  26.466  1.00  0.00    -0.377 OA
BRANCH  32  33
ATOM     33  C   UNL A   1      32.452  29.224  26.675  1.00  0.00     0.188 C 
BRANCH  33  34
ATOM     34  C   UNL A   1      33.054  30.485  27.333  1.00  0.00     0.188 C 
BRANCH  34  35
ATOM     35  O   UNL A   1      34.472  30.511  27.317  1.00  0.00    -0.376 OA
BRANCH  35  36
ATOM     36  C   UNL A   1      35.122  31.587  27.969  1.00  0.00     0.202 C 
BRANCH  36  37
ATOM     37  C   UNL A   1      34.280  32.564  28.804  1.00  0.00     0.261 C 
BRANCH  37  38
ATOM     38  O   UNL A   1      34.352  32.432  30.231  1.00  0.00    -0.460 OA
BRANCH  38  39
ATOM     39  C   UNL A   1      34.855  33.472  30.935  1.00  0.00     0.338 C 
ATOM     40  O   UNL A   1      34.377  34.577  31.063  1.00  0.00    -0.246 OA
BRANCH  39  41
ATOM     41  C   UNL A   1      36.021  32.956  31.686  1.00  0.00     0.060 A 
ATOM     42  C   UNL A   1      35.823  32.002  32.694  1.00  0.00     0.016 A 
ATOM     43  C   UNL A   1      37.308  33.402  31.376  1.00  0.00     0.016 A 
ATOM     44  C   UNL A   1      36.913  31.513  33.416  1.00  0.00     0.010 A 
ATOM     45  C   UNL A   1      38.394  32.931  32.114  1.00  0.00     0.010 A 
ATOM     46  C   UNL A   1      38.198  32.009  33.158  1.00  0.00    -0.014 A 
BRANCH  46  47
ATOM     47  C   UNL A   1      39.301  31.732  34.107  1.00  0.00     0.031 A 
ATOM     48  C   UNL A   1      39.448  32.626  35.307  1.00  0.00     0.074 A 
ATOM     49  C   UNL A   1      40.145  30.703  33.925  1.00  0.00     0.049 A 
ATOM     50  N   UNL A   1      40.351  32.612  36.253  1.00  0.00    -0.248 NA
ATOM     51  C   UNL A   1      38.436  33.686  35.453  1.00  0.00     0.031 C 
ATOM     52  C   UNL A   1      40.074  29.728  32.840  1.00  0.00     0.029 A 
ATOM     53  N   UNL A   1      41.236  30.312  34.661  1.00  0.00    -0.354 N 
ATOM     54  C   UNL A   1      40.021  33.660  37.101  1.00  0.00     0.074 A 
ATOM     55  C   UNL A   1      38.863  34.316  36.536  1.00  0.00     0.031 C 
ATOM     56  C   UNL A   1      41.077  28.845  32.983  1.00  0.00     0.029 A 
ATOM     57  C   UNL A   1      41.883  29.218  34.146  1.00  0.00     0.049 A 
ATOM     58  H   UNL A   1      41.525  30.774  35.480  1.00  0.00     0.167 HD
ATOM     59  C   UNL A   1      40.622  34.043  38.253  1.00  0.00     0.031 A 
ATOM     60  C   UNL A   1      43.007  28.599  34.558  1.00  0.00     0.031 A 
ATOM     61  C   UNL A   1      41.796  33.413  38.795  1.00  0.00     0.049 A 
ATOM     62  C   UNL A   1      43.730  29.116  35.776  1.00  0.00     0.074 A 
ATOM     63  C   UNL A   1      42.487  33.723  39.954  1.00  0.00     0.029 A 
ATOM     64  N   UNL A   1      42.464  32.351  38.204  1.00  0.00    -0.354 N 
ATOM     65  N   UNL A   1      43.402  30.097  36.582  1.00  0.00    -0.248 NA
ATOM     66  C   UNL A   1      44.980  28.432  36.139  1.00  0.00     0.031 C 
ATOM     67  C   UNL A   1      43.611  32.895  40.027  1.00  0.00     0.029 A 
ATOM     68  C   UNL A   1      43.579  32.017  38.954  1.00  0.00     0.049 A 
ATOM     69  H   UNL A   1      42.187  31.902  37.373  1.00  0.00     0.167 HD
ATOM     70  C   UNL A   1      44.383  30.124  37.568  1.00  0.00     0.074 A 
ATOM     71  C   UNL A   1      45.311  29.054  37.261  1.00  0.00     0.031 C 
ATOM     72  C   UNL A   1      44.499  30.954  38.635  1.00  0.00     0.031 A 
BRANCH  59  73
ATOM     73  C   UNL A   1      40.037  35.234  38.963  1.00  0.00    -0.014 A 
ATOM     74  C   UNL A   1      40.369  36.547  38.589  1.00  0.00     0.009 A 
ATOM     75  C   UNL A   1      39.153  35.040  40.035  1.00  0.00     0.009 A 
ATOM     76  C   UNL A   1      39.876  37.637  39.311  1.00  0.00     0.001 A 
ATOM     77  C   UNL A   1      38.631  36.131  40.732  1.00  0.00     0.001 A 
ATOM     78  C   UNL A   1      39.006  37.427  40.380  1.00  0.00     0.000 A 
ENDBRANCH  59  73
BRANCH  60  79
ATOM     79  C   UNL A   1      43.521  27.417  33.819  1.00  0.00    -0.014 A 
ATOM     80  C   UNL A   1      43.371  26.127  34.348  1.00  0.00     0.009 A 
ATOM     81  C   UNL A   1      44.172  27.571  32.584  1.00  0.00     0.009 A 
ATOM     82  C   UNL A   1      43.876  25.017  33.668  1.00  0.00     0.001 A 
ATOM     83  C   UNL A   1      44.651  26.457  31.891  1.00  0.00     0.001 A 
ATOM     84  C   UNL A   1      44.510  25.181  32.437  1.00  0.00     0.000 A 
ENDBRANCH  60  79
BRANCH  72  85
ATOM     85  C   UNL A   1      45.650  30.713  39.575  1.00  0.00    -0.014 A 
ATOM     86  C   UNL A   1      46.882  31.366  39.416  1.00  0.00     0.009 A 
ATOM     87  C   UNL A   1      45.479  29.848  40.669  1.00  0.00     0.009 A 
ATOM     88  C   UNL A   1      47.930  31.127  40.308  1.00  0.00     0.001 A 
ATOM     89  C   UNL A   1      46.516  29.638  41.579  1.00  0.00     0.001 A 
ATOM     90  C   UNL A   1      47.745  30.269  41.392  1.00  0.00     0.000 A 
ENDBRANCH  72  85
ENDBRANCH  46  47
ENDBRANCH  39  41
ENDBRANCH  38  39
ENDBRANCH  37  38
ENDBRANCH  36  37
ENDBRANCH  35  36
ENDBRANCH  34  35
ENDBRANCH  33  34
ENDBRANCH  32  33
ENDBRANCH  31  32
ENDBRANCH   1  31
TORSDOF 26
ENDMDL
MODEL 3
REMARK VINA RESULT:      -8.7      0.701      5.581
REMARK SMILES O=C(COc1ccc([N+](=O)[O-])cc1)Nc1ccc(C(=O)OCCOCCOCCOCCOC(=O)c2ccc(-c3c4nc(c(-c5ccccc5)c5ccc([nH]5)c(-c5ccccc5)c5nc(c(-c6ccccc6)c6ccc3[nH]6)C=C5)C=C4)cc2)c(O)c1
REMARK SMILES IDX 25 1 24 2 23 3 22 4 21 5 19 6 20 7 18 8 15 9 16 10 86 11
REMARK SMILES IDX 17 12 84 13 14 14 1 15 2 16 3 18 4 19 5 20 6 21 13 22 7 23
REMARK SMILES IDX 12 24 8 25 9 26 10 27 11 28 85 29 26 31 27 32 28 33 29 34
REMARK SMILES IDX 30 35 31 36 32 37 33 38 34 39 35 40 36 41 37 42 83 43 38 44
REMARK SMILES IDX 82 45 39 46 40 47 41 48 76 49 42 50 81 51 75 52 77 53 43 54
REMARK SMILES IDX 80 55 74 56 73 57 44 59 66 60 51 61 65 62 52 63 55 64 64 65
REMARK SMILES IDX 78 66 53 67 54 68 63 70 79 71 56 72 45 73 46 74 50 75 47 76
REMARK SMILES IDX 49 77 48 78 67 79 68 80 72 81 69 82 71 83 70 84 57 85 58 86
REMARK SMILES IDX 62 87 59 88 61 89 60 90
REMARK H PARENT 14 17 85 30 77 58 55 69
REMARK Flexibility Score: inf
ROOT
ATOM      1  C   UNL A   1      29.975  31.570  24.856  1.00  0.00     0.188 C 
ENDROOT
BRANCH   1   2
ATOM      2  O   UNL A   1      29.622  32.510  23.858  1.00  0.00    -0.376 OA
BRANCH   2   3
ATOM      3  C   UNL A   1      28.328  32.481  23.293  1.00  0.00     0.202 C 
BRANCH   3   4
ATOM      4  C   UNL A   1      28.185  32.028  21.836  1.00  0.00     0.261 C 
BRANCH   4   5
ATOM      5  O   UNL A   1      28.521  30.662  21.595  1.00  0.00    -0.460 OA
BRANCH   5   6
ATOM      6  C   UNL A   1      28.102  29.761  22.507  1.00  0.00     0.341 C 
ATOM      7  O   UNL A   1      26.970  29.654  22.951  1.00  0.00    -0.246 OA
BRANCH   6   8
ATOM      8  C   UNL A   1      29.168  28.760  22.733  1.00  0.00     0.101 A 
ATOM      9  C   UNL A   1      31.253  26.902  22.942  1.00  0.00     0.045 A 
ATOM     10  C   UNL A   1      31.531  28.223  22.572  1.00  0.00     0.027 A 
ATOM     11  C   UNL A   1      29.962  26.559  23.348  1.00  0.00     0.073 A 
ATOM     12  C   UNL A   1      30.486  29.140  22.437  1.00  0.00     0.022 A 
ATOM     13  C   UNL A   1      28.923  27.485  23.247  1.00  0.00     0.132 A 
BRANCH   9  14
ATOM     14  N   UNL A   1      32.272  25.951  22.731  1.00  0.00    -0.323 N 
ATOM     15  O   UNL A   1      32.922  25.532  24.937  1.00  0.00    -0.271 OA
ATOM     16  C   UNL A   1      32.902  25.238  23.744  1.00  0.00     0.262 C 
ATOM     17  H   UNL A   1      32.556  25.780  21.803  1.00  0.00     0.170 HD
BRANCH  16  18
ATOM     18  C   UNL A   1      33.549  23.942  23.247  1.00  0.00     0.329 C 
BRANCH  18  19
ATOM     19  O   UNL A   1      34.301  23.215  24.218  1.00  0.00    -0.484 OA
BRANCH  19  20
ATOM     20  C   UNL A   1      34.092  21.860  24.208  1.00  0.00     0.120 A 
ATOM     21  C   UNL A   1      32.837  21.410  23.789  1.00  0.00     0.053 A 
ATOM     22  C   UNL A   1      35.006  20.955  24.751  1.00  0.00     0.053 A 
ATOM     23  C   UNL A   1      32.491  20.060  23.919  1.00  0.00     0.089 A 
ATOM     24  C   UNL A   1      34.667  19.608  24.902  1.00  0.00     0.089 A 
ATOM     25  C   UNL A   1      33.404  19.165  24.496  1.00  0.00     0.269 A 
BRANCH  25  26
ATOM     26  N   UNL A   1      33.022  17.764  24.716  1.00  0.00     0.062 N 
ATOM     27  O   UNL A   1      32.522  17.469  25.811  1.00  0.00    -0.258 OA
ATOM     28  O   UNL A   1      33.233  16.959  23.799  1.00  0.00    -0.258 OA
ENDBRANCH  25  26
ENDBRANCH  19  20
ENDBRANCH  18  19
ENDBRANCH  16  18
ENDBRANCH   9  14
BRANCH  13  29
ATOM     29  O   UNL A   1      27.664  27.105  23.615  1.00  0.00    -0.507 OA
ATOM     30  H   UNL A   1      27.384  26.220  23.486  1.00  0.00     0.293 HD
ENDBRANCH  13  29
ENDBRANCH   6   8
ENDBRANCH   5   6
ENDBRANCH   4   5
ENDBRANCH   3   4
ENDBRANCH   2   3
ENDBRANCH   1   2
BRANCH   1  31
ATOM     31  C   UNL A   1      31.033  32.062  25.879  1.00  0.00     0.188 C 
BRANCH  31  32
ATOM     32  O   UNL A   1      31.924  31.177  26.554  1.00  0.00    -0.377 OA
BRANCH  32  33
ATOM     33  C   UNL A   1      31.800  29.773  26.375  1.00  0.00     0.188 C 
BRANCH  33  34
ATOM     34  C   UNL A   1      32.976  29.005  25.734  1.00  0.00     0.188 C 
BRANCH  34  35
ATOM     35  O   UNL A   1      34.250  29.480  26.136  1.00  0.00    -0.376 OA
BRANCH  35  36
ATOM     36  C   UNL A   1      34.647  29.256  27.477  1.00  0.00     0.202 C 
BRANCH  36  37
ATOM     37  C   UNL A   1      35.187  30.437  28.297  1.00  0.00     0.261 C 
BRANCH  37  38
ATOM     38  O   UNL A   1      36.607  30.502  28.489  1.00  0.00    -0.460 OA
BRANCH  38  39
ATOM     39  C   UNL A   1      37.142  29.760  29.485  1.00  0.00     0.338 C 
ATOM     40  O   UNL A   1      36.574  29.301  30.452  1.00  0.00    -0.246 OA
BRANCH  39  41
ATOM     41  C   UNL A   1      38.532  29.444  29.086  1.00  0.00     0.060 A 
ATOM     42  C   UNL A   1      39.462  29.074  30.067  1.00  0.00     0.016 A 
ATOM     43  C   UNL A   1      38.903  29.495  27.741  1.00  0.00     0.016 A 
ATOM     44  C   UNL A   1      40.779  28.782  29.705  1.00  0.00     0.010 A 
ATOM     45  C   UNL A   1      40.225  29.226  27.383  1.00  0.00     0.010 A 
ATOM     46  C   UNL A   1      41.175  28.900  28.367  1.00  0.00    -0.014 A 
BRANCH  46  47
ATOM     47  C   UNL A   1      42.616  28.892  28.020  1.00  0.00     0.031 A 
ATOM     48  C   UNL A   1      43.196  27.638  27.427  1.00  0.00     0.074 A 
ATOM     49  C   UNL A   1      43.392  29.972  28.207  1.00  0.00     0.049 A 
ATOM     50  N   UNL A   1      44.430  27.373  27.080  1.00  0.00    -0.248 NA
ATOM     51  C   UNL A   1      42.253  26.531  27.201  1.00  0.00     0.031 C 
ATOM     52  C   UNL A   1      42.940  31.265  28.715  1.00  0.00     0.029 A 
ATOM     53  N   UNL A   1      44.736  30.145  27.988  1.00  0.00    -0.354 N 
ATOM     54  C   UNL A   1      44.411  26.070  26.601  1.00  0.00     0.074 A 
ATOM     55  C   UNL A   1      43.056  25.584  26.743  1.00  0.00     0.031 C 
ATOM     56  C   UNL A   1      43.990  32.103  28.764  1.00  0.00     0.029 A 
ATOM     57  C   UNL A   1      45.192  31.393  28.329  1.00  0.00     0.049 A 
ATOM     58  H   UNL A   1      45.316  29.440  27.620  1.00  0.00     0.167 HD
ATOM     59  C   UNL A   1      45.427  25.340  26.082  1.00  0.00     0.031 A 
ATOM     60  C   UNL A   1      46.442  31.896  28.308  1.00  0.00     0.031 A 
ATOM     61  C   UNL A   1      46.783  25.811  25.976  1.00  0.00     0.049 A 
ATOM     62  C   UNL A   1      47.581  31.027  27.840  1.00  0.00     0.074 A 
ATOM     63  C   UNL A   1      47.889  25.152  25.469  1.00  0.00     0.029 A 
ATOM     64  N   UNL A   1      47.218  27.057  26.401  1.00  0.00    -0.354 N 
ATOM     65  N   UNL A   1      47.553  29.802  27.373  1.00  0.00    -0.248 NA
ATOM     66  C   UNL A   1      48.926  31.618  27.896  1.00  0.00     0.031 C 
ATOM     67  C   UNL A   1      49.007  25.974  25.651  1.00  0.00     0.029 A 
ATOM     68  C   UNL A   1      48.584  27.174  26.200  1.00  0.00     0.049 A 
ATOM     69  H   UNL A   1      46.643  27.756  26.788  1.00  0.00     0.167 HD
ATOM     70  C   UNL A   1      48.867  29.489  27.044  1.00  0.00     0.074 A 
ATOM     71  C   UNL A   1      49.664  30.658  27.358  1.00  0.00     0.031 C 
ATOM     72  C   UNL A   1      49.367  28.341  26.523  1.00  0.00     0.031 A 
BRANCH  59  73
ATOM     73  C   UNL A   1      45.105  23.936  25.646  1.00  0.00    -0.014 A 
ATOM     74  C   UNL A   1      44.999  22.886  26.572  1.00  0.00     0.009 A 
ATOM     75  C   UNL A   1      44.921  23.657  24.283  1.00  0.00     0.009 A 
ATOM     76  C   UNL A   1      44.776  21.577  26.138  1.00  0.00     0.001 A 
ATOM     77  C   UNL A   1      44.660  22.354  23.854  1.00  0.00     0.001 A 
ATOM     78  C   UNL A   1      44.604  21.313  24.780  1.00  0.00     0.000 A 
ENDBRANCH  59  73
BRANCH  60  79
ATOM     79  C   UNL A   1      46.688  33.297  28.739  1.00  0.00    -0.014 A 
ATOM     80  C   UNL A   1      47.241  33.567  30.000  1.00  0.00     0.009 A 
ATOM     81  C   UNL A   1      46.365  34.374  27.897  1.00  0.00     0.009 A 
ATOM     82  C   UNL A   1      47.449  34.883  30.417  1.00  0.00     0.001 A 
ATOM     83  C   UNL A   1      46.602  35.689  28.305  1.00  0.00     0.001 A 
ATOM     84  C   UNL A   1      47.136  35.943  29.568  1.00  0.00     0.000 A 
ENDBRANCH  60  79
BRANCH  72  85
ATOM     85  C   UNL A   1      50.841  28.305  26.218  1.00  0.00    -0.014 A 
ATOM     86  C   UNL A   1      51.347  28.721  24.977  1.00  0.00     0.009 A 
ATOM     87  C   UNL A   1      51.743  27.887  27.211  1.00  0.00     0.009 A 
ATOM     88  C   UNL A   1      52.721  28.682  24.724  1.00  0.00     0.001 A 
ATOM     89  C   UNL A   1      53.117  27.882  26.968  1.00  0.00     0.001 A 
ATOM     90  C   UNL A   1      53.605  28.269  25.720  1.00  0.00     0.000 A 
ENDBRANCH  72  85
ENDBRANCH  46  47
ENDBRANCH  39  41
ENDBRANCH  38  39
ENDBRANCH  37  38
ENDBRANCH  36  37
ENDBRANCH  35  36
ENDBRANCH  34  35
ENDBRANCH  33  34
ENDBRANCH  32  33
ENDBRANCH  31  32
ENDBRANCH   1  31
TORSDOF 26
ENDMDL
