MODEL 1
REMARK VINA RESULT:      -9.6      0.000      0.000
REMARK SMILES CC[C@H](C)c1ccccc1Oc1cccc(F)c1C(=O)OCCOCCOCCOCCOC(=O)c1ccc(-c2c3nc(c(-c4ccccc4)c4ccc([nH]4)c(-c4ccccc4)c4nc(c(-c5ccccc5)c5ccc2[nH]5)C=C4)C=C3)cc1
REMARK SMILES IDX 26 1 25 2 24 3 23 4 22 5 21 6 19 7 20 8 18 9 12 10 13 11
REMARK SMILES IDX 14 12 16 13 15 14 17 15 11 16 10 17 5 18 6 19 7 20 9 21 8 22
REMARK SMILES IDX 3 23 4 24 2 25 1 26 27 27 28 28 29 29 30 30 31 31 32 32
REMARK SMILES IDX 33 33 34 34 35 35 36 36 37 37 83 38 38 39 82 40 39 41 40 42
REMARK SMILES IDX 41 43 76 44 42 45 81 46 75 47 77 48 43 49 80 50 74 51 73 52
REMARK SMILES IDX 44 54 66 55 51 56 65 57 52 58 55 59 64 60 78 61 53 62 54 63
REMARK SMILES IDX 63 65 79 66 56 67 45 68 46 69 50 70 47 71 49 72 48 73 67 74
REMARK SMILES IDX 68 75 72 76 69 77 71 78 70 79 57 80 58 81 62 82 59 83 61 84
REMARK SMILES IDX 60 85
REMARK H PARENT 77 53 55 64
REMARK Flexibility Score: inf
ROOT
ATOM      1  C   UNL A   1      33.304  28.134  23.977  1.00  0.00     0.188 C 
ENDROOT
BRANCH   1   2
ATOM      2  C   UNL A   1      33.318  27.866  22.487  1.00  0.00     0.188 C 
BRANCH   2   3
ATOM      3  O   UNL A   1      33.648  26.605  21.920  1.00  0.00    -0.376 OA
BRANCH   3   4
ATOM      4  C   UNL A   1      33.188  25.489  22.691  1.00  0.00     0.202 C 
BRANCH   4   5
ATOM      5  C   UNL A   1      34.109  24.976  23.824  1.00  0.00     0.261 C 
BRANCH   5   6
ATOM      6  O   UNL A   1      33.511  23.867  24.575  1.00  0.00    -0.459 OA
BRANCH   6   7
ATOM      7  C   UNL A   1      34.038  23.288  25.667  1.00  0.00     0.345 C 
ATOM      8  O   UNL A   1      33.644  23.651  26.766  1.00  0.00    -0.246 OA
BRANCH   7   9
ATOM      9  C   UNL A   1      35.076  22.096  25.436  1.00  0.00     0.138 A 
ATOM     10  C   UNL A   1      34.993  20.626  25.229  1.00  0.00     0.144 A 
ATOM     11  C   UNL A   1      36.169  19.904  24.932  1.00  0.00     0.048 A 
ATOM     12  C   UNL A   1      37.404  20.555  24.814  1.00  0.00     0.007 A 
ATOM     13  C   UNL A   1      36.365  22.660  25.344  1.00  0.00     0.141 A 
ATOM     14  C   UNL A   1      37.497  21.921  25.028  1.00  0.00     0.040 A 
ATOM     15  F   UNL A   1      36.593  23.961  25.575  1.00  0.00    -0.206 F 
BRANCH  10  16
ATOM     16  O   UNL A   1      33.849  19.845  25.495  1.00  0.00    -0.456 OA
BRANCH  16  17
ATOM     17  C   UNL A   1      32.725  19.507  24.597  1.00  0.00     0.130 A 
ATOM     18  C   UNL A   1      32.675  18.240  23.850  1.00  0.00    -0.002 A 
ATOM     19  C   UNL A   1      32.343  18.247  22.465  1.00  0.00     0.008 A 
ATOM     20  C   UNL A   1      32.168  19.440  21.777  1.00  0.00     0.001 A 
ATOM     21  C   UNL A   1      32.331  20.667  23.884  1.00  0.00     0.047 A 
ATOM     22  C   UNL A   1      32.119  20.634  22.485  1.00  0.00     0.004 A 
BRANCH  18  23
ATOM     23  C   UNL A   1      33.387  16.955  24.290  1.00  0.00     0.019 C 
ATOM     24  C   UNL A   1      34.890  16.818  24.611  1.00  0.00     0.013 C 
BRANCH  23  25
ATOM     25  C   UNL A   1      32.831  16.710  25.656  1.00  0.00     0.005 C 
ATOM     26  C   UNL A   1      32.066  15.332  25.749  1.00  0.00     0.004 C 
ENDBRANCH  23  25
ENDBRANCH  18  23
ENDBRANCH  16  17
ENDBRANCH  10  16
ENDBRANCH   7   9
ENDBRANCH   6   7
ENDBRANCH   5   6
ENDBRANCH   4   5
ENDBRANCH   3   4
ENDBRANCH   2   3
ENDBRANCH   1   2
BRANCH   1  27
ATOM     27  O   UNL A   1      32.036  28.431  24.562  1.00  0.00    -0.377 OA
BRANCH  27  28
ATOM     28  C   UNL A   1      31.919  29.702  25.194  1.00  0.00     0.188 C 
BRANCH  28  29
ATOM     29  C   UNL A   1      31.890  29.701  26.735  1.00  0.00     0.188 C 
BRANCH  29  30
ATOM     30  O   UNL A   1      33.165  29.809  27.338  1.00  0.00    -0.376 OA
BRANCH  30  31
ATOM     31  C   UNL A   1      33.762  31.088  27.496  1.00  0.00     0.202 C 
BRANCH  31  32
ATOM     32  C   UNL A   1      32.898  32.354  27.690  1.00  0.00     0.261 C 
BRANCH  32  33
ATOM     33  O   UNL A   1      33.592  33.596  27.846  1.00  0.00    -0.460 OA
BRANCH  33  34
ATOM     34  C   UNL A   1      33.642  34.115  29.082  1.00  0.00     0.338 C 
ATOM     35  O   UNL A   1      32.764  34.751  29.655  1.00  0.00    -0.246 OA
BRANCH  34  36
ATOM     36  C   UNL A   1      34.861  33.604  29.733  1.00  0.00     0.060 A 
ATOM     37  C   UNL A   1      36.108  33.957  29.197  1.00  0.00     0.016 A 
ATOM     38  C   UNL A   1      34.777  32.780  30.858  1.00  0.00     0.016 A 
ATOM     39  C   UNL A   1      37.276  33.464  29.766  1.00  0.00     0.010 A 
ATOM     40  C   UNL A   1      35.948  32.247  31.401  1.00  0.00     0.010 A 
ATOM     41  C   UNL A   1      37.195  32.559  30.830  1.00  0.00    -0.014 A 
BRANCH  41  42
ATOM     42  C   UNL A   1      38.381  31.741  31.158  1.00  0.00     0.031 A 
ATOM     43  C   UNL A   1      39.220  32.169  32.330  1.00  0.00     0.074 A 
ATOM     44  C   UNL A   1      38.685  30.630  30.466  1.00  0.00     0.049 A 
ATOM     45  N   UNL A   1      40.327  31.653  32.792  1.00  0.00    -0.248 NA
ATOM     46  C   UNL A   1      38.737  33.341  33.084  1.00  0.00     0.031 C 
ATOM     47  C   UNL A   1      37.907  30.078  29.361  1.00  0.00     0.029 A 
ATOM     48  N   UNL A   1      39.745  29.772  30.601  1.00  0.00    -0.354 N 
ATOM     49  C   UNL A   1      40.679  32.442  33.881  1.00  0.00     0.074 A 
ATOM     50  C   UNL A   1      39.684  33.484  33.997  1.00  0.00     0.031 C 
ATOM     51  C   UNL A   1      38.525  28.974  28.906  1.00  0.00     0.029 A 
ATOM     52  C   UNL A   1      39.759  28.769  29.663  1.00  0.00     0.049 A 
ATOM     53  H   UNL A   1      40.429  29.863  31.303  1.00  0.00     0.167 HD
ATOM     54  C   UNL A   1      41.738  32.309  34.712  1.00  0.00     0.031 A 
ATOM     55  C   UNL A   1      40.683  27.817  29.430  1.00  0.00     0.031 A 
ATOM     56  C   UNL A   1      42.739  31.287  34.578  1.00  0.00     0.049 A 
ATOM     57  C   UNL A   1      41.911  27.755  30.303  1.00  0.00     0.074 A 
ATOM     58  C   UNL A   1      43.853  31.063  35.365  1.00  0.00     0.029 A 
ATOM     59  N   UNL A   1      42.748  30.322  33.581  1.00  0.00    -0.354 N 
ATOM     60  N   UNL A   1      42.231  28.494  31.338  1.00  0.00    -0.248 NA
ATOM     61  C   UNL A   1      42.902  26.718  29.978  1.00  0.00     0.031 C 
ATOM     62  C   UNL A   1      44.574  30.004  34.804  1.00  0.00     0.029 A 
ATOM     63  C   UNL A   1      43.869  29.521  33.713  1.00  0.00     0.049 A 
ATOM     64  H   UNL A   1      42.061  30.224  32.883  1.00  0.00     0.167 HD
ATOM     65  C   UNL A   1      43.441  27.993  31.806  1.00  0.00     0.074 A 
ATOM     66  C   UNL A   1      43.788  26.877  30.951  1.00  0.00     0.031 C 
ATOM     67  C   UNL A   1      44.196  28.414  32.850  1.00  0.00     0.031 A 
BRANCH  54  68
ATOM     68  C   UNL A   1      41.892  33.331  35.803  1.00  0.00    -0.014 A 
ATOM     69  C   UNL A   1      42.681  34.480  35.627  1.00  0.00     0.009 A 
ATOM     70  C   UNL A   1      41.222  33.148  37.022  1.00  0.00     0.009 A 
ATOM     71  C   UNL A   1      42.822  35.405  36.664  1.00  0.00     0.001 A 
ATOM     72  C   UNL A   1      41.339  34.090  38.045  1.00  0.00     0.001 A 
ATOM     73  C   UNL A   1      42.146  35.212  37.869  1.00  0.00     0.000 A 
ENDBRANCH  54  68
BRANCH  55  74
ATOM     74  C   UNL A   1      40.507  26.864  28.302  1.00  0.00    -0.014 A 
ATOM     75  C   UNL A   1      39.807  25.662  28.481  1.00  0.00     0.009 A 
ATOM     76  C   UNL A   1      41.067  27.141  27.044  1.00  0.00     0.009 A 
ATOM     77  C   UNL A   1      39.697  24.743  27.432  1.00  0.00     0.001 A 
ATOM     78  C   UNL A   1      40.928  26.237  25.990  1.00  0.00     0.001 A 
ATOM     79  C   UNL A   1      40.253  25.034  26.188  1.00  0.00     0.000 A 
ENDBRANCH  55  74
BRANCH  67  80
ATOM     80  C   UNL A   1      45.449  27.640  33.157  1.00  0.00    -0.014 A 
ATOM     81  C   UNL A   1      46.693  28.016  32.630  1.00  0.00     0.009 A 
ATOM     82  C   UNL A   1      45.386  26.541  34.029  1.00  0.00     0.009 A 
ATOM     83  C   UNL A   1      47.842  27.286  32.941  1.00  0.00     0.001 A 
ATOM     84  C   UNL A   1      46.541  25.834  34.366  1.00  0.00     0.001 A 
ATOM     85  C   UNL A   1      47.766  26.200  33.814  1.00  0.00     0.000 A 
ENDBRANCH  67  80
ENDBRANCH  41  42
ENDBRANCH  34  36
ENDBRANCH  33  34
ENDBRANCH  32  33
ENDBRANCH  31  32
ENDBRANCH  30  31
ENDBRANCH  29  30
ENDBRANCH  28  29
ENDBRANCH  27  28
ENDBRANCH   1  27
TORSDOF 24
ENDMDL
MODEL 2
REMARK VINA RESULT:      -9.5      1.304      6.252
REMARK SMILES CC[C@H](C)c1ccccc1Oc1cccc(F)c1C(=O)OCCOCCOCCOCCOC(=O)c1ccc(-c2c3nc(c(-c4ccccc4)c4ccc([nH]4)c(-c4ccccc4)c4nc(c(-c5ccccc5)c5ccc2[nH]5)C=C4)C=C3)cc1
REMARK SMILES IDX 26 1 25 2 24 3 23 4 22 5 21 6 19 7 20 8 18 9 12 10 13 11
REMARK SMILES IDX 14 12 16 13 15 14 17 15 11 16 10 17 5 18 6 19 7 20 9 21 8 22
REMARK SMILES IDX 3 23 4 24 2 25 1 26 27 27 28 28 29 29 30 30 31 31 32 32
REMARK SMILES IDX 33 33 34 34 35 35 36 36 37 37 83 38 38 39 82 40 39 41 40 42
REMARK SMILES IDX 41 43 76 44 42 45 81 46 75 47 77 48 43 49 80 50 74 51 73 52
REMARK SMILES IDX 44 54 66 55 51 56 65 57 52 58 55 59 64 60 78 61 53 62 54 63
REMARK SMILES IDX 63 65 79 66 56 67 45 68 46 69 50 70 47 71 49 72 48 73 67 74
REMARK SMILES IDX 68 75 72 76 69 77 71 78 70 79 57 80 58 81 62 82 59 83 61 84
REMARK SMILES IDX 60 85
REMARK H PARENT 77 53 55 64
REMARK Flexibility Score: inf
ROOT
ATOM      1  C   UNL A   1      32.776  27.564  23.875  1.00  0.00     0.188 C 
ENDROOT
BRANCH   1   2
ATOM      2  C   UNL A   1      32.880  27.541  22.365  1.00  0.00     0.188 C 
BRANCH   2   3
ATOM      3  O   UNL A   1      33.607  26.555  21.645  1.00  0.00    -0.376 OA
BRANCH   3   4
ATOM      4  C   UNL A   1      32.997  25.259  21.665  1.00  0.00     0.202 C 
BRANCH   4   5
ATOM      5  C   UNL A   1      33.641  24.182  22.572  1.00  0.00     0.261 C 
BRANCH   5   6
ATOM      6  O   UNL A   1      33.063  22.850  22.357  1.00  0.00    -0.459 OA
BRANCH   6   7
ATOM      7  C   UNL A   1      32.211  22.225  23.186  1.00  0.00     0.345 C 
ATOM      8  O   UNL A   1      31.178  22.800  23.502  1.00  0.00    -0.246 OA
BRANCH   7   9
ATOM      9  C   UNL A   1      32.573  20.732  23.621  1.00  0.00     0.138 A 
ATOM     10  C   UNL A   1      33.044  20.059  24.861  1.00  0.00     0.144 A 
ATOM     11  C   UNL A   1      33.142  18.652  24.888  1.00  0.00     0.048 A 
ATOM     12  C   UNL A   1      32.786  17.883  23.771  1.00  0.00     0.007 A 
ATOM     13  C   UNL A   1      32.282  19.884  22.533  1.00  0.00     0.141 A 
ATOM     14  C   UNL A   1      32.369  18.500  22.603  1.00  0.00     0.040 A 
ATOM     15  F   UNL A   1      31.913  20.362  21.335  1.00  0.00    -0.206 F 
BRANCH  10  16
ATOM     16  O   UNL A   1      33.592  20.730  25.974  1.00  0.00    -0.456 OA
BRANCH  16  17
ATOM     17  C   UNL A   1      34.884  21.439  26.089  1.00  0.00     0.130 A 
ATOM     18  C   UNL A   1      34.962  22.899  26.253  1.00  0.00    -0.002 A 
ATOM     19  C   UNL A   1      35.867  23.655  25.456  1.00  0.00     0.008 A 
ATOM     20  C   UNL A   1      36.606  23.053  24.446  1.00  0.00     0.001 A 
ATOM     21  C   UNL A   1      35.815  20.863  25.188  1.00  0.00     0.047 A 
ATOM     22  C   UNL A   1      36.613  21.667  24.341  1.00  0.00     0.004 A 
BRANCH  18  23
ATOM     23  C   UNL A   1      33.848  23.754  26.872  1.00  0.00     0.019 C 
ATOM     24  C   UNL A   1      32.862  24.653  26.096  1.00  0.00     0.013 C 
BRANCH  23  25
ATOM     25  C   UNL A   1      32.883  22.734  27.385  1.00  0.00     0.005 C 
ATOM     26  C   UNL A   1      31.396  23.059  26.965  1.00  0.00     0.004 C 
ENDBRANCH  23  25
ENDBRANCH  18  23
ENDBRANCH  16  17
ENDBRANCH  10  16
ENDBRANCH   7   9
ENDBRANCH   6   7
ENDBRANCH   5   6
ENDBRANCH   4   5
ENDBRANCH   3   4
ENDBRANCH   2   3
ENDBRANCH   1   2
BRANCH   1  27
ATOM     27  O   UNL A   1      31.542  28.025  24.424  1.00  0.00    -0.377 OA
BRANCH  27  28
ATOM     28  C   UNL A   1      31.594  29.254  25.142  1.00  0.00     0.188 C 
BRANCH  28  29
ATOM     29  C   UNL A   1      31.821  29.152  26.662  1.00  0.00     0.188 C 
BRANCH  29  30
ATOM     30  O   UNL A   1      33.181  29.202  27.049  1.00  0.00    -0.376 OA
BRANCH  30  31
ATOM     31  C   UNL A   1      33.799  30.458  27.286  1.00  0.00     0.202 C 
BRANCH  31  32
ATOM     32  C   UNL A   1      32.957  31.740  27.469  1.00  0.00     0.261 C 
BRANCH  32  33
ATOM     33  O   UNL A   1      33.634  32.990  27.305  1.00  0.00    -0.460 OA
BRANCH  33  34
ATOM     34  C   UNL A   1      33.627  33.829  28.352  1.00  0.00     0.338 C 
ATOM     35  O   UNL A   1      32.710  34.561  28.709  1.00  0.00    -0.246 OA
BRANCH  34  36
ATOM     36  C   UNL A   1      34.841  33.566  29.145  1.00  0.00     0.060 A 
ATOM     37  C   UNL A   1      36.075  34.012  28.651  1.00  0.00     0.016 A 
ATOM     38  C   UNL A   1      34.765  32.883  30.360  1.00  0.00     0.016 A 
ATOM     39  C   UNL A   1      37.244  33.750  29.357  1.00  0.00     0.010 A 
ATOM     40  C   UNL A   1      35.942  32.579  31.046  1.00  0.00     0.010 A 
ATOM     41  C   UNL A   1      37.185  32.980  30.523  1.00  0.00    -0.014 A 
BRANCH  41  42
ATOM     42  C   UNL A   1      38.430  32.371  31.035  1.00  0.00     0.031 A 
ATOM     43  C   UNL A   1      38.918  31.115  30.367  1.00  0.00     0.074 A 
ATOM     44  C   UNL A   1      39.131  32.932  32.034  1.00  0.00     0.049 A 
ATOM     45  N   UNL A   1      39.950  30.367  30.655  1.00  0.00    -0.248 NA
ATOM     46  C   UNL A   1      38.131  30.642  29.214  1.00  0.00     0.031 C 
ATOM     47  C   UNL A   1      38.798  34.185  32.706  1.00  0.00     0.029 A 
ATOM     48  N   UNL A   1      40.276  32.505  32.655  1.00  0.00    -0.354 N 
ATOM     49  C   UNL A   1      39.929  29.332  29.728  1.00  0.00     0.074 A 
ATOM     50  C   UNL A   1      38.772  29.533  28.885  1.00  0.00     0.031 C 
ATOM     51  C   UNL A   1      39.715  34.421  33.662  1.00  0.00     0.029 A 
ATOM     52  C   UNL A   1      40.672  33.316  33.690  1.00  0.00     0.049 A 
ATOM     53  H   UNL A   1      40.768  31.697  32.385  1.00  0.00     0.167 HD
ATOM     54  C   UNL A   1      40.798  28.304  29.590  1.00  0.00     0.031 A 
ATOM     55  C   UNL A   1      41.677  33.161  34.573  1.00  0.00     0.031 A 
ATOM     56  C   UNL A   1      41.933  28.095  30.447  1.00  0.00     0.049 A 
ATOM     57  C   UNL A   1      42.569  31.951  34.467  1.00  0.00     0.074 A 
ATOM     58  C   UNL A   1      42.876  27.086  30.395  1.00  0.00     0.029 A 
ATOM     59  N   UNL A   1      42.269  28.908  31.519  1.00  0.00    -0.354 N 
ATOM     60  N   UNL A   1      42.552  30.983  33.581  1.00  0.00    -0.248 NA
ATOM     61  C   UNL A   1      43.625  31.816  35.481  1.00  0.00     0.031 C 
ATOM     62  C   UNL A   1      43.746  27.250  31.479  1.00  0.00     0.029 A 
ATOM     63  C   UNL A   1      43.388  28.404  32.158  1.00  0.00     0.049 A 
ATOM     64  H   UNL A   1      41.783  29.722  31.785  1.00  0.00     0.167 HD
ATOM     65  C   UNL A   1      43.612  30.145  33.911  1.00  0.00     0.074 A 
ATOM     66  C   UNL A   1      44.259  30.727  35.069  1.00  0.00     0.031 C 
ATOM     67  C   UNL A   1      44.017  28.999  33.310  1.00  0.00     0.031 A 
BRANCH  54  68
ATOM     68  C   UNL A   1      40.517  27.302  28.507  1.00  0.00    -0.014 A 
ATOM     69  C   UNL A   1      41.065  27.437  27.221  1.00  0.00     0.009 A 
ATOM     70  C   UNL A   1      39.700  26.195  28.784  1.00  0.00     0.009 A 
ATOM     71  C   UNL A   1      40.773  26.500  26.227  1.00  0.00     0.001 A 
ATOM     72  C   UNL A   1      39.436  25.243  27.798  1.00  0.00     0.001 A 
ATOM     73  C   UNL A   1      39.964  25.401  26.519  1.00  0.00     0.000 A 
ENDBRANCH  54  68
BRANCH  55  74
ATOM     74  C   UNL A   1      41.878  34.156  35.660  1.00  0.00    -0.014 A 
ATOM     75  C   UNL A   1      41.201  34.031  36.883  1.00  0.00     0.009 A 
ATOM     76  C   UNL A   1      42.729  35.257  35.468  1.00  0.00     0.009 A 
ATOM     77  C   UNL A   1      41.350  35.002  37.877  1.00  0.00     0.001 A 
ATOM     78  C   UNL A   1      42.900  36.208  36.474  1.00  0.00     0.001 A 
ATOM     79  C   UNL A   1      42.202  36.086  37.674  1.00  0.00     0.000 A 
ENDBRANCH  55  74
BRANCH  67  80
ATOM     80  C   UNL A   1      45.241  28.321  33.862  1.00  0.00    -0.014 A 
ATOM     81  C   UNL A   1      46.529  28.655  33.419  1.00  0.00     0.009 A 
ATOM     82  C   UNL A   1      45.102  27.365  34.881  1.00  0.00     0.009 A 
ATOM     83  C   UNL A   1      47.649  28.019  33.957  1.00  0.00     0.001 A 
ATOM     84  C   UNL A   1      46.224  26.756  35.443  1.00  0.00     0.001 A 
ATOM     85  C   UNL A   1      47.497  27.075  34.974  1.00  0.00     0.000 A 
ENDBRANCH  67  80
ENDBRANCH  41  42
ENDBRANCH  34  36
ENDBRANCH  33  34
ENDBRANCH  32  33
ENDBRANCH  31  32
ENDBRANCH  30  31
ENDBRANCH  29  30
ENDBRANCH  28  29
ENDBRANCH  27  28
ENDBRANCH   1  27
TORSDOF 24
ENDMDL
MODEL 3
REMARK VINA RESULT:      -9.2      3.604      6.946
REMARK SMILES CC[C@H](C)c1ccccc1Oc1cccc(F)c1C(=O)OCCOCCOCCOCCOC(=O)c1ccc(-c2c3nc(c(-c4ccccc4)c4ccc([nH]4)c(-c4ccccc4)c4nc(c(-c5ccccc5)c5ccc2[nH]5)C=C4)C=C3)cc1
REMARK SMILES IDX 26 1 25 2 24 3 23 4 22 5 21 6 19 7 20 8 18 9 12 10 13 11
REMARK SMILES IDX 14 12 16 13 15 14 17 15 11 16 10 17 5 18 6 19 7 20 9 21 8 22
REMARK SMILES IDX 3 23 4 24 2 25 1 26 27 27 28 28 29 29 30 30 31 31 32 32
REMARK SMILES IDX 33 33 34 34 35 35 36 36 37 37 83 38 38 39 82 40 39 41 40 42
REMARK SMILES IDX 41 43 76 44 42 45 81 46 75 47 77 48 43 49 80 50 74 51 73 52
REMARK SMILES IDX 44 54 66 55 51 56 65 57 52 58 55 59 64 60 78 61 53 62 54 63
REMARK SMILES IDX 63 65 79 66 56 67 45 68 46 69 50 70 47 71 49 72 48 73 67 74
REMARK SMILES IDX 68 75 72 76 69 77 71 78 70 79 57 80 58 81 62 82 59 83 61 84
REMARK SMILES IDX 60 85
REMARK H PARENT 77 53 55 64
REMARK Flexibility Score: inf
ROOT
ATOM      1  C   UNL A   1      32.311  28.595  25.034  1.00  0.00     0.188 C 
ENDROOT
BRANCH   1   2
ATOM      2  C   UNL A   1      31.994  27.428  24.123  1.00  0.00     0.188 C 
BRANCH   2   3
ATOM      3  O   UNL A   1      32.661  26.175  24.196  1.00  0.00    -0.376 OA
BRANCH   3   4
ATOM      4  C   UNL A   1      31.888  25.147  24.827  1.00  0.00     0.202 C 
BRANCH   4   5
ATOM      5  C   UNL A   1      32.331  24.686  26.237  1.00  0.00     0.261 C 
BRANCH   5   6
ATOM      6  O   UNL A   1      32.285  23.228  26.391  1.00  0.00    -0.459 OA
BRANCH   6   7
ATOM      7  C   UNL A   1      33.159  22.488  27.094  1.00  0.00     0.345 C 
ATOM      8  O   UNL A   1      32.910  22.254  28.269  1.00  0.00    -0.246 OA
BRANCH   7   9
ATOM      9  C   UNL A   1      34.413  21.892  26.307  1.00  0.00     0.138 A 
ATOM     10  C   UNL A   1      34.682  20.694  25.467  1.00  0.00     0.144 A 
ATOM     11  C   UNL A   1      35.933  20.570  24.825  1.00  0.00     0.048 A 
ATOM     12  C   UNL A   1      36.913  21.563  24.955  1.00  0.00     0.007 A 
ATOM     13  C   UNL A   1      35.471  22.817  26.419  1.00  0.00     0.141 A 
ATOM     14  C   UNL A   1      36.681  22.671  25.754  1.00  0.00     0.040 A 
ATOM     15  F   UNL A   1      35.388  23.906  27.198  1.00  0.00    -0.206 F 
BRANCH  10  16
ATOM     16  O   UNL A   1      33.850  19.558  25.407  1.00  0.00    -0.456 OA
BRANCH  16  17
ATOM     17  C   UNL A   1      32.715  19.283  24.501  1.00  0.00     0.130 A 
ATOM     18  C   UNL A   1      32.619  18.038  23.723  1.00  0.00    -0.002 A 
ATOM     19  C   UNL A   1      32.288  18.091  22.339  1.00  0.00     0.008 A 
ATOM     20  C   UNL A   1      32.158  19.306  21.680  1.00  0.00     0.001 A 
ATOM     21  C   UNL A   1      32.365  20.475  23.816  1.00  0.00     0.047 A 
ATOM     22  C   UNL A   1      32.153  20.484  22.418  1.00  0.00     0.004 A 
BRANCH  18  23
ATOM     23  C   UNL A   1      33.282  16.716  24.132  1.00  0.00     0.019 C 
ATOM     24  C   UNL A   1      34.733  16.549  24.628  1.00  0.00     0.013 C 
BRANCH  23  25
ATOM     25  C   UNL A   1      32.559  16.349  25.388  1.00  0.00     0.005 C 
ATOM     26  C   UNL A   1      32.571  14.792  25.646  1.00  0.00     0.004 C 
ENDBRANCH  23  25
ENDBRANCH  18  23
ENDBRANCH  16  17
ENDBRANCH  10  16
ENDBRANCH   7   9
ENDBRANCH   6   7
ENDBRANCH   5   6
ENDBRANCH   4   5
ENDBRANCH   3   4
ENDBRANCH   2   3
ENDBRANCH   1   2
BRANCH   1  27
ATOM     27  O   UNL A   1      31.205  29.391  25.461  1.00  0.00    -0.377 OA
BRANCH  27  28
ATOM     28  C   UNL A   1      31.483  30.763  25.724  1.00  0.00     0.188 C 
BRANCH  28  29
ATOM     29  C   UNL A   1      31.991  31.102  27.138  1.00  0.00     0.188 C 
BRANCH  29  30
ATOM     30  O   UNL A   1      33.264  30.566  27.440  1.00  0.00    -0.376 OA
BRANCH  30  31
ATOM     31  C   UNL A   1      34.354  31.442  27.691  1.00  0.00     0.202 C 
BRANCH  31  32
ATOM     32  C   UNL A   1      34.542  32.107  29.073  1.00  0.00     0.261 C 
BRANCH  32  33
ATOM     33  O   UNL A   1      35.882  32.222  29.560  1.00  0.00    -0.460 OA
BRANCH  33  34
ATOM     34  C   UNL A   1      36.234  31.414  30.572  1.00  0.00     0.338 C 
ATOM     35  O   UNL A   1      35.615  31.215  31.612  1.00  0.00    -0.246 OA
BRANCH  34  36
ATOM     36  C   UNL A   1      37.398  30.626  30.131  1.00  0.00     0.060 A 
ATOM     37  C   UNL A   1      38.256  30.091  31.103  1.00  0.00     0.016 A 
ATOM     38  C   UNL A   1      37.646  30.419  28.772  1.00  0.00     0.016 A 
ATOM     39  C   UNL A   1      39.382  29.372  30.719  1.00  0.00     0.010 A 
ATOM     40  C   UNL A   1      38.802  29.738  28.386  1.00  0.00     0.010 A 
ATOM     41  C   UNL A   1      39.689  29.248  29.360  1.00  0.00    -0.014 A 
BRANCH  41  42
ATOM     42  C   UNL A   1      41.060  28.852  28.976  1.00  0.00     0.031 A 
ATOM     43  C   UNL A   1      41.282  27.424  28.561  1.00  0.00     0.074 A 
ATOM     44  C   UNL A   1      42.071  29.737  28.955  1.00  0.00     0.049 A 
ATOM     45  N   UNL A   1      42.390  26.818  28.225  1.00  0.00    -0.248 NA
ATOM     46  C   UNL A   1      40.085  26.564  28.519  1.00  0.00     0.031 C 
ATOM     47  C   UNL A   1      41.960  31.160  29.264  1.00  0.00     0.029 A 
ATOM     48  N   UNL A   1      43.397  29.553  28.660  1.00  0.00    -0.354 N 
ATOM     49  C   UNL A   1      42.026  25.507  27.943  1.00  0.00     0.074 A 
ATOM     50  C   UNL A   1      40.603  25.397  28.170  1.00  0.00     0.031 C 
ATOM     51  C   UNL A   1      43.178  31.722  29.155  1.00  0.00     0.029 A 
ATOM     52  C   UNL A   1      44.153  30.689  28.808  1.00  0.00     0.049 A 
ATOM     53  H   UNL A   1      43.771  28.690  28.369  1.00  0.00     0.167 HD
ATOM     54  C   UNL A   1      42.809  24.484  27.530  1.00  0.00     0.031 A 
ATOM     55  C   UNL A   1      45.484  30.860  28.703  1.00  0.00     0.031 A 
ATOM     56  C   UNL A   1      44.228  24.592  27.331  1.00  0.00     0.049 A 
ATOM     57  C   UNL A   1      46.352  29.680  28.347  1.00  0.00     0.074 A 
ATOM     58  C   UNL A   1      45.116  23.616  26.915  1.00  0.00     0.029 A 
ATOM     59  N   UNL A   1      44.967  25.746  27.545  1.00  0.00    -0.354 N 
ATOM     60  N   UNL A   1      46.001  28.447  28.068  1.00  0.00    -0.248 NA
ATOM     61  C   UNL A   1      47.801  29.919  28.283  1.00  0.00     0.031 C 
ATOM     62  C   UNL A   1      46.403  24.163  26.943  1.00  0.00     0.029 A 
ATOM     63  C   UNL A   1      46.307  25.498  27.302  1.00  0.00     0.049 A 
ATOM     64  H   UNL A   1      44.593  26.611  27.828  1.00  0.00     0.167 HD
ATOM     65  C   UNL A   1      47.179  27.774  27.766  1.00  0.00     0.074 A 
ATOM     66  C   UNL A   1      48.252  28.740  27.879  1.00  0.00     0.031 C 
ATOM     67  C   UNL A   1      47.360  26.474  27.421  1.00  0.00     0.031 A 
BRANCH  54  68
ATOM     68  C   UNL A   1      42.150  23.149  27.324  1.00  0.00    -0.014 A 
ATOM     69  C   UNL A   1      42.076  22.200  28.356  1.00  0.00     0.009 A 
ATOM     70  C   UNL A   1      41.580  22.845  26.079  1.00  0.00     0.009 A 
ATOM     71  C   UNL A   1      41.474  20.960  28.132  1.00  0.00     0.001 A 
ATOM     72  C   UNL A   1      40.950  21.617  25.868  1.00  0.00     0.001 A 
ATOM     73  C   UNL A   1      40.906  20.673  26.891  1.00  0.00     0.000 A 
ENDBRANCH  54  68
BRANCH  55  74
ATOM     74  C   UNL A   1      46.091  32.191  28.971  1.00  0.00    -0.014 A 
ATOM     75  C   UNL A   1      46.607  32.504  30.237  1.00  0.00     0.009 A 
ATOM     76  C   UNL A   1      46.130  33.170  27.964  1.00  0.00     0.009 A 
ATOM     77  C   UNL A   1      47.121  33.777  30.498  1.00  0.00     0.001 A 
ATOM     78  C   UNL A   1      46.674  34.430  28.218  1.00  0.00     0.001 A 
ATOM     79  C   UNL A   1      47.159  34.737  29.488  1.00  0.00     0.000 A 
ENDBRANCH  55  74
BRANCH  67  80
ATOM     80  C   UNL A   1      48.760  26.031  27.097  1.00  0.00    -0.014 A 
ATOM     81  C   UNL A   1      49.271  26.105  25.793  1.00  0.00     0.009 A 
ATOM     82  C   UNL A   1      49.597  25.576  28.129  1.00  0.00     0.009 A 
ATOM     83  C   UNL A   1      50.579  25.698  25.523  1.00  0.00     0.001 A 
ATOM     84  C   UNL A   1      50.915  25.202  27.863  1.00  0.00     0.001 A 
ATOM     85  C   UNL A   1      51.402  25.253  26.559  1.00  0.00     0.000 A 
ENDBRANCH  67  80
ENDBRANCH  41  42
ENDBRANCH  34  36
ENDBRANCH  33  34
ENDBRANCH  32  33
ENDBRANCH  31  32
ENDBRANCH  30  31
ENDBRANCH  29  30
ENDBRANCH  28  29
ENDBRANCH  27  28
ENDBRANCH   1  27
TORSDOF 24
ENDMDL
