MODEL 1
REMARK VINA RESULT:     -10.9      0.000      0.000
REMARK SMILES Cc1ccc(C(=O)N2C[C@@H](C(=O)OCCOCCOCCOCCOC(=O)c3ccc(-c4c5nc(c(-c6ccccc6)c6ccc([nH]6)c(-c6ccccc6)c6nc(c(-c7ccccc7)c7ccc4[nH]7)C=C6)C=C5)cc3)C[C@H](C(=O)N3CCOCC3)C2)cc1F
REMARK SMILES IDX 19 1 18 2 17 3 16 4 15 5 14 6 13 7 11 8 12 9 10 10 8 11 9 12
REMARK SMILES IDX 86 13 77 14 76 15 6 16 7 17 5 18 1 19 2 20 3 21 88 22 4 23
REMARK SMILES IDX 87 24 89 25 78 26 79 27 80 28 81 29 85 30 82 31 84 32 83 33
REMARK SMILES IDX 20 34 21 35 22 36 23 37 24 38 25 39 26 40 27 41 28 42 29 43
REMARK SMILES IDX 75 44 30 45 74 46 31 47 32 48 33 49 68 50 34 51 73 52 67 53
REMARK SMILES IDX 69 54 35 55 72 56 66 57 65 58 36 60 58 61 43 62 57 63 44 64
REMARK SMILES IDX 47 65 56 66 70 67 45 68 46 69 55 71 71 72 48 73 37 74 38 75
REMARK SMILES IDX 42 76 39 77 41 78 40 79 59 80 60 81 64 82 61 83 63 84 62 85
REMARK SMILES IDX 49 86 50 87 54 88 51 89 53 90 52 91
REMARK H PARENT 69 59 47 70
REMARK Flexibility Score: inf
ROOT
ATOM      1  O   UNL A   1      42.217  20.580  26.779  1.00  0.00    -0.377 OA
ENDROOT
BRANCH   1   2
ATOM      2  C   UNL A   1      41.465  21.691  26.326  1.00  0.00     0.188 C 
BRANCH   2   3
ATOM      3  C   UNL A   1      39.922  21.791  26.420  1.00  0.00     0.188 C 
BRANCH   3   4
ATOM      4  O   UNL A   1      39.436  22.962  27.047  1.00  0.00    -0.376 OA
BRANCH   4   5
ATOM      5  C   UNL A   1      38.777  24.001  26.351  1.00  0.00     0.202 C 
BRANCH   5   6
ATOM      6  C   UNL A   1      37.411  23.804  25.673  1.00  0.00     0.261 C 
BRANCH   6   7
ATOM      7  O   UNL A   1      37.275  22.680  24.796  1.00  0.00    -0.463 OA
BRANCH   7   8
ATOM      8  C   UNL A   1      36.367  22.817  23.808  1.00  0.00     0.310 C 
ATOM      9  O   UNL A   1      36.614  23.297  22.710  1.00  0.00    -0.252 OA
BRANCH   8  10
ATOM     10  C   UNL A   1      34.995  22.324  24.200  1.00  0.00     0.119 C 
ATOM     11  N   UNL A   1      32.841  23.033  24.939  1.00  0.00    -0.337 N 
ATOM     12  C   UNL A   1      34.233  23.431  24.866  1.00  0.00     0.135 C 
ATOM     13  C   UNL A   1      32.509  21.815  25.684  1.00  0.00     0.133 C 
ATOM     14  C   UNL A   1      33.408  20.622  25.306  1.00  0.00     0.099 C 
ATOM     15  C   UNL A   1      34.849  21.043  25.030  1.00  0.00     0.032 C 
BRANCH  11  16
ATOM     16  C   UNL A   1      31.947  23.659  24.092  1.00  0.00     0.254 C 
ATOM     17  O   UNL A   1      31.581  23.179  23.026  1.00  0.00    -0.269 OA
BRANCH  16  18
ATOM     18  C   UNL A   1      31.609  25.058  24.417  1.00  0.00     0.042 A 
ATOM     19  C   UNL A   1      31.610  29.126  25.726  1.00  0.00     0.047 C 
ATOM     20  C   UNL A   1      31.506  27.712  25.250  1.00  0.00    -0.015 A 
ATOM     21  C   UNL A   1      31.135  26.695  26.133  1.00  0.00     0.007 A 
ATOM     22  C   UNL A   1      31.865  27.384  23.936  1.00  0.00     0.126 A 
ATOM     23  C   UNL A   1      31.191  25.370  25.719  1.00  0.00     0.014 A 
ATOM     24  C   UNL A   1      31.925  26.066  23.509  1.00  0.00     0.053 A 
ATOM     25  F   UNL A   1      32.218  28.355  23.083  1.00  0.00    -0.207 F 
ENDBRANCH  16  18
ENDBRANCH  11  16
BRANCH  14  26
ATOM     26  C   UNL A   1      32.688  19.701  24.309  1.00  0.00     0.227 C 
ATOM     27  O   UNL A   1      32.163  20.228  23.320  1.00  0.00    -0.275 OA
ATOM     28  N   UNL A   1      32.843  18.336  24.366  1.00  0.00    -0.338 N 
ATOM     29  C   UNL A   1      32.484  17.434  25.468  1.00  0.00     0.148 C 
ATOM     30  C   UNL A   1      33.003  17.612  23.105  1.00  0.00     0.148 C 
ATOM     31  C   UNL A   1      33.510  16.294  25.586  1.00  0.00     0.181 C 
ATOM     32  C   UNL A   1      34.054  16.515  23.298  1.00  0.00     0.181 C 
ATOM     33  O   UNL A   1      33.646  15.603  24.333  1.00  0.00    -0.378 OA
ENDBRANCH  14  26
ENDBRANCH   8  10
ENDBRANCH   7   8
ENDBRANCH   6   7
ENDBRANCH   5   6
ENDBRANCH   4   5
ENDBRANCH   3   4
ENDBRANCH   2   3
ENDBRANCH   1   2
BRANCH   1  34
ATOM     34  C   UNL A   1      42.299  19.481  25.898  1.00  0.00     0.188 C 
BRANCH  34  35
ATOM     35  C   UNL A   1      42.960  18.279  26.587  1.00  0.00     0.188 C 
BRANCH  35  36
ATOM     36  O   UNL A   1      44.221  17.945  26.008  1.00  0.00    -0.376 OA
BRANCH  36  37
ATOM     37  C   UNL A   1      44.636  18.706  24.880  1.00  0.00     0.202 C 
BRANCH  37  38
ATOM     38  C   UNL A   1      45.898  19.588  24.990  1.00  0.00     0.261 C 
BRANCH  38  39
ATOM     39  O   UNL A   1      45.725  20.944  25.441  1.00  0.00    -0.460 OA
BRANCH  39  40
ATOM     40  C   UNL A   1      45.086  21.808  24.623  1.00  0.00     0.338 C 
ATOM     41  O   UNL A   1      44.707  21.606  23.494  1.00  0.00    -0.246 OA
BRANCH  40  42
ATOM     42  C   UNL A   1      44.722  23.002  25.427  1.00  0.00     0.060 A 
ATOM     43  C   UNL A   1      44.250  24.133  24.747  1.00  0.00     0.016 A 
ATOM     44  C   UNL A   1      44.820  23.010  26.820  1.00  0.00     0.016 A 
ATOM     45  C   UNL A   1      43.894  25.279  25.455  1.00  0.00     0.010 A 
ATOM     46  C   UNL A   1      44.501  24.176  27.528  1.00  0.00     0.010 A 
ATOM     47  C   UNL A   1      44.066  25.324  26.844  1.00  0.00    -0.014 A 
BRANCH  47  48
ATOM     48  C   UNL A   1      43.987  26.639  27.523  1.00  0.00     0.031 A 
ATOM     49  C   UNL A   1      45.268  27.388  27.773  1.00  0.00     0.074 A 
ATOM     50  C   UNL A   1      42.805  27.199  27.838  1.00  0.00     0.049 A 
ATOM     51  N   UNL A   1      45.450  28.575  28.291  1.00  0.00    -0.248 NA
ATOM     52  C   UNL A   1      46.511  26.705  27.375  1.00  0.00     0.031 C 
ATOM     53  C   UNL A   1      41.493  26.602  27.599  1.00  0.00     0.029 A 
ATOM     54  N   UNL A   1      42.526  28.411  28.419  1.00  0.00    -0.354 N 
ATOM     55  C   UNL A   1      46.824  28.781  28.282  1.00  0.00     0.074 A 
ATOM     56  C   UNL A   1      47.431  27.586  27.740  1.00  0.00     0.031 C 
ATOM     57  C   UNL A   1      40.544  27.453  28.028  1.00  0.00     0.029 A 
ATOM     58  C   UNL A   1      41.183  28.640  28.596  1.00  0.00     0.049 A 
ATOM     59  H   UNL A   1      43.222  29.055  28.684  1.00  0.00     0.167 HD
ATOM     60  C   UNL A   1      47.521  29.872  28.680  1.00  0.00     0.031 A 
ATOM     61  C   UNL A   1      40.547  29.684  29.163  1.00  0.00     0.031 A 
ATOM     62  C   UNL A   1      46.923  31.052  29.244  1.00  0.00     0.049 A 
ATOM     63  C   UNL A   1      41.352  30.847  29.682  1.00  0.00     0.074 A 
ATOM     64  C   UNL A   1      47.543  32.212  29.675  1.00  0.00     0.029 A 
ATOM     65  N   UNL A   1      45.565  31.217  29.468  1.00  0.00    -0.354 N 
ATOM     66  N   UNL A   1      42.648  31.043  29.641  1.00  0.00    -0.248 NA
ATOM     67  C   UNL A   1      40.598  31.941  30.313  1.00  0.00     0.031 C 
ATOM     68  C   UNL A   1      46.567  33.050  30.223  1.00  0.00     0.029 A 
ATOM     69  C   UNL A   1      45.330  32.446  30.062  1.00  0.00     0.049 A 
ATOM     70  H   UNL A   1      44.869  30.559  29.238  1.00  0.00     0.167 HD
ATOM     71  C   UNL A   1      42.862  32.294  30.213  1.00  0.00     0.074 A 
ATOM     72  C   UNL A   1      41.559  32.817  30.569  1.00  0.00     0.031 C 
ATOM     73  C   UNL A   1      44.029  32.950  30.424  1.00  0.00     0.031 A 
BRANCH  60  74
ATOM     74  C   UNL A   1      49.020  29.814  28.560  1.00  0.00    -0.014 A 
ATOM     75  C   UNL A   1      49.821  29.312  29.598  1.00  0.00     0.009 A 
ATOM     76  C   UNL A   1      49.638  30.250  27.378  1.00  0.00     0.009 A 
ATOM     77  C   UNL A   1      51.211  29.281  29.467  1.00  0.00     0.001 A 
ATOM     78  C   UNL A   1      51.025  30.187  27.237  1.00  0.00     0.001 A 
ATOM     79  C   UNL A   1      51.811  29.713  28.284  1.00  0.00     0.000 A 
ENDBRANCH  60  74
BRANCH  61  80
ATOM     80  C   UNL A   1      39.064  29.676  29.292  1.00  0.00    -0.014 A 
ATOM     81  C   UNL A   1      38.444  29.297  30.493  1.00  0.00     0.009 A 
ATOM     82  C   UNL A   1      38.257  30.015  28.194  1.00  0.00     0.009 A 
ATOM     83  C   UNL A   1      37.051  29.229  30.583  1.00  0.00     0.001 A 
ATOM     84  C   UNL A   1      36.865  29.979  28.295  1.00  0.00     0.001 A 
ATOM     85  C   UNL A   1      36.263  29.575  29.486  1.00  0.00     0.000 A 
ENDBRANCH  61  80
BRANCH  73  86
ATOM     86  C   UNL A   1      43.945  34.323  31.037  1.00  0.00    -0.014 A 
ATOM     87  C   UNL A   1      43.889  35.481  30.246  1.00  0.00     0.009 A 
ATOM     88  C   UNL A   1      43.909  34.457  32.435  1.00  0.00     0.009 A 
ATOM     89  C   UNL A   1      43.853  36.744  30.840  1.00  0.00     0.001 A 
ATOM     90  C   UNL A   1      43.834  35.719  33.026  1.00  0.00     0.001 A 
ATOM     91  C   UNL A   1      43.822  36.862  32.229  1.00  0.00     0.000 A 
ENDBRANCH  73  86
ENDBRANCH  47  48
ENDBRANCH  40  42
ENDBRANCH  39  40
ENDBRANCH  38  39
ENDBRANCH  37  38
ENDBRANCH  36  37
ENDBRANCH  35  36
ENDBRANCH  34  35
ENDBRANCH   1  34
TORSDOF 23
ENDMDL
MODEL 2
REMARK VINA RESULT:     -10.1      1.719      4.362
REMARK SMILES Cc1ccc(C(=O)N2C[C@@H](C(=O)OCCOCCOCCOCCOC(=O)c3ccc(-c4c5nc(c(-c6ccccc6)c6ccc([nH]6)c(-c6ccccc6)c6nc(c(-c7ccccc7)c7ccc4[nH]7)C=C6)C=C5)cc3)C[C@H](C(=O)N3CCOCC3)C2)cc1F
REMARK SMILES IDX 19 1 18 2 17 3 16 4 15 5 14 6 13 7 11 8 12 9 10 10 8 11 9 12
REMARK SMILES IDX 86 13 77 14 76 15 6 16 7 17 5 18 1 19 2 20 3 21 88 22 4 23
REMARK SMILES IDX 87 24 89 25 78 26 79 27 80 28 81 29 85 30 82 31 84 32 83 33
REMARK SMILES IDX 20 34 21 35 22 36 23 37 24 38 25 39 26 40 27 41 28 42 29 43
REMARK SMILES IDX 75 44 30 45 74 46 31 47 32 48 33 49 68 50 34 51 73 52 67 53
REMARK SMILES IDX 69 54 35 55 72 56 66 57 65 58 36 60 58 61 43 62 57 63 44 64
REMARK SMILES IDX 47 65 56 66 70 67 45 68 46 69 55 71 71 72 48 73 37 74 38 75
REMARK SMILES IDX 42 76 39 77 41 78 40 79 59 80 60 81 64 82 61 83 63 84 62 85
REMARK SMILES IDX 49 86 50 87 54 88 51 89 53 90 52 91
REMARK H PARENT 69 59 47 70
REMARK Flexibility Score: inf
ROOT
ATOM      1  O   UNL A   1      42.370  20.434  26.694  1.00  0.00    -0.377 OA
ENDROOT
BRANCH   1   2
ATOM      2  C   UNL A   1      41.483  21.447  26.257  1.00  0.00     0.188 C 
BRANCH   2   3
ATOM      3  C   UNL A   1      40.001  21.550  26.695  1.00  0.00     0.188 C 
BRANCH   3   4
ATOM      4  O   UNL A   1      39.113  22.010  25.695  1.00  0.00    -0.376 OA
BRANCH   4   5
ATOM      5  C   UNL A   1      37.985  21.278  25.258  1.00  0.00     0.202 C 
BRANCH   5   6
ATOM      6  C   UNL A   1      37.010  21.817  24.199  1.00  0.00     0.261 C 
BRANCH   6   7
ATOM      7  O   UNL A   1      36.855  23.238  24.120  1.00  0.00    -0.463 OA
BRANCH   7   8
ATOM      8  C   UNL A   1      36.058  23.792  25.057  1.00  0.00     0.310 C 
ATOM      9  O   UNL A   1      36.453  24.196  26.143  1.00  0.00    -0.252 OA
BRANCH   8  10
ATOM     10  C   UNL A   1      34.610  23.854  24.634  1.00  0.00     0.119 C 
ATOM     11  N   UNL A   1      32.787  22.537  23.841  1.00  0.00    -0.337 N 
ATOM     12  C   UNL A   1      34.233  22.575  23.946  1.00  0.00     0.135 C 
ATOM     13  C   UNL A   1      32.120  23.606  23.093  1.00  0.00     0.133 C 
ATOM     14  C   UNL A   1      32.609  25.010  23.497  1.00  0.00     0.099 C 
ATOM     15  C   UNL A   1      34.104  25.040  23.806  1.00  0.00     0.032 C 
BRANCH  11  16
ATOM     16  C   UNL A   1      32.104  21.661  24.664  1.00  0.00     0.254 C 
ATOM     17  O   UNL A   1      31.528  22.011  25.687  1.00  0.00    -0.269 OA
BRANCH  16  18
ATOM     18  C   UNL A   1      32.284  20.224  24.381  1.00  0.00     0.042 A 
ATOM     19  C   UNL A   1      33.791  16.355  23.373  1.00  0.00     0.047 C 
ATOM     20  C   UNL A   1      33.167  17.668  23.726  1.00  0.00    -0.015 A 
ATOM     21  C   UNL A   1      32.672  18.506  22.724  1.00  0.00     0.007 A 
ATOM     22  C   UNL A   1      33.152  18.104  25.057  1.00  0.00     0.126 A 
ATOM     23  C   UNL A   1      32.236  19.784  23.050  1.00  0.00     0.014 A 
ATOM     24  C   UNL A   1      32.719  19.378  25.396  1.00  0.00     0.053 A 
ATOM     25  F   UNL A   1      33.622  17.303  26.023  1.00  0.00    -0.207 F 
ENDBRANCH  16  18
ENDBRANCH  11  16
BRANCH  14  26
ATOM     26  C   UNL A   1      31.623  25.662  24.480  1.00  0.00     0.227 C 
ATOM     27  O   UNL A   1      30.754  24.937  24.983  1.00  0.00    -0.275 OA
ATOM     28  N   UNL A   1      31.852  26.920  24.983  1.00  0.00    -0.338 N 
ATOM     29  C   UNL A   1      31.954  28.182  24.240  1.00  0.00     0.148 C 
ATOM     30  C   UNL A   1      31.583  27.149  26.403  1.00  0.00     0.148 C 
ATOM     31  C   UNL A   1      33.006  29.102  24.883  1.00  0.00     0.181 C 
ATOM     32  C   UNL A   1      32.683  28.049  26.973  1.00  0.00     0.181 C 
ATOM     33  O   UNL A   1      32.716  29.307  26.276  1.00  0.00    -0.378 OA
ENDBRANCH  14  26
ENDBRANCH   8  10
ENDBRANCH   7   8
ENDBRANCH   6   7
ENDBRANCH   5   6
ENDBRANCH   4   5
ENDBRANCH   3   4
ENDBRANCH   2   3
ENDBRANCH   1   2
BRANCH   1  34
ATOM     34  C   UNL A   1      42.344  19.225  25.967  1.00  0.00     0.188 C 
BRANCH  34  35
ATOM     35  C   UNL A   1      43.321  18.206  26.569  1.00  0.00     0.188 C 
BRANCH  35  36
ATOM     36  O   UNL A   1      44.402  17.901  25.688  1.00  0.00    -0.376 OA
BRANCH  36  37
ATOM     37  C   UNL A   1      44.684  18.845  24.661  1.00  0.00     0.202 C 
BRANCH  37  38
ATOM     38  C   UNL A   1      45.791  19.897  24.890  1.00  0.00     0.261 C 
BRANCH  38  39
ATOM     39  O   UNL A   1      45.400  21.161  25.455  1.00  0.00    -0.460 OA
BRANCH  39  40
ATOM     40  C   UNL A   1      44.926  22.111  24.620  1.00  0.00     0.338 C 
ATOM     41  O   UNL A   1      44.660  21.990  23.448  1.00  0.00    -0.246 OA
BRANCH  40  42
ATOM     42  C   UNL A   1      44.569  23.295  25.442  1.00  0.00     0.060 A 
ATOM     43  C   UNL A   1      44.143  24.452  24.777  1.00  0.00     0.016 A 
ATOM     44  C   UNL A   1      44.631  23.268  26.837  1.00  0.00     0.016 A 
ATOM     45  C   UNL A   1      43.796  25.590  25.501  1.00  0.00     0.010 A 
ATOM     46  C   UNL A   1      44.321  24.425  27.563  1.00  0.00     0.010 A 
ATOM     47  C   UNL A   1      43.932  25.599  26.895  1.00  0.00    -0.014 A 
BRANCH  47  48
ATOM     48  C   UNL A   1      43.867  26.900  27.602  1.00  0.00     0.031 A 
ATOM     49  C   UNL A   1      45.152  27.645  27.840  1.00  0.00     0.074 A 
ATOM     50  C   UNL A   1      42.692  27.452  27.953  1.00  0.00     0.049 A 
ATOM     51  N   UNL A   1      45.345  28.821  28.378  1.00  0.00    -0.248 NA
ATOM     52  C   UNL A   1      46.387  26.972  27.402  1.00  0.00     0.031 C 
ATOM     53  C   UNL A   1      41.375  26.858  27.731  1.00  0.00     0.029 A 
ATOM     54  N   UNL A   1      42.424  28.652  28.566  1.00  0.00    -0.354 N 
ATOM     55  C   UNL A   1      46.718  29.029  28.344  1.00  0.00     0.074 A 
ATOM     56  C   UNL A   1      47.314  27.846  27.765  1.00  0.00     0.031 C 
ATOM     57  C   UNL A   1      40.435  27.700  28.198  1.00  0.00     0.029 A 
ATOM     58  C   UNL A   1      41.086  28.875  28.776  1.00  0.00     0.049 A 
ATOM     59  H   UNL A   1      43.125  29.291  28.829  1.00  0.00     0.167 HD
ATOM     60  C   UNL A   1      47.423  30.112  28.749  1.00  0.00     0.031 A 
ATOM     61  C   UNL A   1      40.460  29.906  29.378  1.00  0.00     0.031 A 
ATOM     62  C   UNL A   1      46.836  31.280  29.350  1.00  0.00     0.049 A 
ATOM     63  C   UNL A   1      41.275  31.060  29.902  1.00  0.00     0.074 A 
ATOM     64  C   UNL A   1      47.464  32.431  29.792  1.00  0.00     0.029 A 
ATOM     65  N   UNL A   1      45.483  31.439  29.606  1.00  0.00    -0.354 N 
ATOM     66  N   UNL A   1      42.571  31.258  29.838  1.00  0.00    -0.248 NA
ATOM     67  C   UNL A   1      40.535  32.139  30.572  1.00  0.00     0.031 C 
ATOM     68  C   UNL A   1      46.499  33.257  30.378  1.00  0.00     0.029 A 
ATOM     69  C   UNL A   1      45.260  32.655  30.231  1.00  0.00     0.049 A 
ATOM     70  H   UNL A   1      44.783  30.784  29.378  1.00  0.00     0.167 HD
ATOM     71  C   UNL A   1      42.795  32.497  30.431  1.00  0.00     0.074 A 
ATOM     72  C   UNL A   1      41.500  33.011  30.825  1.00  0.00     0.031 C 
ATOM     73  C   UNL A   1      43.967  33.150  30.630  1.00  0.00     0.031 A 
BRANCH  60  74
ATOM     74  C   UNL A   1      48.919  30.059  28.596  1.00  0.00    -0.014 A 
ATOM     75  C   UNL A   1      49.554  30.509  27.428  1.00  0.00     0.009 A 
ATOM     76  C   UNL A   1      49.706  29.570  29.650  1.00  0.00     0.009 A 
ATOM     77  C   UNL A   1      50.944  30.437  27.307  1.00  0.00     0.001 A 
ATOM     78  C   UNL A   1      51.096  29.530  29.539  1.00  0.00     0.001 A 
ATOM     79  C   UNL A   1      51.714  29.953  28.364  1.00  0.00     0.000 A 
ENDBRANCH  60  74
BRANCH  61  80
ATOM     80  C   UNL A   1      38.981  29.894  29.538  1.00  0.00    -0.014 A 
ATOM     81  C   UNL A   1      38.382  29.352  30.686  1.00  0.00     0.009 A 
ATOM     82  C   UNL A   1      38.155  30.396  28.519  1.00  0.00     0.009 A 
ATOM     83  C   UNL A   1      36.991  29.285  30.796  1.00  0.00     0.001 A 
ATOM     84  C   UNL A   1      36.765  30.359  28.646  1.00  0.00     0.001 A 
ATOM     85  C   UNL A   1      36.184  29.793  29.779  1.00  0.00     0.000 A 
ENDBRANCH  61  80
BRANCH  73  86
ATOM     86  C   UNL A   1      43.895  34.511  31.273  1.00  0.00    -0.014 A 
ATOM     87  C   UNL A   1      43.827  35.685  30.507  1.00  0.00     0.009 A 
ATOM     88  C   UNL A   1      43.882  34.616  32.674  1.00  0.00     0.009 A 
ATOM     89  C   UNL A   1      43.803  36.935  31.128  1.00  0.00     0.001 A 
ATOM     90  C   UNL A   1      43.819  35.865  33.292  1.00  0.00     0.001 A 
ATOM     91  C   UNL A   1      43.795  37.025  32.519  1.00  0.00     0.000 A 
ENDBRANCH  73  86
ENDBRANCH  47  48
ENDBRANCH  40  42
ENDBRANCH  39  40
ENDBRANCH  38  39
ENDBRANCH  37  38
ENDBRANCH  36  37
ENDBRANCH  35  36
ENDBRANCH  34  35
ENDBRANCH   1  34
TORSDOF 23
ENDMDL
MODEL 3
REMARK VINA RESULT:     -10.0      1.757      6.974
REMARK SMILES Cc1ccc(C(=O)N2C[C@@H](C(=O)OCCOCCOCCOCCOC(=O)c3ccc(-c4c5nc(c(-c6ccccc6)c6ccc([nH]6)c(-c6ccccc6)c6nc(c(-c7ccccc7)c7ccc4[nH]7)C=C6)C=C5)cc3)C[C@H](C(=O)N3CCOCC3)C2)cc1F
REMARK SMILES IDX 19 1 18 2 17 3 16 4 15 5 14 6 13 7 11 8 12 9 10 10 8 11 9 12
REMARK SMILES IDX 86 13 77 14 76 15 6 16 7 17 5 18 1 19 2 20 3 21 88 22 4 23
REMARK SMILES IDX 87 24 89 25 78 26 79 27 80 28 81 29 85 30 82 31 84 32 83 33
REMARK SMILES IDX 20 34 21 35 22 36 23 37 24 38 25 39 26 40 27 41 28 42 29 43
REMARK SMILES IDX 75 44 30 45 74 46 31 47 32 48 33 49 68 50 34 51 73 52 67 53
REMARK SMILES IDX 69 54 35 55 72 56 66 57 65 58 36 60 58 61 43 62 57 63 44 64
REMARK SMILES IDX 47 65 56 66 70 67 45 68 46 69 55 71 71 72 48 73 37 74 38 75
REMARK SMILES IDX 42 76 39 77 41 78 40 79 59 80 60 81 64 82 61 83 63 84 62 85
REMARK SMILES IDX 49 86 50 87 54 88 51 89 53 90 52 91
REMARK H PARENT 69 59 47 70
REMARK Flexibility Score: inf
ROOT
ATOM      1  O   UNL A   1      42.464  20.726  26.415  1.00  0.00    -0.377 OA
ENDROOT
BRANCH   1   2
ATOM      2  C   UNL A   1      41.497  21.726  26.158  1.00  0.00     0.188 C 
BRANCH   2   3
ATOM      3  C   UNL A   1      40.068  21.727  26.758  1.00  0.00     0.188 C 
BRANCH   3   4
ATOM      4  O   UNL A   1      39.059  22.222  25.899  1.00  0.00    -0.376 OA
BRANCH   4   5
ATOM      5  C   UNL A   1      38.047  21.410  25.339  1.00  0.00     0.202 C 
BRANCH   5   6
ATOM      6  C   UNL A   1      37.098  21.916  24.240  1.00  0.00     0.261 C 
BRANCH   6   7
ATOM      7  O   UNL A   1      36.866  23.328  24.179  1.00  0.00    -0.463 OA
BRANCH   7   8
ATOM      8  C   UNL A   1      36.027  23.823  25.112  1.00  0.00     0.310 C 
ATOM      9  O   UNL A   1      36.375  24.178  26.230  1.00  0.00    -0.252 OA
BRANCH   8  10
ATOM     10  C   UNL A   1      34.594  23.885  24.639  1.00  0.00     0.119 C 
ATOM     11  N   UNL A   1      32.792  22.567  23.802  1.00  0.00    -0.337 N 
ATOM     12  C   UNL A   1      34.234  22.600  23.955  1.00  0.00     0.135 C 
ATOM     13  C   UNL A   1      32.156  23.629  23.017  1.00  0.00     0.133 C 
ATOM     14  C   UNL A   1      32.638  25.036  23.419  1.00  0.00     0.099 C 
ATOM     15  C   UNL A   1      34.122  25.063  23.779  1.00  0.00     0.032 C 
BRANCH  11  16
ATOM     16  C   UNL A   1      32.078  21.705  24.612  1.00  0.00     0.254 C 
ATOM     17  O   UNL A   1      31.474  22.070  25.613  1.00  0.00    -0.269 OA
BRANCH  16  18
ATOM     18  C   UNL A   1      32.253  20.264  24.348  1.00  0.00     0.042 A 
ATOM     19  C   UNL A   1      33.756  16.372  23.422  1.00  0.00     0.047 C 
ATOM     20  C   UNL A   1      33.133  17.694  23.744  1.00  0.00    -0.015 A 
ATOM     21  C   UNL A   1      32.674  18.526  22.720  1.00  0.00     0.007 A 
ATOM     22  C   UNL A   1      33.085  18.144  25.069  1.00  0.00     0.126 A 
ATOM     23  C   UNL A   1      32.240  19.810  23.021  1.00  0.00     0.014 A 
ATOM     24  C   UNL A   1      32.653  19.424  25.384  1.00  0.00     0.053 A 
ATOM     25  F   UNL A   1      33.520  17.349  26.057  1.00  0.00    -0.207 F 
ENDBRANCH  16  18
ENDBRANCH  11  16
BRANCH  14  26
ATOM     26  C   UNL A   1      31.623  25.705  24.360  1.00  0.00     0.227 C 
ATOM     27  O   UNL A   1      30.704  25.003  24.801  1.00  0.00    -0.275 OA
ATOM     28  N   UNL A   1      31.866  26.945  24.898  1.00  0.00    -0.338 N 
ATOM     29  C   UNL A   1      32.052  28.216  24.185  1.00  0.00     0.148 C 
ATOM     30  C   UNL A   1      31.529  27.160  26.306  1.00  0.00     0.148 C 
ATOM     31  C   UNL A   1      33.098  29.088  24.902  1.00  0.00     0.181 C 
ATOM     32  C   UNL A   1      32.626  28.011  26.951  1.00  0.00     0.181 C 
ATOM     33  O   UNL A   1      32.740  29.278  26.281  1.00  0.00    -0.378 OA
ENDBRANCH  14  26
ENDBRANCH   8  10
ENDBRANCH   7   8
ENDBRANCH   6   7
ENDBRANCH   5   6
ENDBRANCH   4   5
ENDBRANCH   3   4
ENDBRANCH   2   3
ENDBRANCH   1   2
BRANCH   1  34
ATOM     34  C   UNL A   1      42.275  19.490  25.760  1.00  0.00     0.188 C 
BRANCH  34  35
ATOM     35  C   UNL A   1      43.223  18.424  26.323  1.00  0.00     0.188 C 
BRANCH  35  36
ATOM     36  O   UNL A   1      44.250  18.065  25.399  1.00  0.00    -0.376 OA
BRANCH  36  37
ATOM     37  C   UNL A   1      44.731  19.090  24.537  1.00  0.00     0.202 C 
BRANCH  37  38
ATOM     38  C   UNL A   1      45.871  20.010  25.025  1.00  0.00     0.261 C 
BRANCH  38  39
ATOM     39  O   UNL A   1      45.507  21.301  25.546  1.00  0.00    -0.460 OA
BRANCH  39  40
ATOM     40  C   UNL A   1      44.961  22.198  24.695  1.00  0.00     0.338 C 
ATOM     41  O   UNL A   1      44.576  22.000  23.569  1.00  0.00    -0.246 OA
BRANCH  40  42
ATOM     42  C   UNL A   1      44.705  23.444  25.461  1.00  0.00     0.060 A 
ATOM     43  C   UNL A   1      44.280  24.576  24.751  1.00  0.00     0.016 A 
ATOM     44  C   UNL A   1      44.856  23.501  26.848  1.00  0.00     0.016 A 
ATOM     45  C   UNL A   1      44.025  25.769  25.421  1.00  0.00     0.010 A 
ATOM     46  C   UNL A   1      44.639  24.713  27.517  1.00  0.00     0.010 A 
ATOM     47  C   UNL A   1      44.252  25.858  26.800  1.00  0.00    -0.014 A 
BRANCH  47  48
ATOM     48  C   UNL A   1      44.283  27.202  27.426  1.00  0.00     0.031 A 
ATOM     49  C   UNL A   1      42.979  27.811  27.867  1.00  0.00     0.074 A 
ATOM     50  C   UNL A   1      45.442  27.836  27.675  1.00  0.00     0.049 A 
ATOM     51  N   UNL A   1      42.757  28.939  28.490  1.00  0.00    -0.248 NA
ATOM     52  C   UNL A   1      41.763  27.034  27.571  1.00  0.00     0.031 C 
ATOM     53  C   UNL A   1      46.773  27.330  27.346  1.00  0.00     0.029 A 
ATOM     54  N   UNL A   1      45.679  29.046  28.278  1.00  0.00    -0.354 N 
ATOM     55  C   UNL A   1      41.380  29.008  28.661  1.00  0.00     0.074 A 
ATOM     56  C   UNL A   1      40.814  27.827  28.046  1.00  0.00     0.031 C 
ATOM     57  C   UNL A   1      47.691  28.224  27.757  1.00  0.00     0.029 A 
ATOM     58  C   UNL A   1      47.010  29.375  28.349  1.00  0.00     0.049 A 
ATOM     59  H   UNL A   1      44.962  29.624  28.627  1.00  0.00     0.167 HD
ATOM     60  C   UNL A   1      40.648  29.964  29.281  1.00  0.00     0.031 A 
ATOM     61  C   UNL A   1      47.608  30.484  28.828  1.00  0.00     0.031 A 
ATOM     62  C   UNL A   1      41.205  31.153  29.869  1.00  0.00     0.049 A 
ATOM     63  C   UNL A   1      46.764  31.576  29.432  1.00  0.00     0.074 A 
ATOM     64  C   UNL A   1      40.547  32.180  30.524  1.00  0.00     0.029 A 
ATOM     65  N   UNL A   1      42.552  31.480  29.861  1.00  0.00    -0.354 N 
ATOM     66  N   UNL A   1      45.465  31.617  29.614  1.00  0.00    -0.248 NA
ATOM     67  C   UNL A   1      47.475  32.770  29.911  1.00  0.00     0.031 C 
ATOM     68  C   UNL A   1      41.489  33.161  30.851  1.00  0.00     0.029 A 
ATOM     69  C   UNL A   1      42.743  32.709  30.470  1.00  0.00     0.049 A 
ATOM     70  H   UNL A   1      43.267  30.921  29.480  1.00  0.00     0.167 HD
ATOM     71  C   UNL A   1      45.208  32.825  30.254  1.00  0.00     0.074 A 
ATOM     72  C   UNL A   1      46.489  33.473  30.449  1.00  0.00     0.031 C 
ATOM     73  C   UNL A   1      44.021  33.350  30.646  1.00  0.00     0.031 A 
BRANCH  60  74
ATOM     74  C   UNL A   1      39.155  29.780  29.310  1.00  0.00    -0.014 A 
ATOM     75  C   UNL A   1      38.358  30.065  28.190  1.00  0.00     0.009 A 
ATOM     76  C   UNL A   1      38.540  29.291  30.473  1.00  0.00     0.009 A 
ATOM     77  C   UNL A   1      36.972  29.897  28.248  1.00  0.00     0.001 A 
ATOM     78  C   UNL A   1      37.160  29.093  30.517  1.00  0.00     0.001 A 
ATOM     79  C   UNL A   1      36.375  29.406  29.409  1.00  0.00     0.000 A 
ENDBRANCH  60  74
BRANCH  61  80
ATOM     80  C   UNL A   1      49.086  30.635  28.741  1.00  0.00    -0.014 A 
ATOM     81  C   UNL A   1      49.690  31.195  27.605  1.00  0.00     0.009 A 
ATOM     82  C   UNL A   1      49.906  30.183  29.787  1.00  0.00     0.009 A 
ATOM     83  C   UNL A   1      51.082  31.270  27.505  1.00  0.00     0.001 A 
ATOM     84  C   UNL A   1      51.295  30.290  29.701  1.00  0.00     0.001 A 
ATOM     85  C   UNL A   1      51.883  30.823  28.556  1.00  0.00     0.000 A 
ENDBRANCH  61  80
BRANCH  73  86
ATOM     86  C   UNL A   1      44.058  34.678  31.358  1.00  0.00    -0.014 A 
ATOM     87  C   UNL A   1      44.113  34.761  32.758  1.00  0.00     0.009 A 
ATOM     88  C   UNL A   1      44.050  35.866  30.609  1.00  0.00     0.009 A 
ATOM     89  C   UNL A   1      44.105  36.004  33.394  1.00  0.00     0.001 A 
ATOM     90  C   UNL A   1      44.081  37.107  31.246  1.00  0.00     0.001 A 
ATOM     91  C   UNL A   1      44.092  37.176  32.638  1.00  0.00     0.000 A 
ENDBRANCH  73  86
ENDBRANCH  47  48
ENDBRANCH  40  42
ENDBRANCH  39  40
ENDBRANCH  38  39
ENDBRANCH  37  38
ENDBRANCH  36  37
ENDBRANCH  35  36
ENDBRANCH  34  35
ENDBRANCH   1  34
TORSDOF 23
ENDMDL
