MODEL 1
REMARK VINA RESULT:     -10.3      0.000      0.000
REMARK SMILES Cc1cccc(C(=O)OCCOCCOCCOCCOC(=O)c2ccc(-c3c4nc(c(-c5ccccc5)c5ccc([nH]5)c(-c5ccccc5)c5nc(c(-c6ccccc6)c6ccc3[nH]6)C=C5)C=C4)cc2)c1OC[C@@H]1C[C@H]2CC[C@@H]1C2
REMARK SMILES IDX 14 1 13 2 12 3 11 4 10 5 9 6 7 7 8 8 6 9 1 10 2 11 3 12
REMARK SMILES IDX 72 13 4 14 5 15 73 16 74 17 75 18 76 19 80 20 77 21 79 22
REMARK SMILES IDX 81 23 78 24 15 25 16 26 17 27 18 28 19 29 20 30 21 31 22 32
REMARK SMILES IDX 23 33 24 34 25 35 71 36 26 37 70 38 27 39 28 40 29 41 64 42
REMARK SMILES IDX 30 43 69 44 63 45 65 46 31 47 68 48 62 49 61 50 32 52 54 53
REMARK SMILES IDX 39 54 53 55 40 56 43 57 52 58 66 59 41 60 42 61 51 63 67 64
REMARK SMILES IDX 44 65 33 66 34 67 38 68 35 69 37 70 36 71 55 72 56 73 60 74
REMARK SMILES IDX 57 75 59 76 58 77 45 78 46 79 50 80 47 81 49 82 48 83
REMARK H PARENT 65 51 43 62
REMARK Flexibility Score: inf
ROOT
ATOM      1  C   UNL A   1      31.860  25.623  26.499  1.00  0.00     0.188 C 
ENDROOT
BRANCH   1   2
ATOM      2  C   UNL A   1      31.069  24.309  26.339  1.00  0.00     0.188 C 
BRANCH   2   3
ATOM      3  O   UNL A   1      30.693  23.860  25.043  1.00  0.00    -0.376 OA
BRANCH   3   4
ATOM      4  C   UNL A   1      30.483  24.886  24.072  1.00  0.00     0.202 C 
BRANCH   4   5
ATOM      5  C   UNL A   1      31.273  24.762  22.778  1.00  0.00     0.261 C 
BRANCH   5   6
ATOM      6  O   UNL A   1      31.812  23.436  22.726  1.00  0.00    -0.460 OA
BRANCH   6   7
ATOM      7  C   UNL A   1      33.117  23.360  22.402  1.00  0.00     0.342 C 
ATOM      8  O   UNL A   1      33.651  23.701  21.369  1.00  0.00    -0.246 OA
BRANCH   7   9
ATOM      9  C   UNL A   1      33.848  23.339  23.679  1.00  0.00     0.102 A 
ATOM     10  C   UNL A   1      34.611  21.619  27.023  1.00  0.00     0.048 C 
ATOM     11  C   UNL A   1      34.538  22.500  25.811  1.00  0.00    -0.008 A 
ATOM     12  C   UNL A   1      35.143  23.770  26.042  1.00  0.00     0.007 A 
ATOM     13  C   UNL A   1      33.901  22.248  24.583  1.00  0.00     0.136 A 
ATOM     14  C   UNL A   1      35.045  24.826  25.151  1.00  0.00     0.001 A 
ATOM     15  C   UNL A   1      34.383  24.611  23.968  1.00  0.00     0.019 A 
BRANCH  13  16
ATOM     16  O   UNL A   1      33.228  21.141  24.160  1.00  0.00    -0.492 OA
BRANCH  16  17
ATOM     17  C   UNL A   1      32.396  20.257  24.920  1.00  0.00     0.233 C 
BRANCH  17  18
ATOM     18  C   UNL A   1      33.069  18.903  25.126  1.00  0.00     0.030 C 
ATOM     19  C   UNL A   1      34.508  18.736  24.590  1.00  0.00     0.011 C 
ATOM     20  C   UNL A   1      32.355  17.711  24.440  1.00  0.00    -0.004 C 
ATOM     21  C   UNL A   1      34.494  17.286  24.058  1.00  0.00    -0.010 C 
ATOM     22  C   UNL A   1      32.589  16.503  25.345  1.00  0.00     0.004 C 
ATOM     23  C   UNL A   1      33.221  17.346  23.230  1.00  0.00     0.007 C 
ATOM     24  C   UNL A   1      34.100  16.284  25.175  1.00  0.00     0.004 C 
ENDBRANCH  17  18
ENDBRANCH  16  17
ENDBRANCH  13  16
ENDBRANCH   7   9
ENDBRANCH   6   7
ENDBRANCH   5   6
ENDBRANCH   4   5
ENDBRANCH   3   4
ENDBRANCH   2   3
ENDBRANCH   1   2
BRANCH   1  25
ATOM     25  O   UNL A   1      31.145  26.767  26.926  1.00  0.00    -0.377 OA
BRANCH  25  26
ATOM     26  C   UNL A   1      31.843  27.997  27.067  1.00  0.00     0.188 C 
BRANCH  26  27
ATOM     27  C   UNL A   1      32.903  28.418  26.075  1.00  0.00     0.188 C 
BRANCH  27  28
ATOM     28  O   UNL A   1      33.561  29.560  26.600  1.00  0.00    -0.376 OA
BRANCH  28  29
ATOM     29  C   UNL A   1      32.730  30.479  27.292  1.00  0.00     0.202 C 
BRANCH  29  30
ATOM     30  C   UNL A   1      33.500  31.709  27.783  1.00  0.00     0.261 C 
BRANCH  30  31
ATOM     31  O   UNL A   1      34.828  31.701  27.211  1.00  0.00    -0.460 OA
BRANCH  31  32
ATOM     32  C   UNL A   1      35.857  31.807  28.099  1.00  0.00     0.338 C 
ATOM     33  O   UNL A   1      36.325  32.859  28.507  1.00  0.00    -0.246 OA
BRANCH  32  34
ATOM     34  C   UNL A   1      36.536  30.483  28.266  1.00  0.00     0.060 A 
ATOM     35  C   UNL A   1      36.372  29.739  29.448  1.00  0.00     0.016 A 
ATOM     36  C   UNL A   1      37.603  30.186  27.436  1.00  0.00     0.016 A 
ATOM     37  C   UNL A   1      37.394  28.875  29.898  1.00  0.00     0.010 A 
ATOM     38  C   UNL A   1      38.642  29.429  27.947  1.00  0.00     0.010 A 
ATOM     39  C   UNL A   1      38.599  28.809  29.210  1.00  0.00    -0.014 A 
BRANCH  39  40
ATOM     40  C   UNL A   1      39.886  28.231  29.701  1.00  0.00     0.031 A 
ATOM     41  C   UNL A   1      40.306  26.904  29.109  1.00  0.00     0.074 A 
ATOM     42  C   UNL A   1      40.825  28.999  30.338  1.00  0.00     0.049 A 
ATOM     43  N   UNL A   1      41.479  26.388  29.217  1.00  0.00    -0.248 NA
ATOM     44  C   UNL A   1      39.452  26.070  28.255  1.00  0.00     0.031 C 
ATOM     45  C   UNL A   1      42.277  28.790  30.353  1.00  0.00     0.029 A 
ATOM     46  N   UNL A   1      40.718  30.169  31.100  1.00  0.00    -0.354 N 
ATOM     47  C   UNL A   1      41.656  25.457  28.219  1.00  0.00     0.074 A 
ATOM     48  C   UNL A   1      40.341  25.250  27.676  1.00  0.00     0.031 C 
ATOM     49  C   UNL A   1      42.914  29.682  31.122  1.00  0.00     0.029 A 
ATOM     50  C   UNL A   1      41.877  30.289  31.905  1.00  0.00     0.049 A 
ATOM     51  H   UNL A   1      39.964  30.801  31.080  1.00  0.00     0.167 HD
ATOM     52  C   UNL A   1      42.928  25.074  27.904  1.00  0.00     0.031 A 
ATOM     53  C   UNL A   1      41.802  30.172  33.261  1.00  0.00     0.031 A 
ATOM     54  C   UNL A   1      43.894  25.544  28.909  1.00  0.00     0.049 A 
ATOM     55  C   UNL A   1      42.532  28.895  33.663  1.00  0.00     0.074 A 
ATOM     56  C   UNL A   1      45.060  26.283  28.861  1.00  0.00     0.029 A 
ATOM     57  N   UNL A   1      43.585  25.414  30.266  1.00  0.00    -0.354 N 
ATOM     58  N   UNL A   1      42.569  27.809  32.919  1.00  0.00    -0.248 NA
ATOM     59  C   UNL A   1      43.516  28.860  34.744  1.00  0.00     0.031 C 
ATOM     60  C   UNL A   1      45.327  26.759  30.180  1.00  0.00     0.029 A 
ATOM     61  C   UNL A   1      44.382  26.225  31.048  1.00  0.00     0.049 A 
ATOM     62  H   UNL A   1      42.885  24.818  30.620  1.00  0.00     0.167 HD
ATOM     63  C   UNL A   1      43.681  27.077  33.259  1.00  0.00     0.074 A 
ATOM     64  C   UNL A   1      44.187  27.727  34.462  1.00  0.00     0.031 C 
ATOM     65  C   UNL A   1      44.323  26.135  32.499  1.00  0.00     0.031 A 
BRANCH  52  66
ATOM     66  C   UNL A   1      43.362  24.412  26.604  1.00  0.00    -0.014 A 
ATOM     67  C   UNL A   1      42.692  23.251  26.161  1.00  0.00     0.009 A 
ATOM     68  C   UNL A   1      44.472  24.798  25.829  1.00  0.00     0.009 A 
ATOM     69  C   UNL A   1      43.097  22.525  25.029  1.00  0.00     0.001 A 
ATOM     70  C   UNL A   1      44.862  24.096  24.671  1.00  0.00     0.001 A 
ATOM     71  C   UNL A   1      44.178  22.955  24.274  1.00  0.00     0.000 A 
ENDBRANCH  52  66
BRANCH  53  72
ATOM     72  C   UNL A   1      40.562  30.867  33.743  1.00  0.00    -0.014 A 
ATOM     73  C   UNL A   1      40.334  32.124  33.116  1.00  0.00     0.009 A 
ATOM     74  C   UNL A   1      39.437  30.118  34.120  1.00  0.00     0.009 A 
ATOM     75  C   UNL A   1      39.071  32.454  32.605  1.00  0.00     0.001 A 
ATOM     76  C   UNL A   1      38.161  30.492  33.653  1.00  0.00     0.001 A 
ATOM     77  C   UNL A   1      37.995  31.604  32.825  1.00  0.00     0.000 A 
ENDBRANCH  53  72
BRANCH  65  78
ATOM     78  C   UNL A   1      45.000  24.935  33.115  1.00  0.00    -0.014 A 
ATOM     79  C   UNL A   1      46.330  24.956  33.544  1.00  0.00     0.009 A 
ATOM     80  C   UNL A   1      44.217  23.822  33.506  1.00  0.00     0.009 A 
ATOM     81  C   UNL A   1      46.857  23.910  34.304  1.00  0.00     0.001 A 
ATOM     82  C   UNL A   1      44.723  22.804  34.308  1.00  0.00     0.001 A 
ATOM     83  C   UNL A   1      46.052  22.845  34.699  1.00  0.00     0.000 A 
ENDBRANCH  65  78
ENDBRANCH  39  40
ENDBRANCH  32  34
ENDBRANCH  31  32
ENDBRANCH  30  31
ENDBRANCH  29  30
ENDBRANCH  28  29
ENDBRANCH  27  28
ENDBRANCH  26  27
ENDBRANCH  25  26
ENDBRANCH   1  25
TORSDOF 23
ENDMDL
MODEL 2
REMARK VINA RESULT:      -9.9      3.012      4.971
REMARK SMILES Cc1cccc(C(=O)OCCOCCOCCOCCOC(=O)c2ccc(-c3c4nc(c(-c5ccccc5)c5ccc([nH]5)c(-c5ccccc5)c5nc(c(-c6ccccc6)c6ccc3[nH]6)C=C5)C=C4)cc2)c1OC[C@@H]1C[C@H]2CC[C@@H]1C2
REMARK SMILES IDX 14 1 13 2 12 3 11 4 10 5 9 6 7 7 8 8 6 9 1 10 2 11 3 12
REMARK SMILES IDX 72 13 4 14 5 15 73 16 74 17 75 18 76 19 80 20 77 21 79 22
REMARK SMILES IDX 81 23 78 24 15 25 16 26 17 27 18 28 19 29 20 30 21 31 22 32
REMARK SMILES IDX 23 33 24 34 25 35 71 36 26 37 70 38 27 39 28 40 29 41 64 42
REMARK SMILES IDX 30 43 69 44 63 45 65 46 31 47 68 48 62 49 61 50 32 52 54 53
REMARK SMILES IDX 39 54 53 55 40 56 43 57 52 58 66 59 41 60 42 61 51 63 67 64
REMARK SMILES IDX 44 65 33 66 34 67 38 68 35 69 37 70 36 71 55 72 56 73 60 74
REMARK SMILES IDX 57 75 59 76 58 77 45 78 46 79 50 80 47 81 49 82 48 83
REMARK H PARENT 65 51 43 62
REMARK Flexibility Score: inf
ROOT
ATOM      1  C   UNL A   1      33.337  28.904  25.591  1.00  0.00     0.188 C 
ENDROOT
BRANCH   1   2
ATOM      2  C   UNL A   1      33.521  27.920  24.417  1.00  0.00     0.188 C 
BRANCH   2   3
ATOM      3  O   UNL A   1      33.684  26.531  24.674  1.00  0.00    -0.376 OA
BRANCH   3   4
ATOM      4  C   UNL A   1      33.068  26.049  25.869  1.00  0.00     0.202 C 
BRANCH   4   5
ATOM      5  C   UNL A   1      32.347  24.713  25.765  1.00  0.00     0.261 C 
BRANCH   5   6
ATOM      6  O   UNL A   1      33.316  23.726  25.392  1.00  0.00    -0.460 OA
BRANCH   6   7
ATOM      7  C   UNL A   1      33.922  23.100  26.419  1.00  0.00     0.342 C 
ATOM      8  O   UNL A   1      33.408  22.593  27.392  1.00  0.00    -0.246 OA
BRANCH   7   9
ATOM      9  C   UNL A   1      35.217  22.634  25.897  1.00  0.00     0.102 A 
ATOM     10  C   UNL A   1      37.501  19.743  24.828  1.00  0.00     0.048 C 
ATOM     11  C   UNL A   1      36.853  21.057  25.146  1.00  0.00    -0.008 A 
ATOM     12  C   UNL A   1      37.801  22.121  25.189  1.00  0.00     0.007 A 
ATOM     13  C   UNL A   1      35.509  21.314  25.471  1.00  0.00     0.136 A 
ATOM     14  C   UNL A   1      37.490  23.392  25.641  1.00  0.00     0.001 A 
ATOM     15  C   UNL A   1      36.192  23.645  26.009  1.00  0.00     0.019 A 
BRANCH  13  16
ATOM     16  O   UNL A   1      34.449  20.459  25.540  1.00  0.00    -0.492 OA
BRANCH  16  17
ATOM     17  C   UNL A   1      33.478  20.157  24.532  1.00  0.00     0.233 C 
BRANCH  17  18
ATOM     18  C   UNL A   1      33.220  18.656  24.441  1.00  0.00     0.030 C 
ATOM     19  C   UNL A   1      32.794  17.929  25.736  1.00  0.00     0.011 C 
ATOM     20  C   UNL A   1      34.446  17.811  24.014  1.00  0.00    -0.004 C 
ATOM     21  C   UNL A   1      33.537  16.581  25.616  1.00  0.00    -0.010 C 
ATOM     22  C   UNL A   1      33.888  16.636  23.212  1.00  0.00     0.004 C 
ATOM     23  C   UNL A   1      34.926  17.100  25.284  1.00  0.00     0.007 C 
ATOM     24  C   UNL A   1      33.152  15.845  24.305  1.00  0.00     0.004 C 
ENDBRANCH  17  18
ENDBRANCH  16  17
ENDBRANCH  13  16
ENDBRANCH   7   9
ENDBRANCH   6   7
ENDBRANCH   5   6
ENDBRANCH   4   5
ENDBRANCH   3   4
ENDBRANCH   2   3
ENDBRANCH   1   2
BRANCH   1  25
ATOM     25  O   UNL A   1      32.261  29.820  25.512  1.00  0.00    -0.377 OA
BRANCH  25  26
ATOM     26  C   UNL A   1      32.095  30.770  26.555  1.00  0.00     0.188 C 
BRANCH  26  27
ATOM     27  C   UNL A   1      33.281  31.322  27.313  1.00  0.00     0.188 C 
BRANCH  27  28
ATOM     28  O   UNL A   1      32.983  32.663  27.670  1.00  0.00    -0.376 OA
BRANCH  28  29
ATOM     29  C   UNL A   1      34.104  33.475  27.983  1.00  0.00     0.202 C 
BRANCH  29  30
ATOM     30  C   UNL A   1      33.765  34.576  28.993  1.00  0.00     0.261 C 
BRANCH  30  31
ATOM     31  O   UNL A   1      33.498  33.975  30.281  1.00  0.00    -0.460 OA
BRANCH  31  32
ATOM     32  C   UNL A   1      33.360  34.844  31.323  1.00  0.00     0.338 C 
ATOM     33  O   UNL A   1      32.635  35.827  31.325  1.00  0.00    -0.246 OA
BRANCH  32  34
ATOM     34  C   UNL A   1      34.437  34.613  32.337  1.00  0.00     0.060 A 
ATOM     35  C   UNL A   1      35.663  35.297  32.248  1.00  0.00     0.016 A 
ATOM     36  C   UNL A   1      34.369  33.469  33.115  1.00  0.00     0.016 A 
ATOM     37  C   UNL A   1      36.848  34.709  32.741  1.00  0.00     0.010 A 
ATOM     38  C   UNL A   1      35.552  32.856  33.486  1.00  0.00     0.010 A 
ATOM     39  C   UNL A   1      36.821  33.420  33.255  1.00  0.00    -0.014 A 
BRANCH  39  40
ATOM     40  C   UNL A   1      37.991  32.525  33.505  1.00  0.00     0.031 A 
ATOM     41  C   UNL A   1      37.932  31.142  32.898  1.00  0.00     0.074 A 
ATOM     42  C   UNL A   1      39.203  33.019  33.911  1.00  0.00     0.049 A 
ATOM     43  N   UNL A   1      38.932  30.340  32.793  1.00  0.00    -0.248 NA
ATOM     44  C   UNL A   1      36.740  30.564  32.265  1.00  0.00     0.031 C 
ATOM     45  C   UNL A   1      40.526  32.443  33.648  1.00  0.00     0.029 A 
ATOM     46  N   UNL A   1      39.552  34.169  34.630  1.00  0.00    -0.354 N 
ATOM     47  C   UNL A   1      38.662  29.405  31.819  1.00  0.00     0.074 A 
ATOM     48  C   UNL A   1      37.256  29.549  31.557  1.00  0.00     0.031 C 
ATOM     49  C   UNL A   1      41.510  33.134  34.239  1.00  0.00     0.029 A 
ATOM     50  C   UNL A   1      40.842  33.978  35.185  1.00  0.00     0.049 A 
ATOM     51  H   UNL A   1      38.995  34.973  34.734  1.00  0.00     0.167 HD
ATOM     52  C   UNL A   1      39.705  28.712  31.276  1.00  0.00     0.031 A 
ATOM     53  C   UNL A   1      41.014  33.870  36.533  1.00  0.00     0.031 A 
ATOM     54  C   UNL A   1      40.940  28.907  32.050  1.00  0.00     0.049 A 
ATOM     55  C   UNL A   1      41.461  32.444  36.836  1.00  0.00     0.074 A 
ATOM     56  C   UNL A   1      42.221  29.322  31.741  1.00  0.00     0.029 A 
ATOM     57  N   UNL A   1      40.888  28.846  33.445  1.00  0.00    -0.354 N 
ATOM     58  N   UNL A   1      41.071  31.393  36.144  1.00  0.00    -0.248 NA
ATOM     59  C   UNL A   1      42.602  32.145  37.701  1.00  0.00     0.031 C 
ATOM     60  C   UNL A   1      42.861  29.699  32.961  1.00  0.00     0.029 A 
ATOM     61  C   UNL A   1      42.006  29.416  34.020  1.00  0.00     0.049 A 
ATOM     62  H   UNL A   1      40.147  28.446  33.955  1.00  0.00     0.167 HD
ATOM     63  C   UNL A   1      42.005  30.396  36.288  1.00  0.00     0.074 A 
ATOM     64  C   UNL A   1      42.892  30.881  37.339  1.00  0.00     0.031 C 
ATOM     65  C   UNL A   1      42.220  29.329  35.456  1.00  0.00     0.031 A 
BRANCH  52  66
ATOM     66  C   UNL A   1      39.685  27.975  29.945  1.00  0.00    -0.014 A 
ATOM     67  C   UNL A   1      39.246  26.634  29.901  1.00  0.00     0.009 A 
ATOM     68  C   UNL A   1      40.178  28.484  28.728  1.00  0.00     0.009 A 
ATOM     69  C   UNL A   1      39.293  25.855  28.734  1.00  0.00     0.001 A 
ATOM     70  C   UNL A   1      40.195  27.721  27.544  1.00  0.00     0.001 A 
ATOM     71  C   UNL A   1      39.758  26.403  27.548  1.00  0.00     0.000 A 
ENDBRANCH  52  66
BRANCH  53  72
ATOM     72  C   UNL A   1      40.115  34.855  37.221  1.00  0.00    -0.014 A 
ATOM     73  C   UNL A   1      39.000  34.254  37.868  1.00  0.00     0.009 A 
ATOM     74  C   UNL A   1      40.656  36.012  37.804  1.00  0.00     0.009 A 
ATOM     75  C   UNL A   1      38.661  34.597  39.184  1.00  0.00     0.001 A 
ATOM     76  C   UNL A   1      40.264  36.386  39.105  1.00  0.00     0.001 A 
ATOM     77  C   UNL A   1      39.337  35.628  39.823  1.00  0.00     0.000 A 
ENDBRANCH  53  72
BRANCH  65  78
ATOM     78  C   UNL A   1      42.680  27.989  35.976  1.00  0.00    -0.014 A 
ATOM     79  C   UNL A   1      44.026  27.686  36.197  1.00  0.00     0.009 A 
ATOM     80  C   UNL A   1      41.725  27.081  36.494  1.00  0.00     0.009 A 
ATOM     81  C   UNL A   1      44.401  26.527  36.879  1.00  0.00     0.001 A 
ATOM     82  C   UNL A   1      42.092  25.953  37.221  1.00  0.00     0.001 A 
ATOM     83  C   UNL A   1      43.436  25.671  37.405  1.00  0.00     0.000 A 
ENDBRANCH  65  78
ENDBRANCH  39  40
ENDBRANCH  32  34
ENDBRANCH  31  32
ENDBRANCH  30  31
ENDBRANCH  29  30
ENDBRANCH  28  29
ENDBRANCH  27  28
ENDBRANCH  26  27
ENDBRANCH  25  26
ENDBRANCH   1  25
TORSDOF 23
ENDMDL
MODEL 3
REMARK VINA RESULT:      -9.9      2.696      4.915
REMARK SMILES Cc1cccc(C(=O)OCCOCCOCCOCCOC(=O)c2ccc(-c3c4nc(c(-c5ccccc5)c5ccc([nH]5)c(-c5ccccc5)c5nc(c(-c6ccccc6)c6ccc3[nH]6)C=C5)C=C4)cc2)c1OC[C@@H]1C[C@H]2CC[C@@H]1C2
REMARK SMILES IDX 14 1 13 2 12 3 11 4 10 5 9 6 7 7 8 8 6 9 1 10 2 11 3 12
REMARK SMILES IDX 72 13 4 14 5 15 73 16 74 17 75 18 76 19 80 20 77 21 79 22
REMARK SMILES IDX 81 23 78 24 15 25 16 26 17 27 18 28 19 29 20 30 21 31 22 32
REMARK SMILES IDX 23 33 24 34 25 35 71 36 26 37 70 38 27 39 28 40 29 41 64 42
REMARK SMILES IDX 30 43 69 44 63 45 65 46 31 47 68 48 62 49 61 50 32 52 54 53
REMARK SMILES IDX 39 54 53 55 40 56 43 57 52 58 66 59 41 60 42 61 51 63 67 64
REMARK SMILES IDX 44 65 33 66 34 67 38 68 35 69 37 70 36 71 55 72 56 73 60 74
REMARK SMILES IDX 57 75 59 76 58 77 45 78 46 79 50 80 47 81 49 82 48 83
REMARK H PARENT 65 51 43 62
REMARK Flexibility Score: inf
ROOT
ATOM      1  C   UNL A   1      33.665  31.103  27.135  1.00  0.00     0.188 C 
ENDROOT
BRANCH   1   2
ATOM      2  C   UNL A   1      32.184  30.825  26.807  1.00  0.00     0.188 C 
BRANCH   2   3
ATOM      3  O   UNL A   1      31.826  29.667  26.064  1.00  0.00    -0.376 OA
BRANCH   3   4
ATOM      4  C   UNL A   1      32.837  29.157  25.193  1.00  0.00     0.202 C 
BRANCH   4   5
ATOM      5  C   UNL A   1      32.433  28.945  23.741  1.00  0.00     0.261 C 
BRANCH   5   6
ATOM      6  O   UNL A   1      32.717  27.581  23.409  1.00  0.00    -0.460 OA
BRANCH   6   7
ATOM      7  C   UNL A   1      31.662  26.862  22.981  1.00  0.00     0.342 C 
ATOM      8  O   UNL A   1      31.314  26.655  21.839  1.00  0.00    -0.246 OA
BRANCH   7   9
ATOM      9  C   UNL A   1      31.352  25.917  24.067  1.00  0.00     0.102 A 
ATOM     10  C   UNL A   1      31.635  22.398  25.567  1.00  0.00     0.048 C 
ATOM     11  C   UNL A   1      31.371  23.841  25.255  1.00  0.00    -0.008 A 
ATOM     12  C   UNL A   1      30.359  24.389  26.097  1.00  0.00     0.007 A 
ATOM     13  C   UNL A   1      31.921  24.629  24.228  1.00  0.00     0.136 A 
ATOM     14  C   UNL A   1      29.802  25.640  25.891  1.00  0.00     0.001 A 
ATOM     15  C   UNL A   1      30.294  26.403  24.862  1.00  0.00     0.019 A 
BRANCH  13  16
ATOM     16  O   UNL A   1      32.853  24.310  23.287  1.00  0.00    -0.492 OA
BRANCH  16  17
ATOM     17  C   UNL A   1      34.275  24.476  23.346  1.00  0.00     0.233 C 
BRANCH  17  18
ATOM     18  C   UNL A   1      34.917  23.438  24.262  1.00  0.00     0.030 C 
ATOM     19  C   UNL A   1      35.083  23.811  25.752  1.00  0.00     0.011 C 
ATOM     20  C   UNL A   1      36.371  23.052  23.887  1.00  0.00    -0.004 C 
ATOM     21  C   UNL A   1      36.453  23.187  26.096  1.00  0.00    -0.010 C 
ATOM     22  C   UNL A   1      36.528  21.583  24.273  1.00  0.00     0.004 C 
ATOM     23  C   UNL A   1      37.265  23.729  24.931  1.00  0.00     0.007 C 
ATOM     24  C   UNL A   1      36.462  21.663  25.807  1.00  0.00     0.004 C 
ENDBRANCH  17  18
ENDBRANCH  16  17
ENDBRANCH  13  16
ENDBRANCH   7   9
ENDBRANCH   6   7
ENDBRANCH   5   6
ENDBRANCH   4   5
ENDBRANCH   3   4
ENDBRANCH   2   3
ENDBRANCH   1   2
BRANCH   1  25
ATOM     25  O   UNL A   1      33.980  31.487  28.460  1.00  0.00    -0.377 OA
BRANCH  25  26
ATOM     26  C   UNL A   1      34.372  32.830  28.708  1.00  0.00     0.188 C 
BRANCH  26  27
ATOM     27  C   UNL A   1      33.644  33.992  28.072  1.00  0.00     0.188 C 
BRANCH  27  28
ATOM     28  O   UNL A   1      34.058  35.178  28.732  1.00  0.00    -0.376 OA
BRANCH  28  29
ATOM     29  C   UNL A   1      33.011  36.026  29.179  1.00  0.00     0.202 C 
BRANCH  29  30
ATOM     30  C   UNL A   1      32.689  35.824  30.663  1.00  0.00     0.261 C 
BRANCH  30  31
ATOM     31  O   UNL A   1      33.920  35.800  31.419  1.00  0.00    -0.460 OA
BRANCH  31  32
ATOM     32  C   UNL A   1      34.191  34.635  32.075  1.00  0.00     0.338 C 
ATOM     33  O   UNL A   1      33.370  33.965  32.681  1.00  0.00    -0.246 OA
BRANCH  32  34
ATOM     34  C   UNL A   1      35.671  34.452  32.217  1.00  0.00     0.060 A 
ATOM     35  C   UNL A   1      36.476  34.226  31.087  1.00  0.00     0.016 A 
ATOM     36  C   UNL A   1      36.173  34.130  33.467  1.00  0.00     0.016 A 
ATOM     37  C   UNL A   1      37.665  33.474  31.194  1.00  0.00     0.010 A 
ATOM     38  C   UNL A   1      37.275  33.297  33.536  1.00  0.00     0.010 A 
ATOM     39  C   UNL A   1      38.011  32.893  32.407  1.00  0.00    -0.014 A 
BRANCH  39  40
ATOM     40  C   UNL A   1      39.020  31.814  32.633  1.00  0.00     0.031 A 
ATOM     41  C   UNL A   1      38.809  30.517  31.885  1.00  0.00     0.074 A 
ATOM     42  C   UNL A   1      40.256  32.082  33.160  1.00  0.00     0.049 A 
ATOM     43  N   UNL A   1      39.690  29.589  31.759  1.00  0.00    -0.248 NA
ATOM     44  C   UNL A   1      37.597  30.185  31.126  1.00  0.00     0.031 C 
ATOM     45  C   UNL A   1      41.500  31.342  32.918  1.00  0.00     0.029 A 
ATOM     46  N   UNL A   1      40.712  33.096  34.012  1.00  0.00    -0.354 N 
ATOM     47  C   UNL A   1      39.362  28.799  30.680  1.00  0.00     0.074 A 
ATOM     48  C   UNL A   1      38.014  29.175  30.350  1.00  0.00     0.031 C 
ATOM     49  C   UNL A   1      42.526  31.820  33.635  1.00  0.00     0.029 A 
ATOM     50  C   UNL A   1      41.916  32.664  34.620  1.00  0.00     0.049 A 
ATOM     51  H   UNL A   1      40.269  33.961  34.164  1.00  0.00     0.167 HD
ATOM     52  C   UNL A   1      40.332  28.011  30.132  1.00  0.00     0.031 A 
ATOM     53  C   UNL A   1      41.971  32.406  35.958  1.00  0.00     0.031 A 
ATOM     54  C   UNL A   1      41.523  27.947  30.994  1.00  0.00     0.049 A 
ATOM     55  C   UNL A   1      42.186  30.908  36.139  1.00  0.00     0.074 A 
ATOM     56  C   UNL A   1      42.869  28.192  30.807  1.00  0.00     0.029 A 
ATOM     57  N   UNL A   1      41.359  27.765  32.370  1.00  0.00    -0.354 N 
ATOM     58  N   UNL A   1      41.702  29.995  35.322  1.00  0.00    -0.248 NA
ATOM     59  C   UNL A   1      43.205  30.363  37.037  1.00  0.00     0.031 C 
ATOM     60  C   UNL A   1      43.463  28.355  32.095  1.00  0.00     0.029 A 
ATOM     61  C   UNL A   1      42.501  28.107  33.066  1.00  0.00     0.049 A 
ATOM     62  H   UNL A   1      40.532  27.435  32.791  1.00  0.00     0.167 HD
ATOM     63  C   UNL A   1      42.472  28.861  35.418  1.00  0.00     0.074 A 
ATOM     64  C   UNL A   1      43.338  29.109  36.565  1.00  0.00     0.031 C 
ATOM     65  C   UNL A   1      42.593  27.856  34.496  1.00  0.00     0.031 A 
BRANCH  52  66
ATOM     66  C   UNL A   1      40.306  27.411  28.733  1.00  0.00    -0.014 A 
ATOM     67  C   UNL A   1      39.721  26.143  28.534  1.00  0.00     0.009 A 
ATOM     68  C   UNL A   1      40.924  27.972  27.599  1.00  0.00     0.009 A 
ATOM     69  C   UNL A   1      39.747  25.478  27.297  1.00  0.00     0.001 A 
ATOM     70  C   UNL A   1      40.923  27.328  26.345  1.00  0.00     0.001 A 
ATOM     71  C   UNL A   1      40.339  26.077  26.195  1.00  0.00     0.000 A 
ENDBRANCH  52  66
BRANCH  53  72
ATOM     72  C   UNL A   1      41.174  33.447  36.688  1.00  0.00    -0.014 A 
ATOM     73  C   UNL A   1      40.193  32.903  37.564  1.00  0.00     0.009 A 
ATOM     74  C   UNL A   1      41.775  34.659  37.062  1.00  0.00     0.009 A 
ATOM     75  C   UNL A   1      40.065  33.369  38.880  1.00  0.00     0.001 A 
ATOM     76  C   UNL A   1      41.592  35.155  38.369  1.00  0.00     0.001 A 
ATOM     77  C   UNL A   1      40.812  34.463  39.298  1.00  0.00     0.000 A 
ENDBRANCH  53  72
BRANCH  65  78
ATOM     78  C   UNL A   1      42.818  26.420  34.902  1.00  0.00    -0.014 A 
ATOM     79  C   UNL A   1      41.934  25.722  35.729  1.00  0.00     0.009 A 
ATOM     80  C   UNL A   1      43.815  25.660  34.242  1.00  0.00     0.009 A 
ATOM     81  C   UNL A   1      42.053  24.342  35.907  1.00  0.00     0.001 A 
ATOM     82  C   UNL A   1      43.904  24.278  34.374  1.00  0.00     0.001 A 
ATOM     83  C   UNL A   1      43.024  23.619  35.219  1.00  0.00     0.000 A 
ENDBRANCH  65  78
ENDBRANCH  39  40
ENDBRANCH  32  34
ENDBRANCH  31  32
ENDBRANCH  30  31
ENDBRANCH  29  30
ENDBRANCH  28  29
ENDBRANCH  27  28
ENDBRANCH  26  27
ENDBRANCH  25  26
ENDBRANCH   1  25
TORSDOF 23
ENDMDL
