MODEL 1
REMARK VINA RESULT:     -10.1      0.000      0.000
REMARK SMILES O=C(Cn1cc(NC(=O)N2CC[N@@H+]3CCC[C@@H]3C2)cn1)OCCOCCOCCOCCOC(=O)c1ccc(-c2c3nc(c(-c4ccccc4)c4ccc([nH]4)c(-c4ccccc4)c4nc(c(-c5ccccc5)c5ccc2[nH]5)C=C4)C=C3)cc1
REMARK SMILES IDX 26 1 25 2 24 3 23 4 22 5 21 6 2 7 1 8 3 9 4 10 5 11 20 12
REMARK SMILES IDX 6 13 19 14 7 15 8 16 9 18 10 19 11 20 18 21 12 22 17 23
REMARK SMILES IDX 13 24 16 25 14 26 15 28 27 29 28 30 29 31 30 32 31 33 32 34
REMARK SMILES IDX 33 35 34 36 35 37 36 38 37 39 83 40 38 41 82 42 39 43 40 44
REMARK SMILES IDX 41 45 76 46 42 47 81 48 75 49 77 50 43 51 80 52 74 53 73 54
REMARK SMILES IDX 44 56 66 57 51 58 65 59 52 60 55 61 64 62 78 63 53 64 54 65
REMARK SMILES IDX 63 67 79 68 56 69 45 70 46 71 50 72 47 73 49 74 48 75 67 76
REMARK SMILES IDX 68 77 72 78 69 79 71 80 70 81 57 82 58 83 62 84 59 85 61 86
REMARK SMILES IDX 60 87
REMARK H PARENT 7 17 13 27 77 55 55 66
REMARK Flexibility Score: inf
ROOT
ATOM      1  C   UNL A   1      33.201  36.613  29.902  1.00  0.00     0.188 C 
ENDROOT
BRANCH   1   2
ATOM      2  C   UNL A   1      33.074  35.108  29.669  1.00  0.00     0.188 C 
BRANCH   2   3
ATOM      3  O   UNL A   1      34.181  34.348  30.116  1.00  0.00    -0.376 OA
BRANCH   3   4
ATOM      4  C   UNL A   1      34.383  33.032  29.610  1.00  0.00     0.202 C 
BRANCH   4   5
ATOM      5  C   UNL A   1      34.576  32.818  28.103  1.00  0.00     0.261 C 
BRANCH   5   6
ATOM      6  O   UNL A   1      34.631  31.469  27.567  1.00  0.00    -0.462 OA
BRANCH   6   7
ATOM      7  C   UNL A   1      33.665  30.570  27.307  1.00  0.00     0.327 C 
ATOM      8  O   UNL A   1      32.511  30.972  27.145  1.00  0.00    -0.250 OA
BRANCH   7   9
ATOM      9  C   UNL A   1      33.964  29.108  27.232  1.00  0.00     0.266 C 
BRANCH   9  10
ATOM     10  N   UNL A   1      33.254  28.474  26.152  1.00  0.00    -0.259 N 
ATOM     11  C   UNL A   1      33.706  28.133  24.909  1.00  0.00     0.135 A 
ATOM     12  N   UNL A   1      31.994  28.085  26.372  1.00  0.00    -0.179 NA
ATOM     13  C   UNL A   1      32.708  27.361  24.356  1.00  0.00     0.081 A 
ATOM     14  C   UNL A   1      31.733  27.267  25.366  1.00  0.00     0.161 A 
BRANCH  13  15
ATOM     15  N   UNL A   1      32.730  26.772  23.113  1.00  0.00    -0.305 N 
ATOM     16  C   UNL A   1      33.422  25.638  22.786  1.00  0.00     0.322 C 
ATOM     17  H   UNL A   1      32.204  27.201  22.399  1.00  0.00     0.171 HD
ATOM     18  O   UNL A   1      33.874  25.520  21.648  1.00  0.00    -0.248 OA
BRANCH  16  19
ATOM     19  N   UNL A   1      33.618  24.688  23.767  1.00  0.00    -0.313 N 
ATOM     20  C   UNL A   1      32.588  23.672  24.086  1.00  0.00     0.183 C 
ATOM     21  C   UNL A   1      34.983  24.348  24.158  1.00  0.00     0.186 C 
ATOM     22  C   UNL A   1      33.113  22.559  25.014  1.00  0.00     0.284 C 
ATOM     23  C   UNL A   1      35.286  22.869  23.885  1.00  0.00     0.204 C 
ATOM     24  N   UNL A   1      34.305  21.911  24.455  1.00  0.00    -0.330 N 
ATOM     25  C   UNL A   1      36.645  22.441  24.433  1.00  0.00     0.073 C 
ATOM     26  C   UNL A   1      35.000  21.054  25.414  1.00  0.00     0.262 C 
ATOM     27  H   UNL A   1      33.932  21.334  23.701  1.00  0.00     0.348 HD
ATOM     28  C   UNL A   1      36.415  21.007  24.869  1.00  0.00     0.068 C 
ENDBRANCH  16  19
ENDBRANCH  13  15
ENDBRANCH   9  10
ENDBRANCH   7   9
ENDBRANCH   6   7
ENDBRANCH   5   6
ENDBRANCH   4   5
ENDBRANCH   3   4
ENDBRANCH   2   3
ENDBRANCH   1   2
BRANCH   1  29
ATOM     29  O   UNL A   1      32.660  37.201  31.075  1.00  0.00    -0.377 OA
BRANCH  29  30
ATOM     30  C   UNL A   1      33.501  37.627  32.125  1.00  0.00     0.188 C 
BRANCH  30  31
ATOM     31  C   UNL A   1      33.995  36.635  33.209  1.00  0.00     0.188 C 
BRANCH  31  32
ATOM     32  O   UNL A   1      35.279  36.038  33.275  1.00  0.00    -0.376 OA
BRANCH  32  33
ATOM     33  C   UNL A   1      35.517  34.641  33.252  1.00  0.00     0.202 C 
BRANCH  33  34
ATOM     34  C   UNL A   1      36.924  34.060  33.101  1.00  0.00     0.261 C 
BRANCH  34  35
ATOM     35  O   UNL A   1      37.067  33.296  31.917  1.00  0.00    -0.460 OA
BRANCH  35  36
ATOM     36  C   UNL A   1      36.930  31.967  32.107  1.00  0.00     0.338 C 
ATOM     37  O   UNL A   1      36.256  31.409  32.955  1.00  0.00    -0.246 OA
BRANCH  36  38
ATOM     38  C   UNL A   1      37.704  31.248  31.084  1.00  0.00     0.060 A 
ATOM     39  C   UNL A   1      37.250  29.972  30.744  1.00  0.00     0.016 A 
ATOM     40  C   UNL A   1      38.926  31.747  30.608  1.00  0.00     0.016 A 
ATOM     41  C   UNL A   1      38.143  29.094  30.175  1.00  0.00     0.010 A 
ATOM     42  C   UNL A   1      39.807  30.886  30.000  1.00  0.00     0.010 A 
ATOM     43  C   UNL A   1      39.447  29.541  29.953  1.00  0.00    -0.014 A 
BRANCH  43  44
ATOM     44  C   UNL A   1      40.493  28.546  30.065  1.00  0.00     0.031 A 
ATOM     45  C   UNL A   1      41.116  28.358  31.379  1.00  0.00     0.074 A 
ATOM     46  C   UNL A   1      40.787  27.779  28.994  1.00  0.00     0.049 A 
ATOM     47  N   UNL A   1      42.366  28.469  31.681  1.00  0.00    -0.248 NA
ATOM     48  C   UNL A   1      40.229  28.043  32.507  1.00  0.00     0.031 C 
ATOM     49  C   UNL A   1      40.032  27.676  27.736  1.00  0.00     0.029 A 
ATOM     50  N   UNL A   1      41.747  26.826  28.858  1.00  0.00    -0.354 N 
ATOM     51  C   UNL A   1      42.457  28.078  33.007  1.00  0.00     0.074 A 
ATOM     52  C   UNL A   1      41.108  27.940  33.501  1.00  0.00     0.031 C 
ATOM     53  C   UNL A   1      40.408  26.557  27.086  1.00  0.00     0.029 A 
ATOM     54  C   UNL A   1      41.509  25.949  27.813  1.00  0.00     0.049 A 
ATOM     55  H   UNL A   1      42.535  26.765  29.446  1.00  0.00     0.167 HD
ATOM     56  C   UNL A   1      43.625  27.663  33.560  1.00  0.00     0.031 A 
ATOM     57  C   UNL A   1      42.106  24.754  27.608  1.00  0.00     0.031 A 
ATOM     58  C   UNL A   1      44.782  28.044  32.802  1.00  0.00     0.049 A 
ATOM     59  C   UNL A   1      43.359  24.727  28.397  1.00  0.00     0.074 A 
ATOM     60  C   UNL A   1      45.329  29.247  32.404  1.00  0.00     0.029 A 
ATOM     61  N   UNL A   1      45.394  27.079  32.040  1.00  0.00    -0.354 N 
ATOM     62  N   UNL A   1      44.403  25.458  28.128  1.00  0.00    -0.248 NA
ATOM     63  C   UNL A   1      43.330  24.160  29.736  1.00  0.00     0.031 C 
ATOM     64  C   UNL A   1      45.921  28.991  31.133  1.00  0.00     0.029 A 
ATOM     65  C   UNL A   1      45.703  27.646  30.829  1.00  0.00     0.049 A 
ATOM     66  H   UNL A   1      45.577  26.151  32.313  1.00  0.00     0.167 HD
ATOM     67  C   UNL A   1      44.940  25.782  29.365  1.00  0.00     0.074 A 
ATOM     68  C   UNL A   1      44.327  24.845  30.299  1.00  0.00     0.031 C 
ATOM     69  C   UNL A   1      45.606  26.960  29.557  1.00  0.00     0.031 A 
BRANCH  56  70
ATOM     70  C   UNL A   1      43.653  26.602  34.616  1.00  0.00    -0.014 A 
ATOM     71  C   UNL A   1      44.002  26.931  35.931  1.00  0.00     0.009 A 
ATOM     72  C   UNL A   1      43.564  25.231  34.291  1.00  0.00     0.009 A 
ATOM     73  C   UNL A   1      44.240  25.930  36.880  1.00  0.00     0.001 A 
ATOM     74  C   UNL A   1      43.759  24.233  35.244  1.00  0.00     0.001 A 
ATOM     75  C   UNL A   1      44.111  24.585  36.538  1.00  0.00     0.000 A 
ENDBRANCH  56  70
BRANCH  57  76
ATOM     76  C   UNL A   1      41.508  23.555  26.989  1.00  0.00    -0.014 A 
ATOM     77  C   UNL A   1      42.313  22.561  26.417  1.00  0.00     0.009 A 
ATOM     78  C   UNL A   1      40.137  23.275  27.154  1.00  0.00     0.009 A 
ATOM     79  C   UNL A   1      41.766  21.327  26.041  1.00  0.00     0.001 A 
ATOM     80  C   UNL A   1      39.589  22.050  26.768  1.00  0.00     0.001 A 
ATOM     81  C   UNL A   1      40.408  21.070  26.222  1.00  0.00     0.000 A 
ENDBRANCH  57  76
BRANCH  69  82
ATOM     82  C   UNL A   1      45.974  27.759  28.330  1.00  0.00    -0.014 A 
ATOM     83  C   UNL A   1      45.077  28.656  27.720  1.00  0.00     0.009 A 
ATOM     84  C   UNL A   1      47.295  27.721  27.861  1.00  0.00     0.009 A 
ATOM     85  C   UNL A   1      45.479  29.458  26.650  1.00  0.00     0.001 A 
ATOM     86  C   UNL A   1      47.702  28.538  26.803  1.00  0.00     0.001 A 
ATOM     87  C   UNL A   1      46.793  29.402  26.193  1.00  0.00     0.000 A 
ENDBRANCH  69  82
ENDBRANCH  43  44
ENDBRANCH  36  38
ENDBRANCH  35  36
ENDBRANCH  34  35
ENDBRANCH  33  34
ENDBRANCH  32  33
ENDBRANCH  31  32
ENDBRANCH  30  31
ENDBRANCH  29  30
ENDBRANCH   1  29
TORSDOF 23
ENDMDL
MODEL 2
REMARK VINA RESULT:     -10.0      2.398      6.414
REMARK SMILES O=C(Cn1cc(NC(=O)N2CC[N@@H+]3CCC[C@@H]3C2)cn1)OCCOCCOCCOCCOC(=O)c1ccc(-c2c3nc(c(-c4ccccc4)c4ccc([nH]4)c(-c4ccccc4)c4nc(c(-c5ccccc5)c5ccc2[nH]5)C=C4)C=C3)cc1
REMARK SMILES IDX 26 1 25 2 24 3 23 4 22 5 21 6 2 7 1 8 3 9 4 10 5 11 20 12
REMARK SMILES IDX 6 13 19 14 7 15 8 16 9 18 10 19 11 20 18 21 12 22 17 23
REMARK SMILES IDX 13 24 16 25 14 26 15 28 27 29 28 30 29 31 30 32 31 33 32 34
REMARK SMILES IDX 33 35 34 36 35 37 36 38 37 39 83 40 38 41 82 42 39 43 40 44
REMARK SMILES IDX 41 45 76 46 42 47 81 48 75 49 77 50 43 51 80 52 74 53 73 54
REMARK SMILES IDX 44 56 66 57 51 58 65 59 52 60 55 61 64 62 78 63 53 64 54 65
REMARK SMILES IDX 63 67 79 68 56 69 45 70 46 71 50 72 47 73 49 74 48 75 67 76
REMARK SMILES IDX 68 77 72 78 69 79 71 80 70 81 57 82 58 83 62 84 59 85 61 86
REMARK SMILES IDX 60 87
REMARK H PARENT 7 17 13 27 77 55 55 66
REMARK Flexibility Score: inf
ROOT
ATOM      1  C   UNL A   1      31.860  28.731  27.519  1.00  0.00     0.188 C 
ENDROOT
BRANCH   1   2
ATOM      2  C   UNL A   1      32.239  27.546  26.632  1.00  0.00     0.188 C 
BRANCH   2   3
ATOM      3  O   UNL A   1      33.611  27.479  26.293  1.00  0.00    -0.376 OA
BRANCH   3   4
ATOM      4  C   UNL A   1      34.013  27.666  24.940  1.00  0.00     0.202 C 
BRANCH   4   5
ATOM      5  C   UNL A   1      33.883  26.507  23.941  1.00  0.00     0.261 C 
BRANCH   5   6
ATOM      6  O   UNL A   1      33.463  26.773  22.577  1.00  0.00    -0.462 OA
BRANCH   6   7
ATOM      7  C   UNL A   1      32.670  26.086  21.736  1.00  0.00     0.327 C 
ATOM      8  O   UNL A   1      33.173  25.574  20.733  1.00  0.00    -0.250 OA
BRANCH   7   9
ATOM      9  C   UNL A   1      31.203  25.952  21.985  1.00  0.00     0.266 C 
BRANCH   9  10
ATOM     10  N   UNL A   1      30.929  25.090  23.106  1.00  0.00    -0.259 N 
ATOM     11  C   UNL A   1      31.226  23.767  23.265  1.00  0.00     0.135 A 
ATOM     12  N   UNL A   1      30.368  25.633  24.191  1.00  0.00    -0.179 NA
ATOM     13  C   UNL A   1      30.953  23.488  24.586  1.00  0.00     0.081 A 
ATOM     14  C   UNL A   1      30.546  24.719  25.131  1.00  0.00     0.161 A 
BRANCH  13  15
ATOM     15  N   UNL A   1      31.122  22.275  25.213  1.00  0.00    -0.305 N 
ATOM     16  C   UNL A   1      32.286  21.556  25.244  1.00  0.00     0.322 C 
ATOM     17  H   UNL A   1      30.343  21.893  25.678  1.00  0.00     0.171 HD
ATOM     18  O   UNL A   1      32.230  20.327  25.265  1.00  0.00    -0.248 OA
BRANCH  16  19
ATOM     19  N   UNL A   1      33.481  22.245  25.210  1.00  0.00    -0.313 N 
ATOM     20  C   UNL A   1      33.816  23.275  26.220  1.00  0.00     0.183 C 
ATOM     21  C   UNL A   1      34.617  21.653  24.510  1.00  0.00     0.186 C 
ATOM     22  C   UNL A   1      35.289  23.723  26.152  1.00  0.00     0.284 C 
ATOM     23  C   UNL A   1      35.790  21.405  25.467  1.00  0.00     0.204 C 
ATOM     24  N   UNL A   1      36.203  22.581  26.273  1.00  0.00    -0.330 N 
ATOM     25  C   UNL A   1      37.049  20.942  24.739  1.00  0.00     0.073 C 
ATOM     26  C   UNL A   1      37.587  22.910  25.935  1.00  0.00     0.262 C 
ATOM     27  H   UNL A   1      36.151  22.337  27.263  1.00  0.00     0.348 HD
ATOM     28  C   UNL A   1      38.173  21.566  25.544  1.00  0.00     0.068 C 
ENDBRANCH  16  19
ENDBRANCH  13  15
ENDBRANCH   9  10
ENDBRANCH   7   9
ENDBRANCH   6   7
ENDBRANCH   5   6
ENDBRANCH   4   5
ENDBRANCH   3   4
ENDBRANCH   2   3
ENDBRANCH   1   2
BRANCH   1  29
ATOM     29  O   UNL A   1      31.558  29.989  26.937  1.00  0.00    -0.377 OA
BRANCH  29  30
ATOM     30  C   UNL A   1      32.526  31.016  26.891  1.00  0.00     0.188 C 
BRANCH  30  31
ATOM     31  C   UNL A   1      33.973  30.777  27.392  1.00  0.00     0.188 C 
BRANCH  31  32
ATOM     32  O   UNL A   1      34.926  31.778  27.709  1.00  0.00    -0.376 OA
BRANCH  32  33
ATOM     33  C   UNL A   1      34.871  32.602  28.860  1.00  0.00     0.202 C 
BRANCH  33  34
ATOM     34  C   UNL A   1      35.202  32.070  30.256  1.00  0.00     0.261 C 
BRANCH  34  35
ATOM     35  O   UNL A   1      36.496  31.498  30.321  1.00  0.00    -0.460 OA
BRANCH  35  36
ATOM     36  C   UNL A   1      36.575  30.421  31.130  1.00  0.00     0.338 C 
ATOM     37  O   UNL A   1      36.139  30.316  32.263  1.00  0.00    -0.246 OA
BRANCH  36  38
ATOM     38  C   UNL A   1      37.254  29.328  30.418  1.00  0.00     0.060 A 
ATOM     39  C   UNL A   1      37.802  28.316  31.209  1.00  0.00     0.016 A 
ATOM     40  C   UNL A   1      37.487  29.390  29.036  1.00  0.00     0.016 A 
ATOM     41  C   UNL A   1      38.809  27.547  30.676  1.00  0.00     0.010 A 
ATOM     42  C   UNL A   1      38.462  28.594  28.487  1.00  0.00     0.010 A 
ATOM     43  C   UNL A   1      39.209  27.812  29.364  1.00  0.00    -0.014 A 
BRANCH  43  44
ATOM     44  C   UNL A   1      40.607  27.585  29.063  1.00  0.00     0.031 A 
ATOM     45  C   UNL A   1      40.968  26.317  28.420  1.00  0.00     0.074 A 
ATOM     46  C   UNL A   1      41.497  28.570  29.299  1.00  0.00     0.049 A 
ATOM     47  N   UNL A   1      41.796  25.425  28.850  1.00  0.00    -0.248 NA
ATOM     48  C   UNL A   1      40.294  25.984  27.159  1.00  0.00     0.031 C 
ATOM     49  C   UNL A   1      41.209  29.968  29.653  1.00  0.00     0.029 A 
ATOM     50  N   UNL A   1      42.848  28.565  29.137  1.00  0.00    -0.354 N 
ATOM     51  C   UNL A   1      41.878  24.484  27.835  1.00  0.00     0.074 A 
ATOM     52  C   UNL A   1      40.852  24.810  26.873  1.00  0.00     0.031 C 
ATOM     53  C   UNL A   1      42.309  30.716  29.434  1.00  0.00     0.029 A 
ATOM     54  C   UNL A   1      43.399  29.833  29.056  1.00  0.00     0.049 A 
ATOM     55  H   UNL A   1      43.382  27.739  29.083  1.00  0.00     0.167 HD
ATOM     56  C   UNL A   1      42.929  23.633  27.721  1.00  0.00     0.031 A 
ATOM     57  C   UNL A   1      44.636  30.150  28.616  1.00  0.00     0.031 A 
ATOM     58  C   UNL A   1      43.702  23.517  28.923  1.00  0.00     0.049 A 
ATOM     59  C   UNL A   1      45.467  28.926  28.663  1.00  0.00     0.074 A 
ATOM     60  C   UNL A   1      43.435  23.109  30.215  1.00  0.00     0.029 A 
ATOM     61  N   UNL A   1      44.905  24.179  28.977  1.00  0.00    -0.354 N 
ATOM     62  N   UNL A   1      45.851  28.350  29.766  1.00  0.00    -0.248 NA
ATOM     63  C   UNL A   1      45.565  28.101  27.469  1.00  0.00     0.031 C 
ATOM     64  C   UNL A   1      44.268  23.914  31.046  1.00  0.00     0.029 A 
ATOM     65  C   UNL A   1      44.997  24.766  30.214  1.00  0.00     0.049 A 
ATOM     66  H   UNL A   1      45.577  24.224  28.258  1.00  0.00     0.167 HD
ATOM     67  C   UNL A   1      45.840  26.992  29.483  1.00  0.00     0.074 A 
ATOM     68  C   UNL A   1      45.796  26.911  28.028  1.00  0.00     0.031 C 
ATOM     69  C   UNL A   1      45.575  26.072  30.458  1.00  0.00     0.031 A 
BRANCH  56  70
ATOM     70  C   UNL A   1      43.429  23.188  26.382  1.00  0.00    -0.014 A 
ATOM     71  C   UNL A   1      43.448  21.826  26.058  1.00  0.00     0.009 A 
ATOM     72  C   UNL A   1      44.100  24.073  25.511  1.00  0.00     0.009 A 
ATOM     73  C   UNL A   1      44.103  21.375  24.906  1.00  0.00     0.001 A 
ATOM     74  C   UNL A   1      44.717  23.632  24.342  1.00  0.00     0.001 A 
ATOM     75  C   UNL A   1      44.729  22.277  24.046  1.00  0.00     0.000 A 
ENDBRANCH  56  70
BRANCH  57  76
ATOM     76  C   UNL A   1      45.040  31.381  27.909  1.00  0.00    -0.014 A 
ATOM     77  C   UNL A   1      44.497  31.708  26.660  1.00  0.00     0.009 A 
ATOM     78  C   UNL A   1      45.809  32.362  28.567  1.00  0.00     0.009 A 
ATOM     79  C   UNL A   1      44.702  32.976  26.100  1.00  0.00     0.001 A 
ATOM     80  C   UNL A   1      46.024  33.623  28.004  1.00  0.00     0.001 A 
ATOM     81  C   UNL A   1      45.459  33.933  26.773  1.00  0.00     0.000 A 
ENDBRANCH  57  76
BRANCH  69  82
ATOM     82  C   UNL A   1      45.570  26.554  31.888  1.00  0.00    -0.014 A 
ATOM     83  C   UNL A   1      44.378  26.823  32.586  1.00  0.00     0.009 A 
ATOM     84  C   UNL A   1      46.779  26.603  32.597  1.00  0.00     0.009 A 
ATOM     85  C   UNL A   1      44.399  27.169  33.940  1.00  0.00     0.001 A 
ATOM     86  C   UNL A   1      46.798  26.929  33.956  1.00  0.00     0.001 A 
ATOM     87  C   UNL A   1      45.610  27.218  34.626  1.00  0.00     0.000 A 
ENDBRANCH  69  82
ENDBRANCH  43  44
ENDBRANCH  36  38
ENDBRANCH  35  36
ENDBRANCH  34  35
ENDBRANCH  33  34
ENDBRANCH  32  33
ENDBRANCH  31  32
ENDBRANCH  30  31
ENDBRANCH  29  30
ENDBRANCH   1  29
TORSDOF 23
ENDMDL
MODEL 3
REMARK VINA RESULT:      -9.7      4.159      9.833
REMARK SMILES O=C(Cn1cc(NC(=O)N2CC[N@@H+]3CCC[C@@H]3C2)cn1)OCCOCCOCCOCCOC(=O)c1ccc(-c2c3nc(c(-c4ccccc4)c4ccc([nH]4)c(-c4ccccc4)c4nc(c(-c5ccccc5)c5ccc2[nH]5)C=C4)C=C3)cc1
REMARK SMILES IDX 26 1 25 2 24 3 23 4 22 5 21 6 2 7 1 8 3 9 4 10 5 11 20 12
REMARK SMILES IDX 6 13 19 14 7 15 8 16 9 18 10 19 11 20 18 21 12 22 17 23
REMARK SMILES IDX 13 24 16 25 14 26 15 28 27 29 28 30 29 31 30 32 31 33 32 34
REMARK SMILES IDX 33 35 34 36 35 37 36 38 37 39 83 40 38 41 82 42 39 43 40 44
REMARK SMILES IDX 41 45 76 46 42 47 81 48 75 49 77 50 43 51 80 52 74 53 73 54
REMARK SMILES IDX 44 56 66 57 51 58 65 59 52 60 55 61 64 62 78 63 53 64 54 65
REMARK SMILES IDX 63 67 79 68 56 69 45 70 46 71 50 72 47 73 49 74 48 75 67 76
REMARK SMILES IDX 68 77 72 78 69 79 71 80 70 81 57 82 58 83 62 84 59 85 61 86
REMARK SMILES IDX 60 87
REMARK H PARENT 7 17 13 27 77 55 55 66
REMARK Flexibility Score: inf
ROOT
ATOM      1  C   UNL A   1      40.255  20.313  26.247  1.00  0.00     0.188 C 
ENDROOT
BRANCH   1   2
ATOM      2  C   UNL A   1      40.524  21.793  26.515  1.00  0.00     0.188 C 
BRANCH   2   3
ATOM      3  O   UNL A   1      39.366  22.565  26.771  1.00  0.00    -0.376 OA
BRANCH   3   4
ATOM      4  C   UNL A   1      38.392  22.736  25.746  1.00  0.00     0.202 C 
BRANCH   4   5
ATOM      5  C   UNL A   1      36.927  22.994  26.125  1.00  0.00     0.261 C 
BRANCH   5   6
ATOM      6  O   UNL A   1      35.896  22.067  25.694  1.00  0.00    -0.462 OA
BRANCH   6   7
ATOM      7  C   UNL A   1      35.252  21.930  24.521  1.00  0.00     0.327 C 
ATOM      8  O   UNL A   1      35.763  22.406  23.505  1.00  0.00    -0.250 OA
BRANCH   7   9
ATOM      9  C   UNL A   1      33.934  21.233  24.435  1.00  0.00     0.266 C 
BRANCH   9  10
ATOM     10  N   UNL A   1      32.834  22.151  24.581  1.00  0.00    -0.259 N 
ATOM     11  C   UNL A   1      32.297  23.002  23.657  1.00  0.00     0.135 A 
ATOM     12  N   UNL A   1      32.173  22.158  25.742  1.00  0.00    -0.179 NA
ATOM     13  C   UNL A   1      31.140  23.481  24.232  1.00  0.00     0.081 A 
ATOM     14  C   UNL A   1      31.060  22.819  25.470  1.00  0.00     0.161 A 
BRANCH  13  15
ATOM     15  N   UNL A   1      30.250  24.359  23.657  1.00  0.00    -0.305 N 
ATOM     16  C   UNL A   1      30.129  25.684  23.977  1.00  0.00     0.322 C 
ATOM     17  H   UNL A   1      29.652  24.006  22.959  1.00  0.00     0.171 HD
ATOM     18  O   UNL A   1      29.023  26.218  23.904  1.00  0.00    -0.248 OA
BRANCH  16  19
ATOM     19  N   UNL A   1      31.254  26.358  24.406  1.00  0.00    -0.313 N 
ATOM     20  C   UNL A   1      32.120  27.108  23.467  1.00  0.00     0.183 C 
ATOM     21  C   UNL A   1      31.344  26.759  25.807  1.00  0.00     0.186 C 
ATOM     22  C   UNL A   1      33.155  27.995  24.187  1.00  0.00     0.284 C 
ATOM     23  C   UNL A   1      31.444  28.284  25.942  1.00  0.00     0.204 C 
ATOM     24  N   UNL A   1      32.510  28.918  25.128  1.00  0.00    -0.330 N 
ATOM     25  C   UNL A   1      31.705  28.726  27.379  1.00  0.00     0.073 C 
ATOM     26  C   UNL A   1      33.453  29.575  26.031  1.00  0.00     0.262 C 
ATOM     27  H   UNL A   1      32.087  29.620  24.520  1.00  0.00     0.348 HD
ATOM     28  C   UNL A   1      32.585  29.950  27.218  1.00  0.00     0.068 C 
ENDBRANCH  16  19
ENDBRANCH  13  15
ENDBRANCH   9  10
ENDBRANCH   7   9
ENDBRANCH   6   7
ENDBRANCH   5   6
ENDBRANCH   4   5
ENDBRANCH   3   4
ENDBRANCH   2   3
ENDBRANCH   1   2
BRANCH   1  29
ATOM     29  O   UNL A   1      41.243  19.511  25.620  1.00  0.00    -0.377 OA
BRANCH  29  30
ATOM     30  C   UNL A   1      42.516  19.342  26.206  1.00  0.00     0.188 C 
BRANCH  30  31
ATOM     31  C   UNL A   1      43.428  18.151  25.812  1.00  0.00     0.188 C 
BRANCH  31  32
ATOM     32  O   UNL A   1      44.796  18.228  25.451  1.00  0.00    -0.376 OA
BRANCH  32  33
ATOM     33  C   UNL A   1      45.288  18.912  24.310  1.00  0.00     0.202 C 
BRANCH  33  34
ATOM     34  C   UNL A   1      45.761  20.365  24.378  1.00  0.00     0.261 C 
BRANCH  34  35
ATOM     35  O   UNL A   1      44.724  21.283  24.081  1.00  0.00    -0.460 OA
BRANCH  35  36
ATOM     36  C   UNL A   1      45.058  22.572  24.300  1.00  0.00     0.338 C 
ATOM     37  O   UNL A   1      45.911  23.221  23.720  1.00  0.00    -0.246 OA
BRANCH  36  38
ATOM     38  C   UNL A   1      44.192  23.127  25.350  1.00  0.00     0.060 A 
ATOM     39  C   UNL A   1      43.116  23.908  24.921  1.00  0.00     0.016 A 
ATOM     40  C   UNL A   1      44.529  23.021  26.707  1.00  0.00     0.016 A 
ATOM     41  C   UNL A   1      42.568  24.805  25.807  1.00  0.00     0.010 A 
ATOM     42  C   UNL A   1      43.955  23.884  27.608  1.00  0.00     0.010 A 
ATOM     43  C   UNL A   1      43.109  24.864  27.094  1.00  0.00    -0.014 A 
BRANCH  43  44
ATOM     44  C   UNL A   1      43.091  26.162  27.736  1.00  0.00     0.031 A 
ATOM     45  C   UNL A   1      44.214  27.068  27.473  1.00  0.00     0.074 A 
ATOM     46  C   UNL A   1      42.014  26.517  28.467  1.00  0.00     0.049 A 
ATOM     47  N   UNL A   1      45.014  27.600  28.336  1.00  0.00    -0.248 NA
ATOM     48  C   UNL A   1      44.507  27.390  26.071  1.00  0.00     0.031 C 
ATOM     49  C   UNL A   1      40.721  25.821  28.548  1.00  0.00     0.029 A 
ATOM     50  N   UNL A   1      41.801  27.652  29.187  1.00  0.00    -0.354 N 
ATOM     51  C   UNL A   1      45.817  28.462  27.605  1.00  0.00     0.074 A 
ATOM     52  C   UNL A   1      45.547  28.210  26.210  1.00  0.00     0.031 C 
ATOM     53  C   UNL A   1      39.799  26.661  29.059  1.00  0.00     0.029 A 
ATOM     54  C   UNL A   1      40.463  27.890  29.455  1.00  0.00     0.049 A 
ATOM     55  H   UNL A   1      42.526  28.246  29.486  1.00  0.00     0.167 HD
ATOM     56  C   UNL A   1      46.485  29.493  28.182  1.00  0.00     0.031 A 
ATOM     57  C   UNL A   1      39.919  29.051  29.883  1.00  0.00     0.031 A 
ATOM     58  C   UNL A   1      46.612  29.364  29.605  1.00  0.00     0.049 A 
ATOM     59  C   UNL A   1      41.003  29.883  30.452  1.00  0.00     0.074 A 
ATOM     60  C   UNL A   1      47.191  28.439  30.450  1.00  0.00     0.029 A 
ATOM     61  N   UNL A   1      45.787  30.131  30.393  1.00  0.00    -0.354 N 
ATOM     62  N   UNL A   1      41.630  29.602  31.558  1.00  0.00    -0.248 NA
ATOM     63  C   UNL A   1      41.671  30.846  29.590  1.00  0.00     0.031 C 
ATOM     64  C   UNL A   1      46.364  28.416  31.610  1.00  0.00     0.029 A 
ATOM     65  C   UNL A   1      45.329  29.331  31.409  1.00  0.00     0.049 A 
ATOM     66  H   UNL A   1      45.566  31.080  30.253  1.00  0.00     0.167 HD
ATOM     67  C   UNL A   1      42.937  30.017  31.344  1.00  0.00     0.074 A 
ATOM     68  C   UNL A   1      42.867  30.897  30.183  1.00  0.00     0.031 C 
ATOM     69  C   UNL A   1      43.985  29.383  31.948  1.00  0.00     0.031 A 
BRANCH  56  70
ATOM     70  C   UNL A   1      46.703  30.783  27.455  1.00  0.00    -0.014 A 
ATOM     71  C   UNL A   1      48.001  31.276  27.277  1.00  0.00     0.009 A 
ATOM     72  C   UNL A   1      45.632  31.645  27.139  1.00  0.00     0.009 A 
ATOM     73  C   UNL A   1      48.214  32.572  26.793  1.00  0.00     0.001 A 
ATOM     74  C   UNL A   1      45.840  32.921  26.617  1.00  0.00     0.001 A 
ATOM     75  C   UNL A   1      47.136  33.389  26.457  1.00  0.00     0.000 A 
ENDBRANCH  56  70
BRANCH  57  76
ATOM     76  C   UNL A   1      38.573  29.571  29.572  1.00  0.00    -0.014 A 
ATOM     77  C   UNL A   1      38.204  29.878  28.255  1.00  0.00     0.009 A 
ATOM     78  C   UNL A   1      37.560  29.560  30.552  1.00  0.00     0.009 A 
ATOM     79  C   UNL A   1      36.867  30.147  27.932  1.00  0.00     0.001 A 
ATOM     80  C   UNL A   1      36.229  29.840  30.232  1.00  0.00     0.001 A 
ATOM     81  C   UNL A   1      35.882  30.123  28.917  1.00  0.00     0.000 A 
ENDBRANCH  57  76
BRANCH  69  82
ATOM     82  C   UNL A   1      43.665  28.408  33.055  1.00  0.00    -0.014 A 
ATOM     83  C   UNL A   1      43.486  27.033  32.818  1.00  0.00     0.009 A 
ATOM     84  C   UNL A   1      43.685  28.854  34.385  1.00  0.00     0.009 A 
ATOM     85  C   UNL A   1      43.293  26.139  33.874  1.00  0.00     0.001 A 
ATOM     86  C   UNL A   1      43.512  27.957  35.442  1.00  0.00     0.001 A 
ATOM     87  C   UNL A   1      43.309  26.601  35.187  1.00  0.00     0.000 A 
ENDBRANCH  69  82
ENDBRANCH  43  44
ENDBRANCH  36  38
ENDBRANCH  35  36
ENDBRANCH  34  35
ENDBRANCH  33  34
ENDBRANCH  32  33
ENDBRANCH  31  32
ENDBRANCH  30  31
ENDBRANCH  29  30
ENDBRANCH   1  29
TORSDOF 23
ENDMDL
