MODEL 1
REMARK VINA RESULT:      -9.5      0.000      0.000
REMARK SMILES Cc1ccc([C@H](Nc2ccc(Cl)c(Br)c2)C(=O)OCCOCCOCCOCCOC(=O)c2ccc(-c3c4nc(c(-c5ccccc5)c5ccc([nH]5)c(-c5ccccc5)c5nc(c(-c6ccccc6)c6ccc3[nH]6)C=C5)C=C4)cc2)s1
REMARK SMILES IDX 24 1 23 2 22 3 21 4 20 5 19 6 18 7 16 8 17 9 6 10 5 11 1 12
REMARK SMILES IDX 2 13 3 14 81 15 4 16 7 17 8 19 9 20 15 21 10 22 13 23 11 24
REMARK SMILES IDX 14 25 12 26 25 27 26 28 27 29 28 30 29 31 30 32 31 33 32 34
REMARK SMILES IDX 33 35 34 36 80 37 35 38 79 39 36 40 37 41 38 42 73 43 39 44
REMARK SMILES IDX 78 45 72 46 74 47 40 48 77 49 71 50 70 51 41 53 63 54 48 55
REMARK SMILES IDX 62 56 49 57 52 58 61 59 75 60 50 61 51 62 60 64 76 65 53 66
REMARK SMILES IDX 42 67 43 68 47 69 44 70 46 71 45 72 64 73 65 74 69 75 66 76
REMARK SMILES IDX 68 77 67 78 54 79 55 80 59 81 56 82 58 83 57 84
REMARK H PARENT 7 18 74 52 52 63
REMARK Flexibility Score: inf
ROOT
ATOM      1  O   UNL A   1      34.077  32.398  28.954  1.00  0.00    -0.377 OA
ENDROOT
BRANCH   1   2
ATOM      2  C   UNL A   1      34.375  31.390  28.006  1.00  0.00     0.188 C 
BRANCH   2   3
ATOM      3  C   UNL A   1      33.205  31.092  27.065  1.00  0.00     0.188 C 
BRANCH   3   4
ATOM      4  O   UNL A   1      32.323  30.033  27.407  1.00  0.00    -0.376 OA
BRANCH   4   5
ATOM      5  C   UNL A   1      32.157  28.947  26.502  1.00  0.00     0.202 C 
BRANCH   5   6
ATOM      6  C   UNL A   1      31.846  27.532  27.027  1.00  0.00     0.261 C 
BRANCH   6   7
ATOM      7  O   UNL A   1      32.378  26.403  26.295  1.00  0.00    -0.461 OA
BRANCH   7   8
ATOM      8  C   UNL A   1      31.505  25.383  26.048  1.00  0.00     0.334 C 
ATOM      9  O   UNL A   1      30.956  24.742  26.947  1.00  0.00    -0.249 OA
BRANCH   8  10
ATOM     10  C   UNL A   1      31.404  24.922  24.568  1.00  0.00     0.231 C 
BRANCH  10  11
ATOM     11  C   UNL A   1      32.331  23.722  24.488  1.00  0.00     0.038 A 
ATOM     12  C   UNL A   1      35.691  21.721  24.511  1.00  0.00     0.056 C 
ATOM     13  C   UNL A   1      34.302  22.249  24.461  1.00  0.00     0.002 A 
ATOM     14  C   UNL A   1      33.128  21.538  24.346  1.00  0.00     0.015 A 
ATOM     15  S   UNL A   1      34.026  23.934  24.561  1.00  0.00    -0.143 S 
ATOM     16  C   UNL A   1      31.991  22.384  24.391  1.00  0.00     0.018 A 
ENDBRANCH  10  11
BRANCH  10  17
ATOM     17  N   UNL A   1      31.756  25.896  23.516  1.00  0.00    -0.368 N 
ATOM     18  H   UNL A   1      32.526  25.702  22.934  1.00  0.00     0.161 HD
BRANCH  17  19
ATOM     19  C   UNL A   1      31.052  27.069  23.311  1.00  0.00     0.036 A 
ATOM     20  C   UNL A   1      31.734  28.142  22.747  1.00  0.00     0.027 A 
ATOM     21  C   UNL A   1      29.664  27.181  23.452  1.00  0.00     0.043 A 
ATOM     22  C   UNL A   1      31.095  29.350  22.463  1.00  0.00     0.024 A 
ATOM     23  C   UNL A   1      29.005  28.388  23.148  1.00  0.00     0.038 A 
ATOM     24  C   UNL A   1      29.732  29.492  22.698  1.00  0.00     0.055 A 
ATOM     25  Br  UNL A   1      27.111  28.439  23.317  1.00  0.00    -0.049 Br
ATOM     26  Cl  UNL A   1      29.037  31.046  22.414  1.00  0.00    -0.083 Cl
ENDBRANCH  17  19
ENDBRANCH  10  17
ENDBRANCH   8  10
ENDBRANCH   7   8
ENDBRANCH   6   7
ENDBRANCH   5   6
ENDBRANCH   4   5
ENDBRANCH   3   4
ENDBRANCH   2   3
ENDBRANCH   1   2
BRANCH   1  27
ATOM     27  C   UNL A   1      33.700  33.704  28.534  1.00  0.00     0.188 C 
BRANCH  27  28
ATOM     28  C   UNL A   1      33.835  34.869  29.515  1.00  0.00     0.188 C 
BRANCH  28  29
ATOM     29  O   UNL A   1      33.294  34.704  30.827  1.00  0.00    -0.376 OA
BRANCH  29  30
ATOM     30  C   UNL A   1      34.179  34.636  31.942  1.00  0.00     0.202 C 
BRANCH  30  31
ATOM     31  C   UNL A   1      34.116  33.331  32.731  1.00  0.00     0.261 C 
BRANCH  31  32
ATOM     32  O   UNL A   1      35.021  32.353  32.192  1.00  0.00    -0.460 OA
BRANCH  32  33
ATOM     33  C   UNL A   1      36.122  32.113  32.934  1.00  0.00     0.338 C 
ATOM     34  O   UNL A   1      36.277  32.331  34.127  1.00  0.00    -0.246 OA
BRANCH  33  35
ATOM     35  C   UNL A   1      37.107  31.375  32.123  1.00  0.00     0.060 A 
ATOM     36  C   UNL A   1      37.050  31.368  30.727  1.00  0.00     0.016 A 
ATOM     37  C   UNL A   1      38.151  30.733  32.799  1.00  0.00     0.016 A 
ATOM     38  C   UNL A   1      38.083  30.766  30.005  1.00  0.00     0.010 A 
ATOM     39  C   UNL A   1      39.183  30.140  32.079  1.00  0.00     0.010 A 
ATOM     40  C   UNL A   1      39.175  30.191  30.679  1.00  0.00    -0.014 A 
BRANCH  40  41
ATOM     41  C   UNL A   1      40.406  29.824  29.944  1.00  0.00     0.031 A 
ATOM     42  C   UNL A   1      41.509  30.809  29.723  1.00  0.00     0.074 A 
ATOM     43  C   UNL A   1      40.467  28.590  29.406  1.00  0.00     0.049 A 
ATOM     44  N   UNL A   1      42.645  30.638  29.099  1.00  0.00    -0.248 NA
ATOM     45  C   UNL A   1      41.311  32.162  30.261  1.00  0.00     0.031 C 
ATOM     46  C   UNL A   1      39.420  27.573  29.531  1.00  0.00     0.029 A 
ATOM     47  N   UNL A   1      41.436  27.978  28.653  1.00  0.00    -0.354 N 
ATOM     48  C   UNL A   1      43.307  31.854  29.180  1.00  0.00     0.074 A 
ATOM     49  C   UNL A   1      42.424  32.771  29.868  1.00  0.00     0.031 C 
ATOM     50  C   UNL A   1      39.819  26.453  28.915  1.00  0.00     0.029 A 
ATOM     51  C   UNL A   1      41.125  26.684  28.309  1.00  0.00     0.049 A 
ATOM     52  H   UNL A   1      42.273  28.423  28.386  1.00  0.00     0.167 HD
ATOM     53  C   UNL A   1      44.549  32.161  28.734  1.00  0.00     0.031 A 
ATOM     54  C   UNL A   1      41.814  25.781  27.587  1.00  0.00     0.031 A 
ATOM     55  C   UNL A   1      45.394  31.237  28.020  1.00  0.00     0.049 A 
ATOM     56  C   UNL A   1      43.168  26.162  27.060  1.00  0.00     0.074 A 
ATOM     57  C   UNL A   1      46.679  31.439  27.546  1.00  0.00     0.029 A 
ATOM     58  N   UNL A   1      45.037  29.943  27.666  1.00  0.00    -0.354 N 
ATOM     59  N   UNL A   1      43.817  27.293  27.208  1.00  0.00    -0.248 NA
ATOM     60  C   UNL A   1      43.892  25.148  26.283  1.00  0.00     0.031 C 
ATOM     61  C   UNL A   1      47.065  30.302  26.837  1.00  0.00     0.029 A 
ATOM     62  C   UNL A   1      46.063  29.349  26.950  1.00  0.00     0.049 A 
ATOM     63  H   UNL A   1      44.181  29.511  27.889  1.00  0.00     0.167 HD
ATOM     64  C   UNL A   1      45.038  27.119  26.570  1.00  0.00     0.074 A 
ATOM     65  C   UNL A   1      45.042  25.766  26.046  1.00  0.00     0.031 C 
ATOM     66  C   UNL A   1      46.057  28.001  26.434  1.00  0.00     0.031 A 
BRANCH  53  67
ATOM     67  C   UNL A   1      45.078  33.545  29.004  1.00  0.00    -0.014 A 
ATOM     68  C   UNL A   1      44.815  34.589  28.101  1.00  0.00     0.009 A 
ATOM     69  C   UNL A   1      45.921  33.797  30.099  1.00  0.00     0.009 A 
ATOM     70  C   UNL A   1      45.395  35.847  28.280  1.00  0.00     0.001 A 
ATOM     71  C   UNL A   1      46.472  35.066  30.294  1.00  0.00     0.001 A 
ATOM     72  C   UNL A   1      46.217  36.086  29.379  1.00  0.00     0.000 A 
ENDBRANCH  53  67
BRANCH  54  73
ATOM     73  C   UNL A   1      41.244  24.421  27.391  1.00  0.00    -0.014 A 
ATOM     74  C   UNL A   1      40.118  24.223  26.572  1.00  0.00     0.009 A 
ATOM     75  C   UNL A   1      41.759  23.327  28.101  1.00  0.00     0.009 A 
ATOM     76  C   UNL A   1      39.500  22.973  26.500  1.00  0.00     0.001 A 
ATOM     77  C   UNL A   1      41.160  22.068  27.999  1.00  0.00     0.001 A 
ATOM     78  C   UNL A   1      40.023  21.896  27.212  1.00  0.00     0.000 A 
ENDBRANCH  54  73
BRANCH  66  79
ATOM     79  C   UNL A   1      47.292  27.546  25.702  1.00  0.00    -0.014 A 
ATOM     80  C   UNL A   1      47.344  27.641  24.301  1.00  0.00     0.009 A 
ATOM     81  C   UNL A   1      48.344  26.906  26.376  1.00  0.00     0.009 A 
ATOM     82  C   UNL A   1      48.401  27.077  23.588  1.00  0.00     0.001 A 
ATOM     83  C   UNL A   1      49.422  26.377  25.662  1.00  0.00     0.001 A 
ATOM     84  C   UNL A   1      49.442  26.449  24.270  1.00  0.00     0.000 A 
ENDBRANCH  66  79
ENDBRANCH  40  41
ENDBRANCH  33  35
ENDBRANCH  32  33
ENDBRANCH  31  32
ENDBRANCH  30  31
ENDBRANCH  29  30
ENDBRANCH  28  29
ENDBRANCH  27  28
ENDBRANCH   1  27
TORSDOF 23
ENDMDL
MODEL 2
REMARK VINA RESULT:      -9.1      4.234      9.974
REMARK SMILES Cc1ccc([C@H](Nc2ccc(Cl)c(Br)c2)C(=O)OCCOCCOCCOCCOC(=O)c2ccc(-c3c4nc(c(-c5ccccc5)c5ccc([nH]5)c(-c5ccccc5)c5nc(c(-c6ccccc6)c6ccc3[nH]6)C=C5)C=C4)cc2)s1
REMARK SMILES IDX 24 1 23 2 22 3 21 4 20 5 19 6 18 7 16 8 17 9 6 10 5 11 1 12
REMARK SMILES IDX 2 13 3 14 81 15 4 16 7 17 8 19 9 20 15 21 10 22 13 23 11 24
REMARK SMILES IDX 14 25 12 26 25 27 26 28 27 29 28 30 29 31 30 32 31 33 32 34
REMARK SMILES IDX 33 35 34 36 80 37 35 38 79 39 36 40 37 41 38 42 73 43 39 44
REMARK SMILES IDX 78 45 72 46 74 47 40 48 77 49 71 50 70 51 41 53 63 54 48 55
REMARK SMILES IDX 62 56 49 57 52 58 61 59 75 60 50 61 51 62 60 64 76 65 53 66
REMARK SMILES IDX 42 67 43 68 47 69 44 70 46 71 45 72 64 73 65 74 69 75 66 76
REMARK SMILES IDX 68 77 67 78 54 79 55 80 59 81 56 82 58 83 57 84
REMARK H PARENT 7 18 74 52 52 63
REMARK Flexibility Score: inf
ROOT
ATOM      1  O   UNL A   1      40.465  21.922  26.146  1.00  0.00    -0.377 OA
ENDROOT
BRANCH   1   2
ATOM      2  C   UNL A   1      39.187  22.423  26.488  1.00  0.00     0.188 C 
BRANCH   2   3
ATOM      3  C   UNL A   1      38.054  21.747  25.709  1.00  0.00     0.188 C 
BRANCH   3   4
ATOM      4  O   UNL A   1      36.783  22.380  25.691  1.00  0.00    -0.376 OA
BRANCH   4   5
ATOM      5  C   UNL A   1      36.081  22.494  24.458  1.00  0.00     0.202 C 
BRANCH   5   6
ATOM      6  C   UNL A   1      35.863  23.873  23.806  1.00  0.00     0.261 C 
BRANCH   6   7
ATOM      7  O   UNL A   1      34.713  24.647  24.222  1.00  0.00    -0.461 OA
BRANCH   7   8
ATOM      8  C   UNL A   1      33.733  24.814  23.287  1.00  0.00     0.334 C 
ATOM      9  O   UNL A   1      33.954  25.265  22.161  1.00  0.00    -0.249 OA
BRANCH   8  10
ATOM     10  C   UNL A   1      32.277  24.610  23.789  1.00  0.00     0.231 C 
BRANCH  10  11
ATOM     11  C   UNL A   1      31.969  25.880  24.563  1.00  0.00     0.038 A 
ATOM     12  C   UNL A   1      31.515  28.227  27.658  1.00  0.00     0.056 C 
ATOM     13  C   UNL A   1      31.618  27.545  26.341  1.00  0.00     0.002 A 
ATOM     14  C   UNL A   1      31.460  28.092  25.087  1.00  0.00     0.015 A 
ATOM     15  S   UNL A   1      31.983  25.876  26.272  1.00  0.00    -0.143 S 
ATOM     16  C   UNL A   1      31.691  27.141  24.061  1.00  0.00     0.018 A 
ENDBRANCH  10  11
BRANCH  10  17
ATOM     17  N   UNL A   1      31.995  23.432  24.633  1.00  0.00    -0.368 N 
ATOM     18  H   UNL A   1      31.765  23.575  25.580  1.00  0.00     0.161 HD
BRANCH  17  19
ATOM     19  C   UNL A   1      32.041  22.135  24.153  1.00  0.00     0.036 A 
ATOM     20  C   UNL A   1      32.013  21.955  22.774  1.00  0.00     0.027 A 
ATOM     21  C   UNL A   1      32.310  21.017  24.951  1.00  0.00     0.043 A 
ATOM     22  C   UNL A   1      32.099  20.686  22.199  1.00  0.00     0.024 A 
ATOM     23  C   UNL A   1      32.421  19.734  24.379  1.00  0.00     0.038 A 
ATOM     24  C   UNL A   1      32.266  19.564  23.002  1.00  0.00     0.055 A 
ATOM     25  Br  UNL A   1      32.840  18.277  25.527  1.00  0.00    -0.049 Br
ATOM     26  Cl  UNL A   1      32.265  18.024  22.222  1.00  0.00    -0.083 Cl
ENDBRANCH  17  19
ENDBRANCH  10  17
ENDBRANCH   8  10
ENDBRANCH   7   8
ENDBRANCH   6   7
ENDBRANCH   5   6
ENDBRANCH   4   5
ENDBRANCH   3   4
ENDBRANCH   2   3
ENDBRANCH   1   2
BRANCH   1  27
ATOM     27  C   UNL A   1      41.282  21.285  27.123  1.00  0.00     0.188 C 
BRANCH  27  28
ATOM     28  C   UNL A   1      41.246  19.761  27.241  1.00  0.00     0.188 C 
BRANCH  28  29
ATOM     29  O   UNL A   1      42.392  19.107  27.790  1.00  0.00    -0.376 OA
BRANCH  29  30
ATOM     30  C   UNL A   1      43.105  18.165  26.991  1.00  0.00     0.202 C 
BRANCH  30  31
ATOM     31  C   UNL A   1      43.293  18.573  25.532  1.00  0.00     0.261 C 
BRANCH  31  32
ATOM     32  O   UNL A   1      44.576  19.184  25.324  1.00  0.00    -0.460 OA
BRANCH  32  33
ATOM     33  C   UNL A   1      44.686  19.932  24.206  1.00  0.00     0.338 C 
ATOM     34  O   UNL A   1      44.345  19.627  23.072  1.00  0.00    -0.246 OA
BRANCH  33  35
ATOM     35  C   UNL A   1      45.145  21.285  24.564  1.00  0.00     0.060 A 
ATOM     36  C   UNL A   1      44.972  22.371  23.702  1.00  0.00     0.016 A 
ATOM     37  C   UNL A   1      45.701  21.465  25.836  1.00  0.00     0.016 A 
ATOM     38  C   UNL A   1      45.301  23.654  24.145  1.00  0.00     0.010 A 
ATOM     39  C   UNL A   1      46.023  22.743  26.279  1.00  0.00     0.010 A 
ATOM     40  C   UNL A   1      45.785  23.848  25.451  1.00  0.00    -0.014 A 
BRANCH  40  41
ATOM     41  C   UNL A   1      45.852  25.207  26.035  1.00  0.00     0.031 A 
ATOM     42  C   UNL A   1      44.630  25.900  26.545  1.00  0.00     0.074 A 
ATOM     43  C   UNL A   1      47.044  25.834  26.018  1.00  0.00     0.049 A 
ATOM     44  N   UNL A   1      44.529  27.088  27.081  1.00  0.00    -0.248 NA
ATOM     45  C   UNL A   1      43.356  25.176  26.431  1.00  0.00     0.031 C 
ATOM     46  C   UNL A   1      48.285  25.253  25.500  1.00  0.00     0.029 A 
ATOM     47  N   UNL A   1      47.413  27.085  26.441  1.00  0.00    -0.354 N 
ATOM     48  C   UNL A   1      43.185  27.252  27.385  1.00  0.00     0.074 A 
ATOM     49  C   UNL A   1      42.500  26.063  26.924  1.00  0.00     0.031 C 
ATOM     50  C   UNL A   1      49.285  26.128  25.673  1.00  0.00     0.029 A 
ATOM     51  C   UNL A   1      48.751  27.348  26.267  1.00  0.00     0.049 A 
ATOM     52  H   UNL A   1      46.782  27.731  26.832  1.00  0.00     0.167 HD
ATOM     53  C   UNL A   1      42.590  28.297  28.009  1.00  0.00     0.031 A 
ATOM     54  C   UNL A   1      49.472  28.449  26.554  1.00  0.00     0.031 A 
ATOM     55  C   UNL A   1      43.292  29.485  28.426  1.00  0.00     0.049 A 
ATOM     56  C   UNL A   1      48.779  29.613  27.201  1.00  0.00     0.074 A 
ATOM     57  C   UNL A   1      42.788  30.591  29.089  1.00  0.00     0.029 A 
ATOM     58  N   UNL A   1      44.641  29.729  28.210  1.00  0.00    -0.354 N 
ATOM     59  N   UNL A   1      47.520  29.727  27.553  1.00  0.00    -0.248 NA
ATOM     60  C   UNL A   1      49.599  30.793  27.506  1.00  0.00     0.031 C 
ATOM     61  C   UNL A   1      43.810  31.534  29.200  1.00  0.00     0.029 A 
ATOM     62  C   UNL A   1      44.979  30.981  28.696  1.00  0.00     0.049 A 
ATOM     63  H   UNL A   1      45.267  29.105  27.776  1.00  0.00     0.167 HD
ATOM     64  C   UNL A   1      47.401  30.977  28.146  1.00  0.00     0.074 A 
ATOM     65  C   UNL A   1      48.721  31.576  28.119  1.00  0.00     0.031 C 
ATOM     66  C   UNL A   1      46.297  31.568  28.665  1.00  0.00     0.031 A 
BRANCH  53  67
ATOM     67  C   UNL A   1      41.113  28.209  28.287  1.00  0.00    -0.014 A 
ATOM     68  C   UNL A   1      40.198  28.888  27.465  1.00  0.00     0.009 A 
ATOM     69  C   UNL A   1      40.628  27.537  29.422  1.00  0.00     0.009 A 
ATOM     70  C   UNL A   1      38.837  28.910  27.781  1.00  0.00     0.001 A 
ATOM     71  C   UNL A   1      39.263  27.531  29.716  1.00  0.00     0.001 A 
ATOM     72  C   UNL A   1      38.370  28.226  28.901  1.00  0.00     0.000 A 
ENDBRANCH  53  67
BRANCH  54  73
ATOM     73  C   UNL A   1      50.934  28.449  26.283  1.00  0.00    -0.014 A 
ATOM     74  C   UNL A   1      51.450  29.031  25.112  1.00  0.00     0.009 A 
ATOM     75  C   UNL A   1      51.816  27.780  27.145  1.00  0.00     0.009 A 
ATOM     76  C   UNL A   1      52.803  28.908  24.790  1.00  0.00     0.001 A 
ATOM     77  C   UNL A   1      53.177  27.690  26.839  1.00  0.00     0.001 A 
ATOM     78  C   UNL A   1      53.666  28.239  25.656  1.00  0.00     0.000 A 
ENDBRANCH  54  73
BRANCH  66  79
ATOM     79  C   UNL A   1      46.449  32.937  29.273  1.00  0.00    -0.014 A 
ATOM     80  C   UNL A   1      46.691  33.061  30.652  1.00  0.00     0.009 A 
ATOM     81  C   UNL A   1      46.223  34.098  28.519  1.00  0.00     0.009 A 
ATOM     82  C   UNL A   1      46.671  34.311  31.268  1.00  0.00     0.001 A 
ATOM     83  C   UNL A   1      46.242  35.353  29.131  1.00  0.00     0.001 A 
ATOM     84  C   UNL A   1      46.449  35.457  30.506  1.00  0.00     0.000 A 
ENDBRANCH  66  79
ENDBRANCH  40  41
ENDBRANCH  33  35
ENDBRANCH  32  33
ENDBRANCH  31  32
ENDBRANCH  30  31
ENDBRANCH  29  30
ENDBRANCH  28  29
ENDBRANCH  27  28
ENDBRANCH   1  27
TORSDOF 23
ENDMDL
MODEL 3
REMARK VINA RESULT:      -8.8      0.760      5.731
REMARK SMILES Cc1ccc([C@H](Nc2ccc(Cl)c(Br)c2)C(=O)OCCOCCOCCOCCOC(=O)c2ccc(-c3c4nc(c(-c5ccccc5)c5ccc([nH]5)c(-c5ccccc5)c5nc(c(-c6ccccc6)c6ccc3[nH]6)C=C5)C=C4)cc2)s1
REMARK SMILES IDX 24 1 23 2 22 3 21 4 20 5 19 6 18 7 16 8 17 9 6 10 5 11 1 12
REMARK SMILES IDX 2 13 3 14 81 15 4 16 7 17 8 19 9 20 15 21 10 22 13 23 11 24
REMARK SMILES IDX 14 25 12 26 25 27 26 28 27 29 28 30 29 31 30 32 31 33 32 34
REMARK SMILES IDX 33 35 34 36 80 37 35 38 79 39 36 40 37 41 38 42 73 43 39 44
REMARK SMILES IDX 78 45 72 46 74 47 40 48 77 49 71 50 70 51 41 53 63 54 48 55
REMARK SMILES IDX 62 56 49 57 52 58 61 59 75 60 50 61 51 62 60 64 76 65 53 66
REMARK SMILES IDX 42 67 43 68 47 69 44 70 46 71 45 72 64 73 65 74 69 75 66 76
REMARK SMILES IDX 68 77 67 78 54 79 55 80 59 81 56 82 58 83 57 84
REMARK H PARENT 7 18 74 52 52 63
REMARK Flexibility Score: inf
ROOT
ATOM      1  O   UNL A   1      34.191  32.745  29.018  1.00  0.00    -0.377 OA
ENDROOT
BRANCH   1   2
ATOM      2  C   UNL A   1      34.513  31.902  27.928  1.00  0.00     0.188 C 
BRANCH   2   3
ATOM      3  C   UNL A   1      33.276  31.395  27.180  1.00  0.00     0.188 C 
BRANCH   3   4
ATOM      4  O   UNL A   1      32.741  30.133  27.550  1.00  0.00    -0.376 OA
BRANCH   4   5
ATOM      5  C   UNL A   1      32.625  29.112  26.565  1.00  0.00     0.202 C 
BRANCH   5   6
ATOM      6  C   UNL A   1      32.161  27.696  26.956  1.00  0.00     0.261 C 
BRANCH   6   7
ATOM      7  O   UNL A   1      32.590  26.587  26.130  1.00  0.00    -0.461 OA
BRANCH   7   8
ATOM      8  C   UNL A   1      31.662  25.610  25.911  1.00  0.00     0.334 C 
ATOM      9  O   UNL A   1      31.116  24.991  26.827  1.00  0.00    -0.249 OA
BRANCH   8  10
ATOM     10  C   UNL A   1      31.488  25.161  24.434  1.00  0.00     0.231 C 
BRANCH  10  11
ATOM     11  C   UNL A   1      32.480  24.023  24.272  1.00  0.00     0.038 A 
ATOM     12  C   UNL A   1      34.052  20.477  24.771  1.00  0.00     0.056 C 
ATOM     13  C   UNL A   1      33.661  21.869  24.427  1.00  0.00     0.002 A 
ATOM     14  C   UNL A   1      34.276  22.730  23.545  1.00  0.00     0.015 A 
ATOM     15  S   UNL A   1      32.284  22.573  25.157  1.00  0.00    -0.143 S 
ATOM     16  C   UNL A   1      33.580  23.960  23.434  1.00  0.00     0.018 A 
ENDBRANCH  10  11
BRANCH  10  17
ATOM     17  N   UNL A   1      31.707  26.167  23.376  1.00  0.00    -0.368 N 
ATOM     18  H   UNL A   1      32.472  26.051  22.767  1.00  0.00     0.161 HD
BRANCH  17  19
ATOM     19  C   UNL A   1      30.884  27.266  23.202  1.00  0.00     0.036 A 
ATOM     20  C   UNL A   1      31.424  28.385  22.576  1.00  0.00     0.027 A 
ATOM     21  C   UNL A   1      29.504  27.253  23.436  1.00  0.00     0.043 A 
ATOM     22  C   UNL A   1      30.656  29.522  22.318  1.00  0.00     0.024 A 
ATOM     23  C   UNL A   1      28.716  28.387  23.159  1.00  0.00     0.038 A 
ATOM     24  C   UNL A   1      29.305  29.543  22.643  1.00  0.00     0.055 A 
ATOM     25  Br  UNL A   1      26.842  28.266  23.456  1.00  0.00    -0.049 Br
ATOM     26  Cl  UNL A   1      28.450  31.020  22.384  1.00  0.00    -0.083 Cl
ENDBRANCH  17  19
ENDBRANCH  10  17
ENDBRANCH   8  10
ENDBRANCH   7   8
ENDBRANCH   6   7
ENDBRANCH   5   6
ENDBRANCH   4   5
ENDBRANCH   3   4
ENDBRANCH   2   3
ENDBRANCH   1   2
BRANCH   1  27
ATOM     27  C   UNL A   1      33.696  34.061  28.798  1.00  0.00     0.188 C 
BRANCH  27  28
ATOM     28  C   UNL A   1      33.825  35.100  29.912  1.00  0.00     0.188 C 
BRANCH  28  29
ATOM     29  O   UNL A   1      33.369  34.740  31.218  1.00  0.00    -0.376 OA
BRANCH  29  30
ATOM     30  C   UNL A   1      34.327  34.474  32.241  1.00  0.00     0.202 C 
BRANCH  30  31
ATOM     31  C   UNL A   1      34.483  33.000  32.604  1.00  0.00     0.261 C 
BRANCH  31  32
ATOM     32  O   UNL A   1      35.564  32.396  31.873  1.00  0.00    -0.460 OA
BRANCH  32  33
ATOM     33  C   UNL A   1      36.734  32.308  32.539  1.00  0.00     0.338 C 
ATOM     34  O   UNL A   1      36.970  32.680  33.680  1.00  0.00    -0.246 OA
BRANCH  33  35
ATOM     35  C   UNL A   1      37.694  31.527  31.740  1.00  0.00     0.060 A 
ATOM     36  C   UNL A   1      37.765  31.652  30.350  1.00  0.00     0.016 A 
ATOM     37  C   UNL A   1      38.589  30.700  32.429  1.00  0.00     0.016 A 
ATOM     38  C   UNL A   1      38.782  30.993  29.656  1.00  0.00     0.010 A 
ATOM     39  C   UNL A   1      39.605  30.048  31.738  1.00  0.00     0.010 A 
ATOM     40  C   UNL A   1      39.732  30.225  30.354  1.00  0.00    -0.014 A 
BRANCH  40  41
ATOM     41  C   UNL A   1      40.973  29.773  29.686  1.00  0.00     0.031 A 
ATOM     42  C   UNL A   1      41.140  28.365  29.215  1.00  0.00     0.074 A 
ATOM     43  C   UNL A   1      41.985  30.657  29.588  1.00  0.00     0.049 A 
ATOM     44  N   UNL A   1      42.165  27.819  28.616  1.00  0.00    -0.248 NA
ATOM     45  C   UNL A   1      40.018  27.445  29.455  1.00  0.00     0.031 C 
ATOM     46  C   UNL A   1      41.931  32.044  30.058  1.00  0.00     0.029 A 
ATOM     47  N   UNL A   1      43.247  30.532  29.066  1.00  0.00    -0.354 N 
ATOM     48  C   UNL A   1      41.812  26.497  28.391  1.00  0.00     0.074 A 
ATOM     49  C   UNL A   1      40.497  26.307  28.965  1.00  0.00     0.031 C 
ATOM     50  C   UNL A   1      43.089  32.651  29.768  1.00  0.00     0.029 A 
ATOM     51  C   UNL A   1      43.985  31.689  29.137  1.00  0.00     0.049 A 
ATOM     52  H   UNL A   1      43.591  29.695  28.679  1.00  0.00     0.167 HD
ATOM     53  C   UNL A   1      42.521  25.541  27.744  1.00  0.00     0.031 A 
ATOM     54  C   UNL A   1      45.244  31.951  28.738  1.00  0.00     0.031 A 
ATOM     55  C   UNL A   1      43.844  25.748  27.212  1.00  0.00     0.049 A 
ATOM     56  C   UNL A   1      46.028  30.859  28.069  1.00  0.00     0.074 A 
ATOM     57  C   UNL A   1      44.639  24.853  26.517  1.00  0.00     0.029 A 
ATOM     58  N   UNL A   1      44.572  26.924  27.324  1.00  0.00    -0.354 N 
ATOM     59  N   UNL A   1      45.655  29.631  27.793  1.00  0.00    -0.248 NA
ATOM     60  C   UNL A   1      47.395  31.184  27.640  1.00  0.00     0.031 C 
ATOM     61  C   UNL A   1      45.874  25.459  26.283  1.00  0.00     0.029 A 
ATOM     62  C   UNL A   1      45.819  26.766  26.743  1.00  0.00     0.049 A 
ATOM     63  H   UNL A   1      44.250  27.750  27.754  1.00  0.00     0.167 HD
ATOM     64  C   UNL A   1      46.726  29.045  27.134  1.00  0.00     0.074 A 
ATOM     65  C   UNL A   1      47.760  30.059  27.039  1.00  0.00     0.031 C 
ATOM     66  C   UNL A   1      46.839  27.784  26.653  1.00  0.00     0.031 A 
BRANCH  53  67
ATOM     67  C   UNL A   1      41.888  24.185  27.568  1.00  0.00    -0.014 A 
ATOM     68  C   UNL A   1      41.059  23.931  26.463  1.00  0.00     0.009 A 
ATOM     69  C   UNL A   1      42.029  23.187  28.547  1.00  0.00     0.009 A 
ATOM     70  C   UNL A   1      40.376  22.718  26.349  1.00  0.00     0.001 A 
ATOM     71  C   UNL A   1      41.372  21.963  28.414  1.00  0.00     0.001 A 
ATOM     72  C   UNL A   1      40.537  21.733  27.321  1.00  0.00     0.000 A 
ENDBRANCH  53  67
BRANCH  54  73
ATOM     73  C   UNL A   1      45.790  33.323  28.913  1.00  0.00    -0.014 A 
ATOM     74  C   UNL A   1      45.802  34.236  27.844  1.00  0.00     0.009 A 
ATOM     75  C   UNL A   1      46.394  33.697  30.123  1.00  0.00     0.009 A 
ATOM     76  C   UNL A   1      46.440  35.472  27.969  1.00  0.00     0.001 A 
ATOM     77  C   UNL A   1      47.000  34.949  30.257  1.00  0.00     0.001 A 
ATOM     78  C   UNL A   1      47.036  35.829  29.177  1.00  0.00     0.000 A 
ENDBRANCH  54  73
BRANCH  66  79
ATOM     79  C   UNL A   1      48.119  27.405  25.955  1.00  0.00    -0.014 A 
ATOM     80  C   UNL A   1      48.181  27.445  24.551  1.00  0.00     0.009 A 
ATOM     81  C   UNL A   1      49.212  26.888  26.665  1.00  0.00     0.009 A 
ATOM     82  C   UNL A   1      49.292  26.944  23.874  1.00  0.00     0.001 A 
ATOM     83  C   UNL A   1      50.340  26.423  25.987  1.00  0.00     0.001 A 
ATOM     84  C   UNL A   1      50.373  26.436  24.593  1.00  0.00     0.000 A 
ENDBRANCH  66  79
ENDBRANCH  40  41
ENDBRANCH  33  35
ENDBRANCH  32  33
ENDBRANCH  31  32
ENDBRANCH  30  31
ENDBRANCH  29  30
ENDBRANCH  28  29
ENDBRANCH  27  28
ENDBRANCH   1  27
TORSDOF 23
ENDMDL
