MODEL 1
REMARK VINA RESULT:     -10.4      0.000      0.000
REMARK SMILES C[C@H](NC(=O)c1c(C(=O)OCCOCCOCCOCCOC(=O)c2ccc(-c3c4nc(c(-c5ccccc5)c5ccc([nH]5)c(-c5ccccc5)c5nc(c(-c6ccccc6)c6ccc3[nH]6)C=C5)C=C4)cc2)cnn1C)[C@]12C[C@H]3C[C@H](C[C@H](C3)C1)C2
REMARK SMILES IDX 15 1 14 2 13 3 12 4 11 5 10 6 8 7 9 8 7 9 6 10 75 11 73 12
REMARK SMILES IDX 74 13 76 14 4 15 3 16 5 18 2 19 1 20 77 21 78 22 85 23 86 24
REMARK SMILES IDX 79 25 83 26 81 27 80 28 84 29 82 30 16 31 17 32 18 33 19 34
REMARK SMILES IDX 20 35 21 36 22 37 23 38 24 39 25 40 26 41 72 42 27 43 71 44
REMARK SMILES IDX 28 45 29 46 30 47 65 48 31 49 70 50 64 51 66 52 32 53 69 54
REMARK SMILES IDX 63 55 62 56 33 58 55 59 40 60 54 61 41 62 44 63 53 64 67 65
REMARK SMILES IDX 42 66 43 67 52 69 68 70 45 71 34 72 35 73 39 74 36 75 38 76
REMARK SMILES IDX 37 77 56 78 57 79 61 80 58 81 60 82 59 83 46 84 47 85 51 86
REMARK SMILES IDX 48 87 50 88 49 89
REMARK H PARENT 3 17 66 57 44 68
REMARK Flexibility Score: inf
ROOT
ATOM      1  C   UNL A   1      40.772  20.610  27.104  1.00  0.00     0.188 C 
ENDROOT
BRANCH   1   2
ATOM      2  C   UNL A   1      39.880  21.142  25.975  1.00  0.00     0.188 C 
BRANCH   2   3
ATOM      3  O   UNL A   1      38.954  22.146  26.378  1.00  0.00    -0.376 OA
BRANCH   3   4
ATOM      4  C   UNL A   1      37.748  22.201  25.627  1.00  0.00     0.202 C 
BRANCH   4   5
ATOM      5  C   UNL A   1      37.118  23.599  25.587  1.00  0.00     0.261 C 
BRANCH   5   6
ATOM      6  O   UNL A   1      35.743  23.618  25.170  1.00  0.00    -0.460 OA
BRANCH   6   7
ATOM      7  C   UNL A   1      34.865  22.937  25.950  1.00  0.00     0.342 C 
ATOM      8  O   UNL A   1      34.877  22.958  27.176  1.00  0.00    -0.246 OA
BRANCH   7   9
ATOM      9  C   UNL A   1      33.823  22.267  25.200  1.00  0.00     0.111 A 
ATOM     10  C   UNL A   1      33.320  22.527  23.924  1.00  0.00     0.140 A 
ATOM     11  N   UNL A   1      32.474  21.474  23.672  1.00  0.00    -0.262 N 
ATOM     12  C   UNL A   1      33.067  21.171  25.667  1.00  0.00     0.151 A 
ATOM     13  N   UNL A   1      32.208  20.718  24.756  1.00  0.00    -0.180 NA
ATOM     14  C   UNL A   1      31.912  21.063  22.407  1.00  0.00     0.174 C 
BRANCH  10  15
ATOM     15  C   UNL A   1      33.730  23.533  22.983  1.00  0.00     0.270 C 
ATOM     16  N   UNL A   1      33.044  24.711  22.830  1.00  0.00    -0.348 N 
ATOM     17  H   UNL A   1      33.477  25.298  22.168  1.00  0.00     0.164 HD
ATOM     18  O   UNL A   1      34.718  23.372  22.265  1.00  0.00    -0.267 OA
BRANCH  16  19
ATOM     19  C   UNL A   1      31.826  25.336  23.395  1.00  0.00     0.085 C 
ATOM     20  C   UNL A   1      30.886  24.366  24.115  1.00  0.00     0.031 C 
BRANCH  19  21
ATOM     21  C   UNL A   1      32.192  26.580  24.326  1.00  0.00    -0.009 C 
ATOM     22  C   UNL A   1      31.007  26.997  25.247  1.00  0.00     0.012 C 
ATOM     23  C   UNL A   1      32.599  27.839  23.494  1.00  0.00     0.012 C 
ATOM     24  C   UNL A   1      33.404  26.236  25.244  1.00  0.00     0.012 C 
ATOM     25  C   UNL A   1      31.389  28.181  26.151  1.00  0.00    -0.010 C 
ATOM     26  C   UNL A   1      32.963  29.031  24.393  1.00  0.00    -0.010 C 
ATOM     27  C   UNL A   1      33.787  27.431  26.143  1.00  0.00    -0.010 C 
ATOM     28  C   UNL A   1      32.589  27.800  27.030  1.00  0.00     0.007 C 
ATOM     29  C   UNL A   1      31.759  29.385  25.275  1.00  0.00     0.007 C 
ATOM     30  C   UNL A   1      34.155  28.644  25.275  1.00  0.00     0.007 C 
ENDBRANCH  19  21
ENDBRANCH  16  19
ENDBRANCH  10  15
ENDBRANCH   7   9
ENDBRANCH   6   7
ENDBRANCH   5   6
ENDBRANCH   4   5
ENDBRANCH   3   4
ENDBRANCH   2   3
ENDBRANCH   1   2
BRANCH   1  31
ATOM     31  O   UNL A   1      41.704  19.584  26.813  1.00  0.00    -0.377 OA
BRANCH  31  32
ATOM     32  C   UNL A   1      42.623  19.742  25.739  1.00  0.00     0.188 C 
BRANCH  32  33
ATOM     33  C   UNL A   1      43.812  18.779  25.559  1.00  0.00     0.188 C 
BRANCH  33  34
ATOM     34  O   UNL A   1      45.077  19.422  25.444  1.00  0.00    -0.376 OA
BRANCH  34  35
ATOM     35  C   UNL A   1      45.073  20.681  24.783  1.00  0.00     0.202 C 
BRANCH  35  36
ATOM     36  C   UNL A   1      45.581  21.815  25.676  1.00  0.00     0.261 C 
BRANCH  36  37
ATOM     37  O   UNL A   1      44.543  22.618  26.260  1.00  0.00    -0.460 OA
BRANCH  37  38
ATOM     38  C   UNL A   1      43.928  23.508  25.451  1.00  0.00     0.338 C 
ATOM     39  O   UNL A   1      43.794  23.452  24.243  1.00  0.00    -0.246 OA
BRANCH  38  40
ATOM     40  C   UNL A   1      43.302  24.524  26.312  1.00  0.00     0.060 A 
ATOM     41  C   UNL A   1      43.848  25.811  26.367  1.00  0.00     0.016 A 
ATOM     42  C   UNL A   1      42.175  24.193  27.063  1.00  0.00     0.016 A 
ATOM     43  C   UNL A   1      43.272  26.769  27.203  1.00  0.00     0.010 A 
ATOM     44  C   UNL A   1      41.596  25.150  27.893  1.00  0.00     0.010 A 
ATOM     45  C   UNL A   1      42.163  26.431  27.992  1.00  0.00    -0.014 A 
BRANCH  45  46
ATOM     46  C   UNL A   1      41.712  27.331  29.076  1.00  0.00     0.031 A 
ATOM     47  C   UNL A   1      42.467  27.306  30.376  1.00  0.00     0.074 A 
ATOM     48  C   UNL A   1      40.643  28.132  28.928  1.00  0.00     0.049 A 
ATOM     49  N   UNL A   1      42.238  27.965  31.482  1.00  0.00    -0.248 NA
ATOM     50  C   UNL A   1      43.633  26.409  30.436  1.00  0.00     0.031 C 
ATOM     51  C   UNL A   1      39.836  28.258  27.716  1.00  0.00     0.029 A 
ATOM     52  N   UNL A   1      40.050  28.987  29.821  1.00  0.00    -0.354 N 
ATOM     53  C   UNL A   1      43.226  27.557  32.369  1.00  0.00     0.074 A 
ATOM     54  C   UNL A   1      44.034  26.571  31.687  1.00  0.00     0.031 C 
ATOM     55  C   UNL A   1      38.851  29.146  27.942  1.00  0.00     0.029 A 
ATOM     56  C   UNL A   1      38.942  29.624  29.321  1.00  0.00     0.049 A 
ATOM     57  H   UNL A   1      40.387  29.130  30.735  1.00  0.00     0.167 HD
ATOM     58  C   UNL A   1      43.448  27.969  33.638  1.00  0.00     0.031 A 
ATOM     59  C   UNL A   1      38.095  30.486  29.916  1.00  0.00     0.031 A 
ATOM     60  C   UNL A   1      42.639  28.934  34.328  1.00  0.00     0.049 A 
ATOM     61  C   UNL A   1      38.322  30.880  31.351  1.00  0.00     0.074 A 
ATOM     62  C   UNL A   1      42.798  29.438  35.607  1.00  0.00     0.029 A 
ATOM     63  N   UNL A   1      41.508  29.533  33.796  1.00  0.00    -0.354 N 
ATOM     64  N   UNL A   1      39.285  30.521  32.166  1.00  0.00    -0.248 NA
ATOM     65  C   UNL A   1      37.342  31.800  31.946  1.00  0.00     0.031 C 
ATOM     66  C   UNL A   1      41.733  30.309  35.865  1.00  0.00     0.029 A 
ATOM     67  C   UNL A   1      40.942  30.382  34.731  1.00  0.00     0.049 A 
ATOM     68  H   UNL A   1      41.161  29.379  32.888  1.00  0.00     0.167 HD
ATOM     69  C   UNL A   1      39.043  31.193  33.359  1.00  0.00     0.074 A 
ATOM     70  C   UNL A   1      37.847  31.985  33.159  1.00  0.00     0.031 C 
ATOM     71  C   UNL A   1      39.750  31.160  34.514  1.00  0.00     0.031 A 
BRANCH  58  72
ATOM     72  C   UNL A   1      44.601  27.341  34.364  1.00  0.00    -0.014 A 
ATOM     73  C   UNL A   1      44.440  26.155  35.096  1.00  0.00     0.009 A 
ATOM     74  C   UNL A   1      45.865  27.949  34.319  1.00  0.00     0.009 A 
ATOM     75  C   UNL A   1      45.513  25.611  35.803  1.00  0.00     0.001 A 
ATOM     76  C   UNL A   1      46.942  27.389  35.006  1.00  0.00     0.001 A 
ATOM     77  C   UNL A   1      46.764  26.226  35.756  1.00  0.00     0.000 A 
ENDBRANCH  58  72
BRANCH  59  78
ATOM     78  C   UNL A   1      36.946  31.042  29.157  1.00  0.00    -0.014 A 
ATOM     79  C   UNL A   1      35.823  30.247  28.884  1.00  0.00     0.009 A 
ATOM     80  C   UNL A   1      36.974  32.365  28.688  1.00  0.00     0.009 A 
ATOM     81  C   UNL A   1      34.760  30.758  28.137  1.00  0.00     0.001 A 
ATOM     82  C   UNL A   1      35.899  32.880  27.960  1.00  0.00     0.001 A 
ATOM     83  C   UNL A   1      34.796  32.075  27.680  1.00  0.00     0.000 A 
ENDBRANCH  59  78
BRANCH  71  84
ATOM     84  C   UNL A   1      39.270  32.029  35.642  1.00  0.00    -0.014 A 
ATOM     85  C   UNL A   1      39.698  33.359  35.768  1.00  0.00     0.009 A 
ATOM     86  C   UNL A   1      38.337  31.522  36.560  1.00  0.00     0.009 A 
ATOM     87  C   UNL A   1      39.218  34.157  36.808  1.00  0.00     0.001 A 
ATOM     88  C   UNL A   1      37.841  32.330  37.583  1.00  0.00     0.001 A 
ATOM     89  C   UNL A   1      38.287  33.644  37.711  1.00  0.00     0.000 A 
ENDBRANCH  71  84
ENDBRANCH  45  46
ENDBRANCH  38  40
ENDBRANCH  37  38
ENDBRANCH  36  37
ENDBRANCH  35  36
ENDBRANCH  34  35
ENDBRANCH  33  34
ENDBRANCH  32  33
ENDBRANCH  31  32
ENDBRANCH   1  31
TORSDOF 23
ENDMDL
MODEL 2
REMARK VINA RESULT:      -9.6      4.464     10.092
REMARK SMILES C[C@H](NC(=O)c1c(C(=O)OCCOCCOCCOCCOC(=O)c2ccc(-c3c4nc(c(-c5ccccc5)c5ccc([nH]5)c(-c5ccccc5)c5nc(c(-c6ccccc6)c6ccc3[nH]6)C=C5)C=C4)cc2)cnn1C)[C@]12C[C@H]3C[C@H](C[C@H](C3)C1)C2
REMARK SMILES IDX 15 1 14 2 13 3 12 4 11 5 10 6 8 7 9 8 7 9 6 10 75 11 73 12
REMARK SMILES IDX 74 13 76 14 4 15 3 16 5 18 2 19 1 20 77 21 78 22 85 23 86 24
REMARK SMILES IDX 79 25 83 26 81 27 80 28 84 29 82 30 16 31 17 32 18 33 19 34
REMARK SMILES IDX 20 35 21 36 22 37 23 38 24 39 25 40 26 41 72 42 27 43 71 44
REMARK SMILES IDX 28 45 29 46 30 47 65 48 31 49 70 50 64 51 66 52 32 53 69 54
REMARK SMILES IDX 63 55 62 56 33 58 55 59 40 60 54 61 41 62 44 63 53 64 67 65
REMARK SMILES IDX 42 66 43 67 52 69 68 70 45 71 34 72 35 73 39 74 36 75 38 76
REMARK SMILES IDX 37 77 56 78 57 79 61 80 58 81 60 82 59 83 46 84 47 85 51 86
REMARK SMILES IDX 48 87 50 88 49 89
REMARK H PARENT 3 17 66 57 44 68
REMARK Flexibility Score: inf
ROOT
ATOM      1  C   UNL A   1      34.757  31.428  27.613  1.00  0.00     0.188 C 
ENDROOT
BRANCH   1   2
ATOM      2  C   UNL A   1      34.558  30.021  28.189  1.00  0.00     0.188 C 
BRANCH   2   3
ATOM      3  O   UNL A   1      33.467  29.300  27.625  1.00  0.00    -0.376 OA
BRANCH   3   4
ATOM      4  C   UNL A   1      33.820  28.282  26.698  1.00  0.00     0.202 C 
BRANCH   4   5
ATOM      5  C   UNL A   1      32.611  27.614  26.034  1.00  0.00     0.261 C 
BRANCH   5   6
ATOM      6  O   UNL A   1      32.225  26.363  26.624  1.00  0.00    -0.460 OA
BRANCH   6   7
ATOM      7  C   UNL A   1      31.211  25.694  26.019  1.00  0.00     0.342 C 
ATOM      8  O   UNL A   1      30.036  25.775  26.360  1.00  0.00    -0.246 OA
BRANCH   7   9
ATOM      9  C   UNL A   1      31.623  24.958  24.842  1.00  0.00     0.111 A 
ATOM     10  C   UNL A   1      31.791  23.586  24.648  1.00  0.00     0.140 A 
ATOM     11  N   UNL A   1      32.024  23.459  23.300  1.00  0.00    -0.262 N 
ATOM     12  C   UNL A   1      31.972  25.540  23.605  1.00  0.00     0.151 A 
ATOM     13  N   UNL A   1      32.266  24.631  22.677  1.00  0.00    -0.180 NA
ATOM     14  C   UNL A   1      31.974  22.264  22.493  1.00  0.00     0.174 C 
BRANCH  10  15
ATOM     15  C   UNL A   1      31.566  22.513  25.577  1.00  0.00     0.270 C 
ATOM     16  N   UNL A   1      32.404  21.428  25.654  1.00  0.00    -0.348 N 
ATOM     17  H   UNL A   1      32.123  20.804  26.362  1.00  0.00     0.164 HD
ATOM     18  O   UNL A   1      30.602  22.520  26.342  1.00  0.00    -0.267 OA
BRANCH  16  19
ATOM     19  C   UNL A   1      33.618  20.947  24.956  1.00  0.00     0.085 C 
ATOM     20  C   UNL A   1      34.938  21.376  25.601  1.00  0.00     0.031 C 
BRANCH  19  21
ATOM     21  C   UNL A   1      33.572  19.366  24.736  1.00  0.00    -0.009 C 
ATOM     22  C   UNL A   1      34.996  18.738  24.662  1.00  0.00     0.012 C 
ATOM     23  C   UNL A   1      32.824  18.976  23.421  1.00  0.00     0.012 C 
ATOM     24  C   UNL A   1      32.812  18.675  25.909  1.00  0.00     0.012 C 
ATOM     25  C   UNL A   1      34.927  17.214  24.474  1.00  0.00    -0.010 C 
ATOM     26  C   UNL A   1      32.769  17.453  23.219  1.00  0.00    -0.010 C 
ATOM     27  C   UNL A   1      32.740  17.146  25.710  1.00  0.00    -0.010 C 
ATOM     28  C   UNL A   1      34.165  16.578  25.646  1.00  0.00     0.007 C 
ATOM     29  C   UNL A   1      34.199  16.900  23.161  1.00  0.00     0.007 C 
ATOM     30  C   UNL A   1      32.016  16.821  24.394  1.00  0.00     0.007 C 
ENDBRANCH  19  21
ENDBRANCH  16  19
ENDBRANCH  10  15
ENDBRANCH   7   9
ENDBRANCH   6   7
ENDBRANCH   5   6
ENDBRANCH   4   5
ENDBRANCH   3   4
ENDBRANCH   2   3
ENDBRANCH   1   2
BRANCH   1  31
ATOM     31  O   UNL A   1      33.676  32.343  27.655  1.00  0.00    -0.377 OA
BRANCH  31  32
ATOM     32  C   UNL A   1      33.890  33.677  28.098  1.00  0.00     0.188 C 
BRANCH  32  33
ATOM     33  C   UNL A   1      34.670  33.972  29.392  1.00  0.00     0.188 C 
BRANCH  33  34
ATOM     34  O   UNL A   1      34.102  33.400  30.565  1.00  0.00    -0.376 OA
BRANCH  34  35
ATOM     35  C   UNL A   1      34.432  34.043  31.789  1.00  0.00     0.202 C 
BRANCH  35  36
ATOM     36  C   UNL A   1      34.350  33.097  32.990  1.00  0.00     0.261 C 
BRANCH  36  37
ATOM     37  O   UNL A   1      35.614  32.552  33.400  1.00  0.00    -0.460 OA
BRANCH  37  38
ATOM     38  C   UNL A   1      36.714  33.297  33.151  1.00  0.00     0.338 C 
ATOM     39  O   UNL A   1      36.968  34.414  33.561  1.00  0.00    -0.246 OA
BRANCH  38  40
ATOM     40  C   UNL A   1      37.649  32.457  32.388  1.00  0.00     0.060 A 
ATOM     41  C   UNL A   1      38.631  31.727  33.066  1.00  0.00     0.016 A 
ATOM     42  C   UNL A   1      37.548  32.399  30.998  1.00  0.00     0.016 A 
ATOM     43  C   UNL A   1      39.536  30.950  32.342  1.00  0.00     0.010 A 
ATOM     44  C   UNL A   1      38.448  31.619  30.275  1.00  0.00     0.010 A 
ATOM     45  C   UNL A   1      39.466  30.919  30.942  1.00  0.00    -0.014 A 
BRANCH  45  46
ATOM     46  C   UNL A   1      40.569  30.334  30.148  1.00  0.00     0.031 A 
ATOM     47  C   UNL A   1      41.792  31.175  29.909  1.00  0.00     0.074 A 
ATOM     48  C   UNL A   1      40.483  29.098  29.627  1.00  0.00     0.049 A 
ATOM     49  N   UNL A   1      42.864  30.902  29.212  1.00  0.00    -0.248 NA
ATOM     50  C   UNL A   1      41.800  32.508  30.535  1.00  0.00     0.031 C 
ATOM     51  C   UNL A   1      39.360  28.179  29.798  1.00  0.00     0.029 A 
ATOM     52  N   UNL A   1      41.367  28.411  28.834  1.00  0.00    -0.354 N 
ATOM     53  C   UNL A   1      43.669  32.030  29.310  1.00  0.00     0.074 A 
ATOM     54  C   UNL A   1      42.949  33.002  30.104  1.00  0.00     0.031 C 
ATOM     55  C   UNL A   1      39.626  27.042  29.129  1.00  0.00     0.029 A 
ATOM     56  C   UNL A   1      40.920  27.168  28.462  1.00  0.00     0.049 A 
ATOM     57  H   UNL A   1      42.239  28.775  28.558  1.00  0.00     0.167 HD
ATOM     58  C   UNL A   1      44.901  32.240  28.793  1.00  0.00     0.031 A 
ATOM     59  C   UNL A   1      41.490  26.245  27.663  1.00  0.00     0.031 A 
ATOM     60  C   UNL A   1      45.614  31.287  27.990  1.00  0.00     0.049 A 
ATOM     61  C   UNL A   1      42.833  26.527  27.043  1.00  0.00     0.074 A 
ATOM     62  C   UNL A   1      46.879  31.394  27.441  1.00  0.00     0.029 A 
ATOM     63  N   UNL A   1      45.113  30.051  27.610  1.00  0.00    -0.354 N 
ATOM     64  N   UNL A   1      43.604  27.579  27.179  1.00  0.00    -0.248 NA
ATOM     65  C   UNL A   1      43.383  25.489  26.159  1.00  0.00     0.031 C 
ATOM     66  C   UNL A   1      47.125  30.240  26.689  1.00  0.00     0.029 A 
ATOM     67  C   UNL A   1      46.033  29.397  26.810  1.00  0.00     0.049 A 
ATOM     68  H   UNL A   1      44.235  29.693  27.872  1.00  0.00     0.167 HD
ATOM     69  C   UNL A   1      44.740  27.318  26.422  1.00  0.00     0.074 A 
ATOM     70  C   UNL A   1      44.561  26.006  25.835  1.00  0.00     0.031 C 
ATOM     71  C   UNL A   1      45.836  28.093  26.233  1.00  0.00     0.031 A 
BRANCH  58  72
ATOM     72  C   UNL A   1      45.532  33.574  29.064  1.00  0.00    -0.014 A 
ATOM     73  C   UNL A   1      45.333  34.661  28.198  1.00  0.00     0.009 A 
ATOM     74  C   UNL A   1      46.343  33.743  30.195  1.00  0.00     0.009 A 
ATOM     75  C   UNL A   1      45.966  35.881  28.441  1.00  0.00     0.001 A 
ATOM     76  C   UNL A   1      46.955  34.971  30.449  1.00  0.00     0.001 A 
ATOM     77  C   UNL A   1      46.774  36.036  29.567  1.00  0.00     0.000 A 
ENDBRANCH  58  72
BRANCH  59  78
ATOM     78  C   UNL A   1      40.797  24.959  27.400  1.00  0.00    -0.014 A 
ATOM     79  C   UNL A   1      41.264  23.769  27.978  1.00  0.00     0.009 A 
ATOM     80  C   UNL A   1      39.677  24.912  26.555  1.00  0.00     0.009 A 
ATOM     81  C   UNL A   1      40.635  22.553  27.699  1.00  0.00     0.001 A 
ATOM     82  C   UNL A   1      39.037  23.697  26.296  1.00  0.00     0.001 A 
ATOM     83  C   UNL A   1      39.520  22.519  26.862  1.00  0.00     0.000 A 
ENDBRANCH  59  78
BRANCH  71  84
ATOM     84  C   UNL A   1      46.941  27.532  25.384  1.00  0.00    -0.014 A 
ATOM     85  C   UNL A   1      47.018  27.814  24.013  1.00  0.00     0.009 A 
ATOM     86  C   UNL A   1      47.946  26.753  25.978  1.00  0.00     0.009 A 
ATOM     87  C   UNL A   1      48.069  27.306  23.247  1.00  0.00     0.001 A 
ATOM     88  C   UNL A   1      49.008  26.266  25.216  1.00  0.00     0.001 A 
ATOM     89  C   UNL A   1      49.065  26.536  23.850  1.00  0.00     0.000 A 
ENDBRANCH  71  84
ENDBRANCH  45  46
ENDBRANCH  38  40
ENDBRANCH  37  38
ENDBRANCH  36  37
ENDBRANCH  35  36
ENDBRANCH  34  35
ENDBRANCH  33  34
ENDBRANCH  32  33
ENDBRANCH  31  32
ENDBRANCH   1  31
TORSDOF 23
ENDMDL
MODEL 3
REMARK VINA RESULT:      -9.6      6.515      9.222
REMARK SMILES C[C@H](NC(=O)c1c(C(=O)OCCOCCOCCOCCOC(=O)c2ccc(-c3c4nc(c(-c5ccccc5)c5ccc([nH]5)c(-c5ccccc5)c5nc(c(-c6ccccc6)c6ccc3[nH]6)C=C5)C=C4)cc2)cnn1C)[C@]12C[C@H]3C[C@H](C[C@H](C3)C1)C2
REMARK SMILES IDX 15 1 14 2 13 3 12 4 11 5 10 6 8 7 9 8 7 9 6 10 75 11 73 12
REMARK SMILES IDX 74 13 76 14 4 15 3 16 5 18 2 19 1 20 77 21 78 22 85 23 86 24
REMARK SMILES IDX 79 25 83 26 81 27 80 28 84 29 82 30 16 31 17 32 18 33 19 34
REMARK SMILES IDX 20 35 21 36 22 37 23 38 24 39 25 40 26 41 72 42 27 43 71 44
REMARK SMILES IDX 28 45 29 46 30 47 65 48 31 49 70 50 64 51 66 52 32 53 69 54
REMARK SMILES IDX 63 55 62 56 33 58 55 59 40 60 54 61 41 62 44 63 53 64 67 65
REMARK SMILES IDX 42 66 43 67 52 69 68 70 45 71 34 72 35 73 39 74 36 75 38 76
REMARK SMILES IDX 37 77 56 78 57 79 61 80 58 81 60 82 59 83 46 84 47 85 51 86
REMARK SMILES IDX 48 87 50 88 49 89
REMARK H PARENT 3 17 66 57 44 68
REMARK Flexibility Score: inf
ROOT
ATOM      1  C   UNL A   1      40.125  21.714  26.694  1.00  0.00     0.188 C 
ENDROOT
BRANCH   1   2
ATOM      2  C   UNL A   1      38.882  21.635  25.798  1.00  0.00     0.188 C 
BRANCH   2   3
ATOM      3  O   UNL A   1      38.108  22.829  25.756  1.00  0.00    -0.376 OA
BRANCH   3   4
ATOM      4  C   UNL A   1      36.735  22.656  25.433  1.00  0.00     0.202 C 
BRANCH   4   5
ATOM      5  C   UNL A   1      35.821  23.717  26.058  1.00  0.00     0.261 C 
BRANCH   5   6
ATOM      6  O   UNL A   1      34.626  23.988  25.308  1.00  0.00    -0.460 OA
BRANCH   6   7
ATOM      7  C   UNL A   1      33.830  24.982  25.777  1.00  0.00     0.342 C 
ATOM      8  O   UNL A   1      34.200  26.140  25.937  1.00  0.00    -0.246 OA
BRANCH   7   9
ATOM      9  C   UNL A   1      32.451  24.581  25.963  1.00  0.00     0.111 A 
ATOM     10  C   UNL A   1      31.917  23.407  26.497  1.00  0.00     0.140 A 
ATOM     11  N   UNL A   1      30.568  23.655  26.579  1.00  0.00    -0.262 N 
ATOM     12  C   UNL A   1      31.328  25.349  25.592  1.00  0.00     0.151 A 
ATOM     13  N   UNL A   1      30.177  24.765  25.921  1.00  0.00    -0.180 NA
ATOM     14  C   UNL A   1      29.568  22.923  27.320  1.00  0.00     0.174 C 
BRANCH  10  15
ATOM     15  C   UNL A   1      32.607  22.271  27.043  1.00  0.00     0.270 C 
ATOM     16  N   UNL A   1      32.900  21.164  26.287  1.00  0.00    -0.348 N 
ATOM     17  H   UNL A   1      33.402  20.495  26.807  1.00  0.00     0.164 HD
ATOM     18  O   UNL A   1      32.960  22.244  28.222  1.00  0.00    -0.267 OA
BRANCH  16  19
ATOM     19  C   UNL A   1      32.664  20.708  24.899  1.00  0.00     0.085 C 
ATOM     20  C   UNL A   1      33.296  21.590  23.820  1.00  0.00     0.031 C 
BRANCH  19  21
ATOM     21  C   UNL A   1      33.085  19.179  24.711  1.00  0.00    -0.009 C 
ATOM     22  C   UNL A   1      32.447  18.542  23.440  1.00  0.00     0.012 C 
ATOM     23  C   UNL A   1      32.664  18.298  25.932  1.00  0.00     0.012 C 
ATOM     24  C   UNL A   1      34.632  19.053  24.577  1.00  0.00     0.012 C 
ATOM     25  C   UNL A   1      32.885  17.079  23.266  1.00  0.00    -0.010 C 
ATOM     26  C   UNL A   1      33.083  16.830  25.754  1.00  0.00    -0.010 C 
ATOM     27  C   UNL A   1      35.065  17.581  24.410  1.00  0.00    -0.010 C 
ATOM     28  C   UNL A   1      34.415  17.002  23.146  1.00  0.00     0.007 C 
ATOM     29  C   UNL A   1      32.428  16.268  24.486  1.00  0.00     0.007 C 
ATOM     30  C   UNL A   1      34.608  16.758  25.625  1.00  0.00     0.007 C 
ENDBRANCH  19  21
ENDBRANCH  16  19
ENDBRANCH  10  15
ENDBRANCH   7   9
ENDBRANCH   6   7
ENDBRANCH   5   6
ENDBRANCH   4   5
ENDBRANCH   3   4
ENDBRANCH   2   3
ENDBRANCH   1   2
BRANCH   1  31
ATOM     31  O   UNL A   1      40.755  20.512  27.097  1.00  0.00    -0.377 OA
BRANCH  31  32
ATOM     32  C   UNL A   1      41.227  19.593  26.119  1.00  0.00     0.188 C 
BRANCH  32  33
ATOM     33  C   UNL A   1      42.543  18.819  26.321  1.00  0.00     0.188 C 
BRANCH  33  34
ATOM     34  O   UNL A   1      43.714  19.548  25.971  1.00  0.00    -0.376 OA
BRANCH  34  35
ATOM     35  C   UNL A   1      43.499  20.749  25.240  1.00  0.00     0.202 C 
BRANCH  35  36
ATOM     36  C   UNL A   1      44.736  21.651  25.216  1.00  0.00     0.261 C 
BRANCH  36  37
ATOM     37  O   UNL A   1      45.115  22.168  26.502  1.00  0.00    -0.460 OA
BRANCH  37  38
ATOM     38  C   UNL A   1      44.230  22.979  27.122  1.00  0.00     0.338 C 
ATOM     39  O   UNL A   1      43.255  22.661  27.775  1.00  0.00    -0.246 OA
BRANCH  38  40
ATOM     40  C   UNL A   1      44.732  24.356  26.991  1.00  0.00     0.060 A 
ATOM     41  C   UNL A   1      44.616  25.018  25.764  1.00  0.00     0.016 A 
ATOM     42  C   UNL A   1      45.316  24.984  28.091  1.00  0.00     0.016 A 
ATOM     43  C   UNL A   1      45.115  26.314  25.631  1.00  0.00     0.010 A 
ATOM     44  C   UNL A   1      45.809  26.280  27.960  1.00  0.00     0.010 A 
ATOM     45  C   UNL A   1      45.742  26.937  26.721  1.00  0.00    -0.014 A 
BRANCH  45  46
ATOM     46  C   UNL A   1      46.513  28.185  26.530  1.00  0.00     0.031 A 
ATOM     47  C   UNL A   1      47.993  28.071  26.286  1.00  0.00     0.074 A 
ATOM     48  C   UNL A   1      45.929  29.393  26.598  1.00  0.00     0.049 A 
ATOM     49  N   UNL A   1      48.885  29.014  26.134  1.00  0.00    -0.248 NA
ATOM     50  C   UNL A   1      48.538  26.704  26.212  1.00  0.00     0.031 C 
ATOM     51  C   UNL A   1      44.504  29.637  26.813  1.00  0.00     0.029 A 
ATOM     52  N   UNL A   1      46.477  30.646  26.498  1.00  0.00    -0.354 N 
ATOM     53  C   UNL A   1      50.095  28.357  25.954  1.00  0.00     0.074 A 
ATOM     54  C   UNL A   1      49.831  26.938  26.049  1.00  0.00     0.031 C 
ATOM     55  C   UNL A   1      44.291  30.966  26.828  1.00  0.00     0.029 A 
ATOM     56  C   UNL A   1      45.565  31.660  26.651  1.00  0.00     0.049 A 
ATOM     57  H   UNL A   1      47.435  30.803  26.332  1.00  0.00     0.167 HD
ATOM     58  C   UNL A   1      51.320  28.884  25.724  1.00  0.00     0.031 A 
ATOM     59  C   UNL A   1      45.746  32.994  26.659  1.00  0.00     0.031 A 
ATOM     60  C   UNL A   1      51.593  30.291  25.646  1.00  0.00     0.049 A 
ATOM     61  C   UNL A   1      47.128  33.559  26.468  1.00  0.00     0.074 A 
ATOM     62  C   UNL A   1      52.796  30.924  25.390  1.00  0.00     0.029 A 
ATOM     63  N   UNL A   1      50.646  31.285  25.838  1.00  0.00    -0.354 N 
ATOM     64  N   UNL A   1      48.258  32.927  26.255  1.00  0.00    -0.248 NA
ATOM     65  C   UNL A   1      47.257  35.022  26.518  1.00  0.00     0.031 C 
ATOM     66  C   UNL A   1      52.585  32.305  25.473  1.00  0.00     0.029 A 
ATOM     67  C   UNL A   1      51.243  32.529  25.733  1.00  0.00     0.049 A 
ATOM     68  H   UNL A   1      49.691  31.129  26.020  1.00  0.00     0.167 HD
ATOM     69  C   UNL A   1      49.225  33.916  26.117  1.00  0.00     0.074 A 
ATOM     70  C   UNL A   1      48.549  35.189  26.264  1.00  0.00     0.031 C 
ATOM     71  C   UNL A   1      50.554  33.784  25.885  1.00  0.00     0.031 A 
BRANCH  58  72
ATOM     72  C   UNL A   1      52.457  27.916  25.573  1.00  0.00    -0.014 A 
ATOM     73  C   UNL A   1      53.323  27.640  26.642  1.00  0.00     0.009 A 
ATOM     74  C   UNL A   1      52.668  27.278  24.341  1.00  0.00     0.009 A 
ATOM     75  C   UNL A   1      54.403  26.774  26.469  1.00  0.00     0.001 A 
ATOM     76  C   UNL A   1      53.734  26.393  24.179  1.00  0.00     0.001 A 
ATOM     77  C   UNL A   1      54.607  26.149  25.239  1.00  0.00     0.000 A 
ENDBRANCH  58  72
BRANCH  59  78
ATOM     78  C   UNL A   1      44.586  33.900  26.855  1.00  0.00    -0.014 A 
ATOM     79  C   UNL A   1      43.898  34.422  25.749  1.00  0.00     0.009 A 
ATOM     80  C   UNL A   1      44.173  34.263  28.146  1.00  0.00     0.009 A 
ATOM     81  C   UNL A   1      42.831  35.306  25.932  1.00  0.00     0.001 A 
ATOM     82  C   UNL A   1      43.091  35.129  28.326  1.00  0.00     0.001 A 
ATOM     83  C   UNL A   1      42.427  35.654  27.219  1.00  0.00     0.000 A 
ENDBRANCH  59  78
BRANCH  71  84
ATOM     84  C   UNL A   1      51.360  35.044  25.743  1.00  0.00    -0.014 A 
ATOM     85  C   UNL A   1      51.510  35.674  24.500  1.00  0.00     0.009 A 
ATOM     86  C   UNL A   1      51.931  35.634  26.881  1.00  0.00     0.009 A 
ATOM     87  C   UNL A   1      52.240  36.860  24.394  1.00  0.00     0.001 A 
ATOM     88  C   UNL A   1      52.639  36.831  26.777  1.00  0.00     0.001 A 
ATOM     89  C   UNL A   1      52.799  37.439  25.533  1.00  0.00     0.000 A 
ENDBRANCH  71  84
ENDBRANCH  45  46
ENDBRANCH  38  40
ENDBRANCH  37  38
ENDBRANCH  36  37
ENDBRANCH  35  36
ENDBRANCH  34  35
ENDBRANCH  33  34
ENDBRANCH  32  33
ENDBRANCH  31  32
ENDBRANCH   1  31
TORSDOF 23
ENDMDL
