MODEL 1
REMARK VINA RESULT:      -8.6      0.000      0.000
REMARK SMILES Cc1ccc(OCC(=O)NC(=S)Nc2ccc(C(=O)OCCOCCOCCOCCOC(=O)c3ccc(-c4c5nc(c(-c6ccccc6)c6ccc([nH]6)c(-c6ccccc6)c6nc(c(-c7ccccc7)c7ccc4[nH]7)C=C6)C=C5)cc3)cc2)cc1
REMARK SMILES IDX 24 1 23 2 22 3 21 4 20 5 18 6 19 7 17 8 14 9 15 10 84 11
REMARK SMILES IDX 16 12 83 13 13 14 11 16 12 17 10 18 8 19 9 20 7 22 6 23 5 24
REMARK SMILES IDX 1 25 2 26 3 27 86 28 4 29 85 30 25 31 26 32 27 33 28 34
REMARK SMILES IDX 29 35 30 36 31 37 32 38 33 39 34 40 35 41 36 42 82 43 37 44
REMARK SMILES IDX 81 45 38 46 39 47 40 48 75 49 41 50 80 51 74 52 76 53 42 54
REMARK SMILES IDX 79 55 73 56 72 57 43 59 65 60 50 61 64 62 51 63 54 64 63 65
REMARK SMILES IDX 77 66 52 67 53 68 62 70 78 71 55 72 44 73 45 74 49 75 46 76
REMARK SMILES IDX 48 77 47 78 66 79 67 80 71 81 68 82 70 83 69 84 56 85 57 86
REMARK SMILES IDX 61 87 58 88 60 89 59 90
REMARK H PARENT 13 15 10 21 76 58 54 69
REMARK Flexibility Score: inf
ROOT
ATOM      1  C   UNL A   1      40.086  28.652  27.521  1.00  0.00     0.188 C 
ENDROOT
BRANCH   1   2
ATOM      2  O   UNL A   1      38.624  28.757  27.918  1.00  0.00    -0.376 OA
BRANCH   2   3
ATOM      3  C   UNL A   1      37.530  29.911  27.923  1.00  0.00     0.202 C 
BRANCH   3   4
ATOM      4  C   UNL A   1      35.760  30.268  27.627  1.00  0.00     0.261 C 
BRANCH   4   5
ATOM      5  O   UNL A   1      34.247  29.337  27.225  1.00  0.00    -0.460 OA
BRANCH   5   6
ATOM      6  C   UNL A   1      33.355  28.642  26.147  1.00  0.00     0.338 C 
ATOM      7  O   UNL A   1      32.504  29.250  25.490  1.00  0.00    -0.246 OA
BRANCH   6   8
ATOM      8  C   UNL A   1      33.184  27.084  25.891  1.00  0.00     0.060 A 
ATOM      9  C   UNL A   1      33.140  24.224  26.106  1.00  0.00     0.040 A 
ATOM     10  C   UNL A   1      34.114  24.869  25.344  1.00  0.00     0.027 A 
ATOM     11  C   UNL A   1      32.096  24.993  26.625  1.00  0.00     0.027 A 
ATOM     12  C   UNL A   1      34.108  26.271  25.191  1.00  0.00     0.018 A 
ATOM     13  C   UNL A   1      32.113  26.409  26.506  1.00  0.00     0.018 A 
BRANCH   9  14
ATOM     14  N   UNL A   1      33.232  22.818  26.191  1.00  0.00    -0.332 N 
ATOM     15  H   UNL A   1      32.760  22.438  26.966  1.00  0.00     0.169 HD
BRANCH  14  16
ATOM     16  C   UNL A   1      33.842  21.894  25.419  1.00  0.00     0.177 C 
ATOM     17  S   UNL A   1      35.436  21.496  25.751  1.00  0.00    -0.040 S 
BRANCH  16  18
ATOM     18  N   UNL A   1      33.208  21.178  24.443  1.00  0.00    -0.300 N 
ATOM     19  C   UNL A   1      32.587  21.428  23.230  1.00  0.00     0.264 C 
ATOM     20  O   UNL A   1      32.153  20.465  22.587  1.00  0.00    -0.271 OA
ATOM     21  H   UNL A   1      33.188  20.219  24.662  1.00  0.00     0.172 HD
BRANCH  19  22
ATOM     22  C   UNL A   1      32.379  22.846  22.737  1.00  0.00     0.329 C 
BRANCH  22  23
ATOM     23  O   UNL A   1      31.162  23.406  23.206  1.00  0.00    -0.484 OA
BRANCH  23  24
ATOM     24  C   UNL A   1      31.025  24.767  23.147  1.00  0.00     0.120 A 
ATOM     25  C   UNL A   1      30.101  28.988  22.984  1.00  0.00     0.044 C 
ATOM     26  C   UNL A   1      30.428  27.525  23.039  1.00  0.00    -0.051 A 
ATOM     27  C   UNL A   1      29.604  26.645  23.749  1.00  0.00     0.007 A 
ATOM     28  C   UNL A   1      31.538  27.006  22.362  1.00  0.00     0.007 A 
ATOM     29  C   UNL A   1      29.903  25.280  23.798  1.00  0.00     0.047 A 
ATOM     30  C   UNL A   1      31.838  25.638  22.417  1.00  0.00     0.047 A 
ENDBRANCH  23  24
ENDBRANCH  22  23
ENDBRANCH  19  22
ENDBRANCH  16  18
ENDBRANCH  14  16
ENDBRANCH   9  14
ENDBRANCH   6   8
ENDBRANCH   5   6
ENDBRANCH   4   5
ENDBRANCH   3   4
ENDBRANCH   2   3
ENDBRANCH   1   2
BRANCH   1  31
ATOM     31  C   UNL A   1      41.192  28.034  28.466  1.00  0.00     0.188 C 
BRANCH  31  32
ATOM     32  O   UNL A   1      41.522  26.662  28.419  1.00  0.00    -0.377 OA
BRANCH  32  33
ATOM     33  C   UNL A   1      42.834  26.254  28.726  1.00  0.00     0.188 C 
BRANCH  33  34
ATOM     34  C   UNL A   1      44.030  26.921  28.025  1.00  0.00     0.188 C 
BRANCH  34  35
ATOM     35  O   UNL A   1      43.888  27.102  26.627  1.00  0.00    -0.376 OA
BRANCH  35  36
ATOM     36  C   UNL A   1      44.061  28.440  26.127  1.00  0.00     0.202 C 
BRANCH  36  37
ATOM     37  C   UNL A   1      44.320  29.607  27.114  1.00  0.00     0.261 C 
BRANCH  37  38
ATOM     38  O   UNL A   1      43.754  30.831  26.592  1.00  0.00    -0.460 OA
BRANCH  38  39
ATOM     39  C   UNL A   1      44.574  31.912  26.531  1.00  0.00     0.338 C 
ATOM     40  O   UNL A   1      45.544  32.033  25.809  1.00  0.00    -0.246 OA
BRANCH  39  41
ATOM     41  C   UNL A   1      44.298  32.759  27.735  1.00  0.00     0.060 A 
ATOM     42  C   UNL A   1      44.394  32.205  29.003  1.00  0.00     0.016 A 
ATOM     43  C   UNL A   1      43.641  33.987  27.594  1.00  0.00     0.016 A 
ATOM     44  C   UNL A   1      43.697  32.818  30.060  1.00  0.00     0.010 A 
ATOM     45  C   UNL A   1      42.790  34.462  28.596  1.00  0.00     0.010 A 
ATOM     46  C   UNL A   1      42.714  33.823  29.835  1.00  0.00    -0.014 A 
BRANCH  46  47
ATOM     47  C   UNL A   1      41.681  34.402  30.908  1.00  0.00     0.031 A 
ATOM     48  C   UNL A   1      43.015  35.217  31.805  1.00  0.00     0.074 A 
ATOM     49  C   UNL A   1      40.122  34.067  31.289  1.00  0.00     0.049 A 
ATOM     50  N   UNL A   1      43.318  35.058  33.078  1.00  0.00    -0.248 NA
ATOM     51  C   UNL A   1      44.098  36.039  31.210  1.00  0.00     0.031 C 
ATOM     52  C   UNL A   1      39.065  34.578  32.418  1.00  0.00     0.029 A 
ATOM     53  N   UNL A   1      39.177  32.945  31.040  1.00  0.00    -0.354 N 
ATOM     54  C   UNL A   1      44.023  36.137  33.503  1.00  0.00     0.074 A 
ATOM     55  C   UNL A   1      44.731  36.518  32.299  1.00  0.00     0.031 C 
ATOM     56  C   UNL A   1      38.026  33.814  32.723  1.00  0.00     0.029 A 
ATOM     57  C   UNL A   1      38.304  32.592  32.116  1.00  0.00     0.049 A 
ATOM     58  H   UNL A   1      39.153  32.470  30.178  1.00  0.00     0.167 HD
ATOM     59  C   UNL A   1      43.703  36.797  34.671  1.00  0.00     0.031 A 
ATOM     60  C   UNL A   1      38.234  31.420  32.832  1.00  0.00     0.031 A 
ATOM     61  C   UNL A   1      42.431  36.345  35.354  1.00  0.00     0.049 A 
ATOM     62  C   UNL A   1      38.567  31.698  34.331  1.00  0.00     0.074 A 
ATOM     63  C   UNL A   1      41.194  36.982  35.459  1.00  0.00     0.029 A 
ATOM     64  N   UNL A   1      42.183  35.034  35.815  1.00  0.00    -0.354 N 
ATOM     65  N   UNL A   1      39.340  32.686  34.724  1.00  0.00    -0.248 NA
ATOM     66  C   UNL A   1      38.031  30.975  35.479  1.00  0.00     0.031 C 
ATOM     67  C   UNL A   1      40.203  36.051  35.868  1.00  0.00     0.029 A 
ATOM     68  C   UNL A   1      40.813  34.828  36.097  1.00  0.00     0.049 A 
ATOM     69  H   UNL A   1      42.879  34.346  35.925  1.00  0.00     0.167 HD
ATOM     70  C   UNL A   1      39.464  32.735  36.089  1.00  0.00     0.074 A 
ATOM     71  C   UNL A   1      38.573  31.657  36.513  1.00  0.00     0.031 C 
ATOM     72  C   UNL A   1      40.260  33.632  36.776  1.00  0.00     0.031 A 
BRANCH  59  73
ATOM     73  C   UNL A   1      44.305  38.190  34.885  1.00  0.00    -0.014 A 
ATOM     74  C   UNL A   1      45.392  38.410  35.752  1.00  0.00     0.009 A 
ATOM     75  C   UNL A   1      43.777  39.346  34.278  1.00  0.00     0.009 A 
ATOM     76  C   UNL A   1      45.820  39.698  36.112  1.00  0.00     0.001 A 
ATOM     77  C   UNL A   1      44.173  40.639  34.657  1.00  0.00     0.001 A 
ATOM     78  C   UNL A   1      45.183  40.816  35.594  1.00  0.00     0.000 A 
ENDBRANCH  59  73
BRANCH  60  79
ATOM     79  C   UNL A   1      38.509  30.154  32.070  1.00  0.00    -0.014 A 
ATOM     80  C   UNL A   1      39.786  29.573  32.236  1.00  0.00     0.009 A 
ATOM     81  C   UNL A   1      37.534  29.367  31.442  1.00  0.00     0.009 A 
ATOM     82  C   UNL A   1      40.037  28.226  31.964  1.00  0.00     0.001 A 
ATOM     83  C   UNL A   1      37.779  28.002  31.184  1.00  0.00     0.001 A 
ATOM     84  C   UNL A   1      39.015  27.427  31.476  1.00  0.00     0.000 A 
ENDBRANCH  60  79
BRANCH  72  85
ATOM     85  C   UNL A   1      40.455  33.599  38.282  1.00  0.00    -0.014 A 
ATOM     86  C   UNL A   1      41.609  33.128  38.915  1.00  0.00     0.009 A 
ATOM     87  C   UNL A   1      39.471  34.180  39.119  1.00  0.00     0.009 A 
ATOM     88  C   UNL A   1      41.750  33.190  40.309  1.00  0.00     0.001 A 
ATOM     89  C   UNL A   1      39.625  34.285  40.501  1.00  0.00     0.001 A 
ATOM     90  C   UNL A   1      40.766  33.777  41.099  1.00  0.00     0.000 A 
ENDBRANCH  72  85
ENDBRANCH  46  47
ENDBRANCH  39  41
ENDBRANCH  38  39
ENDBRANCH  37  38
ENDBRANCH  36  37
ENDBRANCH  35  36
ENDBRANCH  34  35
ENDBRANCH  33  34
ENDBRANCH  32  33
ENDBRANCH  31  32
ENDBRANCH   1  31
TORSDOF 26
ENDMDL
MODEL 2
REMARK VINA RESULT:      -8.5      5.831     11.622
REMARK SMILES Cc1ccc(OCC(=O)NC(=S)Nc2ccc(C(=O)OCCOCCOCCOCCOC(=O)c3ccc(-c4c5nc(c(-c6ccccc6)c6ccc([nH]6)c(-c6ccccc6)c6nc(c(-c7ccccc7)c7ccc4[nH]7)C=C6)C=C5)cc3)cc2)cc1
REMARK SMILES IDX 24 1 23 2 22 3 21 4 20 5 18 6 19 7 17 8 14 9 15 10 84 11
REMARK SMILES IDX 16 12 83 13 13 14 11 16 12 17 10 18 8 19 9 20 7 22 6 23 5 24
REMARK SMILES IDX 1 25 2 26 3 27 86 28 4 29 85 30 25 31 26 32 27 33 28 34
REMARK SMILES IDX 29 35 30 36 31 37 32 38 33 39 34 40 35 41 36 42 82 43 37 44
REMARK SMILES IDX 81 45 38 46 39 47 40 48 75 49 41 50 80 51 74 52 76 53 42 54
REMARK SMILES IDX 79 55 73 56 72 57 43 59 65 60 50 61 64 62 51 63 54 64 63 65
REMARK SMILES IDX 77 66 52 67 53 68 62 70 78 71 55 72 44 73 45 74 49 75 46 76
REMARK SMILES IDX 48 77 47 78 66 79 67 80 71 81 68 82 70 83 69 84 56 85 57 86
REMARK SMILES IDX 61 87 58 88 60 89 59 90
REMARK H PARENT 13 15 10 21 76 58 54 69
REMARK Flexibility Score: inf
ROOT
ATOM      1  C   UNL A   1      35.812  31.952  29.723  1.00  0.00     0.188 C 
ENDROOT
BRANCH   1   2
ATOM      2  O   UNL A   1      36.582  30.956  30.574  1.00  0.00    -0.376 OA
BRANCH   2   3
ATOM      3  C   UNL A   1      36.930  29.408  30.472  1.00  0.00     0.202 C 
BRANCH   3   4
ATOM      4  C   UNL A   1      38.300  28.197  30.533  1.00  0.00     0.261 C 
BRANCH   4   5
ATOM      5  O   UNL A   1      39.581  27.555  29.408  1.00  0.00    -0.460 OA
BRANCH   5   6
ATOM      6  C   UNL A   1      40.218  27.540  27.982  1.00  0.00     0.338 C 
ATOM      7  O   UNL A   1      40.263  28.540  27.258  1.00  0.00    -0.246 OA
BRANCH   6   8
ATOM      8  C   UNL A   1      40.658  26.272  27.132  1.00  0.00     0.060 A 
ATOM      9  C   UNL A   1      42.011  23.981  26.063  1.00  0.00     0.040 A 
ATOM     10  C   UNL A   1      42.050  25.207  25.401  1.00  0.00     0.027 A 
ATOM     11  C   UNL A   1      41.166  23.856  27.168  1.00  0.00     0.027 A 
ATOM     12  C   UNL A   1      41.341  26.323  25.894  1.00  0.00     0.018 A 
ATOM     13  C   UNL A   1      40.485  24.990  27.689  1.00  0.00     0.018 A 
BRANCH   9  14
ATOM     14  N   UNL A   1      42.750  22.926  25.485  1.00  0.00    -0.332 N 
ATOM     15  H   UNL A   1      42.196  22.164  25.203  1.00  0.00     0.169 HD
BRANCH  14  16
ATOM     16  C   UNL A   1      44.068  22.759  25.244  1.00  0.00     0.177 C 
ATOM     17  S   UNL A   1      44.562  22.429  23.677  1.00  0.00    -0.040 S 
BRANCH  16  18
ATOM     18  N   UNL A   1      45.044  22.948  26.182  1.00  0.00    -0.300 N 
ATOM     19  C   UNL A   1      45.806  23.998  26.668  1.00  0.00     0.264 C 
ATOM     20  O   UNL A   1      46.592  23.768  27.595  1.00  0.00    -0.271 OA
ATOM     21  H   UNL A   1      45.269  22.105  26.637  1.00  0.00     0.172 HD
BRANCH  19  22
ATOM     22  C   UNL A   1      45.733  25.373  26.037  1.00  0.00     0.329 C 
BRANCH  22  23
ATOM     23  O   UNL A   1      46.740  26.245  26.527  1.00  0.00    -0.484 OA
BRANCH  23  24
ATOM     24  C   UNL A   1      47.804  26.511  25.707  1.00  0.00     0.120 A 
ATOM     25  C   UNL A   1      50.837  27.336  22.737  1.00  0.00     0.044 C 
ATOM     26  C   UNL A   1      49.789  27.049  23.772  1.00  0.00    -0.051 A 
ATOM     27  C   UNL A   1      48.477  27.495  23.588  1.00  0.00     0.007 A 
ATOM     28  C   UNL A   1      50.092  26.307  24.920  1.00  0.00     0.007 A 
ATOM     29  C   UNL A   1      47.496  27.225  24.548  1.00  0.00     0.047 A 
ATOM     30  C   UNL A   1      49.108  26.042  25.883  1.00  0.00     0.047 A 
ENDBRANCH  23  24
ENDBRANCH  22  23
ENDBRANCH  19  22
ENDBRANCH  16  18
ENDBRANCH  14  16
ENDBRANCH   9  14
ENDBRANCH   6   8
ENDBRANCH   5   6
ENDBRANCH   4   5
ENDBRANCH   3   4
ENDBRANCH   2   3
ENDBRANCH   1   2
BRANCH   1  31
ATOM     31  C   UNL A   1      34.719  32.927  30.317  1.00  0.00     0.188 C 
BRANCH  31  32
ATOM     32  O   UNL A   1      34.327  32.861  31.671  1.00  0.00    -0.377 OA
BRANCH  32  33
ATOM     33  C   UNL A   1      34.377  34.023  32.464  1.00  0.00     0.188 C 
BRANCH  33  34
ATOM     34  C   UNL A   1      34.924  33.951  33.899  1.00  0.00     0.188 C 
BRANCH  34  35
ATOM     35  O   UNL A   1      36.188  33.327  34.034  1.00  0.00    -0.376 OA
BRANCH  35  36
ATOM     36  C   UNL A   1      37.217  34.083  34.697  1.00  0.00     0.202 C 
BRANCH  36  37
ATOM     37  C   UNL A   1      38.447  34.582  33.897  1.00  0.00     0.261 C 
BRANCH  37  38
ATOM     38  O   UNL A   1      39.663  34.279  34.617  1.00  0.00    -0.460 OA
BRANCH  38  39
ATOM     39  C   UNL A   1      39.959  32.966  34.801  1.00  0.00     0.338 C 
ATOM     40  O   UNL A   1      40.158  32.422  35.869  1.00  0.00    -0.246 OA
BRANCH  39  41
ATOM     41  C   UNL A   1      40.348  32.398  33.471  1.00  0.00     0.060 A 
ATOM     42  C   UNL A   1      39.568  31.412  32.888  1.00  0.00     0.016 A 
ATOM     43  C   UNL A   1      41.638  32.608  32.969  1.00  0.00     0.016 A 
ATOM     44  C   UNL A   1      40.154  30.567  31.930  1.00  0.00     0.010 A 
ATOM     45  C   UNL A   1      42.266  31.639  32.180  1.00  0.00     0.010 A 
ATOM     46  C   UNL A   1      41.562  30.524  31.719  1.00  0.00    -0.014 A 
BRANCH  46  47
ATOM     47  C   UNL A   1      42.365  29.441  30.864  1.00  0.00     0.031 A 
ATOM     48  C   UNL A   1      42.958  28.642  32.366  1.00  0.00     0.074 A 
ATOM     49  C   UNL A   1      42.814  29.330  29.290  1.00  0.00     0.049 A 
ATOM     50  N   UNL A   1      44.216  28.426  32.697  1.00  0.00    -0.248 NA
ATOM     51  C   UNL A   1      42.139  28.282  33.550  1.00  0.00     0.031 C 
ATOM     52  C   UNL A   1      43.692  28.286  28.402  1.00  0.00     0.029 A 
ATOM     53  N   UNL A   1      42.939  30.272  28.145  1.00  0.00    -0.354 N 
ATOM     54  C   UNL A   1      44.267  27.421  33.608  1.00  0.00     0.074 A 
ATOM     55  C   UNL A   1      43.015  27.599  34.314  1.00  0.00     0.031 C 
ATOM     56  C   UNL A   1      44.219  28.696  27.257  1.00  0.00     0.029 A 
ATOM     57  C   UNL A   1      44.058  30.079  27.277  1.00  0.00     0.049 A 
ATOM     58  H   UNL A   1      42.284  30.991  27.992  1.00  0.00     0.167 HD
ATOM     59  C   UNL A   1      45.144  26.364  33.472  1.00  0.00     0.031 A 
ATOM     60  C   UNL A   1      45.123  30.914  27.029  1.00  0.00     0.031 A 
ATOM     61  C   UNL A   1      45.919  26.318  32.175  1.00  0.00     0.049 A 
ATOM     62  C   UNL A   1      46.448  30.224  27.481  1.00  0.00     0.074 A 
ATOM     63  C   UNL A   1      45.789  25.460  31.081  1.00  0.00     0.029 A 
ATOM     64  N   UNL A   1      46.787  27.331  31.714  1.00  0.00    -0.354 N 
ATOM     65  N   UNL A   1      46.500  29.327  28.440  1.00  0.00    -0.248 NA
ATOM     66  C   UNL A   1      47.763  30.413  26.880  1.00  0.00     0.031 C 
ATOM     67  C   UNL A   1      46.470  25.999  29.958  1.00  0.00     0.029 A 
ATOM     68  C   UNL A   1      47.102  27.170  30.345  1.00  0.00     0.049 A 
ATOM     69  H   UNL A   1      47.131  28.063  32.277  1.00  0.00     0.167 HD
ATOM     70  C   UNL A   1      47.773  28.854  28.638  1.00  0.00     0.074 A 
ATOM     71  C   UNL A   1      48.519  29.544  27.587  1.00  0.00     0.031 C 
ATOM     72  C   UNL A   1      48.133  27.948  29.618  1.00  0.00     0.031 A 
BRANCH  59  73
ATOM     73  C   UNL A   1      44.890  25.119  34.328  1.00  0.00    -0.014 A 
ATOM     74  C   UNL A   1      45.667  24.820  35.463  1.00  0.00     0.009 A 
ATOM     75  C   UNL A   1      43.906  24.164  34.006  1.00  0.00     0.009 A 
ATOM     76  C   UNL A   1      45.580  23.589  36.133  1.00  0.00     0.001 A 
ATOM     77  C   UNL A   1      43.833  22.916  34.646  1.00  0.00     0.001 A 
ATOM     78  C   UNL A   1      44.689  22.619  35.699  1.00  0.00     0.000 A 
ENDBRANCH  59  73
BRANCH  60  79
ATOM     79  C   UNL A   1      44.831  32.388  27.030  1.00  0.00    -0.014 A 
ATOM     80  C   UNL A   1      44.448  32.964  25.798  1.00  0.00     0.009 A 
ATOM     81  C   UNL A   1      44.639  33.167  28.179  1.00  0.00     0.009 A 
ATOM     82  C   UNL A   1      43.746  34.170  25.723  1.00  0.00     0.001 A 
ATOM     83  C   UNL A   1      43.914  34.374  28.108  1.00  0.00     0.001 A 
ATOM     84  C   UNL A   1      43.440  34.856  26.887  1.00  0.00     0.000 A 
ENDBRANCH  60  79
BRANCH  72  85
ATOM     85  C   UNL A   1      49.566  27.519  29.878  1.00  0.00    -0.014 A 
ATOM     86  C   UNL A   1      50.222  26.501  29.179  1.00  0.00     0.009 A 
ATOM     87  C   UNL A   1      50.351  28.253  30.802  1.00  0.00     0.009 A 
ATOM     88  C   UNL A   1      51.570  26.202  29.424  1.00  0.00     0.001 A 
ATOM     89  C   UNL A   1      51.703  27.990  31.016  1.00  0.00     0.001 A 
ATOM     90  C   UNL A   1      52.312  26.952  30.332  1.00  0.00     0.000 A 
ENDBRANCH  72  85
ENDBRANCH  46  47
ENDBRANCH  39  41
ENDBRANCH  38  39
ENDBRANCH  37  38
ENDBRANCH  36  37
ENDBRANCH  35  36
ENDBRANCH  34  35
ENDBRANCH  33  34
ENDBRANCH  32  33
ENDBRANCH  31  32
ENDBRANCH   1  31
TORSDOF 26
ENDMDL
MODEL 3
REMARK VINA RESULT:      -8.1      4.859      9.458
REMARK SMILES Cc1ccc(OCC(=O)NC(=S)Nc2ccc(C(=O)OCCOCCOCCOCCOC(=O)c3ccc(-c4c5nc(c(-c6ccccc6)c6ccc([nH]6)c(-c6ccccc6)c6nc(c(-c7ccccc7)c7ccc4[nH]7)C=C6)C=C5)cc3)cc2)cc1
REMARK SMILES IDX 24 1 23 2 22 3 21 4 20 5 18 6 19 7 17 8 14 9 15 10 84 11
REMARK SMILES IDX 16 12 83 13 13 14 11 16 12 17 10 18 8 19 9 20 7 22 6 23 5 24
REMARK SMILES IDX 1 25 2 26 3 27 86 28 4 29 85 30 25 31 26 32 27 33 28 34
REMARK SMILES IDX 29 35 30 36 31 37 32 38 33 39 34 40 35 41 36 42 82 43 37 44
REMARK SMILES IDX 81 45 38 46 39 47 40 48 75 49 41 50 80 51 74 52 76 53 42 54
REMARK SMILES IDX 79 55 73 56 72 57 43 59 65 60 50 61 64 62 51 63 54 64 63 65
REMARK SMILES IDX 77 66 52 67 53 68 62 70 78 71 55 72 44 73 45 74 49 75 46 76
REMARK SMILES IDX 48 77 47 78 66 79 67 80 71 81 68 82 70 83 69 84 56 85 57 86
REMARK SMILES IDX 61 87 58 88 60 89 59 90
REMARK H PARENT 13 15 10 21 76 58 54 69
REMARK Flexibility Score: inf
ROOT
ATOM      1  C   UNL A   1      32.779  36.658  30.244  1.00  0.00     0.188 C 
ENDROOT
BRANCH   1   2
ATOM      2  O   UNL A   1      33.555  35.768  29.289  1.00  0.00    -0.376 OA
BRANCH   2   3
ATOM      3  C   UNL A   1      33.758  34.201  29.110  1.00  0.00     0.202 C 
BRANCH   3   4
ATOM      4  C   UNL A   1      34.181  32.897  27.899  1.00  0.00     0.261 C 
BRANCH   4   5
ATOM      5  O   UNL A   1      33.535  31.272  27.388  1.00  0.00    -0.460 OA
BRANCH   5   6
ATOM      6  C   UNL A   1      32.711  30.425  26.368  1.00  0.00     0.338 C 
ATOM      7  O   UNL A   1      31.528  30.664  26.100  1.00  0.00    -0.246 OA
BRANCH   6   8
ATOM      8  C   UNL A   1      33.111  29.029  25.722  1.00  0.00     0.060 A 
ATOM      9  C   UNL A   1      33.152  26.334  24.743  1.00  0.00     0.040 A 
ATOM     10  C   UNL A   1      33.807  26.675  25.926  1.00  0.00     0.027 A 
ATOM     11  C   UNL A   1      32.616  27.365  23.968  1.00  0.00     0.027 A 
ATOM     12  C   UNL A   1      33.835  28.009  26.383  1.00  0.00     0.018 A 
ATOM     13  C   UNL A   1      32.608  28.703  24.449  1.00  0.00     0.018 A 
BRANCH   9  14
ATOM     14  N   UNL A   1      33.186  24.973  24.370  1.00  0.00    -0.332 N 
ATOM     15  H   UNL A   1      33.915  24.753  23.747  1.00  0.00     0.169 HD
BRANCH  14  16
ATOM     16  C   UNL A   1      32.414  23.917  24.700  1.00  0.00     0.177 C 
ATOM     17  S   UNL A   1      31.239  23.411  23.617  1.00  0.00    -0.040 S 
BRANCH  16  18
ATOM     18  N   UNL A   1      32.599  23.157  25.821  1.00  0.00    -0.300 N 
ATOM     19  C   UNL A   1      33.340  22.048  26.195  1.00  0.00     0.264 C 
ATOM     20  O   UNL A   1      33.269  21.667  27.369  1.00  0.00    -0.271 OA
ATOM     21  H   UNL A   1      32.056  23.491  26.571  1.00  0.00     0.172 HD
BRANCH  19  22
ATOM     22  C   UNL A   1      34.159  21.278  25.179  1.00  0.00     0.329 C 
BRANCH  22  23
ATOM     23  O   UNL A   1      33.346  20.622  24.218  1.00  0.00    -0.484 OA
BRANCH  23  24
ATOM     24  C   UNL A   1      33.153  19.274  24.365  1.00  0.00     0.120 A 
ATOM     25  C   UNL A   1      32.707  15.075  25.297  1.00  0.00     0.044 C 
ATOM     26  C   UNL A   1      32.861  16.531  24.968  1.00  0.00    -0.051 A 
ATOM     27  C   UNL A   1      32.688  17.500  25.961  1.00  0.00     0.007 A 
ATOM     28  C   UNL A   1      33.207  16.947  23.676  1.00  0.00     0.007 A 
ATOM     29  C   UNL A   1      32.836  18.858  25.659  1.00  0.00     0.047 A 
ATOM     30  C   UNL A   1      33.349  18.309  23.375  1.00  0.00     0.047 A 
ENDBRANCH  23  24
ENDBRANCH  22  23
ENDBRANCH  19  22
ENDBRANCH  16  18
ENDBRANCH  14  16
ENDBRANCH   9  14
ENDBRANCH   6   8
ENDBRANCH   5   6
ENDBRANCH   4   5
ENDBRANCH   3   4
ENDBRANCH   2   3
ENDBRANCH   1   2
BRANCH   1  31
ATOM     31  C   UNL A   1      33.125  36.778  31.782  1.00  0.00     0.188 C 
BRANCH  31  32
ATOM     32  O   UNL A   1      33.380  35.638  32.573  1.00  0.00    -0.377 OA
BRANCH  32  33
ATOM     33  C   UNL A   1      34.466  35.644  33.468  1.00  0.00     0.188 C 
BRANCH  33  34
ATOM     34  C   UNL A   1      35.854  35.177  32.996  1.00  0.00     0.188 C 
BRANCH  34  35
ATOM     35  O   UNL A   1      36.359  34.025  33.646  1.00  0.00    -0.376 OA
BRANCH  35  36
ATOM     36  C   UNL A   1      35.582  32.821  33.525  1.00  0.00     0.202 C 
BRANCH  36  37
ATOM     37  C   UNL A   1      36.102  31.650  32.653  1.00  0.00     0.261 C 
BRANCH  37  38
ATOM     38  O   UNL A   1      35.931  31.963  31.251  1.00  0.00    -0.460 OA
BRANCH  38  39
ATOM     39  C   UNL A   1      37.040  32.343  30.565  1.00  0.00     0.338 C 
ATOM     40  O   UNL A   1      37.072  33.130  29.640  1.00  0.00    -0.246 OA
BRANCH  39  41
ATOM     41  C   UNL A   1      38.134  31.375  30.898  1.00  0.00     0.060 A 
ATOM     42  C   UNL A   1      39.332  31.841  31.417  1.00  0.00     0.016 A 
ATOM     43  C   UNL A   1      38.089  30.068  30.398  1.00  0.00     0.016 A 
ATOM     44  C   UNL A   1      40.482  31.044  31.278  1.00  0.00     0.010 A 
ATOM     45  C   UNL A   1      39.266  29.383  30.080  1.00  0.00     0.010 A 
ATOM     46  C   UNL A   1      40.515  29.907  30.421  1.00  0.00    -0.014 A 
BRANCH  46  47
ATOM     47  C   UNL A   1      41.811  29.085  29.979  1.00  0.00     0.031 A 
ATOM     48  C   UNL A   1      42.143  28.619  31.688  1.00  0.00     0.074 A 
ATOM     49  C   UNL A   1      42.713  29.022  28.611  1.00  0.00     0.049 A 
ATOM     50  N   UNL A   1      43.254  28.840  32.361  1.00  0.00    -0.248 NA
ATOM     51  C   UNL A   1      41.154  28.093  32.661  1.00  0.00     0.031 C 
ATOM     52  C   UNL A   1      44.075  28.260  28.150  1.00  0.00     0.029 A 
ATOM     53  N   UNL A   1      42.890  29.877  27.406  1.00  0.00    -0.354 N 
ATOM     54  C   UNL A   1      43.325  27.967  33.398  1.00  0.00     0.074 A 
ATOM     55  C   UNL A   1      41.926  27.779  33.720  1.00  0.00     0.031 C 
ATOM     56  C   UNL A   1      44.773  28.741  27.131  1.00  0.00     0.029 A 
ATOM     57  C   UNL A   1      44.220  29.997  26.896  1.00  0.00     0.049 A 
ATOM     58  H   UNL A   1      42.130  30.336  26.981  1.00  0.00     0.167 HD
ATOM     59  C   UNL A   1      44.470  27.241  33.656  1.00  0.00     0.031 A 
ATOM     60  C   UNL A   1      45.021  31.112  26.806  1.00  0.00     0.031 A 
ATOM     61  C   UNL A   1      45.570  27.362  32.626  1.00  0.00     0.049 A 
ATOM     62  C   UNL A   1      46.296  30.916  27.685  1.00  0.00     0.074 A 
ATOM     63  C   UNL A   1      46.020  26.438  31.680  1.00  0.00     0.029 A 
ATOM     64  N   UNL A   1      46.202  28.568  32.254  1.00  0.00    -0.354 N 
ATOM     65  N   UNL A   1      46.322  30.147  28.751  1.00  0.00    -0.248 NA
ATOM     66  C   UNL A   1      47.616  31.477  27.421  1.00  0.00     0.031 C 
ATOM     67  C   UNL A   1      46.813  27.093  30.702  1.00  0.00     0.029 A 
ATOM     68  C   UNL A   1      46.937  28.427  31.055  1.00  0.00     0.049 A 
ATOM     69  H   UNL A   1      46.138  29.406  32.768  1.00  0.00     0.167 HD
ATOM     70  C   UNL A   1      47.561  30.123  29.340  1.00  0.00     0.074 A 
ATOM     71  C   UNL A   1      48.349  30.945  28.425  1.00  0.00     0.031 C 
ATOM     72  C   UNL A   1      47.864  29.446  30.507  1.00  0.00     0.031 A 
BRANCH  59  73
ATOM     73  C   UNL A   1      44.348  26.039  34.599  1.00  0.00    -0.014 A 
ATOM     74  C   UNL A   1      44.627  26.136  35.975  1.00  0.00     0.009 A 
ATOM     75  C   UNL A   1      44.008  24.750  34.144  1.00  0.00     0.009 A 
ATOM     76  C   UNL A   1      44.717  25.009  36.807  1.00  0.00     0.001 A 
ATOM     77  C   UNL A   1      44.130  23.612  34.958  1.00  0.00     0.001 A 
ATOM     78  C   UNL A   1      44.507  23.740  36.288  1.00  0.00     0.000 A 
ENDBRANCH  59  73
BRANCH  60  79
ATOM     79  C   UNL A   1      44.328  32.411  26.506  1.00  0.00    -0.014 A 
ATOM     80  C   UNL A   1      44.020  33.240  27.608  1.00  0.00     0.009 A 
ATOM     81  C   UNL A   1      44.214  32.984  25.232  1.00  0.00     0.009 A 
ATOM     82  C   UNL A   1      43.789  34.612  27.470  1.00  0.00     0.001 A 
ATOM     83  C   UNL A   1      44.001  34.371  25.092  1.00  0.00     0.001 A 
ATOM     84  C   UNL A   1      43.824  35.187  26.210  1.00  0.00     0.000 A 
ENDBRANCH  60  79
BRANCH  72  85
ATOM     85  C   UNL A   1      49.219  29.518  31.191  1.00  0.00    -0.014 A 
ATOM     86  C   UNL A   1      49.487  30.289  32.326  1.00  0.00     0.009 A 
ATOM     87  C   UNL A   1      50.264  28.674  30.742  1.00  0.00     0.009 A 
ATOM     88  C   UNL A   1      50.744  30.255  32.946  1.00  0.00     0.001 A 
ATOM     89  C   UNL A   1      51.501  28.602  31.383  1.00  0.00     0.001 A 
ATOM     90  C   UNL A   1      51.744  29.406  32.483  1.00  0.00     0.000 A 
ENDBRANCH  72  85
ENDBRANCH  46  47
ENDBRANCH  39  41
ENDBRANCH  38  39
ENDBRANCH  37  38
ENDBRANCH  36  37
ENDBRANCH  35  36
ENDBRANCH  34  35
ENDBRANCH  33  34
ENDBRANCH  32  33
ENDBRANCH  31  32
ENDBRANCH   1  31
TORSDOF 26
ENDMDL
