MODEL 1
REMARK VINA RESULT:      -8.9      0.000      0.000
REMARK SMILES C[C@H](CNS(=O)(=O)c1ccc(C(=O)OCCOCCOCCOCCOC(=O)c2ccc(-c3c4nc(c(-c5ccccc5)c5ccc([nH]5)c(-c5ccccc5)c5nc(c(-c6ccccc6)c6ccc3[nH]6)C=C5)C=C4)cc2)cc1F)[NH+](C)C
REMARK SMILES IDX 18 1 17 2 16 3 15 4 14 5 12 6 13 7 11 8 8 9 9 10 78 11 10 12
REMARK SMILES IDX 77 13 79 14 5 15 6 16 7 17 4 18 3 20 2 21 1 22 80 23 81 24
REMARK SMILES IDX 82 25 19 27 20 28 21 29 22 30 23 31 24 32 25 33 26 34 27 35
REMARK SMILES IDX 28 36 29 37 30 38 76 39 31 40 75 41 32 42 33 43 34 44 69 45
REMARK SMILES IDX 35 46 74 47 68 48 70 49 36 50 73 51 67 52 66 53 37 55 59 56
REMARK SMILES IDX 44 57 58 58 45 59 48 60 57 61 71 62 46 63 47 64 56 66 72 67
REMARK SMILES IDX 49 68 38 69 39 70 43 71 40 72 42 73 41 74 60 75 61 76 65 77
REMARK SMILES IDX 62 78 64 79 63 80 50 81 51 82 55 83 52 84 54 85 53 86
REMARK H PARENT 4 19 80 26 70 54 48 65
REMARK Flexibility Score: inf
ROOT
ATOM      1  C   UNL A   1      34.334  29.397  26.317  1.00  0.00     0.188 C 
ENDROOT
BRANCH   1   2
ATOM      2  O   UNL A   1      33.030  29.870  25.993  1.00  0.00    -0.376 OA
BRANCH   2   3
ATOM      3  C   UNL A   1      32.282  29.077  25.083  1.00  0.00     0.202 C 
BRANCH   3   4
ATOM      4  C   UNL A   1      33.125  28.350  24.027  1.00  0.00     0.261 C 
BRANCH   4   5
ATOM      5  O   UNL A   1      32.553  27.124  23.540  1.00  0.00    -0.460 OA
BRANCH   5   6
ATOM      6  C   UNL A   1      33.358  26.323  22.809  1.00  0.00     0.338 C 
ATOM      7  O   UNL A   1      33.885  26.586  21.744  1.00  0.00    -0.246 OA
BRANCH   6   8
ATOM      8  C   UNL A   1      33.676  25.128  23.621  1.00  0.00     0.063 A 
ATOM      9  C   UNL A   1      34.385  22.876  25.113  1.00  0.00     0.118 A 
ATOM     10  C   UNL A   1      34.704  22.944  23.748  1.00  0.00     0.026 A 
ATOM     11  C   UNL A   1      33.725  23.936  25.722  1.00  0.00     0.144 A 
ATOM     12  C   UNL A   1      34.335  24.061  22.999  1.00  0.00     0.017 A 
ATOM     13  C   UNL A   1      33.382  25.071  24.987  1.00  0.00     0.056 A 
ATOM     14  F   UNL A   1      33.395  23.918  27.019  1.00  0.00    -0.205 F 
BRANCH   9  15
ATOM     15  S   UNL A   1      34.865  21.411  25.969  1.00  0.00     0.243 S 
ATOM     16  O   UNL A   1      34.337  21.509  27.312  1.00  0.00    -0.207 OA
ATOM     17  O   UNL A   1      36.282  21.253  25.729  1.00  0.00    -0.207 OA
BRANCH  15  18
ATOM     18  N   UNL A   1      34.138  20.098  25.237  1.00  0.00    -0.205 NA
ATOM     19  H   UNL A   1      33.647  20.451  24.416  1.00  0.00     0.141 HD
BRANCH  18  20
ATOM     20  C   UNL A   1      33.174  19.290  25.997  1.00  0.00     0.163 C 
BRANCH  20  21
ATOM     21  C   UNL A   1      32.687  18.028  25.210  1.00  0.00     0.195 C 
ATOM     22  C   UNL A   1      32.493  18.263  23.702  1.00  0.00     0.076 C 
BRANCH  21  23
ATOM     23  N   UNL A   1      33.486  16.822  25.544  1.00  0.00    -0.337 N 
ATOM     24  C   UNL A   1      32.724  15.581  25.390  1.00  0.00     0.332 C 
ATOM     25  C   UNL A   1      34.762  16.722  24.840  1.00  0.00     0.332 C 
ATOM     26  H   UNL A   1      33.711  16.947  26.532  1.00  0.00     0.347 HD
ENDBRANCH  21  23
ENDBRANCH  20  21
ENDBRANCH  18  20
ENDBRANCH  15  18
ENDBRANCH   9  15
ENDBRANCH   6   8
ENDBRANCH   5   6
ENDBRANCH   4   5
ENDBRANCH   3   4
ENDBRANCH   2   3
ENDBRANCH   1   2
BRANCH   1  27
ATOM     27  C   UNL A   1      34.848  29.880  27.684  1.00  0.00     0.188 C 
BRANCH  27  28
ATOM     28  O   UNL A   1      34.280  31.071  28.199  1.00  0.00    -0.377 OA
BRANCH  28  29
ATOM     29  C   UNL A   1      35.119  32.192  28.464  1.00  0.00     0.188 C 
BRANCH  29  30
ATOM     30  C   UNL A   1      34.725  33.638  28.085  1.00  0.00     0.188 C 
BRANCH  30  31
ATOM     31  O   UNL A   1      33.478  34.074  28.610  1.00  0.00    -0.376 OA
BRANCH  31  32
ATOM     32  C   UNL A   1      33.310  35.477  28.751  1.00  0.00     0.202 C 
BRANCH  32  33
ATOM     33  C   UNL A   1      32.874  35.891  30.159  1.00  0.00     0.261 C 
BRANCH  33  34
ATOM     34  O   UNL A   1      33.903  35.792  31.158  1.00  0.00    -0.460 OA
BRANCH  34  35
ATOM     35  C   UNL A   1      33.766  34.814  32.082  1.00  0.00     0.338 C 
ATOM     36  O   UNL A   1      32.810  34.599  32.801  1.00  0.00    -0.246 OA
BRANCH  35  37
ATOM     37  C   UNL A   1      34.931  33.918  31.956  1.00  0.00     0.060 A 
ATOM     38  C   UNL A   1      34.828  32.602  32.424  1.00  0.00     0.016 A 
ATOM     39  C   UNL A   1      36.116  34.381  31.381  1.00  0.00     0.016 A 
ATOM     40  C   UNL A   1      35.932  31.752  32.349  1.00  0.00     0.010 A 
ATOM     41  C   UNL A   1      37.224  33.536  31.322  1.00  0.00     0.010 A 
ATOM     42  C   UNL A   1      37.145  32.230  31.836  1.00  0.00    -0.014 A 
BRANCH  42  43
ATOM     43  C   UNL A   1      38.388  31.445  32.018  1.00  0.00     0.031 A 
ATOM     44  C   UNL A   1      39.306  31.821  33.147  1.00  0.00     0.074 A 
ATOM     45  C   UNL A   1      38.700  30.425  31.200  1.00  0.00     0.049 A 
ATOM     46  N   UNL A   1      40.467  31.318  33.475  1.00  0.00    -0.248 NA
ATOM     47  C   UNL A   1      38.850  32.914  34.025  1.00  0.00     0.031 C 
ATOM     48  C   UNL A   1      37.877  29.938  30.095  1.00  0.00     0.029 A 
ATOM     49  N   UNL A   1      39.811  29.620  31.177  1.00  0.00    -0.354 N 
ATOM     50  C   UNL A   1      40.883  32.034  34.591  1.00  0.00     0.074 A 
ATOM     51  C   UNL A   1      39.864  33.024  34.867  1.00  0.00     0.031 C 
ATOM     52  C   UNL A   1      38.519  28.919  29.494  1.00  0.00     0.029 A 
ATOM     53  C   UNL A   1      39.806  28.707  30.151  1.00  0.00     0.049 A 
ATOM     54  H   UNL A   1      40.541  29.689  31.834  1.00  0.00     0.167 HD
ATOM     55  C   UNL A   1      42.009  31.880  35.325  1.00  0.00     0.031 A 
ATOM     56  C   UNL A   1      40.747  27.817  29.777  1.00  0.00     0.031 A 
ATOM     57  C   UNL A   1      43.034  30.914  35.040  1.00  0.00     0.049 A 
ATOM     58  C   UNL A   1      42.032  27.724  30.559  1.00  0.00     0.074 A 
ATOM     59  C   UNL A   1      44.211  30.676  35.729  1.00  0.00     0.029 A 
ATOM     60  N   UNL A   1      43.009  30.033  33.971  1.00  0.00    -0.354 N 
ATOM     61  N   UNL A   1      42.401  28.385  31.630  1.00  0.00    -0.248 NA
ATOM     62  C   UNL A   1      43.029  26.753  30.080  1.00  0.00     0.031 C 
ATOM     63  C   UNL A   1      44.922  29.686  35.045  1.00  0.00     0.029 A 
ATOM     64  C   UNL A   1      44.161  29.267  33.966  1.00  0.00     0.049 A 
ATOM     65  H   UNL A   1      42.279  29.962  33.313  1.00  0.00     0.167 HD
ATOM     66  C   UNL A   1      43.654  27.890  31.969  1.00  0.00     0.074 A 
ATOM     67  C   UNL A   1      43.978  26.865  30.999  1.00  0.00     0.031 C 
ATOM     68  C   UNL A   1      44.465  28.249  32.995  1.00  0.00     0.031 A 
BRANCH  55  69
ATOM     69  C   UNL A   1      42.201  32.805  36.491  1.00  0.00    -0.014 A 
ATOM     70  C   UNL A   1      41.763  32.456  37.778  1.00  0.00     0.009 A 
ATOM     71  C   UNL A   1      42.852  34.035  36.305  1.00  0.00     0.009 A 
ATOM     72  C   UNL A   1      41.946  33.333  38.849  1.00  0.00     0.001 A 
ATOM     73  C   UNL A   1      43.056  34.898  37.382  1.00  0.00     0.001 A 
ATOM     74  C   UNL A   1      42.595  34.550  38.651  1.00  0.00     0.000 A 
ENDBRANCH  55  69
BRANCH  56  75
ATOM     75  C   UNL A   1      40.528  26.951  28.589  1.00  0.00    -0.014 A 
ATOM     76  C   UNL A   1      41.051  27.307  27.337  1.00  0.00     0.009 A 
ATOM     77  C   UNL A   1      39.759  25.780  28.693  1.00  0.00     0.009 A 
ATOM     78  C   UNL A   1      40.785  26.526  26.210  1.00  0.00     0.001 A 
ATOM     79  C   UNL A   1      39.519  24.986  27.571  1.00  0.00     0.001 A 
ATOM     80  C   UNL A   1      40.024  25.365  26.328  1.00  0.00     0.000 A 
ENDBRANCH  56  75
BRANCH  68  81
ATOM     81  C   UNL A   1      45.761  27.502  33.148  1.00  0.00    -0.014 A 
ATOM     82  C   UNL A   1      46.954  27.986  32.589  1.00  0.00     0.009 A 
ATOM     83  C   UNL A   1      45.794  26.322  33.907  1.00  0.00     0.009 A 
ATOM     84  C   UNL A   1      48.148  27.283  32.762  1.00  0.00     0.001 A 
ATOM     85  C   UNL A   1      46.994  25.638  34.103  1.00  0.00     0.001 A 
ATOM     86  C   UNL A   1      48.169  26.114  33.523  1.00  0.00     0.000 A 
ENDBRANCH  68  81
ENDBRANCH  42  43
ENDBRANCH  35  37
ENDBRANCH  34  35
ENDBRANCH  33  34
ENDBRANCH  32  33
ENDBRANCH  31  32
ENDBRANCH  30  31
ENDBRANCH  29  30
ENDBRANCH  28  29
ENDBRANCH  27  28
ENDBRANCH   1  27
TORSDOF 25
ENDMDL
MODEL 2
REMARK VINA RESULT:      -8.2      3.732      5.386
REMARK SMILES C[C@H](CNS(=O)(=O)c1ccc(C(=O)OCCOCCOCCOCCOC(=O)c2ccc(-c3c4nc(c(-c5ccccc5)c5ccc([nH]5)c(-c5ccccc5)c5nc(c(-c6ccccc6)c6ccc3[nH]6)C=C5)C=C4)cc2)cc1F)[NH+](C)C
REMARK SMILES IDX 18 1 17 2 16 3 15 4 14 5 12 6 13 7 11 8 8 9 9 10 78 11 10 12
REMARK SMILES IDX 77 13 79 14 5 15 6 16 7 17 4 18 3 20 2 21 1 22 80 23 81 24
REMARK SMILES IDX 82 25 19 27 20 28 21 29 22 30 23 31 24 32 25 33 26 34 27 35
REMARK SMILES IDX 28 36 29 37 30 38 76 39 31 40 75 41 32 42 33 43 34 44 69 45
REMARK SMILES IDX 35 46 74 47 68 48 70 49 36 50 73 51 67 52 66 53 37 55 59 56
REMARK SMILES IDX 44 57 58 58 45 59 48 60 57 61 71 62 46 63 47 64 56 66 72 67
REMARK SMILES IDX 49 68 38 69 39 70 43 71 40 72 42 73 41 74 60 75 61 76 65 77
REMARK SMILES IDX 62 78 64 79 63 80 50 81 51 82 55 83 52 84 54 85 53 86
REMARK H PARENT 4 19 80 26 70 54 48 65
REMARK Flexibility Score: inf
ROOT
ATOM      1  C   UNL A   1      35.671  31.042  28.606  1.00  0.00     0.188 C 
ENDROOT
BRANCH   1   2
ATOM      2  O   UNL A   1      34.271  31.216  28.406  1.00  0.00    -0.376 OA
BRANCH   2   3
ATOM      3  C   UNL A   1      33.793  31.001  27.086  1.00  0.00     0.202 C 
BRANCH   3   4
ATOM      4  C   UNL A   1      32.770  29.865  26.955  1.00  0.00     0.261 C 
BRANCH   4   5
ATOM      5  O   UNL A   1      33.064  28.908  25.922  1.00  0.00    -0.460 OA
BRANCH   5   6
ATOM      6  C   UNL A   1      32.054  28.585  25.086  1.00  0.00     0.338 C 
ATOM      7  O   UNL A   1      31.163  29.315  24.694  1.00  0.00    -0.246 OA
BRANCH   6   8
ATOM      8  C   UNL A   1      32.321  27.234  24.544  1.00  0.00     0.063 A 
ATOM      9  C   UNL A   1      32.789  24.722  23.418  1.00  0.00     0.118 A 
ATOM     10  C   UNL A   1      31.558  25.366  23.214  1.00  0.00     0.026 A 
ATOM     11  C   UNL A   1      33.777  25.341  24.172  1.00  0.00     0.144 A 
ATOM     12  C   UNL A   1      31.319  26.613  23.791  1.00  0.00     0.017 A 
ATOM     13  C   UNL A   1      33.556  26.604  24.725  1.00  0.00     0.056 A 
ATOM     14  F   UNL A   1      34.965  24.768  24.399  1.00  0.00    -0.205 F 
BRANCH   9  15
ATOM     15  S   UNL A   1      32.987  23.136  22.675  1.00  0.00     0.243 S 
ATOM     16  O   UNL A   1      33.652  23.338  21.405  1.00  0.00    -0.207 OA
ATOM     17  O   UNL A   1      31.694  22.493  22.751  1.00  0.00    -0.207 OA
BRANCH  15  18
ATOM     18  N   UNL A   1      34.000  22.217  23.632  1.00  0.00    -0.205 NA
ATOM     19  H   UNL A   1      34.721  21.834  23.020  1.00  0.00     0.141 HD
BRANCH  18  20
ATOM     20  C   UNL A   1      33.446  21.089  24.396  1.00  0.00     0.163 C 
BRANCH  20  21
ATOM     21  C   UNL A   1      34.005  21.013  25.855  1.00  0.00     0.195 C 
ATOM     22  C   UNL A   1      35.472  21.455  25.991  1.00  0.00     0.076 C 
BRANCH  21  23
ATOM     23  N   UNL A   1      33.083  21.638  26.837  1.00  0.00    -0.337 N 
ATOM     24  C   UNL A   1      33.766  22.573  27.734  1.00  0.00     0.332 C 
ATOM     25  C   UNL A   1      31.904  22.270  26.249  1.00  0.00     0.332 C 
ATOM     26  H   UNL A   1      32.743  20.848  27.387  1.00  0.00     0.347 HD
ENDBRANCH  21  23
ENDBRANCH  20  21
ENDBRANCH  18  20
ENDBRANCH  15  18
ENDBRANCH   9  15
ENDBRANCH   6   8
ENDBRANCH   5   6
ENDBRANCH   4   5
ENDBRANCH   3   4
ENDBRANCH   2   3
ENDBRANCH   1   2
BRANCH   1  27
ATOM     27  C   UNL A   1      36.270  31.989  29.660  1.00  0.00     0.188 C 
BRANCH  27  28
ATOM     28  O   UNL A   1      36.133  33.380  29.425  1.00  0.00    -0.377 OA
BRANCH  28  29
ATOM     29  C   UNL A   1      34.858  33.997  29.585  1.00  0.00     0.188 C 
BRANCH  29  30
ATOM     30  C   UNL A   1      34.204  34.216  30.968  1.00  0.00     0.188 C 
BRANCH  30  31
ATOM     31  O   UNL A   1      35.120  34.404  32.039  1.00  0.00    -0.376 OA
BRANCH  31  32
ATOM     32  C   UNL A   1      35.068  33.448  33.087  1.00  0.00     0.202 C 
BRANCH  32  33
ATOM     33  C   UNL A   1      35.900  33.849  34.309  1.00  0.00     0.261 C 
BRANCH  33  34
ATOM     34  O   UNL A   1      37.299  33.535  34.210  1.00  0.00    -0.460 OA
BRANCH  34  35
ATOM     35  C   UNL A   1      37.703  32.365  34.752  1.00  0.00     0.338 C 
ATOM     36  O   UNL A   1      37.396  31.901  35.832  1.00  0.00    -0.246 OA
BRANCH  35  37
ATOM     37  C   UNL A   1      38.466  31.638  33.720  1.00  0.00     0.060 A 
ATOM     38  C   UNL A   1      39.236  30.531  34.099  1.00  0.00     0.016 A 
ATOM     39  C   UNL A   1      38.418  32.051  32.387  1.00  0.00     0.016 A 
ATOM     40  C   UNL A   1      39.995  29.855  33.144  1.00  0.00     0.010 A 
ATOM     41  C   UNL A   1      39.190  31.385  31.436  1.00  0.00     0.010 A 
ATOM     42  C   UNL A   1      40.006  30.306  31.818  1.00  0.00    -0.014 A 
BRANCH  42  43
ATOM     43  C   UNL A   1      41.018  29.789  30.867  1.00  0.00     0.031 A 
ATOM     44  C   UNL A   1      42.289  30.572  30.689  1.00  0.00     0.074 A 
ATOM     45  C   UNL A   1      40.816  28.656  30.175  1.00  0.00     0.049 A 
ATOM     46  N   UNL A   1      43.294  30.350  29.883  1.00  0.00    -0.248 NA
ATOM     47  C   UNL A   1      42.444  31.770  31.534  1.00  0.00     0.031 C 
ATOM     48  C   UNL A   1      39.646  27.786  30.286  1.00  0.00     0.029 A 
ATOM     49  N   UNL A   1      41.602  28.048  29.227  1.00  0.00    -0.354 N 
ATOM     50  C   UNL A   1      44.198  31.379  30.120  1.00  0.00     0.074 A 
ATOM     51  C   UNL A   1      43.611  32.240  31.123  1.00  0.00     0.031 C 
ATOM     52  C   UNL A   1      39.787  26.758  29.430  1.00  0.00     0.029 A 
ATOM     53  C   UNL A   1      41.038  26.916  28.692  1.00  0.00     0.049 A 
ATOM     54  H   UNL A   1      42.484  28.389  28.958  1.00  0.00     0.167 HD
ATOM     55  C   UNL A   1      45.411  31.586  29.558  1.00  0.00     0.031 A 
ATOM     56  C   UNL A   1      41.477  26.113  27.702  1.00  0.00     0.031 A 
ATOM     57  C   UNL A   1      45.988  30.746  28.544  1.00  0.00     0.049 A 
ATOM     58  C   UNL A   1      42.792  26.415  27.031  1.00  0.00     0.074 A 
ATOM     59  C   UNL A   1      47.215  30.870  27.917  1.00  0.00     0.029 A 
ATOM     60  N   UNL A   1      45.369  29.630  28.003  1.00  0.00    -0.354 N 
ATOM     61  N   UNL A   1      43.651  27.373  27.283  1.00  0.00    -0.248 NA
ATOM     62  C   UNL A   1      43.198  25.517  25.938  1.00  0.00     0.031 C 
ATOM     63  C   UNL A   1      47.316  29.859  26.958  1.00  0.00     0.029 A 
ATOM     64  C   UNL A   1      46.178  29.071  27.030  1.00  0.00     0.049 A 
ATOM     65  H   UNL A   1      44.486  29.287  28.271  1.00  0.00     0.167 HD
ATOM     66  C   UNL A   1      44.711  27.174  26.406  1.00  0.00     0.074 A 
ATOM     67  C   UNL A   1      44.393  25.999  25.623  1.00  0.00     0.031 C 
ATOM     68  C   UNL A   1      45.848  27.899  26.263  1.00  0.00     0.031 A 
BRANCH  55  69
ATOM     69  C   UNL A   1      46.180  32.794  30.009  1.00  0.00    -0.014 A 
ATOM     70  C   UNL A   1      47.001  32.751  31.147  1.00  0.00     0.009 A 
ATOM     71  C   UNL A   1      46.099  33.986  29.273  1.00  0.00     0.009 A 
ATOM     72  C   UNL A   1      47.704  33.887  31.554  1.00  0.00     0.001 A 
ATOM     73  C   UNL A   1      46.823  35.112  29.667  1.00  0.00     0.001 A 
ATOM     74  C   UNL A   1      47.618  35.064  30.812  1.00  0.00     0.000 A 
ENDBRANCH  55  69
BRANCH  56  75
ATOM     75  C   UNL A   1      40.660  24.952  27.261  1.00  0.00    -0.014 A 
ATOM     76  C   UNL A   1      39.490  25.144  26.511  1.00  0.00     0.009 A 
ATOM     77  C   UNL A   1      41.025  23.645  27.624  1.00  0.00     0.009 A 
ATOM     78  C   UNL A   1      38.689  24.056  26.157  1.00  0.00     0.001 A 
ATOM     79  C   UNL A   1      40.237  22.557  27.244  1.00  0.00     0.001 A 
ATOM     80  C   UNL A   1      39.065  22.764  26.520  1.00  0.00     0.000 A 
ENDBRANCH  56  75
BRANCH  68  81
ATOM     81  C   UNL A   1      46.852  27.419  25.252  1.00  0.00    -0.014 A 
ATOM     82  C   UNL A   1      47.775  26.408  25.562  1.00  0.00     0.009 A 
ATOM     83  C   UNL A   1      46.837  27.953  23.954  1.00  0.00     0.009 A 
ATOM     84  C   UNL A   1      48.685  25.966  24.599  1.00  0.00     0.001 A 
ATOM     85  C   UNL A   1      47.728  27.488  22.985  1.00  0.00     0.001 A 
ATOM     86  C   UNL A   1      48.657  26.502  23.311  1.00  0.00     0.000 A 
ENDBRANCH  68  81
ENDBRANCH  42  43
ENDBRANCH  35  37
ENDBRANCH  34  35
ENDBRANCH  33  34
ENDBRANCH  32  33
ENDBRANCH  31  32
ENDBRANCH  30  31
ENDBRANCH  29  30
ENDBRANCH  28  29
ENDBRANCH  27  28
ENDBRANCH   1  27
TORSDOF 25
ENDMDL
MODEL 3
REMARK VINA RESULT:      -8.1      2.360      6.390
REMARK SMILES C[C@H](CNS(=O)(=O)c1ccc(C(=O)OCCOCCOCCOCCOC(=O)c2ccc(-c3c4nc(c(-c5ccccc5)c5ccc([nH]5)c(-c5ccccc5)c5nc(c(-c6ccccc6)c6ccc3[nH]6)C=C5)C=C4)cc2)cc1F)[NH+](C)C
REMARK SMILES IDX 18 1 17 2 16 3 15 4 14 5 12 6 13 7 11 8 8 9 9 10 78 11 10 12
REMARK SMILES IDX 77 13 79 14 5 15 6 16 7 17 4 18 3 20 2 21 1 22 80 23 81 24
REMARK SMILES IDX 82 25 19 27 20 28 21 29 22 30 23 31 24 32 25 33 26 34 27 35
REMARK SMILES IDX 28 36 29 37 30 38 76 39 31 40 75 41 32 42 33 43 34 44 69 45
REMARK SMILES IDX 35 46 74 47 68 48 70 49 36 50 73 51 67 52 66 53 37 55 59 56
REMARK SMILES IDX 44 57 58 58 45 59 48 60 57 61 71 62 46 63 47 64 56 66 72 67
REMARK SMILES IDX 49 68 38 69 39 70 43 71 40 72 42 73 41 74 60 75 61 76 65 77
REMARK SMILES IDX 62 78 64 79 63 80 50 81 51 82 55 83 52 84 54 85 53 86
REMARK H PARENT 4 19 80 26 70 54 48 65
REMARK Flexibility Score: inf
ROOT
ATOM      1  C   UNL A   1      32.997  30.452  26.713  1.00  0.00     0.188 C 
ENDROOT
BRANCH   1   2
ATOM      2  O   UNL A   1      31.633  30.834  26.562  1.00  0.00    -0.376 OA
BRANCH   2   3
ATOM      3  C   UNL A   1      31.070  30.662  25.269  1.00  0.00     0.202 C 
BRANCH   3   4
ATOM      4  C   UNL A   1      31.409  29.324  24.599  1.00  0.00     0.261 C 
BRANCH   4   5
ATOM      5  O   UNL A   1      30.797  29.124  23.314  1.00  0.00    -0.460 OA
BRANCH   5   6
ATOM      6  C   UNL A   1      29.838  28.176  23.236  1.00  0.00     0.338 C 
ATOM      7  O   UNL A   1      28.639  28.352  23.119  1.00  0.00    -0.246 OA
BRANCH   6   8
ATOM      8  C   UNL A   1      30.501  26.860  23.105  1.00  0.00     0.063 A 
ATOM      9  C   UNL A   1      31.857  24.431  22.863  1.00  0.00     0.118 A 
ATOM     10  C   UNL A   1      32.204  25.514  22.041  1.00  0.00     0.026 A 
ATOM     11  C   UNL A   1      30.845  24.573  23.805  1.00  0.00     0.144 A 
ATOM     12  C   UNL A   1      31.515  26.723  22.151  1.00  0.00     0.017 A 
ATOM     13  C   UNL A   1      30.174  25.789  23.942  1.00  0.00     0.056 A 
ATOM     14  F   UNL A   1      30.475  23.570  24.610  1.00  0.00    -0.205 F 
BRANCH   9  15
ATOM     15  S   UNL A   1      32.762  22.936  22.631  1.00  0.00     0.243 S 
ATOM     16  O   UNL A   1      33.560  23.101  21.436  1.00  0.00    -0.207 OA
ATOM     17  O   UNL A   1      31.800  21.863  22.749  1.00  0.00    -0.207 OA
BRANCH  15  18
ATOM     18  N   UNL A   1      33.812  22.738  23.914  1.00  0.00    -0.205 NA
ATOM     19  H   UNL A   1      33.383  22.063  24.546  1.00  0.00     0.141 HD
BRANCH  18  20
ATOM     20  C   UNL A   1      34.188  23.905  24.726  1.00  0.00     0.163 C 
BRANCH  20  21
ATOM     21  C   UNL A   1      34.579  23.522  26.192  1.00  0.00     0.195 C 
ATOM     22  C   UNL A   1      33.518  22.686  26.928  1.00  0.00     0.076 C 
BRANCH  21  23
ATOM     23  N   UNL A   1      35.956  22.975  26.275  1.00  0.00    -0.337 N 
ATOM     24  C   UNL A   1      36.022  21.558  25.911  1.00  0.00     0.332 C 
ATOM     25  C   UNL A   1      36.960  23.735  25.534  1.00  0.00     0.332 C 
ATOM     26  H   UNL A   1      36.195  23.069  27.263  1.00  0.00     0.347 HD
ENDBRANCH  21  23
ENDBRANCH  20  21
ENDBRANCH  18  20
ENDBRANCH  15  18
ENDBRANCH   9  15
ENDBRANCH   6   8
ENDBRANCH   5   6
ENDBRANCH   4   5
ENDBRANCH   3   4
ENDBRANCH   2   3
ENDBRANCH   1   2
BRANCH   1  27
ATOM     27  C   UNL A   1      33.747  31.238  27.802  1.00  0.00     0.188 C 
BRANCH  27  28
ATOM     28  O   UNL A   1      35.089  31.595  27.525  1.00  0.00    -0.377 OA
BRANCH  28  29
ATOM     29  C   UNL A   1      35.567  32.882  27.909  1.00  0.00     0.188 C 
BRANCH  29  30
ATOM     30  C   UNL A   1      35.418  33.434  29.345  1.00  0.00     0.188 C 
BRANCH  30  31
ATOM     31  O   UNL A   1      34.077  33.569  29.797  1.00  0.00    -0.376 OA
BRANCH  31  32
ATOM     32  C   UNL A   1      33.562  34.891  29.853  1.00  0.00     0.202 C 
BRANCH  32  33
ATOM     33  C   UNL A   1      33.002  35.260  31.230  1.00  0.00     0.261 C 
BRANCH  33  34
ATOM     34  O   UNL A   1      33.593  36.429  31.823  1.00  0.00    -0.460 OA
BRANCH  34  35
ATOM     35  C   UNL A   1      33.961  36.336  33.120  1.00  0.00     0.338 C 
ATOM     36  O   UNL A   1      33.413  36.832  34.086  1.00  0.00    -0.246 OA
BRANCH  35  37
ATOM     37  C   UNL A   1      35.071  35.369  33.199  1.00  0.00     0.060 A 
ATOM     38  C   UNL A   1      35.027  34.362  34.171  1.00  0.00     0.016 A 
ATOM     39  C   UNL A   1      36.149  35.462  32.316  1.00  0.00     0.016 A 
ATOM     40  C   UNL A   1      36.086  33.463  34.285  1.00  0.00     0.010 A 
ATOM     41  C   UNL A   1      37.216  34.573  32.442  1.00  0.00     0.010 A 
ATOM     42  C   UNL A   1      37.203  33.591  33.449  1.00  0.00    -0.014 A 
BRANCH  42  43
ATOM     43  C   UNL A   1      38.444  32.841  33.747  1.00  0.00     0.031 A 
ATOM     44  C   UNL A   1      38.895  31.795  32.765  1.00  0.00     0.074 A 
ATOM     45  C   UNL A   1      39.155  33.076  34.862  1.00  0.00     0.049 A 
ATOM     46  N   UNL A   1      39.914  30.979  32.831  1.00  0.00    -0.248 NA
ATOM     47  C   UNL A   1      38.083  31.650  31.544  1.00  0.00     0.031 C 
ATOM     48  C   UNL A   1      38.847  34.087  35.872  1.00  0.00     0.029 A 
ATOM     49  N   UNL A   1      40.290  32.462  35.333  1.00  0.00    -0.354 N 
ATOM     50  C   UNL A   1      39.864  30.224  31.666  1.00  0.00     0.074 A 
ATOM     51  C   UNL A   1      38.700  30.657  30.926  1.00  0.00     0.031 C 
ATOM     52  C   UNL A   1      39.768  34.018  36.850  1.00  0.00     0.029 A 
ATOM     53  C   UNL A   1      40.707  32.940  36.551  1.00  0.00     0.049 A 
ATOM     54  H   UNL A   1      40.759  31.749  34.844  1.00  0.00     0.167 HD
ATOM     55  C   UNL A   1      40.714  29.258  31.247  1.00  0.00     0.031 A 
ATOM     56  C   UNL A   1      41.722  32.535  37.340  1.00  0.00     0.031 A 
ATOM     57  C   UNL A   1      41.858  28.808  31.991  1.00  0.00     0.049 A 
ATOM     58  C   UNL A   1      42.603  31.397  36.889  1.00  0.00     0.074 A 
ATOM     59  C   UNL A   1      42.784  27.838  31.646  1.00  0.00     0.029 A 
ATOM     60  N   UNL A   1      42.226  29.291  33.236  1.00  0.00    -0.354 N 
ATOM     61  N   UNL A   1      42.564  30.710  35.773  1.00  0.00    -0.248 NA
ATOM     62  C   UNL A   1      43.673  30.985  37.812  1.00  0.00     0.031 C 
ATOM     63  C   UNL A   1      43.682  27.699  32.708  1.00  0.00     0.029 A 
ATOM     64  C   UNL A   1      43.350  28.622  33.687  1.00  0.00     0.049 A 
ATOM     65  H   UNL A   1      41.757  30.005  33.727  1.00  0.00     0.167 HD
ATOM     66  C   UNL A   1      43.620  29.809  35.845  1.00  0.00     0.074 A 
ATOM     67  C   UNL A   1      44.288  30.044  37.108  1.00  0.00     0.031 C 
ATOM     68  C   UNL A   1      44.004  28.871  34.944  1.00  0.00     0.031 A 
BRANCH  55  69
ATOM     69  C   UNL A   1      40.411  28.601  29.931  1.00  0.00    -0.014 A 
ATOM     70  C   UNL A   1      40.900  29.127  28.725  1.00  0.00     0.009 A 
ATOM     71  C   UNL A   1      39.646  27.425  29.900  1.00  0.00     0.009 A 
ATOM     72  C   UNL A   1      40.603  28.505  27.511  1.00  0.00     0.001 A 
ATOM     73  C   UNL A   1      39.373  26.791  28.687  1.00  0.00     0.001 A 
ATOM     74  C   UNL A   1      39.844  27.336  27.494  1.00  0.00     0.000 A 
ENDBRANCH  55  69
BRANCH  56  75
ATOM     75  C   UNL A   1      41.956  33.189  38.654  1.00  0.00    -0.014 A 
ATOM     76  C   UNL A   1      42.938  34.181  38.794  1.00  0.00     0.009 A 
ATOM     77  C   UNL A   1      41.224  32.796  39.786  1.00  0.00     0.009 A 
ATOM     78  C   UNL A   1      43.202  34.745  40.045  1.00  0.00     0.001 A 
ATOM     79  C   UNL A   1      41.470  33.381  41.029  1.00  0.00     0.001 A 
ATOM     80  C   UNL A   1      42.465  34.347  41.160  1.00  0.00     0.000 A 
ENDBRANCH  56  75
BRANCH  68  81
ATOM     81  C   UNL A   1      45.226  28.058  35.270  1.00  0.00    -0.014 A 
ATOM     82  C   UNL A   1      45.131  26.842  35.965  1.00  0.00     0.009 A 
ATOM     83  C   UNL A   1      46.485  28.493  34.829  1.00  0.00     0.009 A 
ATOM     84  C   UNL A   1      46.279  26.096  36.238  1.00  0.00     0.001 A 
ATOM     85  C   UNL A   1      47.627  27.730  35.077  1.00  0.00     0.001 A 
ATOM     86  C   UNL A   1      47.524  26.537  35.789  1.00  0.00     0.000 A 
ENDBRANCH  68  81
ENDBRANCH  42  43
ENDBRANCH  35  37
ENDBRANCH  34  35
ENDBRANCH  33  34
ENDBRANCH  32  33
ENDBRANCH  31  32
ENDBRANCH  30  31
ENDBRANCH  29  30
ENDBRANCH  28  29
ENDBRANCH  27  28
ENDBRANCH   1  27
TORSDOF 25
ENDMDL
