MODEL 1
REMARK VINA RESULT:      -9.1      0.000      0.000
REMARK SMILES COc1cc(Nc2cn[nH]c(=O)n2)c(C(=O)OCCOCCOCCOCCOC(=O)c2ccc(-c3c4nc(c(-c5ccccc5)c5ccc([nH]5)c(-c5ccccc5)c5nc(c(-c6ccccc6)c6ccc3[nH]6)C=C5)C=C4)cc2)cc1OC
REMARK SMILES IDX 23 1 22 2 21 3 20 4 19 5 18 6 17 7 15 8 16 9 14 10 3 11 4 12
REMARK SMILES IDX 81 13 5 14 80 15 2 16 1 17 82 18 83 19 6 20 7 22 8 23 13 24
REMARK SMILES IDX 9 25 11 26 10 27 12 28 24 30 25 31 26 32 27 33 28 34 29 35
REMARK SMILES IDX 30 36 31 37 32 38 33 39 79 40 34 41 78 42 35 43 36 44 37 45
REMARK SMILES IDX 72 46 38 47 77 48 71 49 73 50 39 51 76 52 70 53 69 54 40 56
REMARK SMILES IDX 62 57 47 58 61 59 48 60 51 61 60 62 74 63 49 64 50 65 59 67
REMARK SMILES IDX 75 68 52 69 41 70 42 71 46 72 43 73 45 74 44 75 63 76 64 77
REMARK SMILES IDX 68 78 65 79 67 80 66 81 53 82 54 83 58 84 55 85 57 86 56 87
REMARK H PARENT 6 21 10 29 73 55 51 66
REMARK Flexibility Score: inf
ROOT
ATOM      1  O   UNL A   1      31.624  28.146  24.541  1.00  0.00    -0.377 OA
ENDROOT
BRANCH   1   2
ATOM      2  C   UNL A   1      30.503  27.760  23.767  1.00  0.00     0.188 C 
BRANCH   2   3
ATOM      3  C   UNL A   1      30.684  26.581  22.796  1.00  0.00     0.188 C 
BRANCH   3   4
ATOM      4  O   UNL A   1      31.313  25.445  23.381  1.00  0.00    -0.376 OA
BRANCH   4   5
ATOM      5  C   UNL A   1      30.452  24.459  23.926  1.00  0.00     0.202 C 
BRANCH   5   6
ATOM      6  C   UNL A   1      31.150  23.432  24.823  1.00  0.00     0.261 C 
BRANCH   6   7
ATOM      7  O   UNL A   1      32.094  23.970  25.761  1.00  0.00    -0.460 OA
BRANCH   7   8
ATOM      8  C   UNL A   1      32.651  23.131  26.663  1.00  0.00     0.340 C 
ATOM      9  O   UNL A   1      32.168  22.743  27.704  1.00  0.00    -0.246 OA
BRANCH   8  10
ATOM     10  C   UNL A   1      33.906  22.586  26.086  1.00  0.00     0.087 A 
ATOM     11  C   UNL A   1      36.298  21.636  25.030  1.00  0.00     0.162 A 
ATOM     12  C   UNL A   1      35.190  20.776  25.163  1.00  0.00     0.077 A 
ATOM     13  C   UNL A   1      36.190  22.992  25.343  1.00  0.00     0.161 A 
ATOM     14  C   UNL A   1      33.979  21.228  25.710  1.00  0.00     0.058 A 
ATOM     15  C   UNL A   1      34.988  23.454  25.878  1.00  0.00     0.068 A 
BRANCH  11  16
ATOM     16  O   UNL A   1      37.452  21.105  24.520  1.00  0.00    -0.493 OA
ATOM     17  C   UNL A   1      38.326  20.687  25.574  1.00  0.00     0.278 C 
ENDBRANCH  11  16
BRANCH  13  18
ATOM     18  O   UNL A   1      37.107  23.992  25.183  1.00  0.00    -0.493 OA
ATOM     19  C   UNL A   1      38.056  24.223  26.209  1.00  0.00     0.278 C 
ENDBRANCH  13  18
BRANCH  14  20
ATOM     20  N   UNL A   1      32.826  20.401  25.759  1.00  0.00    -0.338 N 
ATOM     21  H   UNL A   1      32.038  20.752  26.232  1.00  0.00     0.168 HD
BRANCH  20  22
ATOM     22  C   UNL A   1      32.721  19.151  25.198  1.00  0.00     0.156 A 
ATOM     23  C   UNL A   1      32.674  19.067  23.691  1.00  0.00     0.180 A 
ATOM     24  N   UNL A   1      32.620  18.078  25.915  1.00  0.00    -0.173 NA
ATOM     25  N   UNL A   1      32.532  17.940  23.076  1.00  0.00    -0.176 NA
ATOM     26  C   UNL A   1      32.497  16.872  25.276  1.00  0.00     0.363 A 
ATOM     27  N   UNL A   1      32.445  16.855  23.896  1.00  0.00    -0.227 N 
ATOM     28  O   UNL A   1      32.435  15.810  25.889  1.00  0.00    -0.244 OA
ATOM     29  H   UNL A   1      32.332  15.977  23.466  1.00  0.00     0.195 HD
ENDBRANCH  20  22
ENDBRANCH  14  20
ENDBRANCH   8  10
ENDBRANCH   7   8
ENDBRANCH   6   7
ENDBRANCH   5   6
ENDBRANCH   4   5
ENDBRANCH   3   4
ENDBRANCH   2   3
ENDBRANCH   1   2
BRANCH   1  30
ATOM     30  C   UNL A   1      31.430  28.896  25.736  1.00  0.00     0.188 C 
BRANCH  30  31
ATOM     31  C   UNL A   1      31.665  30.422  25.795  1.00  0.00     0.188 C 
BRANCH  31  32
ATOM     32  O   UNL A   1      32.750  30.832  26.619  1.00  0.00    -0.376 OA
BRANCH  32  33
ATOM     33  C   UNL A   1      33.851  29.941  26.706  1.00  0.00     0.202 C 
BRANCH  33  34
ATOM     34  C   UNL A   1      34.686  30.136  27.975  1.00  0.00     0.261 C 
BRANCH  34  35
ATOM     35  O   UNL A   1      34.624  31.457  28.533  1.00  0.00    -0.460 OA
BRANCH  35  36
ATOM     36  C   UNL A   1      35.276  31.659  29.698  1.00  0.00     0.338 C 
ATOM     37  O   UNL A   1      34.875  32.250  30.683  1.00  0.00    -0.246 OA
BRANCH  36  38
ATOM     38  C   UNL A   1      36.521  30.872  29.650  1.00  0.00     0.060 A 
ATOM     39  C   UNL A   1      36.770  29.935  30.660  1.00  0.00     0.016 A 
ATOM     40  C   UNL A   1      37.427  31.058  28.605  1.00  0.00     0.016 A 
ATOM     41  C   UNL A   1      37.956  29.202  30.645  1.00  0.00     0.010 A 
ATOM     42  C   UNL A   1      38.620  30.339  28.600  1.00  0.00     0.010 A 
ATOM     43  C   UNL A   1      38.903  29.435  29.640  1.00  0.00    -0.014 A 
BRANCH  43  44
ATOM     44  C   UNL A   1      40.275  28.903  29.784  1.00  0.00     0.031 A 
ATOM     45  C   UNL A   1      41.303  29.771  30.454  1.00  0.00     0.074 A 
ATOM     46  C   UNL A   1      40.610  27.688  29.319  1.00  0.00     0.049 A 
ATOM     47  N   UNL A   1      42.574  29.546  30.657  1.00  0.00    -0.248 NA
ATOM     48  C   UNL A   1      40.830  31.073  30.953  1.00  0.00     0.031 C 
ATOM     49  C   UNL A   1      39.699  26.747  28.670  1.00  0.00     0.029 A 
ATOM     50  N   UNL A   1      41.823  27.048  29.313  1.00  0.00    -0.354 N 
ATOM     51  C   UNL A   1      43.054  30.680  31.301  1.00  0.00     0.074 A 
ATOM     52  C   UNL A   1      41.946  31.602  31.428  1.00  0.00     0.031 C 
ATOM     53  C   UNL A   1      40.393  25.653  28.310  1.00  0.00     0.029 A 
ATOM     54  C   UNL A   1      41.797  25.831  28.679  1.00  0.00     0.049 A 
ATOM     55  H   UNL A   1      42.634  27.425  29.723  1.00  0.00     0.167 HD
ATOM     56  C   UNL A   1      44.306  30.933  31.749  1.00  0.00     0.031 A 
ATOM     57  C   UNL A   1      42.798  24.973  28.409  1.00  0.00     0.031 A 
ATOM     58  C   UNL A   1      45.412  30.030  31.599  1.00  0.00     0.049 A 
ATOM     59  C   UNL A   1      44.197  25.301  28.861  1.00  0.00     0.074 A 
ATOM     60  C   UNL A   1      46.715  30.180  32.042  1.00  0.00     0.029 A 
ATOM     61  N   UNL A   1      45.350  28.812  30.939  1.00  0.00    -0.354 N 
ATOM     62  N   UNL A   1      44.630  26.350  29.517  1.00  0.00    -0.248 NA
ATOM     63  C   UNL A   1      45.243  24.317  28.542  1.00  0.00     0.031 C 
ATOM     64  C   UNL A   1      47.454  29.079  31.598  1.00  0.00     0.029 A 
ATOM     65  C   UNL A   1      46.598  28.216  30.931  1.00  0.00     0.049 A 
ATOM     66  H   UNL A   1      44.537  28.430  30.535  1.00  0.00     0.167 HD
ATOM     67  C   UNL A   1      45.991  26.145  29.710  1.00  0.00     0.074 A 
ATOM     68  C   UNL A   1      46.308  24.862  29.114  1.00  0.00     0.031 C 
ATOM     69  C   UNL A   1      46.897  26.942  30.328  1.00  0.00     0.031 A 
BRANCH  56  70
ATOM     70  C   UNL A   1      44.540  32.266  32.401  1.00  0.00    -0.014 A 
ATOM     71  C   UNL A   1      44.943  33.384  31.653  1.00  0.00     0.009 A 
ATOM     72  C   UNL A   1      44.357  32.403  33.785  1.00  0.00     0.009 A 
ATOM     73  C   UNL A   1      45.199  34.603  32.287  1.00  0.00     0.001 A 
ATOM     74  C   UNL A   1      44.586  33.628  34.412  1.00  0.00     0.001 A 
ATOM     75  C   UNL A   1      45.018  34.723  33.664  1.00  0.00     0.000 A 
ENDBRANCH  56  70
BRANCH  57  76
ATOM     76  C   UNL A   1      42.519  23.727  27.648  1.00  0.00    -0.014 A 
ATOM     77  C   UNL A   1      42.096  22.562  28.304  1.00  0.00     0.009 A 
ATOM     78  C   UNL A   1      42.680  23.700  26.253  1.00  0.00     0.009 A 
ATOM     79  C   UNL A   1      41.858  21.390  27.581  1.00  0.00     0.001 A 
ATOM     80  C   UNL A   1      42.417  22.534  25.531  1.00  0.00     0.001 A 
ATOM     81  C   UNL A   1      42.014  21.378  26.197  1.00  0.00     0.000 A 
ENDBRANCH  57  76
BRANCH  69  82
ATOM     82  C   UNL A   1      48.312  26.442  30.417  1.00  0.00    -0.014 A 
ATOM     83  C   UNL A   1      49.258  26.749  29.427  1.00  0.00     0.009 A 
ATOM     84  C   UNL A   1      48.716  25.698  31.536  1.00  0.00     0.009 A 
ATOM     85  C   UNL A   1      50.574  26.293  29.543  1.00  0.00     0.001 A 
ATOM     86  C   UNL A   1      50.037  25.268  31.664  1.00  0.00     0.001 A 
ATOM     87  C   UNL A   1      50.963  25.559  30.663  1.00  0.00     0.000 A 
ENDBRANCH  69  82
ENDBRANCH  43  44
ENDBRANCH  36  38
ENDBRANCH  35  36
ENDBRANCH  34  35
ENDBRANCH  33  34
ENDBRANCH  32  33
ENDBRANCH  31  32
ENDBRANCH  30  31
ENDBRANCH   1  30
TORSDOF 24
ENDMDL
MODEL 2
REMARK VINA RESULT:      -9.0      2.183      2.691
REMARK SMILES COc1cc(Nc2cn[nH]c(=O)n2)c(C(=O)OCCOCCOCCOCCOC(=O)c2ccc(-c3c4nc(c(-c5ccccc5)c5ccc([nH]5)c(-c5ccccc5)c5nc(c(-c6ccccc6)c6ccc3[nH]6)C=C5)C=C4)cc2)cc1OC
REMARK SMILES IDX 23 1 22 2 21 3 20 4 19 5 18 6 17 7 15 8 16 9 14 10 3 11 4 12
REMARK SMILES IDX 81 13 5 14 80 15 2 16 1 17 82 18 83 19 6 20 7 22 8 23 13 24
REMARK SMILES IDX 9 25 11 26 10 27 12 28 24 30 25 31 26 32 27 33 28 34 29 35
REMARK SMILES IDX 30 36 31 37 32 38 33 39 79 40 34 41 78 42 35 43 36 44 37 45
REMARK SMILES IDX 72 46 38 47 77 48 71 49 73 50 39 51 76 52 70 53 69 54 40 56
REMARK SMILES IDX 62 57 47 58 61 59 48 60 51 61 60 62 74 63 49 64 50 65 59 67
REMARK SMILES IDX 75 68 52 69 41 70 42 71 46 72 43 73 45 74 44 75 63 76 64 77
REMARK SMILES IDX 68 78 65 79 67 80 66 81 53 82 54 83 58 84 55 85 57 86 56 87
REMARK H PARENT 6 21 10 29 73 55 51 66
REMARK Flexibility Score: inf
ROOT
ATOM      1  O   UNL A   1      31.689  28.694  25.671  1.00  0.00    -0.377 OA
ENDROOT
BRANCH   1   2
ATOM      2  C   UNL A   1      32.410  27.859  24.784  1.00  0.00     0.188 C 
BRANCH   2   3
ATOM      3  C   UNL A   1      31.611  27.121  23.697  1.00  0.00     0.188 C 
BRANCH   3   4
ATOM      4  O   UNL A   1      30.618  26.239  24.211  1.00  0.00    -0.376 OA
BRANCH   4   5
ATOM      5  C   UNL A   1      30.527  24.964  23.596  1.00  0.00     0.202 C 
BRANCH   5   6
ATOM      6  C   UNL A   1      31.236  23.839  24.357  1.00  0.00     0.261 C 
BRANCH   6   7
ATOM      7  O   UNL A   1      31.820  24.215  25.613  1.00  0.00    -0.460 OA
BRANCH   7   8
ATOM      8  C   UNL A   1      32.097  23.240  26.508  1.00  0.00     0.340 C 
ATOM      9  O   UNL A   1      31.338  22.735  27.306  1.00  0.00    -0.246 OA
BRANCH   8  10
ATOM     10  C   UNL A   1      33.464  22.728  26.238  1.00  0.00     0.087 A 
ATOM     11  C   UNL A   1      36.058  21.844  25.757  1.00  0.00     0.162 A 
ATOM     12  C   UNL A   1      34.984  20.931  25.751  1.00  0.00     0.077 A 
ATOM     13  C   UNL A   1      35.830  23.212  25.918  1.00  0.00     0.161 A 
ATOM     14  C   UNL A   1      33.671  21.351  26.009  1.00  0.00     0.058 A 
ATOM     15  C   UNL A   1      34.527  23.641  26.165  1.00  0.00     0.068 A 
BRANCH  11  16
ATOM     16  O   UNL A   1      37.313  21.345  25.531  1.00  0.00    -0.493 OA
ATOM     17  C   UNL A   1      37.482  21.005  24.151  1.00  0.00     0.278 C 
ENDBRANCH  11  16
BRANCH  13  18
ATOM     18  O   UNL A   1      36.716  24.249  25.848  1.00  0.00    -0.493 OA
ATOM     19  C   UNL A   1      37.811  24.278  26.746  1.00  0.00     0.278 C 
ENDBRANCH  13  18
BRANCH  14  20
ATOM     20  N   UNL A   1      32.568  20.462  25.908  1.00  0.00    -0.338 N 
ATOM     21  H   UNL A   1      31.759  20.686  26.421  1.00  0.00     0.168 HD
BRANCH  20  22
ATOM     22  C   UNL A   1      32.540  19.315  25.153  1.00  0.00     0.156 A 
ATOM     23  C   UNL A   1      32.676  17.999  25.882  1.00  0.00     0.180 A 
ATOM     24  N   UNL A   1      32.447  19.338  23.862  1.00  0.00    -0.173 NA
ATOM     25  N   UNL A   1      32.705  16.871  25.253  1.00  0.00    -0.176 NA
ATOM     26  C   UNL A   1      32.448  18.149  23.183  1.00  0.00     0.363 A 
ATOM     27  N   UNL A   1      32.590  16.976  23.899  1.00  0.00    -0.227 N 
ATOM     28  O   UNL A   1      32.325  18.092  21.962  1.00  0.00    -0.244 OA
ATOM     29  H   UNL A   1      32.612  16.138  23.382  1.00  0.00     0.195 HD
ENDBRANCH  20  22
ENDBRANCH  14  20
ENDBRANCH   8  10
ENDBRANCH   7   8
ENDBRANCH   6   7
ENDBRANCH   5   6
ENDBRANCH   4   5
ENDBRANCH   3   4
ENDBRANCH   2   3
ENDBRANCH   1   2
BRANCH   1  30
ATOM     30  C   UNL A   1      31.860  30.106  25.606  1.00  0.00     0.188 C 
BRANCH  30  31
ATOM     31  C   UNL A   1      31.991  30.977  26.875  1.00  0.00     0.188 C 
BRANCH  31  32
ATOM     32  O   UNL A   1      33.323  31.339  27.220  1.00  0.00    -0.376 OA
BRANCH  32  33
ATOM     33  C   UNL A   1      34.324  30.359  26.996  1.00  0.00     0.202 C 
BRANCH  33  34
ATOM     34  C   UNL A   1      34.880  29.757  28.291  1.00  0.00     0.261 C 
BRANCH  34  35
ATOM     35  O   UNL A   1      35.841  30.580  28.967  1.00  0.00    -0.460 OA
BRANCH  35  36
ATOM     36  C   UNL A   1      36.419  30.062  30.073  1.00  0.00     0.338 C 
ATOM     37  O   UNL A   1      35.959  30.006  31.198  1.00  0.00    -0.246 OA
BRANCH  36  38
ATOM     38  C   UNL A   1      37.662  29.393  29.650  1.00  0.00     0.060 A 
ATOM     39  C   UNL A   1      38.431  28.721  30.607  1.00  0.00     0.016 A 
ATOM     40  C   UNL A   1      38.054  29.425  28.310  1.00  0.00     0.016 A 
ATOM     41  C   UNL A   1      39.624  28.107  30.229  1.00  0.00     0.010 A 
ATOM     42  C   UNL A   1      39.255  28.828  27.936  1.00  0.00     0.010 A 
ATOM     43  C   UNL A   1      40.060  28.198  28.901  1.00  0.00    -0.014 A 
BRANCH  43  44
ATOM     44  C   UNL A   1      41.450  27.830  28.556  1.00  0.00     0.031 A 
ATOM     45  C   UNL A   1      42.496  28.908  28.591  1.00  0.00     0.074 A 
ATOM     46  C   UNL A   1      41.778  26.575  28.205  1.00  0.00     0.049 A 
ATOM     47  N   UNL A   1      43.766  28.842  28.290  1.00  0.00    -0.248 NA
ATOM     48  C   UNL A   1      42.042  30.242  29.016  1.00  0.00     0.031 C 
ATOM     49  C   UNL A   1      40.858  25.441  28.153  1.00  0.00     0.029 A 
ATOM     50  N   UNL A   1      42.983  26.055  27.809  1.00  0.00    -0.354 N 
ATOM     51  C   UNL A   1      44.261  30.127  28.482  1.00  0.00     0.074 A 
ATOM     52  C   UNL A   1      43.150  30.955  28.896  1.00  0.00     0.031 C 
ATOM     53  C   UNL A   1      41.532  24.357  27.727  1.00  0.00     0.029 A 
ATOM     54  C   UNL A   1      42.919  24.731  27.453  1.00  0.00     0.049 A 
ATOM     55  H   UNL A   1      43.815  26.581  27.782  1.00  0.00     0.167 HD
ATOM     56  C   UNL A   1      45.528  30.577  28.329  1.00  0.00     0.031 A 
ATOM     57  C   UNL A   1      43.868  23.923  26.943  1.00  0.00     0.031 A 
ATOM     58  C   UNL A   1      46.625  29.761  27.891  1.00  0.00     0.049 A 
ATOM     59  C   UNL A   1      45.257  24.460  26.721  1.00  0.00     0.074 A 
ATOM     60  C   UNL A   1      47.953  30.115  27.729  1.00  0.00     0.029 A 
ATOM     61  N   UNL A   1      46.517  28.428  27.527  1.00  0.00    -0.354 N 
ATOM     62  N   UNL A   1      45.728  25.661  26.957  1.00  0.00    -0.248 NA
ATOM     63  C   UNL A   1      46.248  23.524  26.170  1.00  0.00     0.031 C 
ATOM     64  C   UNL A   1      48.637  29.010  27.212  1.00  0.00     0.029 A 
ATOM     65  C   UNL A   1      47.748  27.953  27.108  1.00  0.00     0.049 A 
ATOM     66  H   UNL A   1      45.688  27.898  27.562  1.00  0.00     0.167 HD
ATOM     67  C   UNL A   1      47.072  25.620  26.607  1.00  0.00     0.074 A 
ATOM     68  C   UNL A   1      47.345  24.270  26.156  1.00  0.00     0.031 C 
ATOM     69  C   UNL A   1      47.999  26.608  26.657  1.00  0.00     0.031 A 
BRANCH  56  70
ATOM     70  C   UNL A   1      45.769  32.036  28.595  1.00  0.00    -0.014 A 
ATOM     71  C   UNL A   1      45.620  32.998  27.583  1.00  0.00     0.009 A 
ATOM     72  C   UNL A   1      46.154  32.452  29.878  1.00  0.00     0.009 A 
ATOM     73  C   UNL A   1      45.894  34.343  27.842  1.00  0.00     0.001 A 
ATOM     74  C   UNL A   1      46.399  33.800  30.142  1.00  0.00     0.001 A 
ATOM     75  C   UNL A   1      46.280  34.742  29.121  1.00  0.00     0.000 A 
ENDBRANCH  56  70
BRANCH  57  76
ATOM     76  C   UNL A   1      43.529  22.521  26.583  1.00  0.00    -0.014 A 
ATOM     77  C   UNL A   1      42.537  21.818  27.282  1.00  0.00     0.009 A 
ATOM     78  C   UNL A   1      44.204  21.879  25.533  1.00  0.00     0.009 A 
ATOM     79  C   UNL A   1      42.243  20.493  26.950  1.00  0.00     0.001 A 
ATOM     80  C   UNL A   1      43.890  20.563  25.186  1.00  0.00     0.001 A 
ATOM     81  C   UNL A   1      42.915  19.869  25.900  1.00  0.00     0.000 A 
ENDBRANCH  57  76
BRANCH  69  82
ATOM     82  C   UNL A   1      49.402  26.262  26.239  1.00  0.00    -0.014 A 
ATOM     83  C   UNL A   1      49.899  26.627  24.979  1.00  0.00     0.009 A 
ATOM     84  C   UNL A   1      50.253  25.608  27.144  1.00  0.00     0.009 A 
ATOM     85  C   UNL A   1      51.214  26.316  24.623  1.00  0.00     0.001 A 
ATOM     86  C   UNL A   1      51.574  25.325  26.796  1.00  0.00     0.001 A 
ATOM     87  C   UNL A   1      52.051  25.671  25.533  1.00  0.00     0.000 A 
ENDBRANCH  69  82
ENDBRANCH  43  44
ENDBRANCH  36  38
ENDBRANCH  35  36
ENDBRANCH  34  35
ENDBRANCH  33  34
ENDBRANCH  32  33
ENDBRANCH  31  32
ENDBRANCH  30  31
ENDBRANCH   1  30
TORSDOF 24
ENDMDL
MODEL 3
REMARK VINA RESULT:      -7.9      4.422      9.401
REMARK SMILES COc1cc(Nc2cn[nH]c(=O)n2)c(C(=O)OCCOCCOCCOCCOC(=O)c2ccc(-c3c4nc(c(-c5ccccc5)c5ccc([nH]5)c(-c5ccccc5)c5nc(c(-c6ccccc6)c6ccc3[nH]6)C=C5)C=C4)cc2)cc1OC
REMARK SMILES IDX 23 1 22 2 21 3 20 4 19 5 18 6 17 7 15 8 16 9 14 10 3 11 4 12
REMARK SMILES IDX 81 13 5 14 80 15 2 16 1 17 82 18 83 19 6 20 7 22 8 23 13 24
REMARK SMILES IDX 9 25 11 26 10 27 12 28 24 30 25 31 26 32 27 33 28 34 29 35
REMARK SMILES IDX 30 36 31 37 32 38 33 39 79 40 34 41 78 42 35 43 36 44 37 45
REMARK SMILES IDX 72 46 38 47 77 48 71 49 73 50 39 51 76 52 70 53 69 54 40 56
REMARK SMILES IDX 62 57 47 58 61 59 48 60 51 61 60 62 74 63 49 64 50 65 59 67
REMARK SMILES IDX 75 68 52 69 41 70 42 71 46 72 43 73 45 74 44 75 63 76 64 77
REMARK SMILES IDX 68 78 65 79 67 80 66 81 53 82 54 83 58 84 55 85 57 86 56 87
REMARK H PARENT 6 21 10 29 73 55 51 66
REMARK Flexibility Score: inf
ROOT
ATOM      1  O   UNL A   1      38.744  27.744  28.974  1.00  0.00    -0.377 OA
ENDROOT
BRANCH   1   2
ATOM      2  C   UNL A   1      38.671  29.157  28.925  1.00  0.00     0.188 C 
BRANCH   2   3
ATOM      3  C   UNL A   1      37.284  29.801  29.086  1.00  0.00     0.188 C 
BRANCH   3   4
ATOM      4  O   UNL A   1      36.381  29.495  28.028  1.00  0.00    -0.376 OA
BRANCH   4   5
ATOM      5  C   UNL A   1      35.061  29.999  28.159  1.00  0.00     0.202 C 
BRANCH   5   6
ATOM      6  C   UNL A   1      34.154  29.724  26.957  1.00  0.00     0.261 C 
BRANCH   6   7
ATOM      7  O   UNL A   1      33.645  28.385  26.859  1.00  0.00    -0.460 OA
BRANCH   7   8
ATOM      8  C   UNL A   1      32.308  28.215  26.741  1.00  0.00     0.340 C 
ATOM      9  O   UNL A   1      31.453  28.523  27.540  1.00  0.00    -0.246 OA
BRANCH   8  10
ATOM     10  C   UNL A   1      32.016  27.749  25.362  1.00  0.00     0.087 A 
ATOM     11  C   UNL A   1      31.462  26.957  22.752  1.00  0.00     0.162 A 
ATOM     12  C   UNL A   1      31.928  26.019  23.695  1.00  0.00     0.077 A 
ATOM     13  C   UNL A   1      31.189  28.273  23.130  1.00  0.00     0.161 A 
ATOM     14  C   UNL A   1      32.231  26.399  25.011  1.00  0.00     0.058 A 
ATOM     15  C   UNL A   1      31.478  28.659  24.439  1.00  0.00     0.068 A 
BRANCH  11  16
ATOM     16  O   UNL A   1      31.225  26.510  21.480  1.00  0.00    -0.493 OA
ATOM     17  C   UNL A   1      32.355  25.791  20.977  1.00  0.00     0.278 C 
ENDBRANCH  11  16
BRANCH  13  18
ATOM     18  O   UNL A   1      30.641  29.287  22.397  1.00  0.00    -0.493 OA
ATOM     19  C   UNL A   1      29.230  29.398  22.328  1.00  0.00     0.278 C 
ENDBRANCH  13  18
BRANCH  14  20
ATOM     20  N   UNL A   1      32.606  25.448  25.996  1.00  0.00    -0.338 N 
ATOM     21  H   UNL A   1      33.170  25.764  26.738  1.00  0.00     0.168 HD
BRANCH  20  22
ATOM     22  C   UNL A   1      32.245  24.122  25.998  1.00  0.00     0.156 A 
ATOM     23  C   UNL A   1      30.783  23.800  26.198  1.00  0.00     0.180 A 
ATOM     24  N   UNL A   1      33.112  23.169  25.879  1.00  0.00    -0.173 NA
ATOM     25  N   UNL A   1      30.355  22.582  26.257  1.00  0.00    -0.176 NA
ATOM     26  C   UNL A   1      32.670  21.872  25.912  1.00  0.00     0.363 A 
ATOM     27  N   UNL A   1      31.324  21.636  26.113  1.00  0.00    -0.227 N 
ATOM     28  O   UNL A   1      33.429  20.918  25.768  1.00  0.00    -0.244 OA
ATOM     29  H   UNL A   1      31.039  20.694  26.156  1.00  0.00     0.195 HD
ENDBRANCH  20  22
ENDBRANCH  14  20
ENDBRANCH   8  10
ENDBRANCH   7   8
ENDBRANCH   6   7
ENDBRANCH   5   6
ENDBRANCH   4   5
ENDBRANCH   3   4
ENDBRANCH   2   3
ENDBRANCH   1   2
BRANCH   1  30
ATOM     30  C   UNL A   1      39.385  27.035  27.918  1.00  0.00     0.188 C 
BRANCH  30  31
ATOM     31  C   UNL A   1      40.285  27.744  26.881  1.00  0.00     0.188 C 
BRANCH  31  32
ATOM     32  O   UNL A   1      41.161  26.886  26.160  1.00  0.00    -0.376 OA
BRANCH  32  33
ATOM     33  C   UNL A   1      42.242  27.508  25.483  1.00  0.00     0.202 C 
BRANCH  33  34
ATOM     34  C   UNL A   1      42.356  29.007  25.776  1.00  0.00     0.261 C 
BRANCH  34  35
ATOM     35  O   UNL A   1      43.675  29.447  26.131  1.00  0.00    -0.460 OA
BRANCH  35  36
ATOM     36  C   UNL A   1      44.217  28.915  27.248  1.00  0.00     0.338 C 
ATOM     37  O   UNL A   1      45.201  28.205  27.333  1.00  0.00    -0.246 OA
BRANCH  36  38
ATOM     38  C   UNL A   1      43.508  29.496  28.402  1.00  0.00     0.060 A 
ATOM     39  C   UNL A   1      43.615  30.871  28.642  1.00  0.00     0.016 A 
ATOM     40  C   UNL A   1      42.737  28.681  29.233  1.00  0.00     0.016 A 
ATOM     41  C   UNL A   1      42.974  31.432  29.746  1.00  0.00     0.010 A 
ATOM     42  C   UNL A   1      42.112  29.238  30.346  1.00  0.00     0.010 A 
ATOM     43  C   UNL A   1      42.259  30.609  30.625  1.00  0.00    -0.014 A 
BRANCH  43  44
ATOM     44  C   UNL A   1      41.844  31.127  31.946  1.00  0.00     0.031 A 
ATOM     45  C   UNL A   1      42.785  30.944  33.104  1.00  0.00     0.074 A 
ATOM     46  C   UNL A   1      40.657  31.731  32.123  1.00  0.00     0.049 A 
ATOM     47  N   UNL A   1      42.630  31.272  34.360  1.00  0.00    -0.248 NA
ATOM     48  C   UNL A   1      44.072  30.296  32.801  1.00  0.00     0.031 C 
ATOM     49  C   UNL A   1      39.670  31.984  31.076  1.00  0.00     0.029 A 
ATOM     50  N   UNL A   1      40.080  32.228  33.264  1.00  0.00    -0.354 N 
ATOM     51  C   UNL A   1      43.794  30.863  34.998  1.00  0.00     0.074 A 
ATOM     52  C   UNL A   1      44.633  30.239  33.998  1.00  0.00     0.031 C 
ATOM     53  C   UNL A   1      38.595  32.574  31.630  1.00  0.00     0.029 A 
ATOM     54  C   UNL A   1      38.811  32.713  33.069  1.00  0.00     0.049 A 
ATOM     55  H   UNL A   1      40.532  32.235  34.138  1.00  0.00     0.167 HD
ATOM     56  C   UNL A   1      44.138  30.997  36.300  1.00  0.00     0.031 A 
ATOM     57  C   UNL A   1      37.921  33.193  33.958  1.00  0.00     0.031 A 
ATOM     58  C   UNL A   1      43.294  31.592  37.298  1.00  0.00     0.049 A 
ATOM     59  C   UNL A   1      38.298  33.275  35.414  1.00  0.00     0.074 A 
ATOM     60  C   UNL A   1      43.559  31.799  38.640  1.00  0.00     0.029 A 
ATOM     61  N   UNL A   1      42.010  32.060  37.064  1.00  0.00    -0.354 N 
ATOM     62  N   UNL A   1      39.422  32.937  35.998  1.00  0.00    -0.248 NA
ATOM     63  C   UNL A   1      37.284  33.817  36.330  1.00  0.00     0.031 C 
ATOM     64  C   UNL A   1      42.412  32.339  39.231  1.00  0.00     0.029 A 
ATOM     65  C   UNL A   1      41.456  32.523  38.245  1.00  0.00     0.049 A 
ATOM     66  H   UNL A   1      41.560  32.061  36.189  1.00  0.00     0.167 HD
ATOM     67  C   UNL A   1      39.261  33.245  37.344  1.00  0.00     0.074 A 
ATOM     68  C   UNL A   1      37.934  33.811  37.486  1.00  0.00     0.031 C 
ATOM     69  C   UNL A   1      40.132  33.078  38.369  1.00  0.00     0.031 A 
BRANCH  56  70
ATOM     70  C   UNL A   1      45.470  30.440  36.713  1.00  0.00    -0.014 A 
ATOM     71  C   UNL A   1      45.640  29.071  36.977  1.00  0.00     0.009 A 
ATOM     72  C   UNL A   1      46.570  31.300  36.845  1.00  0.00     0.009 A 
ATOM     73  C   UNL A   1      46.877  28.583  37.405  1.00  0.00     0.001 A 
ATOM     74  C   UNL A   1      47.812  30.805  37.245  1.00  0.00     0.001 A 
ATOM     75  C   UNL A   1      47.961  29.449  37.536  1.00  0.00     0.000 A 
ENDBRANCH  56  70
BRANCH  57  76
ATOM     76  C   UNL A   1      36.570  33.611  33.499  1.00  0.00    -0.014 A 
ATOM     77  C   UNL A   1      35.526  32.681  33.394  1.00  0.00     0.009 A 
ATOM     78  C   UNL A   1      36.323  34.950  33.159  1.00  0.00     0.009 A 
ATOM     79  C   UNL A   1      34.267  33.080  32.940  1.00  0.00     0.001 A 
ATOM     80  C   UNL A   1      35.056  35.351  32.729  1.00  0.00     0.001 A 
ATOM     81  C   UNL A   1      34.031  34.414  32.613  1.00  0.00     0.000 A 
ENDBRANCH  57  76
BRANCH  69  82
ATOM     82  C   UNL A   1      39.692  33.537  39.732  1.00  0.00    -0.014 A 
ATOM     83  C   UNL A   1      39.901  34.857  40.160  1.00  0.00     0.009 A 
ATOM     84  C   UNL A   1      39.012  32.647  40.578  1.00  0.00     0.009 A 
ATOM     85  C   UNL A   1      39.462  35.267  41.421  1.00  0.00     0.001 A 
ATOM     86  C   UNL A   1      38.550  33.067  41.825  1.00  0.00     0.001 A 
ATOM     87  C   UNL A   1      38.782  34.374  42.249  1.00  0.00     0.000 A 
ENDBRANCH  69  82
ENDBRANCH  43  44
ENDBRANCH  36  38
ENDBRANCH  35  36
ENDBRANCH  34  35
ENDBRANCH  33  34
ENDBRANCH  32  33
ENDBRANCH  31  32
ENDBRANCH  30  31
ENDBRANCH   1  30
TORSDOF 24
ENDMDL
