MODEL 1
REMARK VINA RESULT:      -9.0      0.000      0.000
REMARK SMILES O=C(N/N=C/c1ccccc1O)C(=O)Nc1cccc(C(=O)OCCOCCOCCOCCOC(=O)c2ccc(-c3c4nc(c(-c5ccccc5)c5ccc([nH]5)c(-c5ccccc5)c5nc(c(-c6ccccc6)c6ccc3[nH]6)C=C5)C=C4)cc2)c1
REMARK SMILES IDX 27 1 26 2 25 3 24 4 23 5 21 6 22 7 20 8 16 9 17 10 86 11
REMARK SMILES IDX 18 12 19 13 15 14 13 15 14 16 2 18 1 19 3 20 4 22 5 23 6 24
REMARK SMILES IDX 7 25 11 26 8 27 10 28 9 29 12 30 28 32 29 33 30 34 31 35
REMARK SMILES IDX 32 36 33 37 34 38 35 39 36 40 37 41 38 42 39 43 85 44 40 45
REMARK SMILES IDX 84 46 41 47 42 48 43 49 78 50 44 51 83 52 77 53 79 54 45 55
REMARK SMILES IDX 82 56 76 57 75 58 46 60 68 61 53 62 67 63 54 64 57 65 66 66
REMARK SMILES IDX 80 67 55 68 56 69 65 71 81 72 58 73 47 74 48 75 52 76 49 77
REMARK SMILES IDX 51 78 50 79 69 80 70 81 74 82 71 83 73 84 72 85 59 86 60 87
REMARK SMILES IDX 64 88 61 89 63 90 62 91
REMARK H PARENT 15 17 3 21 12 31 79 59 57 70
REMARK Flexibility Score: inf
ROOT
ATOM      1  C   UNL A   1      32.803  21.099  25.771  1.00  0.00     0.188 C 
ENDROOT
BRANCH   1   2
ATOM      2  O   UNL A   1      31.885  22.101  25.355  1.00  0.00    -0.376 OA
BRANCH   2   3
ATOM      3  C   UNL A   1      30.738  22.303  26.164  1.00  0.00     0.202 C 
BRANCH   3   4
ATOM      4  C   UNL A   1      30.529  23.652  26.874  1.00  0.00     0.261 C 
BRANCH   4   5
ATOM      5  O   UNL A   1      30.566  24.835  26.062  1.00  0.00    -0.460 OA
BRANCH   5   6
ATOM      6  C   UNL A   1      31.549  25.730  26.283  1.00  0.00     0.338 C 
ATOM      7  O   UNL A   1      32.704  25.486  26.588  1.00  0.00    -0.246 OA
BRANCH   6   8
ATOM      8  C   UNL A   1      31.007  27.102  26.063  1.00  0.00     0.062 A 
ATOM      9  C   UNL A   1      31.450  30.162  26.636  1.00  0.00     0.042 A 
ATOM     10  C   UNL A   1      30.894  30.583  24.932  1.00  0.00     0.026 A 
ATOM     11  C   UNL A   1      31.391  28.450  27.240  1.00  0.00     0.041 A 
ATOM     12  C   UNL A   1      30.387  29.241  23.808  1.00  0.00     0.003 A 
ATOM     13  C   UNL A   1      30.524  27.515  24.341  1.00  0.00     0.016 A 
BRANCH   9  14
ATOM     14  N   UNL A   1      32.421  31.026  27.140  1.00  0.00    -0.318 N 
ATOM     15  C   UNL A   1      33.778  30.746  27.229  1.00  0.00     0.315 C 
ATOM     16  O   UNL A   1      34.541  31.677  27.495  1.00  0.00    -0.263 OA
ATOM     17  H   UNL A   1      32.121  31.907  27.460  1.00  0.00     0.170 HD
BRANCH  15  18
ATOM     18  C   UNL A   1      34.412  29.365  26.937  1.00  0.00     0.329 C 
ATOM     19  O   UNL A   1      34.405  28.513  27.824  1.00  0.00    -0.262 OA
ATOM     20  N   UNL A   1      35.142  29.165  25.755  1.00  0.00    -0.239 N 
ATOM     21  H   UNL A   1      36.126  29.193  25.735  1.00  0.00     0.194 HD
BRANCH  20  22
ATOM     22  N   UNL A   1      34.392  28.927  24.624  1.00  0.00    -0.180 NA
ATOM     23  C   UNL A   1      33.739  27.713  24.574  1.00  0.00     0.145 C 
BRANCH  23  24
ATOM     24  C   UNL A   1      33.334  26.224  23.103  1.00  0.00     0.036 A 
ATOM     25  C   UNL A   1      32.861  26.459  21.645  1.00  0.00     0.013 A 
ATOM     26  C   UNL A   1      33.452  24.683  23.051  1.00  0.00     0.124 A 
ATOM     27  C   UNL A   1      32.708  25.588  20.528  1.00  0.00     0.001 A 
ATOM     28  C   UNL A   1      33.241  23.797  21.922  1.00  0.00     0.047 A 
ATOM     29  C   UNL A   1      32.917  24.248  20.665  1.00  0.00     0.004 A 
BRANCH  26  30
ATOM     30  O   UNL A   1      33.810  23.874  24.136  1.00  0.00    -0.507 OA
ATOM     31  H   UNL A   1      33.578  24.129  25.008  1.00  0.00     0.293 HD
ENDBRANCH  26  30
ENDBRANCH  23  24
ENDBRANCH  20  22
ENDBRANCH  15  18
ENDBRANCH   9  14
ENDBRANCH   6   8
ENDBRANCH   5   6
ENDBRANCH   4   5
ENDBRANCH   3   4
ENDBRANCH   2   3
ENDBRANCH   1   2
BRANCH   1  32
ATOM     32  C   UNL A   1      33.790  21.604  26.842  1.00  0.00     0.188 C 
BRANCH  32  33
ATOM     33  O   UNL A   1      35.096  21.911  26.384  1.00  0.00    -0.377 OA
BRANCH  33  34
ATOM     34  C   UNL A   1      35.497  21.457  25.096  1.00  0.00     0.188 C 
BRANCH  34  35
ATOM     35  C   UNL A   1      36.985  21.279  24.697  1.00  0.00     0.188 C 
BRANCH  35  36
ATOM     36  O   UNL A   1      37.886  22.218  25.259  1.00  0.00    -0.376 OA
BRANCH  36  37
ATOM     37  C   UNL A   1      38.942  21.768  26.085  1.00  0.00     0.202 C 
BRANCH  37  38
ATOM     38  C   UNL A   1      39.456  20.342  25.857  1.00  0.00     0.261 C 
BRANCH  38  39
ATOM     39  O   UNL A   1      40.486  19.900  26.746  1.00  0.00    -0.460 OA
BRANCH  39  40
ATOM     40  C   UNL A   1      41.722  19.749  26.223  1.00  0.00     0.338 C 
ATOM     41  O   UNL A   1      42.131  18.824  25.548  1.00  0.00    -0.246 OA
BRANCH  40  42
ATOM     42  C   UNL A   1      42.449  21.013  26.456  1.00  0.00     0.060 A 
ATOM     43  C   UNL A   1      42.680  21.426  27.774  1.00  0.00     0.016 A 
ATOM     44  C   UNL A   1      42.952  21.748  25.379  1.00  0.00     0.016 A 
ATOM     45  C   UNL A   1      43.395  22.595  28.019  1.00  0.00     0.010 A 
ATOM     46  C   UNL A   1      43.638  22.938  25.624  1.00  0.00     0.010 A 
ATOM     47  C   UNL A   1      43.832  23.380  26.944  1.00  0.00    -0.014 A 
BRANCH  47  48
ATOM     48  C   UNL A   1      44.270  24.768  27.200  1.00  0.00     0.031 A 
ATOM     49  C   UNL A   1      43.227  25.764  27.623  1.00  0.00     0.074 A 
ATOM     50  C   UNL A   1      45.557  25.134  27.087  1.00  0.00     0.049 A 
ATOM     51  N   UNL A   1      43.354  27.035  27.901  1.00  0.00    -0.248 NA
ATOM     52  C   UNL A   1      41.852  25.252  27.746  1.00  0.00     0.031 C 
ATOM     53  C   UNL A   1      46.661  24.251  26.723  1.00  0.00     0.029 A 
ATOM     54  N   UNL A   1      46.145  26.360  27.266  1.00  0.00    -0.354 N 
ATOM     55  C   UNL A   1      42.077  27.475  28.222  1.00  0.00     0.074 A 
ATOM     56  C   UNL A   1      41.185  26.347  28.076  1.00  0.00     0.031 C 
ATOM     57  C   UNL A   1      47.798  24.969  26.692  1.00  0.00     0.029 A 
ATOM     58  C   UNL A   1      47.492  26.365  27.005  1.00  0.00     0.049 A 
ATOM     59  H   UNL A   1      45.649  27.160  27.554  1.00  0.00     0.167 HD
ATOM     60  C   UNL A   1      41.680  28.711  28.603  1.00  0.00     0.031 A 
ATOM     61  C   UNL A   1      48.370  27.386  26.997  1.00  0.00     0.031 A 
ATOM     62  C   UNL A   1      42.565  29.838  28.718  1.00  0.00     0.049 A 
ATOM     63  C   UNL A   1      47.894  28.770  27.354  1.00  0.00     0.074 A 
ATOM     64  C   UNL A   1      42.269  31.127  29.121  1.00  0.00     0.029 A 
ATOM     65  N   UNL A   1      43.916  29.812  28.411  1.00  0.00    -0.354 N 
ATOM     66  N   UNL A   1      46.694  29.170  27.702  1.00  0.00    -0.248 NA
ATOM     67  C   UNL A   1      48.900  29.843  27.329  1.00  0.00     0.031 C 
ATOM     68  C   UNL A   1      43.428  31.900  28.987  1.00  0.00     0.029 A 
ATOM     69  C   UNL A   1      44.462  31.074  28.575  1.00  0.00     0.049 A 
ATOM     70  H   UNL A   1      44.415  29.014  28.119  1.00  0.00     0.167 HD
ATOM     71  C   UNL A   1      46.804  30.532  27.961  1.00  0.00     0.074 A 
ATOM     72  C   UNL A   1      48.193  30.884  27.746  1.00  0.00     0.031 C 
ATOM     73  C   UNL A   1      45.844  31.410  28.345  1.00  0.00     0.031 A 
BRANCH  60  74
ATOM     74  C   UNL A   1      40.212  28.909  28.862  1.00  0.00    -0.014 A 
ATOM     75  C   UNL A   1      39.656  28.724  30.138  1.00  0.00     0.009 A 
ATOM     76  C   UNL A   1      39.370  29.283  27.803  1.00  0.00     0.009 A 
ATOM     77  C   UNL A   1      38.281  28.865  30.337  1.00  0.00     0.001 A 
ATOM     78  C   UNL A   1      38.002  29.457  28.012  1.00  0.00     0.001 A 
ATOM     79  C   UNL A   1      37.456  29.235  29.276  1.00  0.00     0.000 A 
ENDBRANCH  60  74
BRANCH  61  80
ATOM     80  C   UNL A   1      49.785  27.141  26.618  1.00  0.00    -0.014 A 
ATOM     81  C   UNL A   1      50.191  27.185  25.275  1.00  0.00     0.009 A 
ATOM     82  C   UNL A   1      50.744  26.861  27.606  1.00  0.00     0.009 A 
ATOM     83  C   UNL A   1      51.523  26.936  24.930  1.00  0.00     0.001 A 
ATOM     84  C   UNL A   1      52.078  26.642  27.260  1.00  0.00     0.001 A 
ATOM     85  C   UNL A   1      52.466  26.672  25.921  1.00  0.00     0.000 A 
ENDBRANCH  61  80
BRANCH  73  86
ATOM     86  C   UNL A   1      46.268  32.834  28.589  1.00  0.00    -0.014 A 
ATOM     87  C   UNL A   1      46.544  33.306  29.882  1.00  0.00     0.009 A 
ATOM     88  C   UNL A   1      46.438  33.702  27.499  1.00  0.00     0.009 A 
ATOM     89  C   UNL A   1      46.942  34.630  30.080  1.00  0.00     0.001 A 
ATOM     90  C   UNL A   1      46.870  35.015  27.697  1.00  0.00     0.001 A 
ATOM     91  C   UNL A   1      47.111  35.481  28.987  1.00  0.00     0.000 A 
ENDBRANCH  73  86
ENDBRANCH  47  48
ENDBRANCH  40  42
ENDBRANCH  39  40
ENDBRANCH  38  39
ENDBRANCH  37  38
ENDBRANCH  36  37
ENDBRANCH  35  36
ENDBRANCH  34  35
ENDBRANCH  33  34
ENDBRANCH  32  33
ENDBRANCH   1  32
TORSDOF 25
ENDMDL
MODEL 2
REMARK VINA RESULT:      -8.9      0.948      5.588
REMARK SMILES O=C(N/N=C/c1ccccc1O)C(=O)Nc1cccc(C(=O)OCCOCCOCCOCCOC(=O)c2ccc(-c3c4nc(c(-c5ccccc5)c5ccc([nH]5)c(-c5ccccc5)c5nc(c(-c6ccccc6)c6ccc3[nH]6)C=C5)C=C4)cc2)c1
REMARK SMILES IDX 27 1 26 2 25 3 24 4 23 5 21 6 22 7 20 8 16 9 17 10 86 11
REMARK SMILES IDX 18 12 19 13 15 14 13 15 14 16 2 18 1 19 3 20 4 22 5 23 6 24
REMARK SMILES IDX 7 25 11 26 8 27 10 28 9 29 12 30 28 32 29 33 30 34 31 35
REMARK SMILES IDX 32 36 33 37 34 38 35 39 36 40 37 41 38 42 39 43 85 44 40 45
REMARK SMILES IDX 84 46 41 47 42 48 43 49 78 50 44 51 83 52 77 53 79 54 45 55
REMARK SMILES IDX 82 56 76 57 75 58 46 60 68 61 53 62 67 63 54 64 57 65 66 66
REMARK SMILES IDX 80 67 55 68 56 69 65 71 81 72 58 73 47 74 48 75 52 76 49 77
REMARK SMILES IDX 51 78 50 79 69 80 70 81 74 82 71 83 73 84 72 85 59 86 60 87
REMARK SMILES IDX 64 88 61 89 63 90 62 91
REMARK H PARENT 15 17 3 21 12 31 79 59 57 70
REMARK Flexibility Score: inf
ROOT
ATOM      1  C   UNL A   1      33.121  21.248  26.356  1.00  0.00     0.188 C 
ENDROOT
BRANCH   1   2
ATOM      2  O   UNL A   1      32.348  21.635  25.228  1.00  0.00    -0.376 OA
BRANCH   2   3
ATOM      3  C   UNL A   1      31.055  22.161  25.479  1.00  0.00     0.202 C 
BRANCH   3   4
ATOM      4  C   UNL A   1      30.671  23.544  24.927  1.00  0.00     0.261 C 
BRANCH   4   5
ATOM      5  O   UNL A   1      31.567  24.632  25.198  1.00  0.00    -0.460 OA
BRANCH   5   6
ATOM      6  C   UNL A   1      31.428  25.298  26.362  1.00  0.00     0.338 C 
ATOM      7  O   UNL A   1      31.710  24.889  27.475  1.00  0.00    -0.246 OA
BRANCH   6   8
ATOM      8  C   UNL A   1      30.893  26.660  26.074  1.00  0.00     0.062 A 
ATOM      9  C   UNL A   1      31.346  29.743  26.502  1.00  0.00     0.042 A 
ATOM     10  C   UNL A   1      30.798  30.083  24.777  1.00  0.00     0.026 A 
ATOM     11  C   UNL A   1      31.277  28.061  27.186  1.00  0.00     0.041 A 
ATOM     12  C   UNL A   1      30.291  28.690  23.716  1.00  0.00     0.003 A 
ATOM     13  C   UNL A   1      30.418  26.992  24.332  1.00  0.00     0.016 A 
BRANCH   9  14
ATOM     14  N   UNL A   1      32.318  30.626  26.967  1.00  0.00    -0.318 N 
ATOM     15  C   UNL A   1      33.686  30.384  26.977  1.00  0.00     0.315 C 
ATOM     16  O   UNL A   1      34.436  31.332  27.218  1.00  0.00    -0.263 OA
ATOM     17  H   UNL A   1      32.011  31.492  27.319  1.00  0.00     0.170 HD
BRANCH  15  18
ATOM     18  C   UNL A   1      34.341  29.027  26.626  1.00  0.00     0.329 C 
ATOM     19  O   UNL A   1      34.433  28.171  27.505  1.00  0.00    -0.262 OA
ATOM     20  N   UNL A   1      34.982  28.858  25.389  1.00  0.00    -0.239 N 
ATOM     21  H   UNL A   1      35.959  28.919  25.292  1.00  0.00     0.194 HD
BRANCH  20  22
ATOM     22  N   UNL A   1      34.154  28.599  24.319  1.00  0.00    -0.180 NA
ATOM     23  C   UNL A   1      33.658  27.315  24.232  1.00  0.00     0.145 C 
BRANCH  23  24
ATOM     24  C   UNL A   1      33.293  25.888  22.689  1.00  0.00     0.036 A 
ATOM     25  C   UNL A   1      32.743  26.174  21.268  1.00  0.00     0.013 A 
ATOM     26  C   UNL A   1      33.513  24.365  22.539  1.00  0.00     0.124 A 
ATOM     27  C   UNL A   1      32.603  25.361  20.106  1.00  0.00     0.001 A 
ATOM     28  C   UNL A   1      33.315  23.534  21.367  1.00  0.00     0.047 A 
ATOM     29  C   UNL A   1      32.908  24.034  20.154  1.00  0.00     0.004 A 
BRANCH  26  30
ATOM     30  O   UNL A   1      33.971  23.522  23.559  1.00  0.00    -0.507 OA
ATOM     31  H   UNL A   1      33.358  23.054  24.091  1.00  0.00     0.293 HD
ENDBRANCH  26  30
ENDBRANCH  23  24
ENDBRANCH  20  22
ENDBRANCH  15  18
ENDBRANCH   9  14
ENDBRANCH   6   8
ENDBRANCH   5   6
ENDBRANCH   4   5
ENDBRANCH   3   4
ENDBRANCH   2   3
ENDBRANCH   1   2
BRANCH   1  32
ATOM     32  C   UNL A   1      34.094  22.352  26.817  1.00  0.00     0.188 C 
BRANCH  32  33
ATOM     33  O   UNL A   1      35.391  22.308  26.248  1.00  0.00    -0.377 OA
BRANCH  33  34
ATOM     34  C   UNL A   1      35.644  21.404  25.179  1.00  0.00     0.188 C 
BRANCH  34  35
ATOM     35  C   UNL A   1      37.063  20.871  24.850  1.00  0.00     0.188 C 
BRANCH  35  36
ATOM     36  O   UNL A   1      38.128  21.774  25.095  1.00  0.00    -0.376 OA
BRANCH  36  37
ATOM     37  C   UNL A   1      39.237  21.359  25.867  1.00  0.00     0.202 C 
BRANCH  37  38
ATOM     38  C   UNL A   1      39.773  19.943  25.624  1.00  0.00     0.261 C 
BRANCH  38  39
ATOM     39  O   UNL A   1      40.754  19.479  26.557  1.00  0.00    -0.460 OA
BRANCH  39  40
ATOM     40  C   UNL A   1      42.046  19.544  26.168  1.00  0.00     0.338 C 
ATOM     41  O   UNL A   1      42.651  18.747  25.478  1.00  0.00    -0.246 OA
BRANCH  40  42
ATOM     42  C   UNL A   1      42.554  20.870  26.573  1.00  0.00     0.060 A 
ATOM     43  C   UNL A   1      42.452  21.250  27.918  1.00  0.00     0.016 A 
ATOM     44  C   UNL A   1      43.183  21.702  25.642  1.00  0.00     0.016 A 
ATOM     45  C   UNL A   1      42.957  22.480  28.331  1.00  0.00     0.010 A 
ATOM     46  C   UNL A   1      43.657  22.948  26.050  1.00  0.00     0.010 A 
ATOM     47  C   UNL A   1      43.514  23.353  27.389  1.00  0.00    -0.014 A 
BRANCH  47  48
ATOM     48  C   UNL A   1      43.723  24.769  27.757  1.00  0.00     0.031 A 
ATOM     49  C   UNL A   1      45.139  25.264  27.856  1.00  0.00     0.074 A 
ATOM     50  C   UNL A   1      42.692  25.602  27.973  1.00  0.00     0.049 A 
ATOM     51  N   UNL A   1      45.585  26.453  28.165  1.00  0.00    -0.248 NA
ATOM     52  C   UNL A   1      46.194  24.278  27.570  1.00  0.00     0.031 C 
ATOM     53  C   UNL A   1      41.279  25.248  27.869  1.00  0.00     0.029 A 
ATOM     54  N   UNL A   1      42.687  26.925  28.334  1.00  0.00    -0.354 N 
ATOM     55  C   UNL A   1      46.969  26.355  28.118  1.00  0.00     0.074 A 
ATOM     56  C   UNL A   1      47.291  24.987  27.782  1.00  0.00     0.031 C 
ATOM     57  C   UNL A   1      40.539  26.328  28.173  1.00  0.00     0.029 A 
ATOM     58  C   UNL A   1      41.428  27.437  28.521  1.00  0.00     0.049 A 
ATOM     59  H   UNL A   1      43.507  27.457  28.448  1.00  0.00     0.167 HD
ATOM     60  C   UNL A   1      47.893  27.319  28.337  1.00  0.00     0.031 A 
ATOM     61  C   UNL A   1      41.041  28.655  28.948  1.00  0.00     0.031 A 
ATOM     62  C   UNL A   1      47.569  28.672  28.701  1.00  0.00     0.049 A 
ATOM     63  C   UNL A   1      42.088  29.693  29.257  1.00  0.00     0.074 A 
ATOM     64  C   UNL A   1      48.428  29.733  28.921  1.00  0.00     0.029 A 
ATOM     65  N   UNL A   1      46.283  29.143  28.915  1.00  0.00    -0.354 N 
ATOM     66  N   UNL A   1      43.393  29.607  29.165  1.00  0.00    -0.248 NA
ATOM     67  C   UNL A   1      41.603  31.003  29.717  1.00  0.00     0.031 C 
ATOM     68  C   UNL A   1      47.666  30.829  29.340  1.00  0.00     0.029 A 
ATOM     69  C   UNL A   1      46.327  30.471  29.306  1.00  0.00     0.049 A 
ATOM     70  H   UNL A   1      45.461  28.613  28.806  1.00  0.00     0.167 HD
ATOM     71  C   UNL A   1      43.886  30.855  29.531  1.00  0.00     0.074 A 
ATOM     72  C   UNL A   1      42.735  31.684  29.829  1.00  0.00     0.031 C 
ATOM     73  C   UNL A   1      45.172  31.278  29.611  1.00  0.00     0.031 A 
BRANCH  60  74
ATOM     74  C   UNL A   1      49.338  26.916  28.246  1.00  0.00    -0.014 A 
ATOM     75  C   UNL A   1      50.061  26.502  29.376  1.00  0.00     0.009 A 
ATOM     76  C   UNL A   1      49.988  26.957  27.003  1.00  0.00     0.009 A 
ATOM     77  C   UNL A   1      51.417  26.182  29.270  1.00  0.00     0.001 A 
ATOM     78  C   UNL A   1      51.333  26.605  26.893  1.00  0.00     0.001 A 
ATOM     79  C   UNL A   1      52.050  26.229  28.028  1.00  0.00     0.000 A 
ENDBRANCH  60  74
BRANCH  61  80
ATOM     80  C   UNL A   1      39.596  28.950  29.128  1.00  0.00    -0.014 A 
ATOM     81  C   UNL A   1      38.956  28.703  30.351  1.00  0.00     0.009 A 
ATOM     82  C   UNL A   1      38.847  29.487  28.068  1.00  0.00     0.009 A 
ATOM     83  C   UNL A   1      37.592  28.969  30.502  1.00  0.00     0.001 A 
ATOM     84  C   UNL A   1      37.492  29.780  28.232  1.00  0.00     0.001 A 
ATOM     85  C   UNL A   1      36.863  29.514  29.447  1.00  0.00     0.000 A 
ENDBRANCH  61  80
BRANCH  73  86
ATOM     86  C   UNL A   1      45.405  32.712  30.006  1.00  0.00    -0.014 A 
ATOM     87  C   UNL A   1      45.653  33.074  31.339  1.00  0.00     0.009 A 
ATOM     88  C   UNL A   1      45.422  33.709  29.017  1.00  0.00     0.009 A 
ATOM     89  C   UNL A   1      45.874  34.412  31.678  1.00  0.00     0.001 A 
ATOM     90  C   UNL A   1      45.676  35.040  29.355  1.00  0.00     0.001 A 
ATOM     91  C   UNL A   1      45.891  35.391  30.685  1.00  0.00     0.000 A 
ENDBRANCH  73  86
ENDBRANCH  47  48
ENDBRANCH  40  42
ENDBRANCH  39  40
ENDBRANCH  38  39
ENDBRANCH  37  38
ENDBRANCH  36  37
ENDBRANCH  35  36
ENDBRANCH  34  35
ENDBRANCH  33  34
ENDBRANCH  32  33
ENDBRANCH   1  32
TORSDOF 25
ENDMDL
MODEL 3
REMARK VINA RESULT:      -8.3      3.915      7.187
REMARK SMILES O=C(N/N=C/c1ccccc1O)C(=O)Nc1cccc(C(=O)OCCOCCOCCOCCOC(=O)c2ccc(-c3c4nc(c(-c5ccccc5)c5ccc([nH]5)c(-c5ccccc5)c5nc(c(-c6ccccc6)c6ccc3[nH]6)C=C5)C=C4)cc2)c1
REMARK SMILES IDX 27 1 26 2 25 3 24 4 23 5 21 6 22 7 20 8 16 9 17 10 86 11
REMARK SMILES IDX 18 12 19 13 15 14 13 15 14 16 2 18 1 19 3 20 4 22 5 23 6 24
REMARK SMILES IDX 7 25 11 26 8 27 10 28 9 29 12 30 28 32 29 33 30 34 31 35
REMARK SMILES IDX 32 36 33 37 34 38 35 39 36 40 37 41 38 42 39 43 85 44 40 45
REMARK SMILES IDX 84 46 41 47 42 48 43 49 78 50 44 51 83 52 77 53 79 54 45 55
REMARK SMILES IDX 82 56 76 57 75 58 46 60 68 61 53 62 67 63 54 64 57 65 66 66
REMARK SMILES IDX 80 67 55 68 56 69 65 71 81 72 58 73 47 74 48 75 52 76 49 77
REMARK SMILES IDX 51 78 50 79 69 80 70 81 74 82 71 83 73 84 72 85 59 86 60 87
REMARK SMILES IDX 64 88 61 89 63 90 62 91
REMARK H PARENT 15 17 3 21 12 31 79 59 57 70
REMARK Flexibility Score: inf
ROOT
ATOM      1  C   UNL A   1      32.603  28.231  26.324  1.00  0.00     0.188 C 
ENDROOT
BRANCH   1   2
ATOM      2  O   UNL A   1      33.813  28.392  27.051  1.00  0.00    -0.376 OA
BRANCH   2   3
ATOM      3  C   UNL A   1      34.277  29.718  27.249  1.00  0.00     0.202 C 
BRANCH   3   4
ATOM      4  C   UNL A   1      35.711  29.960  27.752  1.00  0.00     0.261 C 
BRANCH   4   5
ATOM      5  O   UNL A   1      36.024  31.272  28.240  1.00  0.00    -0.460 OA
BRANCH   5   6
ATOM      6  C   UNL A   1      35.965  31.490  29.569  1.00  0.00     0.338 C 
ATOM      7  O   UNL A   1      35.095  32.095  30.171  1.00  0.00    -0.246 OA
BRANCH   6   8
ATOM      8  C   UNL A   1      37.139  30.835  30.215  1.00  0.00     0.062 A 
ATOM      9  C   UNL A   1      39.576  31.266  32.155  1.00  0.00     0.042 A 
ATOM     10  C   UNL A   1      39.307  29.602  32.896  1.00  0.00     0.026 A 
ATOM     11  C   UNL A   1      38.580  31.830  30.745  1.00  0.00     0.041 A 
ATOM     12  C   UNL A   1      37.947  28.562  32.271  1.00  0.00     0.003 A 
ATOM     13  C   UNL A   1      36.825  29.208  31.004  1.00  0.00     0.016 A 
BRANCH   9  14
ATOM     14  N   UNL A   1      40.073  32.208  33.055  1.00  0.00    -0.318 N 
ATOM     15  C   UNL A   1      41.414  32.526  33.226  1.00  0.00     0.315 C 
ATOM     16  O   UNL A   1      41.688  33.522  33.900  1.00  0.00    -0.263 OA
ATOM     17  H   UNL A   1      39.421  32.687  33.615  1.00  0.00     0.170 HD
BRANCH  15  18
ATOM     18  C   UNL A   1      42.589  31.768  32.565  1.00  0.00     0.329 C 
ATOM     19  O   UNL A   1      43.079  30.807  33.155  1.00  0.00    -0.262 OA
ATOM     20  N   UNL A   1      43.197  32.287  31.411  1.00  0.00    -0.239 N 
ATOM     21  H   UNL A   1      44.043  32.790  31.445  1.00  0.00     0.194 HD
BRANCH  20  22
ATOM     22  N   UNL A   1      42.534  32.048  30.228  1.00  0.00    -0.180 NA
ATOM     23  C   UNL A   1      42.159  30.741  29.995  1.00  0.00     0.145 C 
BRANCH  23  24
ATOM     24  C   UNL A   1      42.108  29.409  28.331  1.00  0.00     0.036 A 
ATOM     25  C   UNL A   1      40.872  29.040  27.472  1.00  0.00     0.013 A 
ATOM     26  C   UNL A   1      43.168  28.592  27.556  1.00  0.00     0.124 A 
ATOM     27  C   UNL A   1      40.724  28.306  26.259  1.00  0.00     0.001 A 
ATOM     28  C   UNL A   1      42.998  27.802  26.352  1.00  0.00     0.047 A 
ATOM     29  C   UNL A   1      41.800  27.697  25.687  1.00  0.00     0.004 A 
BRANCH  26  30
ATOM     30  O   UNL A   1      44.519  28.499  27.912  1.00  0.00    -0.507 OA
ATOM     31  H   UNL A   1      45.179  28.488  27.247  1.00  0.00     0.293 HD
ENDBRANCH  26  30
ENDBRANCH  23  24
ENDBRANCH  20  22
ENDBRANCH  15  18
ENDBRANCH   9  14
ENDBRANCH   6   8
ENDBRANCH   5   6
ENDBRANCH   4   5
ENDBRANCH   3   4
ENDBRANCH   2   3
ENDBRANCH   1   2
BRANCH   1  32
ATOM     32  C   UNL A   1      32.530  26.880  25.584  1.00  0.00     0.188 C 
BRANCH  32  33
ATOM     33  O   UNL A   1      33.770  26.235  25.352  1.00  0.00    -0.377 OA
BRANCH  33  34
ATOM     34  C   UNL A   1      33.791  24.819  25.205  1.00  0.00     0.188 C 
BRANCH  34  35
ATOM     35  C   UNL A   1      34.653  24.102  24.133  1.00  0.00     0.188 C 
BRANCH  35  36
ATOM     36  O   UNL A   1      35.489  23.064  24.615  1.00  0.00    -0.376 OA
BRANCH  36  37
ATOM     37  C   UNL A   1      36.567  23.373  25.476  1.00  0.00     0.202 C 
BRANCH  37  38
ATOM     38  C   UNL A   1      37.652  22.305  25.658  1.00  0.00     0.261 C 
BRANCH  38  39
ATOM     39  O   UNL A   1      38.839  22.730  26.336  1.00  0.00    -0.460 OA
BRANCH  39  40
ATOM     40  C   UNL A   1      39.804  21.803  26.517  1.00  0.00     0.338 C 
ATOM     41  O   UNL A   1      39.775  20.632  26.190  1.00  0.00    -0.246 OA
BRANCH  40  42
ATOM     42  C   UNL A   1      40.998  22.513  27.018  1.00  0.00     0.060 A 
ATOM     43  C   UNL A   1      40.895  23.877  27.321  1.00  0.00     0.016 A 
ATOM     44  C   UNL A   1      42.191  21.819  27.244  1.00  0.00     0.016 A 
ATOM     45  C   UNL A   1      41.997  24.559  27.829  1.00  0.00     0.010 A 
ATOM     46  C   UNL A   1      43.304  22.511  27.720  1.00  0.00     0.010 A 
ATOM     47  C   UNL A   1      43.218  23.890  27.981  1.00  0.00    -0.014 A 
BRANCH  47  48
ATOM     48  C   UNL A   1      44.451  24.681  28.180  1.00  0.00     0.031 A 
ATOM     49  C   UNL A   1      44.899  24.934  29.592  1.00  0.00     0.074 A 
ATOM     50  C   UNL A   1      45.168  25.143  27.143  1.00  0.00     0.049 A 
ATOM     51  N   UNL A   1      45.936  25.598  30.030  1.00  0.00    -0.248 NA
ATOM     52  C   UNL A   1      44.057  24.358  30.654  1.00  0.00     0.031 C 
ATOM     53  C   UNL A   1      44.855  24.929  25.733  1.00  0.00     0.029 A 
ATOM     54  N   UNL A   1      46.314  25.897  27.128  1.00  0.00    -0.354 N 
ATOM     55  C   UNL A   1      45.865  25.528  31.414  1.00  0.00     0.074 A 
ATOM     56  C   UNL A   1      44.672  24.784  31.746  1.00  0.00     0.031 C 
ATOM     57  C   UNL A   1      45.783  25.552  24.984  1.00  0.00     0.029 A 
ATOM     58  C   UNL A   1      46.734  26.230  25.865  1.00  0.00     0.049 A 
ATOM     59  H   UNL A   1      46.788  26.173  27.945  1.00  0.00     0.167 HD
ATOM     60  C   UNL A   1      46.720  26.039  32.331  1.00  0.00     0.031 A 
ATOM     61  C   UNL A   1      47.756  27.013  25.470  1.00  0.00     0.031 A 
ATOM     62  C   UNL A   1      47.890  26.804  31.998  1.00  0.00     0.049 A 
ATOM     63  C   UNL A   1      48.654  27.633  26.509  1.00  0.00     0.074 A 
ATOM     64  C   UNL A   1      48.835  27.346  32.849  1.00  0.00     0.029 A 
ATOM     65  N   UNL A   1      48.263  27.151  30.708  1.00  0.00    -0.354 N 
ATOM     66  N   UNL A   1      48.609  27.524  27.816  1.00  0.00    -0.248 NA
ATOM     67  C   UNL A   1      49.753  28.477  26.016  1.00  0.00     0.031 C 
ATOM     68  C   UNL A   1      49.742  28.083  32.079  1.00  0.00     0.029 A 
ATOM     69  C   UNL A   1      49.403  27.935  30.743  1.00  0.00     0.049 A 
ATOM     70  H   UNL A   1      47.788  26.879  29.890  1.00  0.00     0.167 HD
ATOM     71  C   UNL A   1      49.684  28.261  28.299  1.00  0.00     0.074 A 
ATOM     72  C   UNL A   1      50.372  28.799  27.142  1.00  0.00     0.031 C 
ATOM     73  C   UNL A   1      50.069  28.472  29.583  1.00  0.00     0.031 A 
BRANCH  60  74
ATOM     74  C   UNL A   1      46.374  25.831  33.779  1.00  0.00    -0.014 A 
ATOM     75  C   UNL A   1      45.582  26.749  34.488  1.00  0.00     0.009 A 
ATOM     76  C   UNL A   1      46.856  24.694  34.447  1.00  0.00     0.009 A 
ATOM     77  C   UNL A   1      45.319  26.555  35.846  1.00  0.00     0.001 A 
ATOM     78  C   UNL A   1      46.564  24.486  35.795  1.00  0.00     0.001 A 
ATOM     79  C   UNL A   1      45.806  25.423  36.497  1.00  0.00     0.000 A 
ENDBRANCH  60  74
BRANCH  61  80
ATOM     80  C   UNL A   1      47.972  27.272  24.023  1.00  0.00    -0.014 A 
ATOM     81  C   UNL A   1      47.181  28.200  23.330  1.00  0.00     0.009 A 
ATOM     82  C   UNL A   1      48.980  26.587  23.325  1.00  0.00     0.009 A 
ATOM     83  C   UNL A   1      47.383  28.422  21.964  1.00  0.00     0.001 A 
ATOM     84  C   UNL A   1      49.199  26.833  21.969  1.00  0.00     0.001 A 
ATOM     85  C   UNL A   1      48.395  27.745  21.287  1.00  0.00     0.000 A 
ENDBRANCH  61  80
BRANCH  73  86
ATOM     86  C   UNL A   1      51.310  29.294  29.805  1.00  0.00    -0.014 A 
ATOM     87  C   UNL A   1      52.588  28.779  29.542  1.00  0.00     0.009 A 
ATOM     88  C   UNL A   1      51.191  30.624  30.243  1.00  0.00     0.009 A 
ATOM     89  C   UNL A   1      53.724  29.567  29.751  1.00  0.00     0.001 A 
ATOM     90  C   UNL A   1      52.325  31.418  30.418  1.00  0.00     0.001 A 
ATOM     91  C   UNL A   1      53.590  30.886  30.182  1.00  0.00     0.000 A 
ENDBRANCH  73  86
ENDBRANCH  47  48
ENDBRANCH  40  42
ENDBRANCH  39  40
ENDBRANCH  38  39
ENDBRANCH  37  38
ENDBRANCH  36  37
ENDBRANCH  35  36
ENDBRANCH  34  35
ENDBRANCH  33  34
ENDBRANCH  32  33
ENDBRANCH   1  32
TORSDOF 25
ENDMDL
