MODEL 1
REMARK VINA RESULT:     -10.3      0.000      0.000
REMARK SMILES O=C(OCCOCCOCCOCCOC(=O)[C@@H]1[C@@H](C(=O)Nc2ccc(F)c(F)c2)[C@H]2CC[C@@H]1O2)c1ccc(-c2c3nc(c(-c4ccccc4)c4ccc([nH]4)c(-c4ccccc4)c4nc(c(-c5ccccc5)c5ccc2[nH]5)C=C4)C=C3)cc1
REMARK SMILES IDX 9 1 8 2 7 3 6 4 5 5 4 6 3 7 2 8 1 9 36 10 37 11 83 12 38 13
REMARK SMILES IDX 82 14 39 15 40 16 41 17 76 18 42 19 81 20 75 21 77 22 43 23
REMARK SMILES IDX 80 24 74 25 73 26 44 28 66 29 51 30 65 31 52 32 55 33 64 34
REMARK SMILES IDX 78 35 53 36 54 37 63 39 79 40 56 41 45 42 46 43 50 44 47 45
REMARK SMILES IDX 49 46 48 47 67 48 68 49 72 50 69 51 71 52 70 53 57 54 58 55
REMARK SMILES IDX 62 56 59 57 61 58 60 59 10 60 11 61 12 62 13 63 14 64 15 65
REMARK SMILES IDX 16 66 17 67 18 68 19 69 34 70 31 71 33 72 35 73 32 74 20 75
REMARK SMILES IDX 21 76 22 77 23 79 24 80 30 81 25 82 28 83 26 84 29 85 27 86
REMARK H PARENT 77 27 55 38 22 78
REMARK Flexibility Score: inf
ROOT
ATOM      1  O   UNL A   1      32.954  27.738  23.409  1.00  0.00    -0.377 OA
ENDROOT
BRANCH   1   2
ATOM      2  C   UNL A   1      32.478  29.014  23.843  1.00  0.00     0.188 C 
BRANCH   2   3
ATOM      3  C   UNL A   1      31.393  29.005  24.931  1.00  0.00     0.188 C 
BRANCH   3   4
ATOM      4  O   UNL A   1      31.057  30.318  25.382  1.00  0.00    -0.376 OA
BRANCH   4   5
ATOM      5  C   UNL A   1      31.893  30.960  26.345  1.00  0.00     0.202 C 
BRANCH   5   6
ATOM      6  C   UNL A   1      31.381  32.279  26.909  1.00  0.00     0.261 C 
BRANCH   6   7
ATOM      7  O   UNL A   1      32.363  33.321  26.993  1.00  0.00    -0.460 OA
BRANCH   7   8
ATOM      8  C   UNL A   1      33.176  33.675  28.012  1.00  0.00     0.338 C 
ATOM      9  O   UNL A   1      32.872  34.663  28.681  1.00  0.00    -0.246 OA
BRANCH   8  10
ATOM     10  C   UNL A   1      34.415  32.943  28.402  1.00  0.00     0.060 A 
ATOM     11  C   UNL A   1      34.515  31.574  28.627  1.00  0.00     0.016 A 
ATOM     12  C   UNL A   1      35.597  33.698  28.455  1.00  0.00     0.016 A 
ATOM     13  C   UNL A   1      35.701  30.966  28.976  1.00  0.00     0.010 A 
ATOM     14  C   UNL A   1      36.813  33.099  28.784  1.00  0.00     0.010 A 
ATOM     15  C   UNL A   1      36.848  31.733  29.081  1.00  0.00    -0.014 A 
BRANCH  15  16
ATOM     16  C   UNL A   1      37.984  31.105  29.755  1.00  0.00     0.031 A 
ATOM     17  C   UNL A   1      38.131  31.378  31.218  1.00  0.00     0.074 A 
ATOM     18  C   UNL A   1      38.712  30.176  29.115  1.00  0.00     0.049 A 
ATOM     19  N   UNL A   1      39.085  31.032  32.032  1.00  0.00    -0.248 NA
ATOM     20  C   UNL A   1      37.038  32.141  31.854  1.00  0.00     0.031 C 
ATOM     21  C   UNL A   1      38.473  29.705  27.746  1.00  0.00     0.029 A 
ATOM     22  N   UNL A   1      39.775  29.436  29.543  1.00  0.00    -0.354 N 
ATOM     23  C   UNL A   1      38.739  31.585  33.258  1.00  0.00     0.074 A 
ATOM     24  C   UNL A   1      37.487  32.280  33.089  1.00  0.00     0.031 C 
ATOM     25  C   UNL A   1      39.366  28.748  27.452  1.00  0.00     0.029 A 
ATOM     26  C   UNL A   1      40.286  28.611  28.574  1.00  0.00     0.049 A 
ATOM     27  H   UNL A   1      40.138  29.489  30.457  1.00  0.00     0.167 HD
ATOM     28  C   UNL A   1      39.435  31.526  34.413  1.00  0.00     0.031 A 
ATOM     29  C   UNL A   1      41.413  27.880  28.592  1.00  0.00     0.031 A 
ATOM     30  C   UNL A   1      40.684  30.826  34.517  1.00  0.00     0.049 A 
ATOM     31  C   UNL A   1      42.248  27.942  29.841  1.00  0.00     0.074 A 
ATOM     32  C   UNL A   1      41.551  30.745  35.587  1.00  0.00     0.029 A 
ATOM     33  N   UNL A   1      41.240  30.080  33.483  1.00  0.00    -0.354 N 
ATOM     34  N   UNL A   1      41.992  28.559  30.973  1.00  0.00    -0.248 NA
ATOM     35  C   UNL A   1      43.527  27.227  29.816  1.00  0.00     0.031 C 
ATOM     36  C   UNL A   1      42.660  29.997  35.179  1.00  0.00     0.029 A 
ATOM     37  C   UNL A   1      42.450  29.550  33.880  1.00  0.00     0.049 A 
ATOM     38  H   UNL A   1      40.829  29.948  32.599  1.00  0.00     0.167 HD
ATOM     39  C   UNL A   1      43.067  28.290  31.806  1.00  0.00     0.074 A 
ATOM     40  C   UNL A   1      43.968  27.438  31.049  1.00  0.00     0.031 C 
ATOM     41  C   UNL A   1      43.299  28.703  33.078  1.00  0.00     0.031 A 
BRANCH  28  42
ATOM     42  C   UNL A   1      38.908  32.333  35.564  1.00  0.00    -0.014 A 
ATOM     43  C   UNL A   1      39.266  33.677  35.762  1.00  0.00     0.009 A 
ATOM     44  C   UNL A   1      38.096  31.702  36.521  1.00  0.00     0.009 A 
ATOM     45  C   UNL A   1      38.863  34.354  36.917  1.00  0.00     0.001 A 
ATOM     46  C   UNL A   1      37.668  32.389  37.657  1.00  0.00     0.001 A 
ATOM     47  C   UNL A   1      38.064  33.710  37.862  1.00  0.00     0.000 A 
ENDBRANCH  28  42
BRANCH  29  48
ATOM     48  C   UNL A   1      41.844  27.127  27.384  1.00  0.00    -0.014 A 
ATOM     49  C   UNL A   1      42.616  27.741  26.386  1.00  0.00     0.009 A 
ATOM     50  C   UNL A   1      41.485  25.778  27.222  1.00  0.00     0.009 A 
ATOM     51  C   UNL A   1      42.997  27.026  25.246  1.00  0.00     0.001 A 
ATOM     52  C   UNL A   1      41.894  25.058  26.097  1.00  0.00     0.001 A 
ATOM     53  C   UNL A   1      42.641  25.685  25.104  1.00  0.00     0.000 A 
ENDBRANCH  29  48
BRANCH  41  54
ATOM     54  C   UNL A   1      44.546  28.189  33.733  1.00  0.00    -0.014 A 
ATOM     55  C   UNL A   1      44.589  26.921  34.330  1.00  0.00     0.009 A 
ATOM     56  C   UNL A   1      45.711  28.970  33.687  1.00  0.00     0.009 A 
ATOM     57  C   UNL A   1      45.776  26.458  34.898  1.00  0.00     0.001 A 
ATOM     58  C   UNL A   1      46.902  28.489  34.223  1.00  0.00     0.001 A 
ATOM     59  C   UNL A   1      46.931  27.238  34.836  1.00  0.00     0.000 A 
ENDBRANCH  41  54
ENDBRANCH  15  16
ENDBRANCH   8  10
ENDBRANCH   7   8
ENDBRANCH   6   7
ENDBRANCH   5   6
ENDBRANCH   4   5
ENDBRANCH   3   4
ENDBRANCH   2   3
ENDBRANCH   1   2
BRANCH   1  60
ATOM     60  C   UNL A   1      32.206  27.154  22.354  1.00  0.00     0.188 C 
BRANCH  60  61
ATOM     61  C   UNL A   1      32.405  25.644  22.086  1.00  0.00     0.188 C 
BRANCH  61  62
ATOM     62  O   UNL A   1      31.550  24.789  22.827  1.00  0.00    -0.376 OA
BRANCH  62  63
ATOM     63  C   UNL A   1      30.570  25.341  23.698  1.00  0.00     0.202 C 
BRANCH  63  64
ATOM     64  C   UNL A   1      30.450  24.937  25.186  1.00  0.00     0.261 C 
BRANCH  64  65
ATOM     65  O   UNL A   1      30.634  23.547  25.477  1.00  0.00    -0.463 OA
BRANCH  65  66
ATOM     66  C   UNL A   1      31.442  23.208  26.514  1.00  0.00     0.312 C 
ATOM     67  O   UNL A   1      31.049  22.976  27.656  1.00  0.00    -0.252 OA
BRANCH  66  68
ATOM     68  C   UNL A   1      32.833  22.934  25.983  1.00  0.00     0.143 C 
ATOM     69  C   UNL A   1      33.052  21.447  25.659  1.00  0.00     0.124 C 
ATOM     70  C   UNL A   1      33.951  23.256  26.952  1.00  0.00     0.133 C 
ATOM     71  C   UNL A   1      34.306  21.159  26.504  1.00  0.00     0.132 C 
ATOM     72  C   UNL A   1      35.278  23.302  26.173  1.00  0.00     0.036 C 
ATOM     73  O   UNL A   1      34.069  22.005  27.662  1.00  0.00    -0.373 OA
ATOM     74  C   UNL A   1      35.585  21.815  25.985  1.00  0.00     0.035 C 
BRANCH  69  75
ATOM     75  C   UNL A   1      33.295  21.127  24.185  1.00  0.00     0.231 C 
ATOM     76  O   UNL A   1      33.135  21.964  23.295  1.00  0.00    -0.274 OA
ATOM     77  N   UNL A   1      33.859  19.925  23.851  1.00  0.00    -0.326 N 
ATOM     78  H   UNL A   1      34.497  19.952  23.101  1.00  0.00     0.169 HD
BRANCH  77  79
ATOM     79  C   UNL A   1      33.656  18.661  24.425  1.00  0.00     0.044 A 
ATOM     80  C   UNL A   1      32.392  18.229  24.846  1.00  0.00     0.029 A 
ATOM     81  C   UNL A   1      34.733  17.776  24.476  1.00  0.00     0.068 A 
ATOM     82  C   UNL A   1      32.210  16.939  25.350  1.00  0.00     0.044 A 
ATOM     83  C   UNL A   1      34.554  16.506  25.020  1.00  0.00     0.160 A 
ATOM     84  C   UNL A   1      33.301  16.089  25.453  1.00  0.00     0.158 A 
ATOM     85  F   UNL A   1      35.608  15.685  25.124  1.00  0.00    -0.204 F 
ATOM     86  F   UNL A   1      33.133  14.862  25.965  1.00  0.00    -0.204 F 
ENDBRANCH  77  79
ENDBRANCH  69  75
ENDBRANCH  66  68
ENDBRANCH  65  66
ENDBRANCH  64  65
ENDBRANCH  63  64
ENDBRANCH  62  63
ENDBRANCH  61  62
ENDBRANCH  60  61
ENDBRANCH   1  60
TORSDOF 22
ENDMDL
MODEL 2
REMARK VINA RESULT:     -10.2      1.117      5.751
REMARK SMILES O=C(OCCOCCOCCOCCOC(=O)[C@@H]1[C@@H](C(=O)Nc2ccc(F)c(F)c2)[C@H]2CC[C@@H]1O2)c1ccc(-c2c3nc(c(-c4ccccc4)c4ccc([nH]4)c(-c4ccccc4)c4nc(c(-c5ccccc5)c5ccc2[nH]5)C=C4)C=C3)cc1
REMARK SMILES IDX 9 1 8 2 7 3 6 4 5 5 4 6 3 7 2 8 1 9 36 10 37 11 83 12 38 13
REMARK SMILES IDX 82 14 39 15 40 16 41 17 76 18 42 19 81 20 75 21 77 22 43 23
REMARK SMILES IDX 80 24 74 25 73 26 44 28 66 29 51 30 65 31 52 32 55 33 64 34
REMARK SMILES IDX 78 35 53 36 54 37 63 39 79 40 56 41 45 42 46 43 50 44 47 45
REMARK SMILES IDX 49 46 48 47 67 48 68 49 72 50 69 51 71 52 70 53 57 54 58 55
REMARK SMILES IDX 62 56 59 57 61 58 60 59 10 60 11 61 12 62 13 63 14 64 15 65
REMARK SMILES IDX 16 66 17 67 18 68 19 69 34 70 31 71 33 72 35 73 32 74 20 75
REMARK SMILES IDX 21 76 22 77 23 79 24 80 30 81 25 82 28 83 26 84 29 85 27 86
REMARK H PARENT 77 27 55 38 22 78
REMARK Flexibility Score: inf
ROOT
ATOM      1  O   UNL A   1      31.684  28.200  23.441  1.00  0.00    -0.377 OA
ENDROOT
BRANCH   1   2
ATOM      2  C   UNL A   1      31.276  29.060  24.506  1.00  0.00     0.188 C 
BRANCH   2   3
ATOM      3  C   UNL A   1      31.907  28.793  25.881  1.00  0.00     0.188 C 
BRANCH   3   4
ATOM      4  O   UNL A   1      31.634  29.832  26.822  1.00  0.00    -0.376 OA
BRANCH   4   5
ATOM      5  C   UNL A   1      32.340  31.069  26.719  1.00  0.00     0.202 C 
BRANCH   5   6
ATOM      6  C   UNL A   1      31.520  32.333  26.942  1.00  0.00     0.261 C 
BRANCH   6   7
ATOM      7  O   UNL A   1      32.290  33.532  27.103  1.00  0.00    -0.460 OA
BRANCH   7   8
ATOM      8  C   UNL A   1      33.025  33.965  28.150  1.00  0.00     0.338 C 
ATOM      9  O   UNL A   1      32.639  34.964  28.757  1.00  0.00    -0.246 OA
BRANCH   8  10
ATOM     10  C   UNL A   1      34.269  33.307  28.642  1.00  0.00     0.060 A 
ATOM     11  C   UNL A   1      34.330  32.141  29.399  1.00  0.00     0.016 A 
ATOM     12  C   UNL A   1      35.483  33.872  28.221  1.00  0.00     0.016 A 
ATOM     13  C   UNL A   1      35.522  31.586  29.809  1.00  0.00     0.010 A 
ATOM     14  C   UNL A   1      36.703  33.313  28.606  1.00  0.00     0.010 A 
ATOM     15  C   UNL A   1      36.711  32.187  29.435  1.00  0.00    -0.014 A 
BRANCH  15  16
ATOM     16  C   UNL A   1      37.908  31.750  30.153  1.00  0.00     0.031 A 
ATOM     17  C   UNL A   1      38.712  30.662  29.516  1.00  0.00     0.074 A 
ATOM     18  C   UNL A   1      38.346  32.448  31.213  1.00  0.00     0.049 A 
ATOM     19  N   UNL A   1      39.752  30.027  29.972  1.00  0.00    -0.248 NA
ATOM     20  C   UNL A   1      38.288  30.240  28.166  1.00  0.00     0.031 C 
ATOM     21  C   UNL A   1      37.717  33.661  31.749  1.00  0.00     0.029 A 
ATOM     22  N   UNL A   1      39.441  32.261  32.004  1.00  0.00    -0.354 N 
ATOM     23  C   UNL A   1      40.067  29.091  28.995  1.00  0.00     0.074 A 
ATOM     24  C   UNL A   1      39.121  29.244  27.918  1.00  0.00     0.031 C 
ATOM     25  C   UNL A   1      38.447  34.110  32.782  1.00  0.00     0.029 A 
ATOM     26  C   UNL A   1      39.531  33.168  33.029  1.00  0.00     0.049 A 
ATOM     27  H   UNL A   1      40.101  31.546  31.854  1.00  0.00     0.167 HD
ATOM     28  C   UNL A   1      41.056  28.172  29.024  1.00  0.00     0.031 A 
ATOM     29  C   UNL A   1      40.369  33.180  34.079  1.00  0.00     0.031 A 
ATOM     30  C   UNL A   1      41.962  28.061  30.132  1.00  0.00     0.049 A 
ATOM     31  C   UNL A   1      41.373  32.063  34.164  1.00  0.00     0.074 A 
ATOM     32  C   UNL A   1      42.958  27.133  30.352  1.00  0.00     0.029 A 
ATOM     33  N   UNL A   1      41.967  28.931  31.217  1.00  0.00    -0.354 N 
ATOM     34  N   UNL A   1      41.606  31.098  33.304  1.00  0.00    -0.248 NA
ATOM     35  C   UNL A   1      42.214  32.023  35.364  1.00  0.00     0.031 C 
ATOM     36  C   UNL A   1      43.526  27.407  31.601  1.00  0.00     0.029 A 
ATOM     37  C   UNL A   1      42.933  28.551  32.124  1.00  0.00     0.049 A 
ATOM     38  H   UNL A   1      41.368  29.705  31.322  1.00  0.00     0.167 HD
ATOM     39  C   UNL A   1      42.637  30.346  33.845  1.00  0.00     0.074 A 
ATOM     40  C   UNL A   1      42.992  30.982  35.102  1.00  0.00     0.031 C 
ATOM     41  C   UNL A   1      43.242  29.232  33.358  1.00  0.00     0.031 A 
BRANCH  28  42
ATOM     42  C   UNL A   1      41.094  27.181  27.898  1.00  0.00    -0.014 A 
ATOM     43  C   UNL A   1      40.619  25.867  28.041  1.00  0.00     0.009 A 
ATOM     44  C   UNL A   1      41.697  27.554  26.685  1.00  0.00     0.009 A 
ATOM     45  C   UNL A   1      40.795  24.935  27.013  1.00  0.00     0.001 A 
ATOM     46  C   UNL A   1      41.842  26.631  25.649  1.00  0.00     0.001 A 
ATOM     47  C   UNL A   1      41.404  25.318  25.819  1.00  0.00     0.000 A 
ENDBRANCH  28  42
BRANCH  29  48
ATOM     48  C   UNL A   1      40.230  34.208  35.145  1.00  0.00    -0.014 A 
ATOM     49  C   UNL A   1      40.790  35.485  34.998  1.00  0.00     0.009 A 
ATOM     50  C   UNL A   1      39.527  33.914  36.326  1.00  0.00     0.009 A 
ATOM     51  C   UNL A   1      40.668  36.434  36.018  1.00  0.00     0.001 A 
ATOM     52  C   UNL A   1      39.379  34.874  37.330  1.00  0.00     0.001 A 
ATOM     53  C   UNL A   1      39.959  36.130  37.179  1.00  0.00     0.000 A 
ENDBRANCH  29  48
BRANCH  41  54
ATOM     54  C   UNL A   1      44.377  28.678  34.166  1.00  0.00    -0.014 A 
ATOM     55  C   UNL A   1      44.179  27.646  35.093  1.00  0.00     0.009 A 
ATOM     56  C   UNL A   1      45.675  29.162  33.938  1.00  0.00     0.009 A 
ATOM     57  C   UNL A   1      45.262  27.127  35.803  1.00  0.00     0.001 A 
ATOM     58  C   UNL A   1      46.758  28.616  34.622  1.00  0.00     0.001 A 
ATOM     59  C   UNL A   1      46.550  27.607  35.560  1.00  0.00     0.000 A 
ENDBRANCH  41  54
ENDBRANCH  15  16
ENDBRANCH   8  10
ENDBRANCH   7   8
ENDBRANCH   6   7
ENDBRANCH   5   6
ENDBRANCH   4   5
ENDBRANCH   3   4
ENDBRANCH   2   3
ENDBRANCH   1   2
BRANCH   1  60
ATOM     60  C   UNL A   1      30.691  27.282  23.009  1.00  0.00     0.188 C 
BRANCH  60  61
ATOM     61  C   UNL A   1      31.088  25.789  22.916  1.00  0.00     0.188 C 
BRANCH  61  62
ATOM     62  O   UNL A   1      31.686  25.258  24.086  1.00  0.00    -0.376 OA
BRANCH  62  63
ATOM     63  C   UNL A   1      30.914  25.092  25.270  1.00  0.00     0.202 C 
BRANCH  63  64
ATOM     64  C   UNL A   1      31.553  24.903  26.666  1.00  0.00     0.261 C 
BRANCH  64  65
ATOM     65  O   UNL A   1      31.404  23.607  27.255  1.00  0.00    -0.463 OA
BRANCH  65  66
ATOM     66  C   UNL A   1      32.519  22.859  27.457  1.00  0.00     0.312 C 
ATOM     67  O   UNL A   1      32.746  22.209  28.476  1.00  0.00    -0.252 OA
BRANCH  66  68
ATOM     68  C   UNL A   1      33.291  22.769  26.157  1.00  0.00     0.143 C 
ATOM     69  C   UNL A   1      33.401  21.325  25.642  1.00  0.00     0.124 C 
ATOM     70  C   UNL A   1      34.732  23.225  26.251  1.00  0.00     0.133 C 
ATOM     71  C   UNL A   1      34.928  21.194  25.501  1.00  0.00     0.132 C 
ATOM     72  C   UNL A   1      35.270  23.447  24.825  1.00  0.00     0.036 C 
ATOM     73  O   UNL A   1      35.386  21.995  26.625  1.00  0.00    -0.373 OA
ATOM     74  C   UNL A   1      35.533  22.013  24.361  1.00  0.00     0.035 C 
BRANCH  69  75
ATOM     75  C   UNL A   1      32.699  21.050  24.313  1.00  0.00     0.231 C 
ATOM     76  O   UNL A   1      31.963  21.877  23.774  1.00  0.00    -0.274 OA
ATOM     77  N   UNL A   1      33.018  19.914  23.617  1.00  0.00    -0.326 N 
ATOM     78  H   UNL A   1      33.050  20.014  22.638  1.00  0.00     0.169 HD
BRANCH  77  79
ATOM     79  C   UNL A   1      33.305  18.629  24.101  1.00  0.00     0.044 A 
ATOM     80  C   UNL A   1      34.587  18.072  24.019  1.00  0.00     0.029 A 
ATOM     81  C   UNL A   1      32.300  17.937  24.778  1.00  0.00     0.068 A 
ATOM     82  C   UNL A   1      34.858  16.819  24.571  1.00  0.00     0.044 A 
ATOM     83  C   UNL A   1      32.566  16.667  25.288  1.00  0.00     0.160 A 
ATOM     84  C   UNL A   1      33.835  16.112  25.188  1.00  0.00     0.158 A 
ATOM     85  F   UNL A   1      31.578  15.982  25.881  1.00  0.00    -0.204 F 
ATOM     86  F   UNL A   1      34.087  14.896  25.692  1.00  0.00    -0.204 F 
ENDBRANCH  77  79
ENDBRANCH  69  75
ENDBRANCH  66  68
ENDBRANCH  65  66
ENDBRANCH  64  65
ENDBRANCH  63  64
ENDBRANCH  62  63
ENDBRANCH  61  62
ENDBRANCH  60  61
ENDBRANCH   1  60
TORSDOF 22
ENDMDL
MODEL 3
REMARK VINA RESULT:     -10.1      4.175      7.938
REMARK SMILES O=C(OCCOCCOCCOCCOC(=O)[C@@H]1[C@@H](C(=O)Nc2ccc(F)c(F)c2)[C@H]2CC[C@@H]1O2)c1ccc(-c2c3nc(c(-c4ccccc4)c4ccc([nH]4)c(-c4ccccc4)c4nc(c(-c5ccccc5)c5ccc2[nH]5)C=C4)C=C3)cc1
REMARK SMILES IDX 9 1 8 2 7 3 6 4 5 5 4 6 3 7 2 8 1 9 36 10 37 11 83 12 38 13
REMARK SMILES IDX 82 14 39 15 40 16 41 17 76 18 42 19 81 20 75 21 77 22 43 23
REMARK SMILES IDX 80 24 74 25 73 26 44 28 66 29 51 30 65 31 52 32 55 33 64 34
REMARK SMILES IDX 78 35 53 36 54 37 63 39 79 40 56 41 45 42 46 43 50 44 47 45
REMARK SMILES IDX 49 46 48 47 67 48 68 49 72 50 69 51 71 52 70 53 57 54 58 55
REMARK SMILES IDX 62 56 59 57 61 58 60 59 10 60 11 61 12 62 13 63 14 64 15 65
REMARK SMILES IDX 16 66 17 67 18 68 19 69 34 70 31 71 33 72 35 73 32 74 20 75
REMARK SMILES IDX 21 76 22 77 23 79 24 80 30 81 25 82 28 83 26 84 29 85 27 86
REMARK H PARENT 77 27 55 38 22 78
REMARK Flexibility Score: inf
ROOT
ATOM      1  O   UNL A   1      35.223  30.164  28.208  1.00  0.00    -0.377 OA
ENDROOT
BRANCH   1   2
ATOM      2  C   UNL A   1      34.770  31.492  27.939  1.00  0.00     0.188 C 
BRANCH   2   3
ATOM      3  C   UNL A   1      34.315  32.318  29.152  1.00  0.00     0.188 C 
BRANCH   3   4
ATOM      4  O   UNL A   1      35.245  33.347  29.495  1.00  0.00    -0.376 OA
BRANCH   4   5
ATOM      5  C   UNL A   1      35.194  33.926  30.799  1.00  0.00     0.202 C 
BRANCH   5   6
ATOM      6  C   UNL A   1      35.642  33.036  31.950  1.00  0.00     0.261 C 
BRANCH   6   7
ATOM      7  O   UNL A   1      36.834  32.279  31.701  1.00  0.00    -0.460 OA
BRANCH   7   8
ATOM      8  C   UNL A   1      37.010  30.949  31.545  1.00  0.00     0.338 C 
ATOM      9  O   UNL A   1      36.094  30.199  31.883  1.00  0.00    -0.246 OA
BRANCH   8  10
ATOM     10  C   UNL A   1      38.232  30.317  30.971  1.00  0.00     0.060 A 
ATOM     11  C   UNL A   1      39.197  29.614  31.685  1.00  0.00     0.016 A 
ATOM     12  C   UNL A   1      38.362  30.363  29.574  1.00  0.00     0.016 A 
ATOM     13  C   UNL A   1      40.298  29.047  31.081  1.00  0.00     0.010 A 
ATOM     14  C   UNL A   1      39.457  29.776  28.939  1.00  0.00     0.010 A 
ATOM     15  C   UNL A   1      40.443  29.151  29.709  1.00  0.00    -0.014 A 
BRANCH  15  16
ATOM     16  C   UNL A   1      41.764  28.820  29.173  1.00  0.00     0.031 A 
ATOM     17  C   UNL A   1      41.937  27.443  28.618  1.00  0.00     0.074 A 
ATOM     18  C   UNL A   1      42.683  29.786  29.014  1.00  0.00     0.049 A 
ATOM     19  N   UNL A   1      43.011  26.859  28.172  1.00  0.00    -0.248 NA
ATOM     20  C   UNL A   1      40.720  26.610  28.544  1.00  0.00     0.031 C 
ATOM     21  C   UNL A   1      42.489  31.204  29.336  1.00  0.00     0.029 A 
ATOM     22  N   UNL A   1      43.948  29.727  28.507  1.00  0.00    -0.354 N 
ATOM     23  C   UNL A   1      42.613  25.575  27.824  1.00  0.00     0.074 A 
ATOM     24  C   UNL A   1      41.201  25.463  28.098  1.00  0.00     0.031 C 
ATOM     25  C   UNL A   1      43.602  31.881  29.011  1.00  0.00     0.029 A 
ATOM     26  C   UNL A   1      44.605  30.931  28.548  1.00  0.00     0.049 A 
ATOM     27  H   UNL A   1      44.350  28.903  28.147  1.00  0.00     0.167 HD
ATOM     28  C   UNL A   1      43.382  24.577  27.339  1.00  0.00     0.031 A 
ATOM     29  C   UNL A   1      45.896  31.201  28.294  1.00  0.00     0.031 A 
ATOM     30  C   UNL A   1      44.787  24.747  27.097  1.00  0.00     0.049 A 
ATOM     31  C   UNL A   1      46.769  30.044  27.891  1.00  0.00     0.074 A 
ATOM     32  C   UNL A   1      45.719  23.814  26.691  1.00  0.00     0.029 A 
ATOM     33  N   UNL A   1      45.457  25.956  27.249  1.00  0.00    -0.354 N 
ATOM     34  N   UNL A   1      46.430  28.794  27.672  1.00  0.00    -0.248 NA
ATOM     35  C   UNL A   1      48.197  30.325  27.718  1.00  0.00     0.031 C 
ATOM     36  C   UNL A   1      46.966  24.448  26.655  1.00  0.00     0.029 A 
ATOM     37  C   UNL A   1      46.797  25.792  26.966  1.00  0.00     0.049 A 
ATOM     38  H   UNL A   1      45.037  26.804  27.517  1.00  0.00     0.167 HD
ATOM     39  C   UNL A   1      47.598  28.140  27.311  1.00  0.00     0.074 A 
ATOM     40  C   UNL A   1      48.650  29.142  27.326  1.00  0.00     0.031 C 
ATOM     41  C   UNL A   1      47.795  26.834  26.994  1.00  0.00     0.031 A 
BRANCH  28  42
ATOM     42  C   UNL A   1      42.731  23.235  27.178  1.00  0.00    -0.014 A 
ATOM     43  C   UNL A   1      42.550  22.356  28.259  1.00  0.00     0.009 A 
ATOM     44  C   UNL A   1      42.362  22.809  25.892  1.00  0.00     0.009 A 
ATOM     45  C   UNL A   1      42.063  21.063  28.046  1.00  0.00     0.001 A 
ATOM     46  C   UNL A   1      41.846  21.529  25.686  1.00  0.00     0.001 A 
ATOM     47  C   UNL A   1      41.710  20.652  26.761  1.00  0.00     0.000 A 
ENDBRANCH  28  42
BRANCH  29  48
ATOM     48  C   UNL A   1      46.436  32.571  28.501  1.00  0.00    -0.014 A 
ATOM     49  C   UNL A   1      46.463  33.505  27.455  1.00  0.00     0.009 A 
ATOM     50  C   UNL A   1      46.931  32.956  29.759  1.00  0.00     0.009 A 
ATOM     51  C   UNL A   1      46.993  34.783  27.660  1.00  0.00     0.001 A 
ATOM     52  C   UNL A   1      47.430  34.243  29.969  1.00  0.00     0.001 A 
ATOM     53  C   UNL A   1      47.471  35.153  28.916  1.00  0.00     0.000 A 
ENDBRANCH  29  48
BRANCH  41  54
ATOM     54  C   UNL A   1      49.185  26.445  26.591  1.00  0.00    -0.014 A 
ATOM     55  C   UNL A   1      50.030  25.743  27.462  1.00  0.00     0.009 A 
ATOM     56  C   UNL A   1      49.623  26.734  25.289  1.00  0.00     0.009 A 
ATOM     57  C   UNL A   1      51.305  25.363  27.043  1.00  0.00     0.001 A 
ATOM     58  C   UNL A   1      50.882  26.321  24.862  1.00  0.00     0.001 A 
ATOM     59  C   UNL A   1      51.726  25.645  25.742  1.00  0.00     0.000 A 
ENDBRANCH  41  54
ENDBRANCH  15  16
ENDBRANCH   8  10
ENDBRANCH   7   8
ENDBRANCH   6   7
ENDBRANCH   5   6
ENDBRANCH   4   5
ENDBRANCH   3   4
ENDBRANCH   2   3
ENDBRANCH   1   2
BRANCH   1  60
ATOM     60  C   UNL A   1      34.752  29.182  27.297  1.00  0.00     0.188 C 
BRANCH  60  61
ATOM     61  C   UNL A   1      33.241  28.852  27.319  1.00  0.00     0.188 C 
BRANCH  61  62
ATOM     62  O   UNL A   1      32.524  29.271  26.169  1.00  0.00    -0.376 OA
BRANCH  62  63
ATOM     63  C   UNL A   1      33.221  29.604  24.975  1.00  0.00     0.202 C 
BRANCH  63  64
ATOM     64  C   UNL A   1      33.001  28.855  23.639  1.00  0.00     0.261 C 
BRANCH  64  65
ATOM     65  O   UNL A   1      33.880  27.756  23.382  1.00  0.00    -0.463 OA
BRANCH  65  66
ATOM     66  C   UNL A   1      33.451  26.766  22.558  1.00  0.00     0.312 C 
ATOM     67  O   UNL A   1      33.842  26.603  21.404  1.00  0.00    -0.252 OA
BRANCH  66  68
ATOM     68  C   UNL A   1      32.620  25.786  23.360  1.00  0.00     0.143 C 
ATOM     69  C   UNL A   1      33.486  24.753  24.098  1.00  0.00     0.124 C 
ATOM     70  C   UNL A   1      31.678  24.937  22.533  1.00  0.00     0.133 C 
ATOM     71  C   UNL A   1      32.867  23.444  23.573  1.00  0.00     0.132 C 
ATOM     72  C   UNL A   1      30.647  24.288  23.475  1.00  0.00     0.036 C 
ATOM     73  O   UNL A   1      32.529  23.818  22.209  1.00  0.00    -0.373 OA
ATOM     74  C   UNL A   1      31.462  23.152  24.097  1.00  0.00     0.035 C 
BRANCH  69  75
ATOM     75  C   UNL A   1      33.426  24.818  25.623  1.00  0.00     0.231 C 
ATOM     76  O   UNL A   1      32.750  25.656  26.220  1.00  0.00    -0.274 OA
ATOM     77  N   UNL A   1      34.013  23.819  26.353  1.00  0.00    -0.326 N 
ATOM     78  H   UNL A   1      33.527  23.549  27.166  1.00  0.00     0.169 HD
BRANCH  77  79
ATOM     79  C   UNL A   1      35.209  23.127  26.108  1.00  0.00     0.044 A 
ATOM     80  C   UNL A   1      35.224  21.777  25.736  1.00  0.00     0.029 A 
ATOM     81  C   UNL A   1      36.406  23.842  26.136  1.00  0.00     0.068 A 
ATOM     82  C   UNL A   1      36.425  21.134  25.431  1.00  0.00     0.044 A 
ATOM     83  C   UNL A   1      37.606  23.184  25.874  1.00  0.00     0.160 A 
ATOM     84  C   UNL A   1      37.616  21.839  25.522  1.00  0.00     0.158 A 
ATOM     85  F   UNL A   1      38.757  23.863  25.965  1.00  0.00    -0.204 F 
ATOM     86  F   UNL A   1      38.772  21.215  25.259  1.00  0.00    -0.204 F 
ENDBRANCH  77  79
ENDBRANCH  69  75
ENDBRANCH  66  68
ENDBRANCH  65  66
ENDBRANCH  64  65
ENDBRANCH  63  64
ENDBRANCH  62  63
ENDBRANCH  61  62
ENDBRANCH  60  61
ENDBRANCH   1  60
TORSDOF 22
ENDMDL
