MODEL 1
REMARK VINA RESULT:      -9.2      0.000      0.000
REMARK SMILES O=C(CCS(=O)(=O)Nc1ccc(-c2ccccc2)cc1)OCCOCCOCCOCCOC(=O)c1ccc(-c2c3nc(c(-c4ccccc4)c4ccc([nH]4)c(-c4ccccc4)c4nc(c(-c5ccccc5)c5ccc2[nH]5)C=C4)C=C3)cc1
REMARK SMILES IDX 25 1 24 2 23 3 22 4 21 5 2 6 1 7 3 8 4 9 5 10 6 11 7 12 8 13
REMARK SMILES IDX 9 15 10 16 20 17 11 18 19 19 12 20 13 21 14 22 18 23 15 24
REMARK SMILES IDX 17 25 16 26 26 27 27 28 28 29 29 30 30 31 31 32 32 33 33 34
REMARK SMILES IDX 34 35 35 36 36 37 37 38 83 39 38 40 82 41 39 42 40 43 41 44
REMARK SMILES IDX 76 45 42 46 81 47 75 48 77 49 43 50 80 51 74 52 73 53 44 55
REMARK SMILES IDX 66 56 51 57 65 58 52 59 55 60 64 61 78 62 53 63 54 64 63 66
REMARK SMILES IDX 79 67 56 68 45 69 46 70 50 71 47 72 49 73 48 74 67 75 68 76
REMARK SMILES IDX 72 77 69 78 71 79 70 80 57 81 58 82 62 83 59 84 61 85 60 86
REMARK H PARENT 8 14 77 54 55 65
REMARK Flexibility Score: inf
ROOT
ATOM      1  C   UNL A   1      34.301  29.929  27.089  1.00  0.00     0.188 C 
ENDROOT
BRANCH   1   2
ATOM      2  O   UNL A   1      33.006  30.325  26.635  1.00  0.00    -0.376 OA
BRANCH   2   3
ATOM      3  C   UNL A   1      31.895  29.443  26.616  1.00  0.00     0.202 C 
BRANCH   3   4
ATOM      4  C   UNL A   1      31.980  28.136  27.389  1.00  0.00     0.261 C 
BRANCH   4   5
ATOM      5  O   UNL A   1      30.974  27.165  27.079  1.00  0.00    -0.463 OA
BRANCH   5   6
ATOM      6  C   UNL A   1      31.078  26.203  26.148  1.00  0.00     0.306 C 
ATOM      7  O   UNL A   1      30.135  25.970  25.392  1.00  0.00    -0.252 OA
BRANCH   6   8
ATOM      8  C   UNL A   1      32.376  25.483  25.981  1.00  0.00     0.141 C 
BRANCH   8   9
ATOM      9  C   UNL A   1      32.309  24.313  25.030  1.00  0.00     0.171 C 
BRANCH   9  10
ATOM     10  S   UNL A   1      33.619  24.133  23.821  1.00  0.00     0.233 S 
ATOM     11  O   UNL A   1      34.845  23.945  24.574  1.00  0.00    -0.207 OA
ATOM     12  O   UNL A   1      33.205  23.113  22.883  1.00  0.00    -0.207 OA
BRANCH  10  13
ATOM     13  N   UNL A   1      33.887  25.514  22.949  1.00  0.00    -0.284 N 
ATOM     14  H   UNL A   1      34.801  25.605  22.593  1.00  0.00     0.180 HD
BRANCH  13  15
ATOM     15  C   UNL A   1      33.009  26.596  22.628  1.00  0.00     0.049 A 
ATOM     16  C   UNL A   1      33.229  27.829  23.264  1.00  0.00     0.027 A 
ATOM     17  C   UNL A   1      31.773  26.386  22.049  1.00  0.00     0.027 A 
ATOM     18  C   UNL A   1      32.204  28.792  23.368  1.00  0.00     0.011 A 
ATOM     19  C   UNL A   1      30.729  27.280  22.248  1.00  0.00     0.011 A 
ATOM     20  C   UNL A   1      30.923  28.500  22.897  1.00  0.00    -0.018 A 
BRANCH  20  21
ATOM     21  C   UNL A   1      29.774  29.404  22.932  1.00  0.00    -0.018 A 
ATOM     22  C   UNL A   1      28.497  28.836  22.786  1.00  0.00     0.009 A 
ATOM     23  C   UNL A   1      29.872  30.737  23.355  1.00  0.00     0.009 A 
ATOM     24  C   UNL A   1      27.349  29.553  23.111  1.00  0.00     0.001 A 
ATOM     25  C   UNL A   1      28.716  31.462  23.669  1.00  0.00     0.001 A 
ATOM     26  C   UNL A   1      27.460  30.864  23.563  1.00  0.00     0.000 A 
ENDBRANCH  20  21
ENDBRANCH  13  15
ENDBRANCH  10  13
ENDBRANCH   9  10
ENDBRANCH   8   9
ENDBRANCH   6   8
ENDBRANCH   5   6
ENDBRANCH   4   5
ENDBRANCH   3   4
ENDBRANCH   2   3
ENDBRANCH   1   2
BRANCH   1  27
ATOM     27  C   UNL A   1      35.151  30.825  28.013  1.00  0.00     0.188 C 
BRANCH  27  28
ATOM     28  O   UNL A   1      35.488  32.092  27.472  1.00  0.00    -0.377 OA
BRANCH  28  29
ATOM     29  C   UNL A   1      35.466  33.216  28.337  1.00  0.00     0.188 C 
BRANCH  29  30
ATOM     30  C   UNL A   1      34.528  34.377  27.968  1.00  0.00     0.188 C 
BRANCH  30  31
ATOM     31  O   UNL A   1      33.453  34.500  28.874  1.00  0.00    -0.376 OA
BRANCH  31  32
ATOM     32  C   UNL A   1      33.319  35.609  29.734  1.00  0.00     0.202 C 
BRANCH  32  33
ATOM     33  C   UNL A   1      33.527  35.473  31.250  1.00  0.00     0.261 C 
BRANCH  33  34
ATOM     34  O   UNL A   1      34.715  34.822  31.711  1.00  0.00    -0.460 OA
BRANCH  34  35
ATOM     35  C   UNL A   1      34.638  33.527  32.073  1.00  0.00     0.338 C 
ATOM     36  O   UNL A   1      34.139  32.618  31.430  1.00  0.00    -0.246 OA
BRANCH  35  37
ATOM     37  C   UNL A   1      35.482  33.349  33.281  1.00  0.00     0.060 A 
ATOM     38  C   UNL A   1      35.298  34.225  34.359  1.00  0.00     0.016 A 
ATOM     39  C   UNL A   1      36.422  32.316  33.368  1.00  0.00     0.016 A 
ATOM     40  C   UNL A   1      36.100  34.118  35.491  1.00  0.00     0.010 A 
ATOM     41  C   UNL A   1      37.248  32.225  34.493  1.00  0.00     0.010 A 
ATOM     42  C   UNL A   1      37.125  33.164  35.531  1.00  0.00    -0.014 A 
BRANCH  42  43
ATOM     43  C   UNL A   1      38.219  33.357  36.512  1.00  0.00     0.031 A 
ATOM     44  C   UNL A   1      39.429  34.133  36.063  1.00  0.00     0.074 A 
ATOM     45  C   UNL A   1      38.102  32.953  37.789  1.00  0.00     0.049 A 
ATOM     46  N   UNL A   1      40.482  34.502  36.744  1.00  0.00    -0.248 NA
ATOM     47  C   UNL A   1      39.447  34.560  34.652  1.00  0.00     0.031 C 
ATOM     48  C   UNL A   1      36.959  32.241  38.353  1.00  0.00     0.029 A 
ATOM     49  N   UNL A   1      38.966  33.102  38.845  1.00  0.00    -0.354 N 
ATOM     50  C   UNL A   1      41.276  35.211  35.850  1.00  0.00     0.074 A 
ATOM     51  C   UNL A   1      40.611  35.182  34.569  1.00  0.00     0.031 C 
ATOM     52  C   UNL A   1      37.193  32.012  39.659  1.00  0.00     0.029 A 
ATOM     53  C   UNL A   1      38.508  32.542  40.012  1.00  0.00     0.049 A 
ATOM     54  H   UNL A   1      39.830  33.568  38.773  1.00  0.00     0.167 HD
ATOM     55  C   UNL A   1      42.450  35.847  36.078  1.00  0.00     0.031 A 
ATOM     56  C   UNL A   1      39.096  32.459  41.222  1.00  0.00     0.031 A 
ATOM     57  C   UNL A   1      43.127  35.852  37.345  1.00  0.00     0.049 A 
ATOM     58  C   UNL A   1      40.444  33.098  41.427  1.00  0.00     0.074 A 
ATOM     59  C   UNL A   1      44.329  36.447  37.679  1.00  0.00     0.029 A 
ATOM     60  N   UNL A   1      42.659  35.221  38.487  1.00  0.00    -0.354 N 
ATOM     61  N   UNL A   1      41.179  33.780  40.578  1.00  0.00    -0.248 NA
ATOM     62  C   UNL A   1      41.038  32.971  42.765  1.00  0.00     0.031 C 
ATOM     63  C   UNL A   1      44.618  36.127  39.010  1.00  0.00     0.029 A 
ATOM     64  C   UNL A   1      43.561  35.393  39.524  1.00  0.00     0.049 A 
ATOM     65  H   UNL A   1      41.811  34.725  38.552  1.00  0.00     0.167 HD
ATOM     66  C   UNL A   1      42.306  34.180  41.287  1.00  0.00     0.074 A 
ATOM     67  C   UNL A   1      42.142  33.693  42.641  1.00  0.00     0.031 C 
ATOM     68  C   UNL A   1      43.383  34.886  40.860  1.00  0.00     0.031 A 
BRANCH  55  69
ATOM     69  C   UNL A   1      43.082  36.562  34.916  1.00  0.00    -0.014 A 
ATOM     70  C   UNL A   1      43.836  35.869  33.956  1.00  0.00     0.009 A 
ATOM     71  C   UNL A   1      42.904  37.946  34.769  1.00  0.00     0.009 A 
ATOM     72  C   UNL A   1      44.422  36.551  32.887  1.00  0.00     0.001 A 
ATOM     73  C   UNL A   1      43.465  38.621  33.683  1.00  0.00     0.001 A 
ATOM     74  C   UNL A   1      44.231  37.925  32.749  1.00  0.00     0.000 A 
ENDBRANCH  55  69
BRANCH  56  75
ATOM     75  C   UNL A   1      38.431  31.719  42.329  1.00  0.00    -0.014 A 
ATOM     76  C   UNL A   1      37.605  32.379  43.252  1.00  0.00     0.009 A 
ATOM     77  C   UNL A   1      38.660  30.343  42.490  1.00  0.00     0.009 A 
ATOM     78  C   UNL A   1      37.052  31.683  44.330  1.00  0.00     0.001 A 
ATOM     79  C   UNL A   1      38.078  29.643  43.550  1.00  0.00     0.001 A 
ATOM     80  C   UNL A   1      37.285  30.317  44.477  1.00  0.00     0.000 A 
ENDBRANCH  56  75
BRANCH  68  81
ATOM     81  C   UNL A   1      44.448  35.190  41.879  1.00  0.00    -0.014 A 
ATOM     82  C   UNL A   1      44.274  36.197  42.841  1.00  0.00     0.009 A 
ATOM     83  C   UNL A   1      45.640  34.449  41.881  1.00  0.00     0.009 A 
ATOM     84  C   UNL A   1      45.295  36.493  43.747  1.00  0.00     0.001 A 
ATOM     85  C   UNL A   1      46.643  34.721  42.811  1.00  0.00     0.001 A 
ATOM     86  C   UNL A   1      46.477  35.753  43.733  1.00  0.00     0.000 A 
ENDBRANCH  68  81
ENDBRANCH  42  43
ENDBRANCH  35  37
ENDBRANCH  34  35
ENDBRANCH  33  34
ENDBRANCH  32  33
ENDBRANCH  31  32
ENDBRANCH  30  31
ENDBRANCH  29  30
ENDBRANCH  28  29
ENDBRANCH  27  28
ENDBRANCH   1  27
TORSDOF 25
ENDMDL
MODEL 2
REMARK VINA RESULT:      -9.2      4.955      9.490
REMARK SMILES O=C(CCS(=O)(=O)Nc1ccc(-c2ccccc2)cc1)OCCOCCOCCOCCOC(=O)c1ccc(-c2c3nc(c(-c4ccccc4)c4ccc([nH]4)c(-c4ccccc4)c4nc(c(-c5ccccc5)c5ccc2[nH]5)C=C4)C=C3)cc1
REMARK SMILES IDX 25 1 24 2 23 3 22 4 21 5 2 6 1 7 3 8 4 9 5 10 6 11 7 12 8 13
REMARK SMILES IDX 9 15 10 16 20 17 11 18 19 19 12 20 13 21 14 22 18 23 15 24
REMARK SMILES IDX 17 25 16 26 26 27 27 28 28 29 29 30 30 31 31 32 32 33 33 34
REMARK SMILES IDX 34 35 35 36 36 37 37 38 83 39 38 40 82 41 39 42 40 43 41 44
REMARK SMILES IDX 76 45 42 46 81 47 75 48 77 49 43 50 80 51 74 52 73 53 44 55
REMARK SMILES IDX 66 56 51 57 65 58 52 59 55 60 64 61 78 62 53 63 54 64 63 66
REMARK SMILES IDX 79 67 56 68 45 69 46 70 50 71 47 72 49 73 48 74 67 75 68 76
REMARK SMILES IDX 72 77 69 78 71 79 70 80 57 81 58 82 62 83 59 84 61 85 60 86
REMARK H PARENT 8 14 77 54 55 65
REMARK Flexibility Score: inf
ROOT
ATOM      1  C   UNL A   1      33.578  24.788  23.196  1.00  0.00     0.188 C 
ENDROOT
BRANCH   1   2
ATOM      2  O   UNL A   1      33.750  25.172  21.831  1.00  0.00    -0.376 OA
BRANCH   2   3
ATOM      3  C   UNL A   1      32.887  26.087  21.175  1.00  0.00     0.202 C 
BRANCH   3   4
ATOM      4  C   UNL A   1      32.224  27.187  21.991  1.00  0.00     0.261 C 
BRANCH   4   5
ATOM      5  O   UNL A   1      30.792  27.199  21.969  1.00  0.00    -0.463 OA
BRANCH   5   6
ATOM      6  C   UNL A   1      30.003  27.775  22.890  1.00  0.00     0.306 C 
ATOM      7  O   UNL A   1      29.063  28.488  22.538  1.00  0.00    -0.252 OA
BRANCH   6   8
ATOM      8  C   UNL A   1      30.221  27.471  24.336  1.00  0.00     0.141 C 
BRANCH   8   9
ATOM      9  C   UNL A   1      30.285  25.995  24.647  1.00  0.00     0.171 C 
BRANCH   9  10
ATOM     10  S   UNL A   1      30.630  25.505  26.336  1.00  0.00     0.233 S 
ATOM     11  O   UNL A   1      31.094  26.698  27.020  1.00  0.00    -0.207 OA
ATOM     12  O   UNL A   1      29.459  24.818  26.835  1.00  0.00    -0.207 OA
BRANCH  10  13
ATOM     13  N   UNL A   1      31.899  24.450  26.457  1.00  0.00    -0.284 N 
ATOM     14  H   UNL A   1      32.723  24.838  26.832  1.00  0.00     0.180 HD
BRANCH  13  15
ATOM     15  C   UNL A   1      31.995  23.068  26.106  1.00  0.00     0.049 A 
ATOM     16  C   UNL A   1      32.986  22.297  26.738  1.00  0.00     0.027 A 
ATOM     17  C   UNL A   1      31.445  22.571  24.941  1.00  0.00     0.027 A 
ATOM     18  C   UNL A   1      33.451  21.093  26.170  1.00  0.00     0.011 A 
ATOM     19  C   UNL A   1      31.978  21.449  24.320  1.00  0.00     0.011 A 
ATOM     20  C   UNL A   1      32.978  20.684  24.922  1.00  0.00    -0.018 A 
BRANCH  20  21
ATOM     21  C   UNL A   1      33.366  19.459  24.223  1.00  0.00    -0.018 A 
ATOM     22  C   UNL A   1      34.496  18.771  24.696  1.00  0.00     0.009 A 
ATOM     23  C   UNL A   1      32.532  18.823  23.292  1.00  0.00     0.009 A 
ATOM     24  C   UNL A   1      34.757  17.461  24.305  1.00  0.00     0.001 A 
ATOM     25  C   UNL A   1      32.803  17.510  22.888  1.00  0.00     0.001 A 
ATOM     26  C   UNL A   1      33.904  16.827  23.408  1.00  0.00     0.000 A 
ENDBRANCH  20  21
ENDBRANCH  13  15
ENDBRANCH  10  13
ENDBRANCH   9  10
ENDBRANCH   8   9
ENDBRANCH   6   8
ENDBRANCH   5   6
ENDBRANCH   4   5
ENDBRANCH   3   4
ENDBRANCH   2   3
ENDBRANCH   1   2
BRANCH   1  27
ATOM     27  C   UNL A   1      34.319  25.504  24.344  1.00  0.00     0.188 C 
BRANCH  27  28
ATOM     28  O   UNL A   1      35.001  24.645  25.242  1.00  0.00    -0.377 OA
BRANCH  28  29
ATOM     29  C   UNL A   1      35.787  23.597  24.698  1.00  0.00     0.188 C 
BRANCH  29  30
ATOM     30  C   UNL A   1      37.294  23.607  25.007  1.00  0.00     0.188 C 
BRANCH  30  31
ATOM     31  O   UNL A   1      37.642  22.650  25.984  1.00  0.00    -0.376 OA
BRANCH  31  32
ATOM     32  C   UNL A   1      38.852  21.928  25.931  1.00  0.00     0.202 C 
BRANCH  32  33
ATOM     33  C   UNL A   1      40.117  22.439  26.636  1.00  0.00     0.261 C 
BRANCH  33  34
ATOM     34  O   UNL A   1      40.608  23.736  26.284  1.00  0.00    -0.460 OA
BRANCH  34  35
ATOM     35  C   UNL A   1      41.658  24.232  26.966  1.00  0.00     0.338 C 
ATOM     36  O   UNL A   1      42.825  23.894  26.857  1.00  0.00    -0.246 OA
BRANCH  35  37
ATOM     37  C   UNL A   1      41.187  25.433  27.701  1.00  0.00     0.060 A 
ATOM     38  C   UNL A   1      42.030  26.550  27.764  1.00  0.00     0.016 A 
ATOM     39  C   UNL A   1      39.921  25.474  28.296  1.00  0.00     0.016 A 
ATOM     40  C   UNL A   1      41.643  27.679  28.481  1.00  0.00     0.010 A 
ATOM     41  C   UNL A   1      39.543  26.596  29.041  1.00  0.00     0.010 A 
ATOM     42  C   UNL A   1      40.430  27.676  29.181  1.00  0.00    -0.014 A 
BRANCH  42  43
ATOM     43  C   UNL A   1      40.251  28.669  30.267  1.00  0.00     0.031 A 
ATOM     44  C   UNL A   1      41.187  28.590  31.444  1.00  0.00     0.074 A 
ATOM     45  C   UNL A   1      39.362  29.671  30.168  1.00  0.00     0.049 A 
ATOM     46  N   UNL A   1      41.288  29.378  32.483  1.00  0.00    -0.248 NA
ATOM     47  C   UNL A   1      42.148  27.471  31.444  1.00  0.00     0.031 C 
ATOM     48  C   UNL A   1      38.440  29.883  29.056  1.00  0.00     0.029 A 
ATOM     49  N   UNL A   1      39.104  30.712  31.026  1.00  0.00    -0.354 N 
ATOM     50  C   UNL A   1      42.327  28.859  33.247  1.00  0.00     0.074 A 
ATOM     51  C   UNL A   1      42.793  27.664  32.582  1.00  0.00     0.031 C 
ATOM     52  C   UNL A   1      37.712  30.989  29.299  1.00  0.00     0.029 A 
ATOM     53  C   UNL A   1      38.104  31.546  30.592  1.00  0.00     0.049 A 
ATOM     54  H   UNL A   1      39.591  30.847  31.871  1.00  0.00     0.167 HD
ATOM     55  C   UNL A   1      42.860  29.341  34.394  1.00  0.00     0.031 A 
ATOM     56  C   UNL A   1      37.561  32.628  31.184  1.00  0.00     0.031 A 
ATOM     57  C   UNL A   1      42.377  30.513  35.072  1.00  0.00     0.049 A 
ATOM     58  C   UNL A   1      38.113  33.094  32.507  1.00  0.00     0.074 A 
ATOM     59  C   UNL A   1      42.831  31.077  36.250  1.00  0.00     0.029 A 
ATOM     60  N   UNL A   1      41.322  31.296  34.631  1.00  0.00    -0.354 N 
ATOM     61  N   UNL A   1      39.105  32.604  33.212  1.00  0.00    -0.248 NA
ATOM     62  C   UNL A   1      37.477  34.276  33.106  1.00  0.00     0.031 C 
ATOM     63  C   UNL A   1      42.012  32.170  36.553  1.00  0.00     0.029 A 
ATOM     64  C   UNL A   1      41.094  32.327  35.526  1.00  0.00     0.049 A 
ATOM     65  H   UNL A   1      40.811  31.142  33.804  1.00  0.00     0.167 HD
ATOM     66  C   UNL A   1      39.227  33.431  34.323  1.00  0.00     0.074 A 
ATOM     67  C   UNL A   1      38.229  34.471  34.180  1.00  0.00     0.031 C 
ATOM     68  C   UNL A   1      40.085  33.343  35.371  1.00  0.00     0.031 A 
BRANCH  55  69
ATOM     69  C   UNL A   1      44.006  28.577  34.996  1.00  0.00    -0.014 A 
ATOM     70  C   UNL A   1      45.318  28.736  34.523  1.00  0.00     0.009 A 
ATOM     71  C   UNL A   1      43.773  27.700  36.067  1.00  0.00     0.009 A 
ATOM     72  C   UNL A   1      46.369  28.012  35.090  1.00  0.00     0.001 A 
ATOM     73  C   UNL A   1      44.830  27.000  36.653  1.00  0.00     0.001 A 
ATOM     74  C   UNL A   1      46.125  27.149  36.157  1.00  0.00     0.000 A 
ENDBRANCH  55  69
BRANCH  56  75
ATOM     75  C   UNL A   1      36.412  33.332  30.551  1.00  0.00    -0.014 A 
ATOM     76  C   UNL A   1      35.167  33.413  31.192  1.00  0.00     0.009 A 
ATOM     77  C   UNL A   1      36.551  33.892  29.271  1.00  0.00     0.009 A 
ATOM     78  C   UNL A   1      34.078  34.010  30.550  1.00  0.00     0.001 A 
ATOM     79  C   UNL A   1      35.470  34.517  28.646  1.00  0.00     0.001 A 
ATOM     80  C   UNL A   1      34.231  34.564  29.281  1.00  0.00     0.000 A 
ENDBRANCH  56  75
BRANCH  68  81
ATOM     81  C   UNL A   1      39.991  34.413  36.423  1.00  0.00    -0.014 A 
ATOM     82  C   UNL A   1      39.181  34.256  37.558  1.00  0.00     0.009 A 
ATOM     83  C   UNL A   1      40.735  35.596  36.280  1.00  0.00     0.009 A 
ATOM     84  C   UNL A   1      39.074  35.283  38.498  1.00  0.00     0.001 A 
ATOM     85  C   UNL A   1      40.656  36.605  37.239  1.00  0.00     0.001 A 
ATOM     86  C   UNL A   1      39.813  36.455  38.340  1.00  0.00     0.000 A 
ENDBRANCH  68  81
ENDBRANCH  42  43
ENDBRANCH  35  37
ENDBRANCH  34  35
ENDBRANCH  33  34
ENDBRANCH  32  33
ENDBRANCH  31  32
ENDBRANCH  30  31
ENDBRANCH  29  30
ENDBRANCH  28  29
ENDBRANCH  27  28
ENDBRANCH   1  27
TORSDOF 25
ENDMDL
MODEL 3
REMARK VINA RESULT:      -8.8      5.373     10.231
REMARK SMILES O=C(CCS(=O)(=O)Nc1ccc(-c2ccccc2)cc1)OCCOCCOCCOCCOC(=O)c1ccc(-c2c3nc(c(-c4ccccc4)c4ccc([nH]4)c(-c4ccccc4)c4nc(c(-c5ccccc5)c5ccc2[nH]5)C=C4)C=C3)cc1
REMARK SMILES IDX 25 1 24 2 23 3 22 4 21 5 2 6 1 7 3 8 4 9 5 10 6 11 7 12 8 13
REMARK SMILES IDX 9 15 10 16 20 17 11 18 19 19 12 20 13 21 14 22 18 23 15 24
REMARK SMILES IDX 17 25 16 26 26 27 27 28 28 29 29 30 30 31 31 32 32 33 33 34
REMARK SMILES IDX 34 35 35 36 36 37 37 38 83 39 38 40 82 41 39 42 40 43 41 44
REMARK SMILES IDX 76 45 42 46 81 47 75 48 77 49 43 50 80 51 74 52 73 53 44 55
REMARK SMILES IDX 66 56 51 57 65 58 52 59 55 60 64 61 78 62 53 63 54 64 63 66
REMARK SMILES IDX 79 67 56 68 45 69 46 70 50 71 47 72 49 73 48 74 67 75 68 76
REMARK SMILES IDX 72 77 69 78 71 79 70 80 57 81 58 82 62 83 59 84 61 85 60 86
REMARK H PARENT 8 14 77 54 55 65
REMARK Flexibility Score: inf
ROOT
ATOM      1  C   UNL A   1      33.722  25.076  23.195  1.00  0.00     0.188 C 
ENDROOT
BRANCH   1   2
ATOM      2  O   UNL A   1      33.960  25.931  22.075  1.00  0.00    -0.376 OA
BRANCH   2   3
ATOM      3  C   UNL A   1      33.483  27.265  22.012  1.00  0.00     0.202 C 
BRANCH   3   4
ATOM      4  C   UNL A   1      33.362  28.066  23.299  1.00  0.00     0.261 C 
BRANCH   4   5
ATOM      5  O   UNL A   1      32.139  28.792  23.467  1.00  0.00    -0.463 OA
BRANCH   5   6
ATOM      6  C   UNL A   1      31.538  29.046  24.640  1.00  0.00     0.306 C 
ATOM      7  O   UNL A   1      31.102  30.173  24.879  1.00  0.00    -0.252 OA
BRANCH   6   8
ATOM      8  C   UNL A   1      31.325  27.932  25.611  1.00  0.00     0.141 C 
BRANCH   8   9
ATOM      9  C   UNL A   1      30.667  26.713  25.009  1.00  0.00     0.171 C 
BRANCH   9  10
ATOM     10  S   UNL A   1      30.412  25.287  26.063  1.00  0.00     0.233 S 
ATOM     11  O   UNL A   1      31.613  25.154  26.867  1.00  0.00    -0.207 OA
ATOM     12  O   UNL A   1      29.138  25.459  26.724  1.00  0.00    -0.207 OA
BRANCH  10  13
ATOM     13  N   UNL A   1      30.332  23.865  25.218  1.00  0.00    -0.284 N 
ATOM     14  H   UNL A   1      29.453  23.674  24.817  1.00  0.00     0.180 HD
BRANCH  13  15
ATOM     15  C   UNL A   1      31.330  22.871  24.976  1.00  0.00     0.049 A 
ATOM     16  C   UNL A   1      31.570  22.493  23.644  1.00  0.00     0.027 A 
ATOM     17  C   UNL A   1      31.771  22.021  25.971  1.00  0.00     0.027 A 
ATOM     18  C   UNL A   1      32.178  21.260  23.331  1.00  0.00     0.011 A 
ATOM     19  C   UNL A   1      32.263  20.759  25.667  1.00  0.00     0.011 A 
ATOM     20  C   UNL A   1      32.487  20.358  24.349  1.00  0.00    -0.018 A 
BRANCH  20  21
ATOM     21  C   UNL A   1      33.123  19.053  24.169  1.00  0.00    -0.018 A 
ATOM     22  C   UNL A   1      32.545  18.172  23.240  1.00  0.00     0.009 A 
ATOM     23  C   UNL A   1      34.395  18.754  24.677  1.00  0.00     0.009 A 
ATOM     24  C   UNL A   1      33.238  17.056  22.778  1.00  0.00     0.001 A 
ATOM     25  C   UNL A   1      35.086  17.625  24.222  1.00  0.00     0.001 A 
ATOM     26  C   UNL A   1      34.514  16.789  23.263  1.00  0.00     0.000 A 
ENDBRANCH  20  21
ENDBRANCH  13  15
ENDBRANCH  10  13
ENDBRANCH   9  10
ENDBRANCH   8   9
ENDBRANCH   6   8
ENDBRANCH   5   6
ENDBRANCH   4   5
ENDBRANCH   3   4
ENDBRANCH   2   3
ENDBRANCH   1   2
BRANCH   1  27
ATOM     27  C   UNL A   1      34.330  25.364  24.583  1.00  0.00     0.188 C 
BRANCH  27  28
ATOM     28  O   UNL A   1      34.722  24.213  25.313  1.00  0.00    -0.377 OA
BRANCH  28  29
ATOM     29  C   UNL A   1      35.144  23.071  24.585  1.00  0.00     0.188 C 
BRANCH  29  30
ATOM     30  C   UNL A   1      36.654  22.898  24.350  1.00  0.00     0.188 C 
BRANCH  30  31
ATOM     31  O   UNL A   1      37.311  22.369  25.482  1.00  0.00    -0.376 OA
BRANCH  31  32
ATOM     32  C   UNL A   1      38.328  21.399  25.376  1.00  0.00     0.202 C 
BRANCH  32  33
ATOM     33  C   UNL A   1      39.598  21.476  26.236  1.00  0.00     0.261 C 
BRANCH  33  34
ATOM     34  O   UNL A   1      40.695  22.257  25.751  1.00  0.00    -0.460 OA
BRANCH  34  35
ATOM     35  C   UNL A   1      41.657  22.620  26.619  1.00  0.00     0.338 C 
ATOM     36  O   UNL A   1      42.732  22.070  26.792  1.00  0.00    -0.246 OA
BRANCH  35  37
ATOM     37  C   UNL A   1      41.290  23.953  27.161  1.00  0.00     0.060 A 
ATOM     38  C   UNL A   1      42.158  25.029  26.931  1.00  0.00     0.016 A 
ATOM     39  C   UNL A   1      40.094  24.152  27.861  1.00  0.00     0.016 A 
ATOM     40  C   UNL A   1      41.870  26.284  27.461  1.00  0.00     0.010 A 
ATOM     41  C   UNL A   1      39.818  25.405  28.417  1.00  0.00     0.010 A 
ATOM     42  C   UNL A   1      40.737  26.457  28.265  1.00  0.00    -0.014 A 
BRANCH  42  43
ATOM     43  C   UNL A   1      40.692  27.638  29.160  1.00  0.00     0.031 A 
ATOM     44  C   UNL A   1      41.812  27.802  30.154  1.00  0.00     0.074 A 
ATOM     45  C   UNL A   1      39.752  28.589  29.029  1.00  0.00     0.049 A 
ATOM     46  N   UNL A   1      42.045  28.776  30.994  1.00  0.00    -0.248 NA
ATOM     47  C   UNL A   1      42.811  26.718  30.200  1.00  0.00     0.031 C 
ATOM     48  C   UNL A   1      38.651  28.569  28.069  1.00  0.00     0.029 A 
ATOM     49  N   UNL A   1      39.590  29.771  29.707  1.00  0.00    -0.354 N 
ATOM     50  C   UNL A   1      43.219  28.430  31.653  1.00  0.00     0.074 A 
ATOM     51  C   UNL A   1      43.625  27.137  31.155  1.00  0.00     0.031 C 
ATOM     52  C   UNL A   1      37.922  29.689  28.222  1.00  0.00     0.029 A 
ATOM     53  C   UNL A   1      38.494  30.491  29.301  1.00  0.00     0.049 A 
ATOM     54  H   UNL A   1      40.202  30.075  30.416  1.00  0.00     0.167 HD
ATOM     55  C   UNL A   1      43.910  29.133  32.581  1.00  0.00     0.031 A 
ATOM     56  C   UNL A   1      38.005  31.659  29.763  1.00  0.00     0.031 A 
ATOM     57  C   UNL A   1      43.490  30.406  33.099  1.00  0.00     0.049 A 
ATOM     58  C   UNL A   1      38.744  32.380  30.861  1.00  0.00     0.074 A 
ATOM     59  C   UNL A   1      44.105  31.194  34.056  1.00  0.00     0.029 A 
ATOM     60  N   UNL A   1      42.341  31.074  32.706  1.00  0.00    -0.354 N 
ATOM     61  N   UNL A   1      39.861  32.050  31.466  1.00  0.00    -0.248 NA
ATOM     62  C   UNL A   1      38.161  33.645  31.328  1.00  0.00     0.031 C 
ATOM     63  C   UNL A   1      43.296  32.312  34.283  1.00  0.00     0.029 A 
ATOM     64  C   UNL A   1      42.215  32.255  33.417  1.00  0.00     0.049 A 
ATOM     65  H   UNL A   1      41.709  30.756  32.022  1.00  0.00     0.167 HD
ATOM     66  C   UNL A   1      40.125  33.078  32.365  1.00  0.00     0.074 A 
ATOM     67  C   UNL A   1      39.069  34.055  32.202  1.00  0.00     0.031 C 
ATOM     68  C   UNL A   1      41.146  33.206  33.249  1.00  0.00     0.031 A 
BRANCH  55  69
ATOM     69  C   UNL A   1      45.174  28.516  33.112  1.00  0.00    -0.014 A 
ATOM     70  C   UNL A   1      45.155  27.642  34.210  1.00  0.00     0.009 A 
ATOM     71  C   UNL A   1      46.401  28.797  32.490  1.00  0.00     0.009 A 
ATOM     72  C   UNL A   1      46.341  27.085  34.693  1.00  0.00     0.001 A 
ATOM     73  C   UNL A   1      47.581  28.215  32.955  1.00  0.00     0.001 A 
ATOM     74  C   UNL A   1      47.551  27.367  34.062  1.00  0.00     0.000 A 
ENDBRANCH  55  69
BRANCH  56  75
ATOM     75  C   UNL A   1      36.736  32.210  29.215  1.00  0.00    -0.014 A 
ATOM     76  C   UNL A   1      36.729  33.371  28.426  1.00  0.00     0.009 A 
ATOM     77  C   UNL A   1      35.512  31.593  29.520  1.00  0.00     0.009 A 
ATOM     78  C   UNL A   1      35.521  33.918  27.984  1.00  0.00     0.001 A 
ATOM     79  C   UNL A   1      34.309  32.123  29.048  1.00  0.00     0.001 A 
ATOM     80  C   UNL A   1      34.314  33.293  28.292  1.00  0.00     0.000 A 
ENDBRANCH  56  75
BRANCH  68  81
ATOM     81  C   UNL A   1      41.177  34.458  34.081  1.00  0.00    -0.014 A 
ATOM     82  C   UNL A   1      40.279  34.654  35.143  1.00  0.00     0.009 A 
ATOM     83  C   UNL A   1      42.127  35.454  33.805  1.00  0.00     0.009 A 
ATOM     84  C   UNL A   1      40.295  35.844  35.872  1.00  0.00     0.001 A 
ATOM     85  C   UNL A   1      42.166  36.627  34.559  1.00  0.00     0.001 A 
ATOM     86  C   UNL A   1      41.240  36.828  35.582  1.00  0.00     0.000 A 
ENDBRANCH  68  81
ENDBRANCH  42  43
ENDBRANCH  35  37
ENDBRANCH  34  35
ENDBRANCH  33  34
ENDBRANCH  32  33
ENDBRANCH  31  32
ENDBRANCH  30  31
ENDBRANCH  29  30
ENDBRANCH  28  29
ENDBRANCH  27  28
ENDBRANCH   1  27
TORSDOF 25
ENDMDL
