MODEL 1
REMARK VINA RESULT:      -9.6      0.000      0.000
REMARK SMILES CCOC(=O)c1ccc(NC(=O)[C@H]2CC(C)=C(C)C[C@@H]2C(=O)OCCOCCOCCOCCOC(=O)c2ccc(-c3c4nc(c(-c5ccccc5)c5ccc([nH]5)c(-c5ccccc5)c5nc(c(-c6ccccc6)c6ccc3[nH]6)C=C5)C=C4)cc2)cc1
REMARK SMILES IDX 27 1 26 2 25 3 24 4 23 5 21 6 22 7 20 8 13 9 14 10 15 11
REMARK SMILES IDX 19 12 16 13 17 14 18 15 11 16 10 17 12 19 9 20 6 21 7 22
REMARK SMILES IDX 87 23 8 24 86 25 4 26 5 27 3 28 2 29 1 30 28 31 29 32 30 33
REMARK SMILES IDX 31 34 32 35 33 36 34 37 35 38 36 39 37 40 38 41 39 42 85 43
REMARK SMILES IDX 40 44 84 45 41 46 42 47 43 48 78 49 44 50 83 51 77 52 79 53
REMARK SMILES IDX 45 54 82 55 76 56 75 57 46 59 68 60 53 61 67 62 54 63 57 64
REMARK SMILES IDX 66 65 80 66 55 67 56 68 65 70 81 71 58 72 47 73 48 74 52 75
REMARK SMILES IDX 49 76 51 77 50 78 69 79 70 80 74 81 71 82 73 83 72 84 59 85
REMARK SMILES IDX 60 86 64 87 61 88 63 89 62 90
REMARK H PARENT 10 18 79 58 57 69
REMARK Flexibility Score: inf
ROOT
ATOM      1  C   UNL A   1      34.779  30.195  27.113  1.00  0.00     0.188 C 
ENDROOT
BRANCH   1   2
ATOM      2  O   UNL A   1      33.739  29.385  26.582  1.00  0.00    -0.376 OA
BRANCH   2   3
ATOM      3  C   UNL A   1      33.229  28.304  27.355  1.00  0.00     0.202 C 
BRANCH   3   4
ATOM      4  C   UNL A   1      31.762  27.860  27.200  1.00  0.00     0.261 C 
BRANCH   4   5
ATOM      5  O   UNL A   1      31.554  26.435  27.144  1.00  0.00    -0.463 OA
BRANCH   5   6
ATOM      6  C   UNL A   1      31.039  25.897  26.011  1.00  0.00     0.310 C 
ATOM      7  O   UNL A   1      29.888  26.081  25.627  1.00  0.00    -0.252 OA
BRANCH   6   8
ATOM      8  C   UNL A   1      32.060  25.120  25.152  1.00  0.00     0.116 C 
ATOM      9  C   UNL A   1      31.856  25.224  23.625  1.00  0.00     0.097 C 
ATOM     10  C   UNL A   1      31.795  23.933  22.784  1.00  0.00     0.045 C 
ATOM     11  C   UNL A   1      32.022  22.609  23.483  1.00  0.00    -0.074 C 
ATOM     12  C   UNL A   1      32.193  23.700  25.743  1.00  0.00     0.046 C 
ATOM     13  C   UNL A   1      32.067  21.424  22.542  1.00  0.00     0.039 C 
ATOM     14  C   UNL A   1      32.186  22.508  24.818  1.00  0.00    -0.073 C 
ATOM     15  C   UNL A   1      32.363  21.183  25.525  1.00  0.00     0.039 C 
BRANCH   9  16
ATOM     16  C   UNL A   1      32.753  26.352  23.102  1.00  0.00     0.228 C 
ATOM     17  N   UNL A   1      32.418  27.664  22.996  1.00  0.00    -0.326 N 
ATOM     18  H   UNL A   1      33.165  28.234  22.697  1.00  0.00     0.169 HD
ATOM     19  O   UNL A   1      33.899  26.060  22.729  1.00  0.00    -0.274 OA
BRANCH  17  20
ATOM     20  C   UNL A   1      31.236  28.376  23.222  1.00  0.00     0.041 A 
ATOM     21  C   UNL A   1      28.975  29.992  23.250  1.00  0.00     0.060 A 
ATOM     22  C   UNL A   1      29.999  30.226  24.165  1.00  0.00     0.018 A 
ATOM     23  C   UNL A   1      29.014  28.886  22.401  1.00  0.00     0.018 A 
ATOM     24  C   UNL A   1      31.113  29.386  24.169  1.00  0.00     0.027 A 
ATOM     25  C   UNL A   1      30.144  28.067  22.402  1.00  0.00     0.027 A 
BRANCH  21  26
ATOM     26  C   UNL A   1      27.905  30.982  23.108  1.00  0.00     0.338 C 
ATOM     27  O   UNL A   1      27.016  31.129  23.927  1.00  0.00    -0.246 OA
BRANCH  26  28
ATOM     28  O   UNL A   1      28.084  31.636  21.940  1.00  0.00    -0.462 OA
BRANCH  28  29
ATOM     29  C   UNL A   1      28.083  33.066  22.042  1.00  0.00     0.230 C 
ATOM     30  C   UNL A   1      29.076  33.533  23.094  1.00  0.00     0.049 C 
ENDBRANCH  28  29
ENDBRANCH  26  28
ENDBRANCH  21  26
ENDBRANCH  17  20
ENDBRANCH   9  16
ENDBRANCH   6   8
ENDBRANCH   5   6
ENDBRANCH   4   5
ENDBRANCH   3   4
ENDBRANCH   2   3
ENDBRANCH   1   2
BRANCH   1  31
ATOM     31  C   UNL A   1      34.600  30.869  28.484  1.00  0.00     0.188 C 
BRANCH  31  32
ATOM     32  O   UNL A   1      35.160  32.160  28.603  1.00  0.00    -0.377 OA
BRANCH  32  33
ATOM     33  C   UNL A   1      34.566  33.181  27.820  1.00  0.00     0.188 C 
BRANCH  33  34
ATOM     34  C   UNL A   1      33.548  34.109  28.508  1.00  0.00     0.188 C 
BRANCH  34  35
ATOM     35  O   UNL A   1      34.033  35.427  28.734  1.00  0.00    -0.376 OA
BRANCH  35  36
ATOM     36  C   UNL A   1      33.162  36.400  29.291  1.00  0.00     0.202 C 
BRANCH  36  37
ATOM     37  C   UNL A   1      33.036  36.466  30.823  1.00  0.00     0.261 C 
BRANCH  37  38
ATOM     38  O   UNL A   1      34.103  35.883  31.586  1.00  0.00    -0.460 OA
BRANCH  38  39
ATOM     39  C   UNL A   1      33.855  34.722  32.232  1.00  0.00     0.338 C 
ATOM     40  O   UNL A   1      32.832  34.392  32.785  1.00  0.00    -0.246 OA
BRANCH  39  41
ATOM     41  C   UNL A   1      35.002  33.819  31.979  1.00  0.00     0.060 A 
ATOM     42  C   UNL A   1      34.939  32.503  32.458  1.00  0.00     0.016 A 
ATOM     43  C   UNL A   1      36.127  34.267  31.284  1.00  0.00     0.016 A 
ATOM     44  C   UNL A   1      36.027  31.647  32.291  1.00  0.00     0.010 A 
ATOM     45  C   UNL A   1      37.226  33.417  31.138  1.00  0.00     0.010 A 
ATOM     46  C   UNL A   1      37.196  32.120  31.682  1.00  0.00    -0.014 A 
BRANCH  46  47
ATOM     47  C   UNL A   1      38.455  31.352  31.838  1.00  0.00     0.031 A 
ATOM     48  C   UNL A   1      39.355  31.702  32.993  1.00  0.00     0.074 A 
ATOM     49  C   UNL A   1      38.779  30.346  31.008  1.00  0.00     0.049 A 
ATOM     50  N   UNL A   1      40.508  31.187  33.337  1.00  0.00    -0.248 NA
ATOM     51  C   UNL A   1      38.890  32.783  33.878  1.00  0.00     0.031 C 
ATOM     52  C   UNL A   1      37.967  29.870  29.891  1.00  0.00     0.029 A 
ATOM     53  N   UNL A   1      39.891  29.541  30.988  1.00  0.00    -0.354 N 
ATOM     54  C   UNL A   1      40.910  31.893  34.465  1.00  0.00     0.074 A 
ATOM     55  C   UNL A   1      39.897  32.889  34.730  1.00  0.00     0.031 C 
ATOM     56  C   UNL A   1      38.607  28.848  29.295  1.00  0.00     0.029 A 
ATOM     57  C   UNL A   1      39.887  28.624  29.964  1.00  0.00     0.049 A 
ATOM     58  H   UNL A   1      40.620  29.612  31.644  1.00  0.00     0.167 HD
ATOM     59  C   UNL A   1      42.024  31.727  35.216  1.00  0.00     0.031 A 
ATOM     60  C   UNL A   1      40.820  27.722  29.605  1.00  0.00     0.031 A 
ATOM     61  C   UNL A   1      43.040  30.745  34.945  1.00  0.00     0.049 A 
ATOM     62  C   UNL A   1      42.093  27.616  30.405  1.00  0.00     0.074 A 
ATOM     63  C   UNL A   1      44.194  30.481  35.658  1.00  0.00     0.029 A 
ATOM     64  N   UNL A   1      43.026  29.877  33.865  1.00  0.00    -0.354 N 
ATOM     65  N   UNL A   1      42.451  28.266  31.487  1.00  0.00    -0.248 NA
ATOM     66  C   UNL A   1      43.090  26.642  29.934  1.00  0.00     0.031 C 
ATOM     67  C   UNL A   1      44.916  29.501  34.969  1.00  0.00     0.029 A 
ATOM     68  C   UNL A   1      44.172  29.101  33.871  1.00  0.00     0.049 A 
ATOM     69  H   UNL A   1      42.308  29.821  33.194  1.00  0.00     0.167 HD
ATOM     70  C   UNL A   1      43.691  27.750  31.848  1.00  0.00     0.074 A 
ATOM     71  C   UNL A   1      44.019  26.729  30.874  1.00  0.00     0.031 C 
ATOM     72  C   UNL A   1      44.485  28.085  32.896  1.00  0.00     0.031 A 
BRANCH  59  73
ATOM     73  C   UNL A   1      42.226  32.672  36.369  1.00  0.00    -0.014 A 
ATOM     74  C   UNL A   1      41.733  32.389  37.653  1.00  0.00     0.009 A 
ATOM     75  C   UNL A   1      42.933  33.867  36.165  1.00  0.00     0.009 A 
ATOM     76  C   UNL A   1      41.906  33.302  38.695  1.00  0.00     0.001 A 
ATOM     77  C   UNL A   1      43.136  34.762  37.216  1.00  0.00     0.001 A 
ATOM     78  C   UNL A   1      42.611  34.486  38.477  1.00  0.00     0.000 A 
ENDBRANCH  59  73
BRANCH  60  79
ATOM     79  C   UNL A   1      40.596  26.839  28.429  1.00  0.00    -0.014 A 
ATOM     80  C   UNL A   1      41.129  27.171  27.174  1.00  0.00     0.009 A 
ATOM     81  C   UNL A   1      39.820  25.675  28.546  1.00  0.00     0.009 A 
ATOM     82  C   UNL A   1      40.869  26.373  26.058  1.00  0.00     0.001 A 
ATOM     83  C   UNL A   1      39.588  24.861  27.435  1.00  0.00     0.001 A 
ATOM     84  C   UNL A   1      40.103  25.216  26.190  1.00  0.00     0.000 A 
ENDBRANCH  60  79
BRANCH  72  85
ATOM     85  C   UNL A   1      45.759  27.305  33.080  1.00  0.00    -0.014 A 
ATOM     86  C   UNL A   1      45.809  26.147  33.872  1.00  0.00     0.009 A 
ATOM     87  C   UNL A   1      46.922  27.721  32.412  1.00  0.00     0.009 A 
ATOM     88  C   UNL A   1      47.008  25.446  34.022  1.00  0.00     0.001 A 
ATOM     89  C   UNL A   1      48.109  26.997  32.534  1.00  0.00     0.001 A 
ATOM     90  C   UNL A   1      48.154  25.868  33.348  1.00  0.00     0.000 A 
ENDBRANCH  72  85
ENDBRANCH  46  47
ENDBRANCH  39  41
ENDBRANCH  38  39
ENDBRANCH  37  38
ENDBRANCH  36  37
ENDBRANCH  35  36
ENDBRANCH  34  35
ENDBRANCH  33  34
ENDBRANCH  32  33
ENDBRANCH  31  32
ENDBRANCH   1  31
TORSDOF 25
ENDMDL
MODEL 2
REMARK VINA RESULT:      -9.1      2.154      4.618
REMARK SMILES CCOC(=O)c1ccc(NC(=O)[C@H]2CC(C)=C(C)C[C@@H]2C(=O)OCCOCCOCCOCCOC(=O)c2ccc(-c3c4nc(c(-c5ccccc5)c5ccc([nH]5)c(-c5ccccc5)c5nc(c(-c6ccccc6)c6ccc3[nH]6)C=C5)C=C4)cc2)cc1
REMARK SMILES IDX 27 1 26 2 25 3 24 4 23 5 21 6 22 7 20 8 13 9 14 10 15 11
REMARK SMILES IDX 19 12 16 13 17 14 18 15 11 16 10 17 12 19 9 20 6 21 7 22
REMARK SMILES IDX 87 23 8 24 86 25 4 26 5 27 3 28 2 29 1 30 28 31 29 32 30 33
REMARK SMILES IDX 31 34 32 35 33 36 34 37 35 38 36 39 37 40 38 41 39 42 85 43
REMARK SMILES IDX 40 44 84 45 41 46 42 47 43 48 78 49 44 50 83 51 77 52 79 53
REMARK SMILES IDX 45 54 82 55 76 56 75 57 46 59 68 60 53 61 67 62 54 63 57 64
REMARK SMILES IDX 66 65 80 66 55 67 56 68 65 70 81 71 58 72 47 73 48 74 52 75
REMARK SMILES IDX 49 76 51 77 50 78 69 79 70 80 74 81 71 82 73 83 72 84 59 85
REMARK SMILES IDX 60 86 64 87 61 88 63 89 62 90
REMARK H PARENT 10 18 79 58 57 69
REMARK Flexibility Score: inf
ROOT
ATOM      1  C   UNL A   1      34.820  29.880  27.005  1.00  0.00     0.188 C 
ENDROOT
BRANCH   1   2
ATOM      2  O   UNL A   1      33.892  28.967  26.437  1.00  0.00    -0.376 OA
BRANCH   2   3
ATOM      3  C   UNL A   1      33.018  28.235  27.289  1.00  0.00     0.202 C 
BRANCH   3   4
ATOM      4  C   UNL A   1      31.868  27.401  26.693  1.00  0.00     0.261 C 
BRANCH   4   5
ATOM      5  O   UNL A   1      31.787  26.040  27.164  1.00  0.00    -0.463 OA
BRANCH   5   6
ATOM      6  C   UNL A   1      31.226  25.106  26.356  1.00  0.00     0.310 C 
ATOM      7  O   UNL A   1      30.016  24.980  26.193  1.00  0.00    -0.252 OA
BRANCH   6   8
ATOM      8  C   UNL A   1      32.241  24.274  25.543  1.00  0.00     0.116 C 
ATOM      9  C   UNL A   1      32.346  24.637  24.046  1.00  0.00     0.097 C 
ATOM     10  C   UNL A   1      32.222  23.521  22.990  1.00  0.00     0.045 C 
ATOM     11  C   UNL A   1      32.084  22.092  23.468  1.00  0.00    -0.074 C 
ATOM     12  C   UNL A   1      32.016  22.786  25.885  1.00  0.00     0.046 C 
ATOM     13  C   UNL A   1      32.100  21.071  22.350  1.00  0.00     0.039 C 
ATOM     14  C   UNL A   1      31.977  21.766  24.773  1.00  0.00    -0.073 C 
ATOM     15  C   UNL A   1      31.789  20.345  25.252  1.00  0.00     0.039 C 
BRANCH   9  16
ATOM     16  C   UNL A   1      33.505  25.627  23.877  1.00  0.00     0.228 C 
ATOM     17  N   UNL A   1      34.829  25.344  23.990  1.00  0.00    -0.326 N 
ATOM     18  H   UNL A   1      35.410  26.111  23.778  1.00  0.00     0.169 HD
ATOM     19  O   UNL A   1      33.230  26.807  23.614  1.00  0.00    -0.274 OA
BRANCH  17  20
ATOM     20  C   UNL A   1      35.539  24.194  24.346  1.00  0.00     0.041 A 
ATOM     21  C   UNL A   1      37.331  22.191  25.054  1.00  0.00     0.060 A 
ATOM     22  C   UNL A   1      36.712  22.151  23.806  1.00  0.00     0.018 A 
ATOM     23  C   UNL A   1      36.975  23.153  25.998  1.00  0.00     0.018 A 
ATOM     24  C   UNL A   1      35.785  23.139  23.474  1.00  0.00     0.027 A 
ATOM     25  C   UNL A   1      36.061  24.147  25.645  1.00  0.00     0.027 A 
BRANCH  21  26
ATOM     26  C   UNL A   1      38.443  21.278  25.327  1.00  0.00     0.338 C 
ATOM     27  O   UNL A   1      38.378  20.073  25.160  1.00  0.00    -0.246 OA
BRANCH  26  28
ATOM     28  O   UNL A   1      39.480  22.002  25.802  1.00  0.00    -0.462 OA
BRANCH  28  29
ATOM     29  C   UNL A   1      40.213  21.380  26.866  1.00  0.00     0.230 C 
ATOM     30  C   UNL A   1      41.601  21.984  26.992  1.00  0.00     0.049 C 
ENDBRANCH  28  29
ENDBRANCH  26  28
ENDBRANCH  21  26
ENDBRANCH  17  20
ENDBRANCH   9  16
ENDBRANCH   6   8
ENDBRANCH   5   6
ENDBRANCH   4   5
ENDBRANCH   3   4
ENDBRANCH   2   3
ENDBRANCH   1   2
BRANCH   1  31
ATOM     31  C   UNL A   1      34.612  30.389  28.441  1.00  0.00     0.188 C 
BRANCH  31  32
ATOM     32  O   UNL A   1      34.846  31.768  28.636  1.00  0.00    -0.377 OA
BRANCH  32  33
ATOM     33  C   UNL A   1      34.209  32.652  27.729  1.00  0.00     0.188 C 
BRANCH  33  34
ATOM     34  C   UNL A   1      33.271  33.723  28.313  1.00  0.00     0.188 C 
BRANCH  34  35
ATOM     35  O   UNL A   1      33.931  34.934  28.665  1.00  0.00    -0.376 OA
BRANCH  35  36
ATOM     36  C   UNL A   1      33.155  36.069  29.018  1.00  0.00     0.202 C 
BRANCH  36  37
ATOM     37  C   UNL A   1      32.845  36.299  30.507  1.00  0.00     0.261 C 
BRANCH  37  38
ATOM     38  O   UNL A   1      33.866  35.928  31.446  1.00  0.00    -0.460 OA
BRANCH  38  39
ATOM     39  C   UNL A   1      33.677  34.804  32.172  1.00  0.00     0.338 C 
ATOM     40  O   UNL A   1      32.684  34.476  32.776  1.00  0.00    -0.246 OA
BRANCH  39  41
ATOM     41  C   UNL A   1      34.847  33.924  31.939  1.00  0.00     0.060 A 
ATOM     42  C   UNL A   1      34.781  32.591  32.367  1.00  0.00     0.016 A 
ATOM     43  C   UNL A   1      35.996  34.411  31.314  1.00  0.00     0.016 A 
ATOM     44  C   UNL A   1      35.887  31.755  32.220  1.00  0.00     0.010 A 
ATOM     45  C   UNL A   1      37.112  33.580  31.188  1.00  0.00     0.010 A 
ATOM     46  C   UNL A   1      37.076  32.263  31.683  1.00  0.00    -0.014 A 
BRANCH  46  47
ATOM     47  C   UNL A   1      38.336  31.505  31.869  1.00  0.00     0.031 A 
ATOM     48  C   UNL A   1      39.204  31.860  33.048  1.00  0.00     0.074 A 
ATOM     49  C   UNL A   1      38.690  30.504  31.045  1.00  0.00     0.049 A 
ATOM     50  N   UNL A   1      40.351  31.353  33.420  1.00  0.00    -0.248 NA
ATOM     51  C   UNL A   1      38.707  32.935  33.924  1.00  0.00     0.031 C 
ATOM     52  C   UNL A   1      37.910  30.025  29.907  1.00  0.00     0.029 A 
ATOM     53  N   UNL A   1      39.808  29.708  31.052  1.00  0.00    -0.354 N 
ATOM     54  C   UNL A   1      40.719  32.059  34.560  1.00  0.00     0.074 A 
ATOM     55  C   UNL A   1      39.691  33.046  34.802  1.00  0.00     0.031 C 
ATOM     56  C   UNL A   1      38.574  29.010  29.324  1.00  0.00     0.029 A 
ATOM     57  C   UNL A   1      39.838  28.795  30.026  1.00  0.00     0.049 A 
ATOM     58  H   UNL A   1      40.520  29.784  31.727  1.00  0.00     0.167 HD
ATOM     59  C   UNL A   1      41.815  31.901  35.339  1.00  0.00     0.031 A 
ATOM     60  C   UNL A   1      40.788  27.901  29.688  1.00  0.00     0.031 A 
ATOM     61  C   UNL A   1      42.845  30.928  35.091  1.00  0.00     0.049 A 
ATOM     62  C   UNL A   1      42.041  27.803  30.520  1.00  0.00     0.074 A 
ATOM     63  C   UNL A   1      43.983  30.670  35.833  1.00  0.00     0.029 A 
ATOM     64  N   UNL A   1      42.866  30.062  34.009  1.00  0.00    -0.354 N 
ATOM     65  N   UNL A   1      42.366  28.453  31.613  1.00  0.00    -0.248 NA
ATOM     66  C   UNL A   1      43.057  26.839  30.072  1.00  0.00     0.031 C 
ATOM     67  C   UNL A   1      44.730  29.698  35.160  1.00  0.00     0.029 A 
ATOM     68  C   UNL A   1      44.018  29.295  34.042  1.00  0.00     0.049 A 
ATOM     69  H   UNL A   1      42.166  30.002  33.319  1.00  0.00     0.167 HD
ATOM     70  C   UNL A   1      43.600  27.946  32.004  1.00  0.00     0.074 A 
ATOM     71  C   UNL A   1      43.961  26.930  31.037  1.00  0.00     0.031 C 
ATOM     72  C   UNL A   1      44.363  28.285  33.073  1.00  0.00     0.031 A 
BRANCH  59  73
ATOM     73  C   UNL A   1      41.979  32.844  36.499  1.00  0.00    -0.014 A 
ATOM     74  C   UNL A   1      41.600  32.486  37.802  1.00  0.00     0.009 A 
ATOM     75  C   UNL A   1      42.535  34.114  36.281  1.00  0.00     0.009 A 
ATOM     76  C   UNL A   1      41.732  33.397  38.853  1.00  0.00     0.001 A 
ATOM     77  C   UNL A   1      42.699  35.009  37.338  1.00  0.00     0.001 A 
ATOM     78  C   UNL A   1      42.286  34.656  38.621  1.00  0.00     0.000 A 
ENDBRANCH  59  73
BRANCH  60  79
ATOM     79  C   UNL A   1      40.601  27.020  28.504  1.00  0.00    -0.014 A 
ATOM     80  C   UNL A   1      41.178  27.351  27.269  1.00  0.00     0.009 A 
ATOM     81  C   UNL A   1      39.817  25.858  28.594  1.00  0.00     0.009 A 
ATOM     82  C   UNL A   1      40.954  26.553  26.144  1.00  0.00     0.001 A 
ATOM     83  C   UNL A   1      39.621  25.046  27.475  1.00  0.00     0.001 A 
ATOM     84  C   UNL A   1      40.179  25.399  26.249  1.00  0.00     0.000 A 
ENDBRANCH  60  79
BRANCH  72  85
ATOM     85  C   UNL A   1      45.639  27.515  33.288  1.00  0.00    -0.014 A 
ATOM     86  C   UNL A   1      45.664  26.314  34.013  1.00  0.00     0.009 A 
ATOM     87  C   UNL A   1      46.832  27.987  32.715  1.00  0.00     0.009 A 
ATOM     88  C   UNL A   1      46.865  25.623  34.194  1.00  0.00     0.001 A 
ATOM     89  C   UNL A   1      48.022  27.275  32.866  1.00  0.00     0.001 A 
ATOM     90  C   UNL A   1      48.041  26.101  33.615  1.00  0.00     0.000 A 
ENDBRANCH  72  85
ENDBRANCH  46  47
ENDBRANCH  39  41
ENDBRANCH  38  39
ENDBRANCH  37  38
ENDBRANCH  36  37
ENDBRANCH  35  36
ENDBRANCH  34  35
ENDBRANCH  33  34
ENDBRANCH  32  33
ENDBRANCH  31  32
ENDBRANCH   1  31
TORSDOF 25
ENDMDL
MODEL 3
REMARK VINA RESULT:      -8.8      4.293      6.980
REMARK SMILES CCOC(=O)c1ccc(NC(=O)[C@H]2CC(C)=C(C)C[C@@H]2C(=O)OCCOCCOCCOCCOC(=O)c2ccc(-c3c4nc(c(-c5ccccc5)c5ccc([nH]5)c(-c5ccccc5)c5nc(c(-c6ccccc6)c6ccc3[nH]6)C=C5)C=C4)cc2)cc1
REMARK SMILES IDX 27 1 26 2 25 3 24 4 23 5 21 6 22 7 20 8 13 9 14 10 15 11
REMARK SMILES IDX 19 12 16 13 17 14 18 15 11 16 10 17 12 19 9 20 6 21 7 22
REMARK SMILES IDX 87 23 8 24 86 25 4 26 5 27 3 28 2 29 1 30 28 31 29 32 30 33
REMARK SMILES IDX 31 34 32 35 33 36 34 37 35 38 36 39 37 40 38 41 39 42 85 43
REMARK SMILES IDX 40 44 84 45 41 46 42 47 43 48 78 49 44 50 83 51 77 52 79 53
REMARK SMILES IDX 45 54 82 55 76 56 75 57 46 59 68 60 53 61 67 62 54 63 57 64
REMARK SMILES IDX 66 65 80 66 55 67 56 68 65 70 81 71 58 72 47 73 48 74 52 75
REMARK SMILES IDX 49 76 51 77 50 78 69 79 70 80 74 81 71 82 73 83 72 84 59 85
REMARK SMILES IDX 60 86 64 87 61 88 63 89 62 90
REMARK H PARENT 10 18 79 58 57 69
REMARK Flexibility Score: inf
ROOT
ATOM      1  C   UNL A   1      32.905  29.521  24.921  1.00  0.00     0.188 C 
ENDROOT
BRANCH   1   2
ATOM      2  O   UNL A   1      32.697  28.135  24.688  1.00  0.00    -0.376 OA
BRANCH   2   3
ATOM      3  C   UNL A   1      32.935  27.204  25.738  1.00  0.00     0.202 C 
BRANCH   3   4
ATOM      4  C   UNL A   1      31.808  26.837  26.723  1.00  0.00     0.261 C 
BRANCH   4   5
ATOM      5  O   UNL A   1      31.490  25.433  26.798  1.00  0.00    -0.463 OA
BRANCH   5   6
ATOM      6  C   UNL A   1      31.105  24.793  25.666  1.00  0.00     0.310 C 
ATOM      7  O   UNL A   1      30.162  25.151  24.965  1.00  0.00    -0.252 OA
BRANCH   6   8
ATOM      8  C   UNL A   1      32.028  23.630  25.244  1.00  0.00     0.116 C 
ATOM      9  C   UNL A   1      33.356  23.524  26.024  1.00  0.00     0.097 C 
ATOM     10  C   UNL A   1      34.683  23.431  25.244  1.00  0.00     0.045 C 
ATOM     11  C   UNL A   1      34.624  23.364  23.733  1.00  0.00    -0.074 C 
ATOM     12  C   UNL A   1      32.123  23.635  23.703  1.00  0.00     0.046 C 
ATOM     13  C   UNL A   1      35.972  23.146  23.080  1.00  0.00     0.039 C 
ATOM     14  C   UNL A   1      33.470  23.471  23.042  1.00  0.00    -0.073 C 
ATOM     15  C   UNL A   1      33.413  23.454  21.532  1.00  0.00     0.039 C 
BRANCH   9  16
ATOM     16  C   UNL A   1      33.155  22.527  27.172  1.00  0.00     0.228 C 
ATOM     17  N   UNL A   1      33.280  21.176  27.097  1.00  0.00    -0.326 N 
ATOM     18  H   UNL A   1      33.173  20.727  27.967  1.00  0.00     0.169 HD
ATOM     19  O   UNL A   1      32.844  22.975  28.285  1.00  0.00    -0.274 OA
BRANCH  17  20
ATOM     20  C   UNL A   1      33.528  20.291  26.044  1.00  0.00     0.041 A 
ATOM     21  C   UNL A   1      33.907  18.192  24.262  1.00  0.00     0.060 A 
ATOM     22  C   UNL A   1      35.003  18.942  24.684  1.00  0.00     0.018 A 
ATOM     23  C   UNL A   1      32.611  18.553  24.627  1.00  0.00     0.018 A 
ATOM     24  C   UNL A   1      34.798  20.018  25.548  1.00  0.00     0.027 A 
ATOM     25  C   UNL A   1      32.423  19.619  25.507  1.00  0.00     0.027 A 
BRANCH  21  26
ATOM     26  C   UNL A   1      34.137  16.949  23.521  1.00  0.00     0.338 C 
ATOM     27  O   UNL A   1      33.781  16.781  22.369  1.00  0.00    -0.246 OA
BRANCH  26  28
ATOM     28  O   UNL A   1      34.760  16.075  24.341  1.00  0.00    -0.462 OA
BRANCH  28  29
ATOM     29  C   UNL A   1      34.083  15.823  25.580  1.00  0.00     0.230 C 
ATOM     30  C   UNL A   1      32.875  14.928  25.366  1.00  0.00     0.049 C 
ENDBRANCH  28  29
ENDBRANCH  26  28
ENDBRANCH  21  26
ENDBRANCH  17  20
ENDBRANCH   9  16
ENDBRANCH   6   8
ENDBRANCH   5   6
ENDBRANCH   4   5
ENDBRANCH   3   4
ENDBRANCH   2   3
ENDBRANCH   1   2
BRANCH   1  31
ATOM     31  C   UNL A   1      31.882  30.320  25.746  1.00  0.00     0.188 C 
BRANCH  31  32
ATOM     32  O   UNL A   1      32.403  30.987  26.877  1.00  0.00    -0.377 OA
BRANCH  32  33
ATOM     33  C   UNL A   1      33.774  30.767  27.165  1.00  0.00     0.188 C 
BRANCH  33  34
ATOM     34  C   UNL A   1      34.539  31.883  27.897  1.00  0.00     0.188 C 
BRANCH  34  35
ATOM     35  O   UNL A   1      35.697  31.428  28.588  1.00  0.00    -0.376 OA
BRANCH  35  36
ATOM     36  C   UNL A   1      35.622  31.196  29.987  1.00  0.00     0.202 C 
BRANCH  36  37
ATOM     37  C   UNL A   1      35.121  32.342  30.884  1.00  0.00     0.261 C 
BRANCH  37  38
ATOM     38  O   UNL A   1      35.815  32.543  32.124  1.00  0.00    -0.460 OA
BRANCH  38  39
ATOM     39  C   UNL A   1      36.639  33.610  32.219  1.00  0.00     0.338 C 
ATOM     40  O   UNL A   1      36.406  34.675  32.742  1.00  0.00    -0.246 OA
BRANCH  39  41
ATOM     41  C   UNL A   1      37.974  33.184  31.740  1.00  0.00     0.060 A 
ATOM     42  C   UNL A   1      38.347  33.495  30.425  1.00  0.00     0.016 A 
ATOM     43  C   UNL A   1      38.845  32.480  32.574  1.00  0.00     0.016 A 
ATOM     44  C   UNL A   1      39.570  33.053  29.923  1.00  0.00     0.010 A 
ATOM     45  C   UNL A   1      40.060  32.018  32.064  1.00  0.00     0.010 A 
ATOM     46  C   UNL A   1      40.405  32.263  30.722  1.00  0.00    -0.014 A 
BRANCH  46  47
ATOM     47  C   UNL A   1      41.502  31.495  30.086  1.00  0.00     0.031 A 
ATOM     48  C   UNL A   1      42.865  32.132  30.025  1.00  0.00     0.074 A 
ATOM     49  C   UNL A   1      41.313  30.254  29.608  1.00  0.00     0.049 A 
ATOM     50  N   UNL A   1      43.978  31.671  29.515  1.00  0.00    -0.248 NA
ATOM     51  C   UNL A   1      42.986  33.474  30.622  1.00  0.00     0.031 C 
ATOM     52  C   UNL A   1      40.061  29.504  29.660  1.00  0.00     0.029 A 
ATOM     53  N   UNL A   1      42.193  29.404  28.984  1.00  0.00    -0.354 N 
ATOM     54  C   UNL A   1      44.922  32.672  29.713  1.00  0.00     0.074 A 
ATOM     55  C   UNL A   1      44.248  33.773  30.363  1.00  0.00     0.031 C 
ATOM     56  C   UNL A   1      40.253  28.299  29.093  1.00  0.00     0.029 A 
ATOM     57  C   UNL A   1      41.629  28.209  28.608  1.00  0.00     0.049 A 
ATOM     58  H   UNL A   1      43.136  29.630  28.821  1.00  0.00     0.167 HD
ATOM     59  C   UNL A   1      46.236  32.676  29.386  1.00  0.00     0.031 A 
ATOM     60  C   UNL A   1      42.164  27.171  27.936  1.00  0.00     0.031 A 
ATOM     61  C   UNL A   1      46.905  31.585  28.728  1.00  0.00     0.049 A 
ATOM     62  C   UNL A   1      43.607  27.235  27.503  1.00  0.00     0.074 A 
ATOM     63  C   UNL A   1      48.237  31.480  28.374  1.00  0.00     0.029 A 
ATOM     64  N   UNL A   1      46.285  30.418  28.313  1.00  0.00    -0.354 N 
ATOM     65  N   UNL A   1      44.500  28.172  27.722  1.00  0.00    -0.248 NA
ATOM     66  C   UNL A   1      44.117  26.089  26.735  1.00  0.00     0.031 C 
ATOM     67  C   UNL A   1      48.408  30.278  27.678  1.00  0.00     0.029 A 
ATOM     68  C   UNL A   1      47.200  29.602  27.671  1.00  0.00     0.049 A 
ATOM     69  H   UNL A   1      45.334  30.201  28.453  1.00  0.00     0.167 HD
ATOM     70  C   UNL A   1      45.683  27.709  27.157  1.00  0.00     0.074 A 
ATOM     71  C   UNL A   1      45.395  26.406  26.593  1.00  0.00     0.031 C 
ATOM     72  C   UNL A   1      46.901  28.305  27.116  1.00  0.00     0.031 A 
BRANCH  59  73
ATOM     73  C   UNL A   1      47.019  33.925  29.685  1.00  0.00    -0.014 A 
ATOM     74  C   UNL A   1      47.695  34.100  30.903  1.00  0.00     0.009 A 
ATOM     75  C   UNL A   1      47.086  34.943  28.722  1.00  0.00     0.009 A 
ATOM     76  C   UNL A   1      48.384  35.286  31.166  1.00  0.00     0.001 A 
ATOM     77  C   UNL A   1      47.805  36.112  28.972  1.00  0.00     0.001 A 
ATOM     78  C   UNL A   1      48.442  36.289  30.198  1.00  0.00     0.000 A 
ENDBRANCH  59  73
BRANCH  60  79
ATOM     79  C   UNL A   1      41.338  25.975  27.622  1.00  0.00    -0.014 A 
ATOM     80  C   UNL A   1      40.485  25.967  26.507  1.00  0.00     0.009 A 
ATOM     81  C   UNL A   1      41.372  24.844  28.454  1.00  0.00     0.009 A 
ATOM     82  C   UNL A   1      39.666  24.866  26.248  1.00  0.00     0.001 A 
ATOM     83  C   UNL A   1      40.576  23.731  28.173  1.00  0.00     0.001 A 
ATOM     84  C   UNL A   1      39.716  23.747  27.077  1.00  0.00     0.000 A 
ENDBRANCH  60  79
BRANCH  72  85
ATOM     85  C   UNL A   1      48.031  27.534  26.488  1.00  0.00    -0.014 A 
ATOM     86  C   UNL A   1      48.849  26.677  27.241  1.00  0.00     0.009 A 
ATOM     87  C   UNL A   1      48.250  27.639  25.105  1.00  0.00     0.009 A 
ATOM     88  C   UNL A   1      49.889  25.975  26.628  1.00  0.00     0.001 A 
ATOM     89  C   UNL A   1      49.267  26.908  24.489  1.00  0.00     0.001 A 
ATOM     90  C   UNL A   1      50.093  26.086  25.252  1.00  0.00     0.000 A 
ENDBRANCH  72  85
ENDBRANCH  46  47
ENDBRANCH  39  41
ENDBRANCH  38  39
ENDBRANCH  37  38
ENDBRANCH  36  37
ENDBRANCH  35  36
ENDBRANCH  34  35
ENDBRANCH  33  34
ENDBRANCH  32  33
ENDBRANCH  31  32
ENDBRANCH   1  31
TORSDOF 25
ENDMDL
