MODEL 1
REMARK VINA RESULT:      -9.5      0.000      0.000
REMARK SMILES C[C@H](NC(=O)[C@@H]1CC(=O)N(c2ccc3c(c2)OCCO3)C1)C(=O)N1CCC(C(=O)OCCOCCOCCOCCOC(=O)c2ccc(-c3c4nc(c(-c5ccccc5)c5ccc([nH]5)c(-c5ccccc5)c5nc(c(-c6ccccc6)c6ccc3[nH]6)C=C5)C=C4)cc2)CC1
REMARK SMILES IDX 35 1 34 2 33 3 32 4 31 5 30 6 28 7 29 8 27 9 22 10 23 11
REMARK SMILES IDX 24 12 25 13 94 14 26 15 93 16 2 17 1 18 3 19 4 20 5 22 6 23
REMARK SMILES IDX 7 24 21 25 8 26 10 27 9 28 11 29 12 30 16 31 13 32 15 33
REMARK SMILES IDX 14 34 17 35 20 36 18 37 19 38 36 39 37 40 38 41 39 42 40 43
REMARK SMILES IDX 41 44 42 45 43 46 44 47 45 48 46 49 92 50 47 51 91 52 48 53
REMARK SMILES IDX 49 54 50 55 85 56 51 57 90 58 84 59 86 60 52 61 89 62 83 63
REMARK SMILES IDX 82 64 53 66 75 67 60 68 74 69 61 70 64 71 73 72 87 73 62 74
REMARK SMILES IDX 63 75 72 77 88 78 65 79 54 80 55 81 59 82 56 83 58 84 57 85
REMARK SMILES IDX 76 86 77 87 81 88 78 89 80 90 79 91 66 92 67 93 71 94 68 95
REMARK SMILES IDX 70 96 69 97
REMARK H PARENT 3 21 86 65 64 76
REMARK Flexibility Score: inf
ROOT
ATOM      1  C   UNL A   1      36.770  20.421  25.154  1.00  0.00     0.188 C 
ENDROOT
BRANCH   1   2
ATOM      2  C   UNL A   1      35.512  21.137  24.653  1.00  0.00     0.188 C 
BRANCH   2   3
ATOM      3  O   UNL A   1      34.235  20.534  24.742  1.00  0.00    -0.376 OA
BRANCH   3   4
ATOM      4  C   UNL A   1      33.321  20.857  25.780  1.00  0.00     0.202 C 
BRANCH   4   5
ATOM      5  C   UNL A   1      32.731  22.262  25.973  1.00  0.00     0.261 C 
BRANCH   5   6
ATOM      6  O   UNL A   1      32.035  22.829  24.854  1.00  0.00    -0.463 OA
BRANCH   6   7
ATOM      7  C   UNL A   1      32.716  23.770  24.165  1.00  0.00     0.309 C 
ATOM      8  O   UNL A   1      33.614  23.531  23.365  1.00  0.00    -0.252 OA
BRANCH   7   9
ATOM      9  C   UNL A   1      32.344  25.190  24.527  1.00  0.00     0.103 C 
ATOM     10  C   UNL A   1      31.998  28.374  27.261  1.00  0.00     0.244 C 
ATOM     11  O   UNL A   1      31.105  28.156  28.088  1.00  0.00    -0.273 OA
ATOM     12  N   UNL A   1      32.137  27.564  26.149  1.00  0.00    -0.341 N 
ATOM     13  C   UNL A   1      30.939  26.960  25.598  1.00  0.00     0.120 C 
ATOM     14  C   UNL A   1      33.385  27.259  25.467  1.00  0.00     0.120 C 
ATOM     15  C   UNL A   1      31.108  25.465  25.392  1.00  0.00     0.037 C 
ATOM     16  C   UNL A   1      33.567  25.774  25.226  1.00  0.00     0.037 C 
BRANCH  10  17
ATOM     17  C   UNL A   1      32.684  29.765  27.259  1.00  0.00     0.168 C 
ATOM     18  C   UNL A   1      32.297  30.434  25.944  1.00  0.00     0.041 C 
BRANCH  17  19
ATOM     19  N   UNL A   1      34.099  29.813  27.640  1.00  0.00    -0.344 N 
ATOM     20  C   UNL A   1      35.036  30.774  27.827  1.00  0.00     0.226 C 
ATOM     21  H   UNL A   1      34.464  28.913  27.802  1.00  0.00     0.164 HD
ATOM     22  O   UNL A   1      36.212  30.412  27.731  1.00  0.00    -0.275 OA
BRANCH  20  23
ATOM     23  C   UNL A   1      34.696  32.196  28.209  1.00  0.00     0.107 C 
ATOM     24  C   UNL A   1      35.810  33.198  27.915  1.00  0.00     0.116 C 
ATOM     25  C   UNL A   1      34.531  32.235  29.719  1.00  0.00     0.139 C 
ATOM     26  C   UNL A   1      36.500  33.425  29.232  1.00  0.00     0.227 C 
ATOM     27  N   UNL A   1      35.765  32.779  30.214  1.00  0.00    -0.311 N 
ATOM     28  O   UNL A   1      37.533  34.065  29.347  1.00  0.00    -0.274 OA
BRANCH  27  29
ATOM     29  C   UNL A   1      36.105  32.746  31.573  1.00  0.00     0.048 A 
ATOM     30  C   UNL A   1      35.474  33.611  32.476  1.00  0.00     0.030 A 
ATOM     31  C   UNL A   1      37.064  31.842  32.030  1.00  0.00     0.076 A 
ATOM     32  C   UNL A   1      35.789  33.555  33.834  1.00  0.00     0.052 A 
ATOM     33  C   UNL A   1      37.409  31.820  33.376  1.00  0.00     0.163 A 
ATOM     34  C   UNL A   1      36.772  32.675  34.280  1.00  0.00     0.161 A 
ATOM     35  O   UNL A   1      38.401  30.944  33.735  1.00  0.00    -0.486 OA
ATOM     36  O   UNL A   1      37.054  32.695  35.620  1.00  0.00    -0.486 OA
ATOM     37  C   UNL A   1      38.409  30.727  35.147  1.00  0.00     0.271 C 
ATOM     38  C   UNL A   1      38.297  32.044  35.899  1.00  0.00     0.271 C 
ENDBRANCH  27  29
ENDBRANCH  20  23
ENDBRANCH  17  19
ENDBRANCH  10  17
ENDBRANCH   7   9
ENDBRANCH   6   7
ENDBRANCH   5   6
ENDBRANCH   4   5
ENDBRANCH   3   4
ENDBRANCH   2   3
ENDBRANCH   1   2
BRANCH   1  39
ATOM     39  O   UNL A   1      38.003  21.030  24.832  1.00  0.00    -0.377 OA
BRANCH  39  40
ATOM     40  C   UNL A   1      38.635  21.816  25.838  1.00  0.00     0.188 C 
BRANCH  40  41
ATOM     41  C   UNL A   1      40.005  21.358  26.374  1.00  0.00     0.188 C 
BRANCH  41  42
ATOM     42  O   UNL A   1      41.074  22.245  26.080  1.00  0.00    -0.376 OA
BRANCH  42  43
ATOM     43  C   UNL A   1      42.408  21.835  26.347  1.00  0.00     0.202 C 
BRANCH  43  44
ATOM     44  C   UNL A   1      43.443  21.926  25.212  1.00  0.00     0.261 C 
BRANCH  44  45
ATOM     45  O   UNL A   1      43.548  23.191  24.537  1.00  0.00    -0.460 OA
BRANCH  45  46
ATOM     46  C   UNL A   1      44.703  23.875  24.646  1.00  0.00     0.338 C 
ATOM     47  O   UNL A   1      45.671  23.814  23.906  1.00  0.00    -0.246 OA
BRANCH  46  48
ATOM     48  C   UNL A   1      44.534  24.888  25.708  1.00  0.00     0.060 A 
ATOM     49  C   UNL A   1      45.676  25.372  26.357  1.00  0.00     0.016 A 
ATOM     50  C   UNL A   1      43.265  25.344  26.075  1.00  0.00     0.016 A 
ATOM     51  C   UNL A   1      45.552  26.284  27.403  1.00  0.00     0.010 A 
ATOM     52  C   UNL A   1      43.140  26.240  27.141  1.00  0.00     0.010 A 
ATOM     53  C   UNL A   1      44.280  26.684  27.833  1.00  0.00    -0.014 A 
BRANCH  53  54
ATOM     54  C   UNL A   1      44.154  27.413  29.118  1.00  0.00     0.031 A 
ATOM     55  C   UNL A   1      44.402  26.664  30.400  1.00  0.00     0.074 A 
ATOM     56  C   UNL A   1      43.889  28.731  29.147  1.00  0.00     0.049 A 
ATOM     57  N   UNL A   1      44.376  27.098  31.633  1.00  0.00    -0.248 NA
ATOM     58  C   UNL A   1      44.727  25.234  30.269  1.00  0.00     0.031 C 
ATOM     59  C   UNL A   1      43.681  29.580  27.975  1.00  0.00     0.029 A 
ATOM     60  N   UNL A   1      43.757  29.585  30.212  1.00  0.00    -0.354 N 
ATOM     61  C   UNL A   1      44.677  25.996  32.425  1.00  0.00     0.074 A 
ATOM     62  C   UNL A   1      44.848  24.868  31.536  1.00  0.00     0.031 C 
ATOM     63  C   UNL A   1      43.448  30.838  28.387  1.00  0.00     0.029 A 
ATOM     64  C   UNL A   1      43.458  30.875  29.849  1.00  0.00     0.049 A 
ATOM     65  H   UNL A   1      43.866  29.301  31.149  1.00  0.00     0.167 HD
ATOM     66  C   UNL A   1      44.808  25.929  33.772  1.00  0.00     0.031 A 
ATOM     67  C   UNL A   1      43.206  31.958  30.610  1.00  0.00     0.031 A 
ATOM     68  C   UNL A   1      44.616  27.045  34.659  1.00  0.00     0.049 A 
ATOM     69  C   UNL A   1      43.269  31.836  32.109  1.00  0.00     0.074 A 
ATOM     70  C   UNL A   1      44.733  27.081  36.038  1.00  0.00     0.029 A 
ATOM     71  N   UNL A   1      44.255  28.321  34.256  1.00  0.00    -0.354 N 
ATOM     72  N   UNL A   1      43.582  30.796  32.846  1.00  0.00    -0.248 NA
ATOM     73  C   UNL A   1      42.955  33.046  32.882  1.00  0.00     0.031 C 
ATOM     74  C   UNL A   1      44.376  28.361  36.473  1.00  0.00     0.029 A 
ATOM     75  C   UNL A   1      44.111  29.143  35.361  1.00  0.00     0.049 A 
ATOM     76  H   UNL A   1      44.121  28.602  33.321  1.00  0.00     0.167 HD
ATOM     77  C   UNL A   1      43.529  31.234  34.164  1.00  0.00     0.074 A 
ATOM     78  C   UNL A   1      43.180  32.639  34.123  1.00  0.00     0.031 C 
ATOM     79  C   UNL A   1      43.750  30.538  35.307  1.00  0.00     0.031 A 
BRANCH  66  80
ATOM     80  C   UNL A   1      45.131  24.586  34.369  1.00  0.00    -0.014 A 
ATOM     81  C   UNL A   1      46.457  24.150  34.521  1.00  0.00     0.009 A 
ATOM     82  C   UNL A   1      44.089  23.755  34.812  1.00  0.00     0.009 A 
ATOM     83  C   UNL A   1      46.731  22.896  35.073  1.00  0.00     0.001 A 
ATOM     84  C   UNL A   1      44.367  22.516  35.392  1.00  0.00     0.001 A 
ATOM     85  C   UNL A   1      45.686  22.083  35.512  1.00  0.00     0.000 A 
ENDBRANCH  66  80
BRANCH  67  86
ATOM     86  C   UNL A   1      42.846  33.254  29.972  1.00  0.00    -0.014 A 
ATOM     87  C   UNL A   1      43.836  34.100  29.451  1.00  0.00     0.009 A 
ATOM     88  C   UNL A   1      41.505  33.666  29.914  1.00  0.00     0.009 A 
ATOM     89  C   UNL A   1      43.495  35.342  28.911  1.00  0.00     0.001 A 
ATOM     90  C   UNL A   1      41.163  34.893  29.343  1.00  0.00     0.001 A 
ATOM     91  C   UNL A   1      42.159  35.736  28.853  1.00  0.00     0.000 A 
ENDBRANCH  67  86
BRANCH  79  92
ATOM     92  C   UNL A   1      43.652  31.297  36.604  1.00  0.00    -0.014 A 
ATOM     93  C   UNL A   1      42.438  31.406  37.301  1.00  0.00     0.009 A 
ATOM     94  C   UNL A   1      44.798  31.900  37.143  1.00  0.00     0.009 A 
ATOM     95  C   UNL A   1      42.364  32.148  38.482  1.00  0.00     0.001 A 
ATOM     96  C   UNL A   1      44.730  32.610  38.344  1.00  0.00     0.001 A 
ATOM     97  C   UNL A   1      43.511  32.746  39.004  1.00  0.00     0.000 A 
ENDBRANCH  79  92
ENDBRANCH  53  54
ENDBRANCH  46  48
ENDBRANCH  45  46
ENDBRANCH  44  45
ENDBRANCH  43  44
ENDBRANCH  42  43
ENDBRANCH  41  42
ENDBRANCH  40  41
ENDBRANCH  39  40
ENDBRANCH   1  39
TORSDOF 24
ENDMDL
MODEL 2
REMARK VINA RESULT:      -9.3      2.268      3.726
REMARK SMILES C[C@H](NC(=O)[C@@H]1CC(=O)N(c2ccc3c(c2)OCCO3)C1)C(=O)N1CCC(C(=O)OCCOCCOCCOCCOC(=O)c2ccc(-c3c4nc(c(-c5ccccc5)c5ccc([nH]5)c(-c5ccccc5)c5nc(c(-c6ccccc6)c6ccc3[nH]6)C=C5)C=C4)cc2)CC1
REMARK SMILES IDX 35 1 34 2 33 3 32 4 31 5 30 6 28 7 29 8 27 9 22 10 23 11
REMARK SMILES IDX 24 12 25 13 94 14 26 15 93 16 2 17 1 18 3 19 4 20 5 22 6 23
REMARK SMILES IDX 7 24 21 25 8 26 10 27 9 28 11 29 12 30 16 31 13 32 15 33
REMARK SMILES IDX 14 34 17 35 20 36 18 37 19 38 36 39 37 40 38 41 39 42 40 43
REMARK SMILES IDX 41 44 42 45 43 46 44 47 45 48 46 49 92 50 47 51 91 52 48 53
REMARK SMILES IDX 49 54 50 55 85 56 51 57 90 58 84 59 86 60 52 61 89 62 83 63
REMARK SMILES IDX 82 64 53 66 75 67 60 68 74 69 61 70 64 71 73 72 87 73 62 74
REMARK SMILES IDX 63 75 72 77 88 78 65 79 54 80 55 81 59 82 56 83 58 84 57 85
REMARK SMILES IDX 76 86 77 87 81 88 78 89 80 90 79 91 66 92 67 93 71 94 68 95
REMARK SMILES IDX 70 96 69 97
REMARK H PARENT 3 21 86 65 64 76
REMARK Flexibility Score: inf
ROOT
ATOM      1  C   UNL A   1      38.154  22.466  25.547  1.00  0.00     0.188 C 
ENDROOT
BRANCH   1   2
ATOM      2  C   UNL A   1      36.648  22.446  25.821  1.00  0.00     0.188 C 
BRANCH   2   3
ATOM      3  O   UNL A   1      35.925  23.641  26.055  1.00  0.00    -0.376 OA
BRANCH   3   4
ATOM      4  C   UNL A   1      34.765  23.977  25.309  1.00  0.00     0.202 C 
BRANCH   4   5
ATOM      5  C   UNL A   1      34.811  24.437  23.844  1.00  0.00     0.261 C 
BRANCH   5   6
ATOM      6  O   UNL A   1      33.549  24.640  23.190  1.00  0.00    -0.463 OA
BRANCH   6   7
ATOM      7  C   UNL A   1      33.389  25.844  22.603  1.00  0.00     0.309 C 
ATOM      8  O   UNL A   1      33.779  26.126  21.475  1.00  0.00    -0.252 OA
BRANCH   7   9
ATOM      9  C   UNL A   1      32.754  26.886  23.496  1.00  0.00     0.103 C 
ATOM     10  C   UNL A   1      32.596  29.181  27.023  1.00  0.00     0.244 C 
ATOM     11  O   UNL A   1      32.310  28.478  28.000  1.00  0.00    -0.273 OA
ATOM     12  N   UNL A   1      32.490  28.676  25.741  1.00  0.00    -0.341 N 
ATOM     13  C   UNL A   1      31.466  27.681  25.488  1.00  0.00     0.120 C 
ATOM     14  C   UNL A   1      33.315  29.055  24.604  1.00  0.00     0.120 C 
ATOM     15  C   UNL A   1      32.031  26.461  24.781  1.00  0.00     0.037 C 
ATOM     16  C   UNL A   1      33.872  27.855  23.864  1.00  0.00     0.037 C 
BRANCH  10  17
ATOM     17  C   UNL A   1      32.677  30.718  27.214  1.00  0.00     0.168 C 
ATOM     18  C   UNL A   1      31.525  31.312  26.410  1.00  0.00     0.041 C 
BRANCH  17  19
ATOM     19  N   UNL A   1      33.994  31.343  27.054  1.00  0.00    -0.344 N 
ATOM     20  C   UNL A   1      34.949  31.849  27.872  1.00  0.00     0.226 C 
ATOM     21  H   UNL A   1      34.253  31.413  26.107  1.00  0.00     0.164 HD
ATOM     22  O   UNL A   1      35.723  32.664  27.364  1.00  0.00    -0.275 OA
BRANCH  20  23
ATOM     23  C   UNL A   1      35.130  31.404  29.305  1.00  0.00     0.107 C 
ATOM     24  C   UNL A   1      36.147  32.233  30.086  1.00  0.00     0.116 C 
ATOM     25  C   UNL A   1      35.717  30.002  29.276  1.00  0.00     0.139 C 
ATOM     26  C   UNL A   1      37.411  31.418  30.086  1.00  0.00     0.227 C 
ATOM     27  N   UNL A   1      37.118  30.181  29.533  1.00  0.00    -0.311 N 
ATOM     28  O   UNL A   1      38.479  31.837  30.501  1.00  0.00    -0.274 OA
BRANCH  27  29
ATOM     29  C   UNL A   1      38.051  29.152  29.344  1.00  0.00     0.048 A 
ATOM     30  C   UNL A   1      38.288  28.223  30.365  1.00  0.00     0.030 A 
ATOM     31  C   UNL A   1      38.734  29.044  28.133  1.00  0.00     0.076 A 
ATOM     32  C   UNL A   1      39.192  27.179  30.166  1.00  0.00     0.052 A 
ATOM     33  C   UNL A   1      39.668  28.030  27.954  1.00  0.00     0.163 A 
ATOM     34  C   UNL A   1      39.897  27.096  28.968  1.00  0.00     0.161 A 
ATOM     35  O   UNL A   1      40.339  28.027  26.758  1.00  0.00    -0.486 OA
ATOM     36  O   UNL A   1      40.792  26.065  28.851  1.00  0.00    -0.486 OA
ATOM     37  C   UNL A   1      40.969  26.766  26.525  1.00  0.00     0.271 C 
ATOM     38  C   UNL A   1      41.700  26.287  27.768  1.00  0.00     0.271 C 
ENDBRANCH  27  29
ENDBRANCH  20  23
ENDBRANCH  17  19
ENDBRANCH  10  17
ENDBRANCH   7   9
ENDBRANCH   6   7
ENDBRANCH   5   6
ENDBRANCH   4   5
ENDBRANCH   3   4
ENDBRANCH   2   3
ENDBRANCH   1   2
BRANCH   1  39
ATOM     39  O   UNL A   1      38.944  21.618  26.355  1.00  0.00    -0.377 OA
BRANCH  39  40
ATOM     40  C   UNL A   1      40.360  21.716  26.231  1.00  0.00     0.188 C 
BRANCH  40  41
ATOM     41  C   UNL A   1      41.058  22.978  26.774  1.00  0.00     0.188 C 
BRANCH  41  42
ATOM     42  O   UNL A   1      42.476  22.899  26.791  1.00  0.00    -0.376 OA
BRANCH  42  43
ATOM     43  C   UNL A   1      43.218  23.527  25.753  1.00  0.00     0.202 C 
BRANCH  43  44
ATOM     44  C   UNL A   1      44.647  23.032  25.474  1.00  0.00     0.261 C 
BRANCH  44  45
ATOM     45  O   UNL A   1      45.715  23.764  26.099  1.00  0.00    -0.460 OA
BRANCH  45  46
ATOM     46  C   UNL A   1      46.180  24.865  25.477  1.00  0.00     0.338 C 
ATOM     47  O   UNL A   1      46.658  24.934  24.357  1.00  0.00    -0.246 OA
BRANCH  46  48
ATOM     48  C   UNL A   1      45.823  26.038  26.301  1.00  0.00     0.060 A 
ATOM     49  C   UNL A   1      46.499  26.234  27.512  1.00  0.00     0.016 A 
ATOM     50  C   UNL A   1      44.824  26.926  25.897  1.00  0.00     0.016 A 
ATOM     51  C   UNL A   1      46.150  27.295  28.343  1.00  0.00     0.010 A 
ATOM     52  C   UNL A   1      44.457  27.977  26.744  1.00  0.00     0.010 A 
ATOM     53  C   UNL A   1      45.094  28.143  27.987  1.00  0.00    -0.014 A 
BRANCH  53  54
ATOM     54  C   UNL A   1      44.547  29.074  29.004  1.00  0.00     0.031 A 
ATOM     55  C   UNL A   1      44.141  28.521  30.343  1.00  0.00     0.074 A 
ATOM     56  C   UNL A   1      44.471  30.395  28.768  1.00  0.00     0.049 A 
ATOM     57  N   UNL A   1      43.666  29.145  31.390  1.00  0.00    -0.248 NA
ATOM     58  C   UNL A   1      44.297  27.069  30.526  1.00  0.00     0.031 C 
ATOM     59  C   UNL A   1      44.881  31.061  27.532  1.00  0.00     0.029 A 
ATOM     60  N   UNL A   1      44.026  31.415  29.570  1.00  0.00    -0.354 N 
ATOM     61  C   UNL A   1      43.464  28.165  32.353  1.00  0.00     0.074 A 
ATOM     62  C   UNL A   1      43.834  26.900  31.756  1.00  0.00     0.031 C 
ATOM     63  C   UNL A   1      44.668  32.382  27.660  1.00  0.00     0.029 A 
ATOM     64  C   UNL A   1      44.078  32.649  28.971  1.00  0.00     0.049 A 
ATOM     65  H   UNL A   1      43.700  31.276  30.489  1.00  0.00     0.167 HD
ATOM     66  C   UNL A   1      43.016  28.302  33.624  1.00  0.00     0.031 A 
ATOM     67  C   UNL A   1      43.681  33.854  29.424  1.00  0.00     0.031 A 
ATOM     68  C   UNL A   1      42.626  29.556  34.212  1.00  0.00     0.049 A 
ATOM     69  C   UNL A   1      43.103  33.967  30.809  1.00  0.00     0.074 A 
ATOM     70  C   UNL A   1      42.166  29.800  35.494  1.00  0.00     0.029 A 
ATOM     71  N   UNL A   1      42.637  30.774  33.552  1.00  0.00    -0.354 N 
ATOM     72  N   UNL A   1      42.942  33.037  31.721  1.00  0.00    -0.248 NA
ATOM     73  C   UNL A   1      42.662  35.304  31.232  1.00  0.00     0.031 C 
ATOM     74  C   UNL A   1      41.836  31.156  35.588  1.00  0.00     0.029 A 
ATOM     75  C   UNL A   1      42.160  31.770  34.389  1.00  0.00     0.049 A 
ATOM     76  H   UNL A   1      42.939  30.913  32.625  1.00  0.00     0.167 HD
ATOM     77  C   UNL A   1      42.408  33.681  32.831  1.00  0.00     0.074 A 
ATOM     78  C   UNL A   1      42.298  35.084  32.487  1.00  0.00     0.031 C 
ATOM     79  C   UNL A   1      42.043  33.160  34.030  1.00  0.00     0.031 A 
BRANCH  66  80
ATOM     80  C   UNL A   1      42.882  27.051  34.449  1.00  0.00    -0.014 A 
ATOM     81  C   UNL A   1      41.634  26.445  34.665  1.00  0.00     0.009 A 
ATOM     82  C   UNL A   1      44.029  26.455  34.998  1.00  0.00     0.009 A 
ATOM     83  C   UNL A   1      41.534  25.287  35.441  1.00  0.00     0.001 A 
ATOM     84  C   UNL A   1      43.930  25.280  35.746  1.00  0.00     0.001 A 
ATOM     85  C   UNL A   1      42.683  24.703  35.976  1.00  0.00     0.000 A 
ENDBRANCH  66  80
BRANCH  67  86
ATOM     86  C   UNL A   1      43.793  35.055  28.552  1.00  0.00    -0.014 A 
ATOM     87  C   UNL A   1      44.818  35.993  28.745  1.00  0.00     0.009 A 
ATOM     88  C   UNL A   1      42.848  35.286  27.540  1.00  0.00     0.009 A 
ATOM     89  C   UNL A   1      44.878  37.149  27.963  1.00  0.00     0.001 A 
ATOM     90  C   UNL A   1      42.930  36.425  26.737  1.00  0.00     0.001 A 
ATOM     91  C   UNL A   1      43.937  37.362  26.956  1.00  0.00     0.000 A 
ENDBRANCH  67  86
BRANCH  79  92
ATOM     92  C   UNL A   1      41.520  34.120  35.065  1.00  0.00    -0.014 A 
ATOM     93  C   UNL A   1      42.381  34.775  35.961  1.00  0.00     0.009 A 
ATOM     94  C   UNL A   1      40.144  34.386  35.134  1.00  0.00     0.009 A 
ATOM     95  C   UNL A   1      41.868  35.631  36.937  1.00  0.00     0.001 A 
ATOM     96  C   UNL A   1      39.637  35.271  36.087  1.00  0.00     0.001 A 
ATOM     97  C   UNL A   1      40.497  35.881  36.997  1.00  0.00     0.000 A 
ENDBRANCH  79  92
ENDBRANCH  53  54
ENDBRANCH  46  48
ENDBRANCH  45  46
ENDBRANCH  44  45
ENDBRANCH  43  44
ENDBRANCH  42  43
ENDBRANCH  41  42
ENDBRANCH  40  41
ENDBRANCH  39  40
ENDBRANCH   1  39
TORSDOF 24
ENDMDL
MODEL 3
REMARK VINA RESULT:      -8.8     10.648     17.413
REMARK SMILES C[C@H](NC(=O)[C@@H]1CC(=O)N(c2ccc3c(c2)OCCO3)C1)C(=O)N1CCC(C(=O)OCCOCCOCCOCCOC(=O)c2ccc(-c3c4nc(c(-c5ccccc5)c5ccc([nH]5)c(-c5ccccc5)c5nc(c(-c6ccccc6)c6ccc3[nH]6)C=C5)C=C4)cc2)CC1
REMARK SMILES IDX 35 1 34 2 33 3 32 4 31 5 30 6 28 7 29 8 27 9 22 10 23 11
REMARK SMILES IDX 24 12 25 13 94 14 26 15 93 16 2 17 1 18 3 19 4 20 5 22 6 23
REMARK SMILES IDX 7 24 21 25 8 26 10 27 9 28 11 29 12 30 16 31 13 32 15 33
REMARK SMILES IDX 14 34 17 35 20 36 18 37 19 38 36 39 37 40 38 41 39 42 40 43
REMARK SMILES IDX 41 44 42 45 43 46 44 47 45 48 46 49 92 50 47 51 91 52 48 53
REMARK SMILES IDX 49 54 50 55 85 56 51 57 90 58 84 59 86 60 52 61 89 62 83 63
REMARK SMILES IDX 82 64 53 66 75 67 60 68 74 69 61 70 64 71 73 72 87 73 62 74
REMARK SMILES IDX 63 75 72 77 88 78 65 79 54 80 55 81 59 82 56 83 58 84 57 85
REMARK SMILES IDX 76 86 77 87 81 88 78 89 80 90 79 91 66 92 67 93 71 94 68 95
REMARK SMILES IDX 70 96 69 97
REMARK H PARENT 3 21 86 65 64 76
REMARK Flexibility Score: inf
ROOT
ATOM      1  C   UNL A   1      39.849  33.951  30.956  1.00  0.00     0.188 C 
ENDROOT
BRANCH   1   2
ATOM      2  C   UNL A   1      38.513  33.484  31.541  1.00  0.00     0.188 C 
BRANCH   2   3
ATOM      3  O   UNL A   1      37.310  33.575  30.799  1.00  0.00    -0.376 OA
BRANCH   3   4
ATOM      4  C   UNL A   1      36.980  32.641  29.782  1.00  0.00     0.202 C 
BRANCH   4   5
ATOM      5  C   UNL A   1      35.592  31.995  29.653  1.00  0.00     0.261 C 
BRANCH   5   6
ATOM      6  O   UNL A   1      35.047  31.894  28.329  1.00  0.00    -0.463 OA
BRANCH   6   7
ATOM      7  C   UNL A   1      35.328  30.748  27.674  1.00  0.00     0.309 C 
ATOM      8  O   UNL A   1      36.444  30.428  27.278  1.00  0.00    -0.252 OA
BRANCH   7   9
ATOM      9  C   UNL A   1      34.115  29.897  27.372  1.00  0.00     0.103 C 
ATOM     10  C   UNL A   1      31.270  28.260  24.734  1.00  0.00     0.244 C 
ATOM     11  O   UNL A   1      30.498  29.131  24.313  1.00  0.00    -0.273 OA
ATOM     12  N   UNL A   1      32.140  28.536  25.773  1.00  0.00    -0.341 N 
ATOM     13  C   UNL A   1      31.720  29.502  26.769  1.00  0.00     0.120 C 
ATOM     14  C   UNL A   1      33.453  27.940  25.966  1.00  0.00     0.120 C 
ATOM     15  C   UNL A   1      32.781  30.561  27.007  1.00  0.00     0.037 C 
ATOM     16  C   UNL A   1      34.528  28.975  26.230  1.00  0.00     0.037 C 
BRANCH  10  17
ATOM     17  C   UNL A   1      30.978  26.778  24.381  1.00  0.00     0.168 C 
ATOM     18  C   UNL A   1      29.516  26.718  23.950  1.00  0.00     0.041 C 
BRANCH  17  19
ATOM     19  N   UNL A   1      31.436  25.762  25.334  1.00  0.00    -0.344 N 
ATOM     20  C   UNL A   1      31.844  24.471  25.276  1.00  0.00     0.226 C 
ATOM     21  H   UNL A   1      31.451  26.107  26.256  1.00  0.00     0.164 HD
ATOM     22  O   UNL A   1      31.746  23.823  26.321  1.00  0.00    -0.275 OA
BRANCH  20  23
ATOM     23  C   UNL A   1      32.460  23.854  24.041  1.00  0.00     0.107 C 
ATOM     24  C   UNL A   1      32.279  22.340  23.952  1.00  0.00     0.116 C 
ATOM     25  C   UNL A   1      33.963  24.059  24.131  1.00  0.00     0.139 C 
ATOM     26  C   UNL A   1      33.585  21.755  24.415  1.00  0.00     0.227 C 
ATOM     27  N   UNL A   1      34.483  22.798  24.581  1.00  0.00    -0.311 N 
ATOM     28  O   UNL A   1      33.754  20.562  24.609  1.00  0.00    -0.274 OA
BRANCH  27  29
ATOM     29  C   UNL A   1      35.804  22.649  25.025  1.00  0.00     0.048 A 
ATOM     30  C   UNL A   1      36.505  21.466  24.760  1.00  0.00     0.030 A 
ATOM     31  C   UNL A   1      36.427  23.686  25.720  1.00  0.00     0.076 A 
ATOM     32  C   UNL A   1      37.831  21.331  25.173  1.00  0.00     0.052 A 
ATOM     33  C   UNL A   1      37.732  23.531  26.170  1.00  0.00     0.163 A 
ATOM     34  C   UNL A   1      38.436  22.355  25.897  1.00  0.00     0.161 A 
ATOM     35  O   UNL A   1      38.252  24.572  26.896  1.00  0.00    -0.486 OA
ATOM     36  O   UNL A   1      39.729  22.143  26.299  1.00  0.00    -0.486 OA
ATOM     37  C   UNL A   1      39.676  24.483  26.975  1.00  0.00     0.271 C 
ATOM     38  C   UNL A   1      40.112  23.068  27.321  1.00  0.00     0.271 C 
ENDBRANCH  27  29
ENDBRANCH  20  23
ENDBRANCH  17  19
ENDBRANCH  10  17
ENDBRANCH   7   9
ENDBRANCH   6   7
ENDBRANCH   5   6
ENDBRANCH   4   5
ENDBRANCH   3   4
ENDBRANCH   2   3
ENDBRANCH   1   2
BRANCH   1  39
ATOM     39  O   UNL A   1      39.817  34.405  29.619  1.00  0.00    -0.377 OA
BRANCH  39  40
ATOM     40  C   UNL A   1      40.919  35.183  29.158  1.00  0.00     0.188 C 
BRANCH  40  41
ATOM     41  C   UNL A   1      42.216  35.183  29.990  1.00  0.00     0.188 C 
BRANCH  41  42
ATOM     42  O   UNL A   1      43.406  35.176  29.216  1.00  0.00    -0.376 OA
BRANCH  42  43
ATOM     43  C   UNL A   1      43.966  36.412  28.794  1.00  0.00     0.202 C 
BRANCH  43  44
ATOM     44  C   UNL A   1      43.265  37.184  27.663  1.00  0.00     0.261 C 
BRANCH  44  45
ATOM     45  O   UNL A   1      43.871  38.424  27.260  1.00  0.00    -0.460 OA
BRANCH  45  46
ATOM     46  C   UNL A   1      43.086  39.359  26.689  1.00  0.00     0.338 C 
ATOM     47  O   UNL A   1      41.868  39.406  26.699  1.00  0.00    -0.246 OA
BRANCH  46  48
ATOM     48  C   UNL A   1      43.956  40.455  26.216  1.00  0.00     0.060 A 
ATOM     49  C   UNL A   1      43.493  41.771  26.332  1.00  0.00     0.016 A 
ATOM     50  C   UNL A   1      45.205  40.192  25.648  1.00  0.00     0.016 A 
ATOM     51  C   UNL A   1      44.259  42.827  25.844  1.00  0.00     0.010 A 
ATOM     52  C   UNL A   1      45.962  41.251  25.135  1.00  0.00     0.010 A 
ATOM     53  C   UNL A   1      45.474  42.568  25.199  1.00  0.00    -0.014 A 
BRANCH  53  54
ATOM     54  C   UNL A   1      46.127  43.658  24.433  1.00  0.00     0.031 A 
ATOM     55  C   UNL A   1      45.595  43.998  23.067  1.00  0.00     0.074 A 
ATOM     56  C   UNL A   1      47.131  44.376  24.965  1.00  0.00     0.049 A 
ATOM     57  N   UNL A   1      45.986  44.925  22.231  1.00  0.00    -0.248 NA
ATOM     58  C   UNL A   1      44.467  43.186  22.583  1.00  0.00     0.031 C 
ATOM     59  C   UNL A   1      47.701  44.180  26.296  1.00  0.00     0.029 A 
ATOM     60  N   UNL A   1      47.844  45.425  24.442  1.00  0.00    -0.354 N 
ATOM     61  C   UNL A   1      45.157  44.806  21.123  1.00  0.00     0.074 A 
ATOM     62  C   UNL A   1      44.264  43.696  21.377  1.00  0.00     0.031 C 
ATOM     63  C   UNL A   1      48.679  45.083  26.487  1.00  0.00     0.029 A 
ATOM     64  C   UNL A   1      48.823  45.897  25.281  1.00  0.00     0.049 A 
ATOM     65  H   UNL A   1      47.671  45.804  23.550  1.00  0.00     0.167 HD
ATOM     66  C   UNL A   1      45.133  45.556  19.995  1.00  0.00     0.031 A 
ATOM     67  C   UNL A   1      49.741  46.864  25.090  1.00  0.00     0.031 A 
ATOM     68  C   UNL A   1      46.034  46.646  19.731  1.00  0.00     0.049 A 
ATOM     69  C   UNL A   1      49.752  47.625  23.791  1.00  0.00     0.074 A 
ATOM     70  C   UNL A   1      46.086  47.472  18.621  1.00  0.00     0.029 A 
ATOM     71  N   UNL A   1      47.051  47.053  20.580  1.00  0.00    -0.354 N 
ATOM     72  N   UNL A   1      48.946  47.522  22.761  1.00  0.00    -0.248 NA
ATOM     73  C   UNL A   1      50.797  48.647  23.634  1.00  0.00     0.031 C 
ATOM     74  C   UNL A   1      47.177  48.334  18.770  1.00  0.00     0.029 A 
ATOM     75  C   UNL A   1      47.758  48.096  20.005  1.00  0.00     0.049 A 
ATOM     76  H   UNL A   1      47.243  46.660  21.462  1.00  0.00     0.167 HD
ATOM     77  C   UNL A   1      49.368  48.481  21.849  1.00  0.00     0.074 A 
ATOM     78  C   UNL A   1      50.485  49.173  22.459  1.00  0.00     0.031 C 
ATOM     79  C   UNL A   1      48.877  48.768  20.617  1.00  0.00     0.031 A 
BRANCH  66  80
ATOM     80  C   UNL A   1      44.124  45.189  18.941  1.00  0.00    -0.014 A 
ATOM     81  C   UNL A   1      44.311  44.081  18.099  1.00  0.00     0.009 A 
ATOM     82  C   UNL A   1      42.952  45.951  18.807  1.00  0.00     0.009 A 
ATOM     83  C   UNL A   1      43.363  43.764  17.123  1.00  0.00     0.001 A 
ATOM     84  C   UNL A   1      41.991  45.614  17.852  1.00  0.00     0.001 A 
ATOM     85  C   UNL A   1      42.202  44.528  17.005  1.00  0.00     0.000 A 
ENDBRANCH  66  80
BRANCH  67  86
ATOM     86  C   UNL A   1      50.748  47.160  26.146  1.00  0.00    -0.014 A 
ATOM     87  C   UNL A   1      51.801  46.270  26.406  1.00  0.00     0.009 A 
ATOM     88  C   UNL A   1      50.637  48.324  26.924  1.00  0.00     0.009 A 
ATOM     89  C   UNL A   1      52.704  46.526  27.441  1.00  0.00     0.001 A 
ATOM     90  C   UNL A   1      51.562  48.594  27.934  1.00  0.00     0.001 A 
ATOM     91  C   UNL A   1      52.588  47.689  28.201  1.00  0.00     0.000 A 
ENDBRANCH  67  86
BRANCH  79  92
ATOM     92  C   UNL A   1      49.526  49.898  19.864  1.00  0.00    -0.014 A 
ATOM     93  C   UNL A   1      50.678  49.697  19.088  1.00  0.00     0.009 A 
ATOM     94  C   UNL A   1      48.965  51.183  19.921  1.00  0.00     0.009 A 
ATOM     95  C   UNL A   1      51.285  50.769  18.429  1.00  0.00     0.001 A 
ATOM     96  C   UNL A   1      49.551  52.246  19.231  1.00  0.00     0.001 A 
ATOM     97  C   UNL A   1      50.718  52.042  18.499  1.00  0.00     0.000 A 
ENDBRANCH  79  92
ENDBRANCH  53  54
ENDBRANCH  46  48
ENDBRANCH  45  46
ENDBRANCH  44  45
ENDBRANCH  43  44
ENDBRANCH  42  43
ENDBRANCH  41  42
ENDBRANCH  40  41
ENDBRANCH  39  40
ENDBRANCH   1  39
TORSDOF 24
ENDMDL
