MODEL 1
REMARK VINA RESULT:     -11.6      0.000      0.000
REMARK SMILES Cc1ccccc1NC(=O)C[NH+]1CCC(CC(=O)OCCOCCOCCOCCOC(=O)c2ccc(-c3c4nc(c(-c5ccccc5)c5ccc([nH]5)c(-c5ccccc5)c5nc(c(-c6ccccc6)c6ccc3[nH]6)C=C5)C=C4)cc2)CC1
REMARK SMILES IDX 24 1 23 2 22 3 21 4 20 5 19 6 17 7 18 8 16 9 15 10 12 11
REMARK SMILES IDX 13 12 83 13 14 15 82 16 11 17 9 18 8 19 10 21 7 22 1 23 2 24
REMARK SMILES IDX 3 25 4 26 6 27 5 28 25 29 26 30 27 31 28 32 29 33 30 34
REMARK SMILES IDX 31 35 32 36 33 37 34 38 35 39 81 40 36 41 80 42 37 43 38 44
REMARK SMILES IDX 39 45 74 46 40 47 79 48 73 49 75 50 41 51 78 52 72 53 71 54
REMARK SMILES IDX 42 56 64 57 49 58 63 59 50 60 53 61 62 62 76 63 51 64 52 65
REMARK SMILES IDX 61 67 77 68 54 69 43 70 44 71 48 72 45 73 47 74 46 75 65 76
REMARK SMILES IDX 66 77 70 78 67 79 69 80 68 81 55 82 56 83 60 84 57 85 59 86
REMARK SMILES IDX 58 87
REMARK H PARENT 12 14 8 20 75 55 53 66
REMARK Flexibility Score: inf
ROOT
ATOM      1  C   UNL A   1      40.156  19.615  25.973  1.00  0.00     0.188 C 
ENDROOT
BRANCH   1   2
ATOM      2  C   UNL A   1      40.456  21.056  26.455  1.00  0.00     0.188 C 
BRANCH   2   3
ATOM      3  O   UNL A   1      39.530  22.236  26.783  1.00  0.00    -0.376 OA
BRANCH   3   4
ATOM      4  C   UNL A   1      38.130  22.794  25.993  1.00  0.00     0.202 C 
BRANCH   4   5
ATOM      5  C   UNL A   1      37.074  22.313  24.506  1.00  0.00     0.261 C 
BRANCH   5   6
ATOM      6  O   UNL A   1      35.356  21.637  24.359  1.00  0.00    -0.463 OA
BRANCH   6   7
ATOM      7  C   UNL A   1      34.070  21.160  25.180  1.00  0.00     0.306 C 
ATOM      8  O   UNL A   1      33.867  19.941  25.285  1.00  0.00    -0.252 OA
BRANCH   7   9
ATOM      9  C   UNL A   1      32.719  22.222  25.783  1.00  0.00     0.126 C 
BRANCH   9  10
ATOM     10  C   UNL A   1      31.632  23.443  25.248  1.00  0.00     0.011 C 
ATOM     11  N   UNL A   1      30.754  26.274  24.208  1.00  0.00    -0.327 N 
ATOM     12  C   UNL A   1      30.378  25.771  25.505  1.00  0.00     0.262 C 
ATOM     13  C   UNL A   1      30.990  25.133  23.312  1.00  0.00     0.262 C 
ATOM     14  H   UNL A   1      31.648  26.766  24.203  1.00  0.00     0.348 HD
ATOM     15  C   UNL A   1      31.416  24.770  25.978  1.00  0.00     0.066 C 
ATOM     16  C   UNL A   1      31.988  24.016  23.833  1.00  0.00     0.066 C 
BRANCH  11  17
ATOM     17  C   UNL A   1      29.820  27.362  23.780  1.00  0.00     0.363 C 
BRANCH  17  18
ATOM     18  C   UNL A   1      30.415  28.520  22.917  1.00  0.00     0.279 C 
ATOM     19  N   UNL A   1      31.495  29.262  23.326  1.00  0.00    -0.321 N 
ATOM     20  H   UNL A   1      31.865  29.892  22.667  1.00  0.00     0.170 HD
ATOM     21  O   UNL A   1      29.968  28.759  21.787  1.00  0.00    -0.268 OA
BRANCH  19  22
ATOM     22  C   UNL A   1      32.127  29.224  24.570  1.00  0.00     0.044 A 
ATOM     23  C   UNL A   1      33.965  27.644  23.698  1.00  0.00     0.046 C 
ATOM     24  C   UNL A   1      33.226  28.376  24.785  1.00  0.00    -0.027 A 
ATOM     25  C   UNL A   1      33.627  28.145  26.114  1.00  0.00     0.005 A 
ATOM     26  C   UNL A   1      32.986  28.779  27.184  1.00  0.00     0.000 A 
ATOM     27  C   UNL A   1      31.590  29.961  25.632  1.00  0.00     0.026 A 
ATOM     28  C   UNL A   1      31.995  29.720  26.939  1.00  0.00     0.002 A 
ENDBRANCH  19  22
ENDBRANCH  17  18
ENDBRANCH  11  17
ENDBRANCH   9  10
ENDBRANCH   7   9
ENDBRANCH   6   7
ENDBRANCH   5   6
ENDBRANCH   4   5
ENDBRANCH   3   4
ENDBRANCH   2   3
ENDBRANCH   1   2
BRANCH   1  29
ATOM     29  O   UNL A   1      41.253  18.789  25.760  1.00  0.00    -0.377 OA
BRANCH  29  30
ATOM     30  C   UNL A   1      42.505  19.439  25.643  1.00  0.00     0.188 C 
BRANCH  30  31
ATOM     31  C   UNL A   1      43.811  18.647  25.758  1.00  0.00     0.188 C 
BRANCH  31  32
ATOM     32  O   UNL A   1      44.511  18.470  24.524  1.00  0.00    -0.376 OA
BRANCH  32  33
ATOM     33  C   UNL A   1      45.282  19.562  24.023  1.00  0.00     0.202 C 
BRANCH  33  34
ATOM     34  C   UNL A   1      45.756  20.570  25.082  1.00  0.00     0.261 C 
BRANCH  34  35
ATOM     35  O   UNL A   1      45.755  21.892  24.507  1.00  0.00    -0.460 OA
BRANCH  35  36
ATOM     36  C   UNL A   1      44.549  22.522  24.511  1.00  0.00     0.338 C 
ATOM     37  O   UNL A   1      43.694  22.415  23.653  1.00  0.00    -0.246 OA
BRANCH  36  38
ATOM     38  C   UNL A   1      44.564  23.592  25.561  1.00  0.00     0.060 A 
ATOM     39  C   UNL A   1      44.766  24.912  25.189  1.00  0.00     0.016 A 
ATOM     40  C   UNL A   1      44.681  23.267  26.917  1.00  0.00     0.016 A 
ATOM     41  C   UNL A   1      45.215  25.840  26.153  1.00  0.00     0.010 A 
ATOM     42  C   UNL A   1      45.319  24.145  27.812  1.00  0.00     0.010 A 
ATOM     43  C   UNL A   1      45.717  25.439  27.428  1.00  0.00    -0.014 A 
BRANCH  43  44
ATOM     44  C   UNL A   1      46.649  26.313  28.525  1.00  0.00     0.031 A 
ATOM     45  C   UNL A   1      48.114  25.857  27.633  1.00  0.00     0.074 A 
ATOM     46  C   UNL A   1      46.451  26.964  30.069  1.00  0.00     0.049 A 
ATOM     47  N   UNL A   1      49.163  25.252  28.140  1.00  0.00    -0.248 NA
ATOM     48  C   UNL A   1      48.279  25.862  26.156  1.00  0.00     0.031 C 
ATOM     49  C   UNL A   1      47.473  27.703  31.217  1.00  0.00     0.029 A 
ATOM     50  N   UNL A   1      45.520  26.714  31.251  1.00  0.00    -0.354 N 
ATOM     51  C   UNL A   1      50.203  25.430  27.287  1.00  0.00     0.074 A 
ATOM     52  C   UNL A   1      49.563  25.504  26.000  1.00  0.00     0.031 C 
ATOM     53  C   UNL A   1      47.129  27.690  32.491  1.00  0.00     0.029 A 
ATOM     54  C   UNL A   1      46.115  26.734  32.548  1.00  0.00     0.049 A 
ATOM     55  H   UNL A   1      44.558  26.548  31.125  1.00  0.00     0.167 HD
ATOM     56  C   UNL A   1      51.447  25.791  27.726  1.00  0.00     0.031 A 
ATOM     57  C   UNL A   1      46.161  25.791  33.532  1.00  0.00     0.031 A 
ATOM     58  C   UNL A   1      51.515  26.186  29.162  1.00  0.00     0.049 A 
ATOM     59  C   UNL A   1      47.640  25.350  33.806  1.00  0.00     0.074 A 
ATOM     60  C   UNL A   1      51.697  27.417  29.785  1.00  0.00     0.029 A 
ATOM     61  N   UNL A   1      51.124  25.330  30.200  1.00  0.00    -0.354 N 
ATOM     62  N   UNL A   1      48.678  25.790  33.119  1.00  0.00    -0.248 NA
ATOM     63  C   UNL A   1      48.072  24.355  34.782  1.00  0.00     0.031 C 
ATOM     64  C   UNL A   1      51.461  27.282  31.189  1.00  0.00     0.029 A 
ATOM     65  C   UNL A   1      51.124  25.965  31.455  1.00  0.00     0.049 A 
ATOM     66  H   UNL A   1      50.878  24.387  30.067  1.00  0.00     0.167 HD
ATOM     67  C   UNL A   1      49.816  25.092  33.404  1.00  0.00     0.074 A 
ATOM     68  C   UNL A   1      49.391  24.248  34.517  1.00  0.00     0.031 C 
ATOM     69  C   UNL A   1      50.998  25.185  32.704  1.00  0.00     0.031 A 
BRANCH  56  70
ATOM     70  C   UNL A   1      52.496  26.139  26.681  1.00  0.00    -0.014 A 
ATOM     71  C   UNL A   1      52.744  27.461  26.284  1.00  0.00     0.009 A 
ATOM     72  C   UNL A   1      53.258  25.146  26.027  1.00  0.00     0.009 A 
ATOM     73  C   UNL A   1      53.602  27.765  25.215  1.00  0.00     0.001 A 
ATOM     74  C   UNL A   1      54.080  25.436  24.928  1.00  0.00     0.001 A 
ATOM     75  C   UNL A   1      54.241  26.749  24.512  1.00  0.00     0.000 A 
ENDBRANCH  56  70
BRANCH  57  76
ATOM     76  C   UNL A   1      44.877  25.062  33.662  1.00  0.00    -0.014 A 
ATOM     77  C   UNL A   1      44.941  23.670  33.387  1.00  0.00     0.009 A 
ATOM     78  C   UNL A   1      43.786  25.542  34.385  1.00  0.00     0.009 A 
ATOM     79  C   UNL A   1      44.084  22.768  34.014  1.00  0.00     0.001 A 
ATOM     80  C   UNL A   1      42.916  24.630  35.004  1.00  0.00     0.001 A 
ATOM     81  C   UNL A   1      43.095  23.251  34.859  1.00  0.00     0.000 A 
ENDBRANCH  57  76
BRANCH  69  82
ATOM     82  C   UNL A   1      52.262  24.526  33.202  1.00  0.00    -0.014 A 
ATOM     83  C   UNL A   1      53.280  25.244  33.843  1.00  0.00     0.009 A 
ATOM     84  C   UNL A   1      52.528  23.177  32.889  1.00  0.00     0.009 A 
ATOM     85  C   UNL A   1      54.460  24.613  34.254  1.00  0.00     0.001 A 
ATOM     86  C   UNL A   1      53.717  22.553  33.267  1.00  0.00     0.001 A 
ATOM     87  C   UNL A   1      54.674  23.267  33.974  1.00  0.00     0.000 A 
ENDBRANCH  69  82
ENDBRANCH  43  44
ENDBRANCH  36  38
ENDBRANCH  35  36
ENDBRANCH  34  35
ENDBRANCH  33  34
ENDBRANCH  32  33
ENDBRANCH  31  32
ENDBRANCH  30  31
ENDBRANCH  29  30
ENDBRANCH   1  29
TORSDOF 24
ENDMDL
MODEL 2
REMARK VINA RESULT:      -9.9      4.952      9.209
REMARK SMILES Cc1ccccc1NC(=O)C[NH+]1CCC(CC(=O)OCCOCCOCCOCCOC(=O)c2ccc(-c3c4nc(c(-c5ccccc5)c5ccc([nH]5)c(-c5ccccc5)c5nc(c(-c6ccccc6)c6ccc3[nH]6)C=C5)C=C4)cc2)CC1
REMARK SMILES IDX 24 1 23 2 22 3 21 4 20 5 19 6 17 7 18 8 16 9 15 10 12 11
REMARK SMILES IDX 13 12 83 13 14 15 82 16 11 17 9 18 8 19 10 21 7 22 1 23 2 24
REMARK SMILES IDX 3 25 4 26 6 27 5 28 25 29 26 30 27 31 28 32 29 33 30 34
REMARK SMILES IDX 31 35 32 36 33 37 34 38 35 39 81 40 36 41 80 42 37 43 38 44
REMARK SMILES IDX 39 45 74 46 40 47 79 48 73 49 75 50 41 51 78 52 72 53 71 54
REMARK SMILES IDX 42 56 64 57 49 58 63 59 50 60 53 61 62 62 76 63 51 64 52 65
REMARK SMILES IDX 61 67 77 68 54 69 43 70 44 71 48 72 45 73 47 74 46 75 65 76
REMARK SMILES IDX 66 77 70 78 67 79 69 80 68 81 55 82 56 83 60 84 57 85 59 86
REMARK SMILES IDX 58 87
REMARK H PARENT 12 14 8 20 75 55 53 66
REMARK Flexibility Score: inf
ROOT
ATOM      1  C   UNL A   1      36.096  30.226  28.346  1.00  0.00     0.188 C 
ENDROOT
BRANCH   1   2
ATOM      2  C   UNL A   1      37.365  29.387  28.054  1.00  0.00     0.188 C 
BRANCH   2   3
ATOM      3  O   UNL A   1      37.907  28.100  28.693  1.00  0.00    -0.376 OA
BRANCH   3   4
ATOM      4  C   UNL A   1      39.462  27.409  28.638  1.00  0.00     0.202 C 
BRANCH   4   5
ATOM      5  C   UNL A   1      40.431  26.224  27.537  1.00  0.00     0.261 C 
BRANCH   5   6
ATOM      6  O   UNL A   1      39.922  24.760  26.523  1.00  0.00    -0.463 OA
BRANCH   6   7
ATOM      7  C   UNL A   1      39.154  23.358  26.555  1.00  0.00     0.306 C 
ATOM      8  O   UNL A   1      39.725  22.396  27.091  1.00  0.00    -0.252 OA
BRANCH   7   9
ATOM      9  C   UNL A   1      37.617  22.949  25.668  1.00  0.00     0.126 C 
BRANCH   9  10
ATOM     10  C   UNL A   1      36.356  23.686  24.759  1.00  0.00     0.011 C 
ATOM     11  N   UNL A   1      33.402  24.281  23.877  1.00  0.00    -0.327 N 
ATOM     12  C   UNL A   1      34.354  23.626  23.015  1.00  0.00     0.262 C 
ATOM     13  C   UNL A   1      34.134  25.125  24.831  1.00  0.00     0.262 C 
ATOM     14  H   UNL A   1      32.885  23.640  24.479  1.00  0.00     0.348 HD
ATOM     15  C   UNL A   1      35.390  22.910  23.862  1.00  0.00     0.066 C 
ATOM     16  C   UNL A   1      35.299  24.426  25.649  1.00  0.00     0.066 C 
BRANCH  11  17
ATOM     17  C   UNL A   1      32.293  24.879  23.070  1.00  0.00     0.363 C 
BRANCH  17  18
ATOM     18  C   UNL A   1      30.830  24.523  23.484  1.00  0.00     0.279 C 
ATOM     19  N   UNL A   1      30.052  25.367  24.236  1.00  0.00    -0.321 N 
ATOM     20  H   UNL A   1      29.110  25.105  24.350  1.00  0.00     0.170 HD
ATOM     21  O   UNL A   1      30.295  23.483  23.077  1.00  0.00    -0.268 OA
BRANCH  19  22
ATOM     22  C   UNL A   1      30.445  26.553  24.857  1.00  0.00     0.044 A 
ATOM     23  C   UNL A   1      29.853  27.954  22.779  1.00  0.00     0.046 C 
ATOM     24  C   UNL A   1      30.462  27.761  24.141  1.00  0.00    -0.027 A 
ATOM     25  C   UNL A   1      31.148  28.852  24.708  1.00  0.00     0.005 A 
ATOM     26  C   UNL A   1      31.749  28.753  25.966  1.00  0.00     0.000 A 
ATOM     27  C   UNL A   1      30.924  26.510  26.172  1.00  0.00     0.026 A 
ATOM     28  C   UNL A   1      31.601  27.595  26.717  1.00  0.00     0.002 A 
ENDBRANCH  19  22
ENDBRANCH  17  18
ENDBRANCH  11  17
ENDBRANCH   9  10
ENDBRANCH   7   9
ENDBRANCH   6   7
ENDBRANCH   5   6
ENDBRANCH   4   5
ENDBRANCH   3   4
ENDBRANCH   2   3
ENDBRANCH   1   2
BRANCH   1  29
ATOM     29  O   UNL A   1      35.957  30.712  29.640  1.00  0.00    -0.377 OA
BRANCH  29  30
ATOM     30  C   UNL A   1      35.674  32.094  29.757  1.00  0.00     0.188 C 
BRANCH  30  31
ATOM     31  C   UNL A   1      36.675  33.141  29.261  1.00  0.00     0.188 C 
BRANCH  31  32
ATOM     32  O   UNL A   1      38.028  32.910  29.663  1.00  0.00    -0.376 OA
BRANCH  32  33
ATOM     33  C   UNL A   1      38.840  34.039  29.981  1.00  0.00     0.202 C 
BRANCH  33  34
ATOM     34  C   UNL A   1      38.689  34.572  31.415  1.00  0.00     0.261 C 
BRANCH  34  35
ATOM     35  O   UNL A   1      38.202  33.512  32.262  1.00  0.00    -0.460 OA
BRANCH  35  36
ATOM     36  C   UNL A   1      38.933  33.292  33.388  1.00  0.00     0.338 C 
ATOM     37  O   UNL A   1      39.068  34.076  34.307  1.00  0.00    -0.246 OA
BRANCH  36  38
ATOM     38  C   UNL A   1      39.783  32.073  33.184  1.00  0.00     0.060 A 
ATOM     39  C   UNL A   1      41.164  32.196  33.187  1.00  0.00     0.016 A 
ATOM     40  C   UNL A   1      39.231  30.884  32.697  1.00  0.00     0.016 A 
ATOM     41  C   UNL A   1      41.947  31.192  32.576  1.00  0.00     0.010 A 
ATOM     42  C   UNL A   1      40.002  30.002  31.918  1.00  0.00     0.010 A 
ATOM     43  C   UNL A   1      41.384  30.188  31.733  1.00  0.00    -0.014 A 
BRANCH  43  44
ATOM     44  C   UNL A   1      42.151  29.184  30.619  1.00  0.00     0.031 A 
ATOM     45  C   UNL A   1      42.842  28.242  31.956  1.00  0.00     0.074 A 
ATOM     46  C   UNL A   1      42.548  29.234  28.980  1.00  0.00     0.049 A 
ATOM     47  N   UNL A   1      44.119  28.005  32.146  1.00  0.00    -0.248 NA
ATOM     48  C   UNL A   1      42.123  27.795  33.177  1.00  0.00     0.031 C 
ATOM     49  C   UNL A   1      43.471  28.267  27.922  1.00  0.00     0.029 A 
ATOM     50  N   UNL A   1      42.730  30.327  27.932  1.00  0.00    -0.354 N 
ATOM     51  C   UNL A   1      44.228  26.955  32.999  1.00  0.00     0.074 A 
ATOM     52  C   UNL A   1      43.056  27.080  33.826  1.00  0.00     0.031 C 
ATOM     53  C   UNL A   1      43.966  28.802  26.822  1.00  0.00     0.029 A 
ATOM     54  C   UNL A   1      43.831  30.174  27.035  1.00  0.00     0.049 A 
ATOM     55  H   UNL A   1      42.120  31.097  27.876  1.00  0.00     0.167 HD
ATOM     56  C   UNL A   1      45.096  25.922  32.771  1.00  0.00     0.031 A 
ATOM     57  C   UNL A   1      44.896  30.984  26.771  1.00  0.00     0.031 A 
ATOM     58  C   UNL A   1      45.737  25.929  31.424  1.00  0.00     0.049 A 
ATOM     59  C   UNL A   1      46.238  30.279  27.170  1.00  0.00     0.074 A 
ATOM     60  C   UNL A   1      45.568  25.120  30.305  1.00  0.00     0.029 A 
ATOM     61  N   UNL A   1      46.503  27.005  30.958  1.00  0.00    -0.354 N 
ATOM     62  N   UNL A   1      46.303  29.093  27.746  1.00  0.00    -0.248 NA
ATOM     63  C   UNL A   1      47.576  30.846  27.038  1.00  0.00     0.031 C 
ATOM     64  C   UNL A   1      46.267  25.688  29.195  1.00  0.00     0.029 A 
ATOM     65  C   UNL A   1      46.876  26.861  29.609  1.00  0.00     0.049 A 
ATOM     66  H   UNL A   1      46.755  27.777  31.514  1.00  0.00     0.167 HD
ATOM     67  C   UNL A   1      47.562  28.806  28.189  1.00  0.00     0.074 A 
ATOM     68  C   UNL A   1      48.342  29.915  27.646  1.00  0.00     0.031 C 
ATOM     69  C   UNL A   1      47.892  27.744  29.001  1.00  0.00     0.031 A 
BRANCH  56  70
ATOM     70  C   UNL A   1      45.016  24.712  33.687  1.00  0.00    -0.014 A 
ATOM     71  C   UNL A   1      44.228  23.593  33.378  1.00  0.00     0.009 A 
ATOM     72  C   UNL A   1      45.705  24.658  34.918  1.00  0.00     0.009 A 
ATOM     73  C   UNL A   1      44.038  22.545  34.293  1.00  0.00     0.001 A 
ATOM     74  C   UNL A   1      45.484  23.640  35.856  1.00  0.00     0.001 A 
ATOM     75  C   UNL A   1      44.636  22.587  35.547  1.00  0.00     0.000 A 
ENDBRANCH  56  70
BRANCH  57  76
ATOM     76  C   UNL A   1      44.510  32.415  26.734  1.00  0.00    -0.014 A 
ATOM     77  C   UNL A   1      44.985  33.199  27.819  1.00  0.00     0.009 A 
ATOM     78  C   UNL A   1      44.094  33.072  25.577  1.00  0.00     0.009 A 
ATOM     79  C   UNL A   1      45.262  34.555  27.664  1.00  0.00     0.001 A 
ATOM     80  C   UNL A   1      44.362  34.443  25.431  1.00  0.00     0.001 A 
ATOM     81  C   UNL A   1      44.987  35.168  26.450  1.00  0.00     0.000 A 
ENDBRANCH  57  76
BRANCH  69  82
ATOM     82  C   UNL A   1      49.332  27.388  29.284  1.00  0.00    -0.014 A 
ATOM     83  C   UNL A   1      50.178  26.851  28.304  1.00  0.00     0.009 A 
ATOM     84  C   UNL A   1      49.828  27.436  30.602  1.00  0.00     0.009 A 
ATOM     85  C   UNL A   1      51.496  26.488  28.607  1.00  0.00     0.001 A 
ATOM     86  C   UNL A   1      51.129  27.043  30.915  1.00  0.00     0.001 A 
ATOM     87  C   UNL A   1      51.973  26.593  29.910  1.00  0.00     0.000 A 
ENDBRANCH  69  82
ENDBRANCH  43  44
ENDBRANCH  36  38
ENDBRANCH  35  36
ENDBRANCH  34  35
ENDBRANCH  33  34
ENDBRANCH  32  33
ENDBRANCH  31  32
ENDBRANCH  30  31
ENDBRANCH  29  30
ENDBRANCH   1  29
TORSDOF 24
ENDMDL
MODEL 3
REMARK VINA RESULT:      -9.7      4.004      8.275
REMARK SMILES Cc1ccccc1NC(=O)C[NH+]1CCC(CC(=O)OCCOCCOCCOCCOC(=O)c2ccc(-c3c4nc(c(-c5ccccc5)c5ccc([nH]5)c(-c5ccccc5)c5nc(c(-c6ccccc6)c6ccc3[nH]6)C=C5)C=C4)cc2)CC1
REMARK SMILES IDX 24 1 23 2 22 3 21 4 20 5 19 6 17 7 18 8 16 9 15 10 12 11
REMARK SMILES IDX 13 12 83 13 14 15 82 16 11 17 9 18 8 19 10 21 7 22 1 23 2 24
REMARK SMILES IDX 3 25 4 26 6 27 5 28 25 29 26 30 27 31 28 32 29 33 30 34
REMARK SMILES IDX 31 35 32 36 33 37 34 38 35 39 81 40 36 41 80 42 37 43 38 44
REMARK SMILES IDX 39 45 74 46 40 47 79 48 73 49 75 50 41 51 78 52 72 53 71 54
REMARK SMILES IDX 42 56 64 57 49 58 63 59 50 60 53 61 62 62 76 63 51 64 52 65
REMARK SMILES IDX 61 67 77 68 54 69 43 70 44 71 48 72 45 73 47 74 46 75 65 76
REMARK SMILES IDX 66 77 70 78 67 79 69 80 68 81 55 82 56 83 60 84 57 85 59 86
REMARK SMILES IDX 58 87
REMARK H PARENT 12 14 8 20 75 55 53 66
REMARK Flexibility Score: inf
ROOT
ATOM      1  C   UNL A   1      42.884  25.097  26.475  1.00  0.00     0.188 C 
ENDROOT
BRANCH   1   2
ATOM      2  C   UNL A   1      41.578  25.917  26.329  1.00  0.00     0.188 C 
BRANCH   2   3
ATOM      3  O   UNL A   1      41.305  27.301  25.723  1.00  0.00    -0.376 OA
BRANCH   3   4
ATOM      4  C   UNL A   1      40.551  28.672  26.393  1.00  0.00     0.202 C 
BRANCH   4   5
ATOM      5  C   UNL A   1      39.479  29.093  27.887  1.00  0.00     0.261 C 
BRANCH   5   6
ATOM      6  O   UNL A   1      37.666  28.911  28.215  1.00  0.00    -0.463 OA
BRANCH   6   7
ATOM      7  C   UNL A   1      36.328  29.695  28.604  1.00  0.00     0.306 C 
ATOM      8  O   UNL A   1      36.124  29.934  29.804  1.00  0.00    -0.252 OA
BRANCH   7   9
ATOM      9  C   UNL A   1      34.936  30.071  27.493  1.00  0.00     0.126 C 
BRANCH   9  10
ATOM     10  C   UNL A   1      34.050  29.403  26.178  1.00  0.00     0.011 C 
ATOM     11  N   UNL A   1      31.760  27.783  24.766  1.00  0.00    -0.327 N 
ATOM     12  C   UNL A   1      33.141  27.370  24.730  1.00  0.00     0.262 C 
ATOM     13  C   UNL A   1      31.710  29.240  24.949  1.00  0.00     0.262 C 
ATOM     14  H   UNL A   1      31.247  27.427  25.572  1.00  0.00     0.348 HD
ATOM     15  C   UNL A   1      33.857  27.902  25.958  1.00  0.00     0.066 C 
ATOM     16  C   UNL A   1      32.543  29.833  26.162  1.00  0.00     0.066 C 
BRANCH  11  17
ATOM     17  C   UNL A   1      31.000  27.159  23.638  1.00  0.00     0.363 C 
BRANCH  17  18
ATOM     18  C   UNL A   1      29.937  26.074  24.002  1.00  0.00     0.279 C 
ATOM     19  N   UNL A   1      30.279  24.776  24.288  1.00  0.00    -0.321 N 
ATOM     20  H   UNL A   1      29.554  24.196  24.615  1.00  0.00     0.170 HD
ATOM     21  O   UNL A   1      28.742  26.376  24.118  1.00  0.00    -0.268 OA
BRANCH  19  22
ATOM     22  C   UNL A   1      31.538  24.185  24.168  1.00  0.00     0.044 A 
ATOM     23  C   UNL A   1      31.784  23.956  26.721  1.00  0.00     0.046 C 
ATOM     24  C   UNL A   1      32.303  23.899  25.310  1.00  0.00    -0.027 A 
ATOM     25  C   UNL A   1      33.666  23.598  25.130  1.00  0.00     0.005 A 
ATOM     26  C   UNL A   1      34.229  23.534  23.852  1.00  0.00     0.000 A 
ATOM     27  C   UNL A   1      32.075  23.977  22.892  1.00  0.00     0.026 A 
ATOM     28  C   UNL A   1      33.424  23.682  22.730  1.00  0.00     0.002 A 
ENDBRANCH  19  22
ENDBRANCH  17  18
ENDBRANCH  11  17
ENDBRANCH   9  10
ENDBRANCH   7   9
ENDBRANCH   6   7
ENDBRANCH   5   6
ENDBRANCH   4   5
ENDBRANCH   3   4
ENDBRANCH   2   3
ENDBRANCH   1   2
BRANCH   1  29
ATOM     29  O   UNL A   1      43.046  24.028  25.602  1.00  0.00    -0.377 OA
BRANCH  29  30
ATOM     30  C   UNL A   1      44.208  24.058  24.794  1.00  0.00     0.188 C 
BRANCH  30  31
ATOM     31  C   UNL A   1      45.551  24.514  25.372  1.00  0.00     0.188 C 
BRANCH  31  32
ATOM     32  O   UNL A   1      46.173  25.587  24.660  1.00  0.00    -0.376 OA
BRANCH  32  33
ATOM     33  C   UNL A   1      46.720  26.669  25.413  1.00  0.00     0.202 C 
BRANCH  33  34
ATOM     34  C   UNL A   1      47.793  26.276  26.441  1.00  0.00     0.261 C 
BRANCH  34  35
ATOM     35  O   UNL A   1      48.074  27.409  27.285  1.00  0.00    -0.460 OA
BRANCH  35  36
ATOM     36  C   UNL A   1      47.069  27.759  28.134  1.00  0.00     0.338 C 
ATOM     37  O   UNL A   1      46.619  28.880  28.271  1.00  0.00    -0.246 OA
BRANCH  36  38
ATOM     38  C   UNL A   1      46.818  26.625  29.082  1.00  0.00     0.060 A 
ATOM     39  C   UNL A   1      45.725  25.795  28.879  1.00  0.00     0.016 A 
ATOM     40  C   UNL A   1      47.468  26.563  30.318  1.00  0.00     0.016 A 
ATOM     41  C   UNL A   1      45.228  25.033  29.958  1.00  0.00     0.010 A 
ATOM     42  C   UNL A   1      46.845  25.963  31.427  1.00  0.00     0.010 A 
ATOM     43  C   UNL A   1      45.629  25.264  31.309  1.00  0.00    -0.014 A 
BRANCH  43  44
ATOM     44  C   UNL A   1      44.885  24.769  32.736  1.00  0.00     0.031 A 
ATOM     45  C   UNL A   1      44.208  26.397  32.939  1.00  0.00     0.074 A 
ATOM     46  C   UNL A   1      45.031  23.488  33.825  1.00  0.00     0.049 A 
ATOM     47  N   UNL A   1      44.364  27.167  33.991  1.00  0.00    -0.248 NA
ATOM     48  C   UNL A   1      43.581  27.225  31.875  1.00  0.00     0.031 C 
ATOM     49  C   UNL A   1      44.370  23.107  35.349  1.00  0.00     0.029 A 
ATOM     50  N   UNL A   1      46.116  22.479  34.187  1.00  0.00    -0.354 N 
ATOM     51  C   UNL A   1      43.405  28.125  33.955  1.00  0.00     0.074 A 
ATOM     52  C   UNL A   1      43.185  28.319  32.546  1.00  0.00     0.031 C 
ATOM     53  C   UNL A   1      45.015  22.273  36.143  1.00  0.00     0.029 A 
ATOM     54  C   UNL A   1      46.287  22.196  35.576  1.00  0.00     0.049 A 
ATOM     55  H   UNL A   1      46.669  22.045  33.499  1.00  0.00     0.167 HD
ATOM     56  C   UNL A   1      42.674  28.463  35.062  1.00  0.00     0.031 A 
ATOM     57  C   UNL A   1      47.373  22.314  36.391  1.00  0.00     0.031 A 
ATOM     58  C   UNL A   1      42.855  27.555  36.232  1.00  0.00     0.049 A 
ATOM     59  C   UNL A   1      47.105  23.365  37.522  1.00  0.00     0.074 A 
ATOM     60  C   UNL A   1      42.019  26.612  36.820  1.00  0.00     0.029 A 
ATOM     61  N   UNL A   1      44.105  27.321  36.820  1.00  0.00    -0.354 N 
ATOM     62  N   UNL A   1      45.999  24.082  37.613  1.00  0.00    -0.248 NA
ATOM     63  C   UNL A   1      48.043  23.758  38.569  1.00  0.00     0.031 C 
ATOM     64  C   UNL A   1      42.756  25.855  37.784  1.00  0.00     0.029 A 
ATOM     65  C   UNL A   1      44.062  26.316  37.803  1.00  0.00     0.049 A 
ATOM     66  H   UNL A   1      44.924  27.809  36.575  1.00  0.00     0.167 HD
ATOM     67  C   UNL A   1      46.105  25.073  38.545  1.00  0.00     0.074 A 
ATOM     68  C   UNL A   1      47.389  24.773  39.173  1.00  0.00     0.031 C 
ATOM     69  C   UNL A   1      45.200  26.096  38.719  1.00  0.00     0.031 A 
BRANCH  56  70
ATOM     70  C   UNL A   1      41.506  29.418  34.878  1.00  0.00    -0.014 A 
ATOM     71  C   UNL A   1      40.450  29.144  33.996  1.00  0.00     0.009 A 
ATOM     72  C   UNL A   1      41.433  30.651  35.562  1.00  0.00     0.009 A 
ATOM     73  C   UNL A   1      39.453  30.093  33.717  1.00  0.00     0.001 A 
ATOM     74  C   UNL A   1      40.470  31.622  35.254  1.00  0.00     0.001 A 
ATOM     75  C   UNL A   1      39.485  31.346  34.317  1.00  0.00     0.000 A 
ENDBRANCH  56  70
BRANCH  57  76
ATOM     76  C   UNL A   1      48.624  21.896  35.714  1.00  0.00    -0.014 A 
ATOM     77  C   UNL A   1      48.726  20.507  35.437  1.00  0.00     0.009 A 
ATOM     78  C   UNL A   1      49.454  22.772  35.016  1.00  0.00     0.009 A 
ATOM     79  C   UNL A   1      49.448  20.039  34.340  1.00  0.00     0.001 A 
ATOM     80  C   UNL A   1      50.191  22.294  33.920  1.00  0.00     0.001 A 
ATOM     81  C   UNL A   1      50.148  20.945  33.555  1.00  0.00     0.000 A 
ENDBRANCH  57  76
BRANCH  69  82
ATOM     82  C   UNL A   1      45.291  27.037  39.896  1.00  0.00    -0.014 A 
ATOM     83  C   UNL A   1      46.155  28.141  39.909  1.00  0.00     0.009 A 
ATOM     84  C   UNL A   1      44.619  26.736  41.098  1.00  0.00     0.009 A 
ATOM     85  C   UNL A   1      46.252  28.969  41.033  1.00  0.00     0.001 A 
ATOM     86  C   UNL A   1      44.739  27.539  42.232  1.00  0.00     0.001 A 
ATOM     87  C   UNL A   1      45.537  28.674  42.190  1.00  0.00     0.000 A 
ENDBRANCH  69  82
ENDBRANCH  43  44
ENDBRANCH  36  38
ENDBRANCH  35  36
ENDBRANCH  34  35
ENDBRANCH  33  34
ENDBRANCH  32  33
ENDBRANCH  31  32
ENDBRANCH  30  31
ENDBRANCH  29  30
ENDBRANCH   1  29
TORSDOF 24
ENDMDL
