MODEL 1
REMARK VINA RESULT:      -9.7      0.000      0.000
REMARK SMILES COc1cc2c(cc1OC)[C@H](C(=O)OCCOCCOCCOCCOC(=O)c1ccc(-c3c4nc(c(-c5ccccc5)c5ccc([nH]5)c(-c5ccccc5)c5nc(c(-c6ccccc6)c6ccc3[nH]6)C=C5)C=C4)cc1)[C@H](c1cccc(Cl)c1)N(C)C2=O
REMARK SMILES IDX 21 1 20 2 19 3 18 4 17 5 16 6 15 7 14 8 12 9 13 10 11 11
REMARK SMILES IDX 3 12 4 13 8 14 5 15 7 16 6 17 87 18 85 19 88 20 77 21 86 22
REMARK SMILES IDX 2 23 1 24 9 25 10 26 78 27 79 28 84 29 80 30 82 31 81 32
REMARK SMILES IDX 83 33 22 34 23 35 24 36 25 37 26 38 27 39 28 40 29 41 30 42
REMARK SMILES IDX 76 43 31 44 75 45 32 46 33 47 34 48 69 49 35 50 74 51 68 52
REMARK SMILES IDX 70 53 36 54 73 55 67 56 66 57 37 59 59 60 44 61 58 62 45 63
REMARK SMILES IDX 48 64 57 65 71 66 46 67 47 68 56 70 72 71 49 72 38 73 39 74
REMARK SMILES IDX 43 75 40 76 42 77 41 78 60 79 61 80 65 81 62 82 64 83 63 84
REMARK SMILES IDX 50 85 51 86 55 87 52 88 54 89 53 90
REMARK H PARENT 70 58 48 69
REMARK Flexibility Score: inf
ROOT
ATOM      1  C   UNL A   1      41.841  19.905  27.247  1.00  0.00     0.188 C 
ENDROOT
BRANCH   1   2
ATOM      2  O   UNL A   1      40.658  20.690  27.145  1.00  0.00    -0.377 OA
BRANCH   2   3
ATOM      3  C   UNL A   1      39.744  20.388  26.107  1.00  0.00     0.188 C 
BRANCH   3   4
ATOM      4  C   UNL A   1      38.806  21.557  25.754  1.00  0.00     0.188 C 
BRANCH   4   5
ATOM      5  O   UNL A   1      37.436  21.192  25.585  1.00  0.00    -0.376 OA
BRANCH   5   6
ATOM      6  C   UNL A   1      36.635  22.060  24.781  1.00  0.00     0.202 C 
BRANCH   6   7
ATOM      7  C   UNL A   1      37.009  23.542  24.857  1.00  0.00     0.261 C 
BRANCH   7   8
ATOM      8  O   UNL A   1      35.930  24.318  25.396  1.00  0.00    -0.463 OA
BRANCH   8   9
ATOM      9  C   UNL A   1      34.865  24.520  24.583  1.00  0.00     0.316 C 
ATOM     10  O   UNL A   1      34.956  24.626  23.370  1.00  0.00    -0.251 OA
BRANCH   9  11
ATOM     11  C   UNL A   1      33.605  24.655  25.433  1.00  0.00     0.157 C 
ATOM     12  C   UNL A   1      30.730  27.194  23.475  1.00  0.00     0.161 A 
ATOM     13  C   UNL A   1      30.311  26.220  24.401  1.00  0.00     0.064 A 
ATOM     14  C   UNL A   1      32.100  27.428  23.296  1.00  0.00     0.161 A 
ATOM     15  C   UNL A   1      31.246  25.435  25.089  1.00  0.00     0.048 A 
ATOM     16  C   UNL A   1      33.015  26.632  23.980  1.00  0.00     0.056 A 
ATOM     17  C   UNL A   1      32.601  25.581  24.803  1.00  0.00    -0.015 A 
ATOM     18  C   UNL A   1      30.796  24.471  26.140  1.00  0.00     0.254 C 
ATOM     19  N   UNL A   1      31.723  23.520  26.574  1.00  0.00    -0.333 N 
ATOM     20  O   UNL A   1      29.656  24.552  26.584  1.00  0.00    -0.269 OA
ATOM     21  C   UNL A   1      32.985  23.293  25.842  1.00  0.00     0.134 C 
ATOM     22  C   UNL A   1      31.343  22.581  27.618  1.00  0.00     0.147 C 
BRANCH  12  23
ATOM     23  O   UNL A   1      29.847  27.884  22.691  1.00  0.00    -0.493 OA
ATOM     24  C   UNL A   1      29.392  29.128  23.202  1.00  0.00     0.278 C 
ENDBRANCH  12  23
BRANCH  14  25
ATOM     25  O   UNL A   1      32.735  28.368  22.534  1.00  0.00    -0.493 OA
ATOM     26  C   UNL A   1      34.139  28.285  22.373  1.00  0.00     0.278 C 
ENDBRANCH  14  25
BRANCH  21  27
ATOM     27  C   UNL A   1      32.828  22.270  24.717  1.00  0.00    -0.023 A 
ATOM     28  C   UNL A   1      32.184  22.653  23.523  1.00  0.00     0.006 A 
ATOM     29  C   UNL A   1      33.207  20.926  24.855  1.00  0.00     0.026 A 
ATOM     30  C   UNL A   1      31.826  21.706  22.562  1.00  0.00     0.002 A 
ATOM     31  C   UNL A   1      32.866  19.986  23.881  1.00  0.00     0.041 A 
ATOM     32  C   UNL A   1      32.154  20.365  22.749  1.00  0.00     0.020 A 
ATOM     33  Cl  UNL A   1      33.302  18.337  24.106  1.00  0.00    -0.084 Cl
ENDBRANCH  21  27
ENDBRANCH   9  11
ENDBRANCH   8   9
ENDBRANCH   7   8
ENDBRANCH   6   7
ENDBRANCH   5   6
ENDBRANCH   4   5
ENDBRANCH   3   4
ENDBRANCH   2   3
ENDBRANCH   1   2
BRANCH   1  34
ATOM     34  C   UNL A   1      42.440  19.192  26.017  1.00  0.00     0.188 C 
BRANCH  34  35
ATOM     35  O   UNL A   1      43.421  19.951  25.314  1.00  0.00    -0.376 OA
BRANCH  35  36
ATOM     36  C   UNL A   1      43.645  21.283  25.762  1.00  0.00     0.202 C 
BRANCH  36  37
ATOM     37  C   UNL A   1      44.712  22.048  24.967  1.00  0.00     0.261 C 
BRANCH  37  38
ATOM     38  O   UNL A   1      44.924  23.405  25.389  1.00  0.00    -0.460 OA
BRANCH  38  39
ATOM     39  C   UNL A   1      43.887  24.258  25.255  1.00  0.00     0.338 C 
ATOM     40  O   UNL A   1      43.115  24.341  24.316  1.00  0.00    -0.246 OA
BRANCH  39  41
ATOM     41  C   UNL A   1      43.704  24.967  26.536  1.00  0.00     0.060 A 
ATOM     42  C   UNL A   1      42.922  24.359  27.526  1.00  0.00     0.016 A 
ATOM     43  C   UNL A   1      44.270  26.227  26.745  1.00  0.00     0.016 A 
ATOM     44  C   UNL A   1      42.637  25.047  28.703  1.00  0.00     0.010 A 
ATOM     45  C   UNL A   1      43.967  26.925  27.915  1.00  0.00     0.010 A 
ATOM     46  C   UNL A   1      43.104  26.359  28.868  1.00  0.00    -0.014 A 
BRANCH  46  47
ATOM     47  C   UNL A   1      42.449  27.227  29.872  1.00  0.00     0.031 A 
ATOM     48  C   UNL A   1      43.111  27.350  31.220  1.00  0.00     0.074 A 
ATOM     49  C   UNL A   1      41.326  27.911  29.600  1.00  0.00     0.049 A 
ATOM     50  N   UNL A   1      42.751  28.053  32.262  1.00  0.00    -0.248 NA
ATOM     51  C   UNL A   1      44.350  26.576  31.414  1.00  0.00     0.031 C 
ATOM     52  C   UNL A   1      40.614  27.906  28.324  1.00  0.00     0.029 A 
ATOM     53  N   UNL A   1      40.592  28.751  30.397  1.00  0.00    -0.354 N 
ATOM     54  C   UNL A   1      43.717  27.807  33.230  1.00  0.00     0.074 A 
ATOM     55  C   UNL A   1      44.661  26.869  32.667  1.00  0.00     0.031 C 
ATOM     56  C   UNL A   1      39.536  28.705  28.428  1.00  0.00     0.029 A 
ATOM     57  C   UNL A   1      39.475  29.257  29.780  1.00  0.00     0.049 A 
ATOM     58  H   UNL A   1      40.840  28.969  31.324  1.00  0.00     0.167 HD
ATOM     59  C   UNL A   1      43.819  28.320  34.477  1.00  0.00     0.031 A 
ATOM     60  C   UNL A   1      38.513  30.067  30.262  1.00  0.00     0.031 A 
ATOM     61  C   UNL A   1      42.871  29.230  35.054  1.00  0.00     0.049 A 
ATOM     62  C   UNL A   1      38.608  30.569  31.679  1.00  0.00     0.074 A 
ATOM     63  C   UNL A   1      42.878  29.802  36.312  1.00  0.00     0.029 A 
ATOM     64  N   UNL A   1      41.738  29.692  34.405  1.00  0.00    -0.354 N 
ATOM     65  N   UNL A   1      39.542  30.353  32.574  1.00  0.00    -0.248 NA
ATOM     66  C   UNL A   1      37.518  31.439  32.147  1.00  0.00     0.031 C 
ATOM     67  C   UNL A   1      41.723  30.580  36.441  1.00  0.00     0.029 A 
ATOM     68  C   UNL A   1      41.026  30.531  35.244  1.00  0.00     0.049 A 
ATOM     69  H   UNL A   1      41.476  29.458  33.485  1.00  0.00     0.167 HD
ATOM     70  C   UNL A   1      39.171  31.086  33.696  1.00  0.00     0.074 A 
ATOM     71  C   UNL A   1      37.932  31.758  33.366  1.00  0.00     0.031 C 
ATOM     72  C   UNL A   1      39.801  31.198  34.892  1.00  0.00     0.031 A 
BRANCH  59  73
ATOM     73  C   UNL A   1      44.986  27.869  35.306  1.00  0.00    -0.014 A 
ATOM     74  C   UNL A   1      46.219  28.539  35.248  1.00  0.00     0.009 A 
ATOM     75  C   UNL A   1      44.853  26.760  36.154  1.00  0.00     0.009 A 
ATOM     76  C   UNL A   1      47.304  28.087  36.000  1.00  0.00     0.001 A 
ATOM     77  C   UNL A   1      45.933  26.325  36.924  1.00  0.00     0.001 A 
ATOM     78  C   UNL A   1      47.159  26.982  36.840  1.00  0.00     0.000 A 
ENDBRANCH  59  73
BRANCH  60  79
ATOM     79  C   UNL A   1      37.365  30.458  29.402  1.00  0.00    -0.014 A 
ATOM     80  C   UNL A   1      36.337  29.544  29.123  1.00  0.00     0.009 A 
ATOM     81  C   UNL A   1      37.310  31.738  28.831  1.00  0.00     0.009 A 
ATOM     82  C   UNL A   1      35.292  29.897  28.265  1.00  0.00     0.001 A 
ATOM     83  C   UNL A   1      36.251  32.096  27.994  1.00  0.00     0.001 A 
ATOM     84  C   UNL A   1      35.248  31.173  27.704  1.00  0.00     0.000 A 
ENDBRANCH  60  79
BRANCH  72  85
ATOM     85  C   UNL A   1      39.191  32.117  35.911  1.00  0.00    -0.014 A 
ATOM     86  C   UNL A   1      39.596  33.456  36.024  1.00  0.00     0.009 A 
ATOM     87  C   UNL A   1      38.158  31.644  36.736  1.00  0.00     0.009 A 
ATOM     88  C   UNL A   1      38.998  34.295  36.966  1.00  0.00     0.001 A 
ATOM     89  C   UNL A   1      37.545  32.492  37.659  1.00  0.00     0.001 A 
ATOM     90  C   UNL A   1      37.971  33.814  37.779  1.00  0.00     0.000 A 
ENDBRANCH  72  85
ENDBRANCH  46  47
ENDBRANCH  39  41
ENDBRANCH  38  39
ENDBRANCH  37  38
ENDBRANCH  36  37
ENDBRANCH  35  36
ENDBRANCH  34  35
ENDBRANCH   1  34
TORSDOF 23
ENDMDL
MODEL 2
REMARK VINA RESULT:      -9.6      1.910      3.073
REMARK SMILES COc1cc2c(cc1OC)[C@H](C(=O)OCCOCCOCCOCCOC(=O)c1ccc(-c3c4nc(c(-c5ccccc5)c5ccc([nH]5)c(-c5ccccc5)c5nc(c(-c6ccccc6)c6ccc3[nH]6)C=C5)C=C4)cc1)[C@H](c1cccc(Cl)c1)N(C)C2=O
REMARK SMILES IDX 21 1 20 2 19 3 18 4 17 5 16 6 15 7 14 8 12 9 13 10 11 11
REMARK SMILES IDX 3 12 4 13 8 14 5 15 7 16 6 17 87 18 85 19 88 20 77 21 86 22
REMARK SMILES IDX 2 23 1 24 9 25 10 26 78 27 79 28 84 29 80 30 82 31 81 32
REMARK SMILES IDX 83 33 22 34 23 35 24 36 25 37 26 38 27 39 28 40 29 41 30 42
REMARK SMILES IDX 76 43 31 44 75 45 32 46 33 47 34 48 69 49 35 50 74 51 68 52
REMARK SMILES IDX 70 53 36 54 73 55 67 56 66 57 37 59 59 60 44 61 58 62 45 63
REMARK SMILES IDX 48 64 57 65 71 66 46 67 47 68 56 70 72 71 49 72 38 73 39 74
REMARK SMILES IDX 43 75 40 76 42 77 41 78 60 79 61 80 65 81 62 82 64 83 63 84
REMARK SMILES IDX 50 85 51 86 55 87 52 88 54 89 53 90
REMARK H PARENT 70 58 48 69
REMARK Flexibility Score: inf
ROOT
ATOM      1  C   UNL A   1      43.712  22.558  26.416  1.00  0.00     0.188 C 
ENDROOT
BRANCH   1   2
ATOM      2  O   UNL A   1      42.433  22.141  26.884  1.00  0.00    -0.377 OA
BRANCH   2   3
ATOM      3  C   UNL A   1      41.292  22.528  26.141  1.00  0.00     0.188 C 
BRANCH   3   4
ATOM      4  C   UNL A   1      39.968  22.005  26.729  1.00  0.00     0.188 C 
BRANCH   4   5
ATOM      5  O   UNL A   1      39.307  21.024  25.929  1.00  0.00    -0.376 OA
BRANCH   5   6
ATOM      6  C   UNL A   1      38.098  21.430  25.286  1.00  0.00     0.202 C 
BRANCH   6   7
ATOM      7  C   UNL A   1      37.564  22.798  25.715  1.00  0.00     0.261 C 
BRANCH   7   8
ATOM      8  O   UNL A   1      37.191  23.586  24.575  1.00  0.00    -0.463 OA
BRANCH   8   9
ATOM      9  C   UNL A   1      35.954  23.370  24.068  1.00  0.00     0.316 C 
ATOM     10  O   UNL A   1      35.754  22.989  22.925  1.00  0.00    -0.251 OA
BRANCH   9  11
ATOM     11  C   UNL A   1      34.911  23.742  25.117  1.00  0.00     0.157 C 
ATOM     12  C   UNL A   1      31.819  26.179  23.371  1.00  0.00     0.161 A 
ATOM     13  C   UNL A   1      31.557  25.400  24.514  1.00  0.00     0.064 A 
ATOM     14  C   UNL A   1      33.130  26.265  22.885  1.00  0.00     0.161 A 
ATOM     15  C   UNL A   1      32.574  24.656  25.125  1.00  0.00     0.048 A 
ATOM     16  C   UNL A   1      34.128  25.511  23.497  1.00  0.00     0.056 A 
ATOM     17  C   UNL A   1      33.844  24.639  24.553  1.00  0.00    -0.015 A 
ATOM     18  C   UNL A   1      32.309  23.909  26.393  1.00  0.00     0.254 C 
ATOM     19  N   UNL A   1      33.258  22.962  26.788  1.00  0.00    -0.333 N 
ATOM     20  O   UNL A   1      31.294  24.155  27.036  1.00  0.00    -0.269 OA
ATOM     21  C   UNL A   1      34.323  22.517  25.868  1.00  0.00     0.134 C 
ATOM     22  C   UNL A   1      33.060  22.233  28.031  1.00  0.00     0.147 C 
BRANCH  12  23
ATOM     23  O   UNL A   1      30.826  26.810  22.675  1.00  0.00    -0.493 OA
ATOM     24  C   UNL A   1      30.392  28.059  23.192  1.00  0.00     0.278 C 
ENDBRANCH  12  23
BRANCH  14  25
ATOM     25  O   UNL A   1      33.637  27.017  21.863  1.00  0.00    -0.493 OA
ATOM     26  C   UNL A   1      33.860  28.399  22.074  1.00  0.00     0.278 C 
ENDBRANCH  14  25
BRANCH  21  27
ATOM     27  C   UNL A   1      33.880  21.348  24.988  1.00  0.00    -0.023 A 
ATOM     28  C   UNL A   1      32.733  21.491  24.181  1.00  0.00     0.006 A 
ATOM     29  C   UNL A   1      34.507  20.094  25.021  1.00  0.00     0.026 A 
ATOM     30  C   UNL A   1      32.169  20.391  23.532  1.00  0.00     0.002 A 
ATOM     31  C   UNL A   1      33.951  19.001  24.353  1.00  0.00     0.041 A 
ATOM     32  C   UNL A   1      32.770  19.139  23.631  1.00  0.00     0.020 A 
ATOM     33  Cl  UNL A   1      34.718  17.465  24.455  1.00  0.00    -0.084 Cl
ENDBRANCH  21  27
ENDBRANCH   9  11
ENDBRANCH   8   9
ENDBRANCH   7   8
ENDBRANCH   6   7
ENDBRANCH   5   6
ENDBRANCH   4   5
ENDBRANCH   3   4
ENDBRANCH   2   3
ENDBRANCH   1   2
BRANCH   1  34
ATOM     34  C   UNL A   1      44.692  23.319  27.333  1.00  0.00     0.188 C 
BRANCH  34  35
ATOM     35  O   UNL A   1      44.786  24.717  27.065  1.00  0.00    -0.376 OA
BRANCH  35  36
ATOM     36  C   UNL A   1      44.969  25.100  25.707  1.00  0.00     0.202 C 
BRANCH  36  37
ATOM     37  C   UNL A   1      43.733  25.737  25.057  1.00  0.00     0.261 C 
BRANCH  37  38
ATOM     38  O   UNL A   1      42.928  26.533  25.942  1.00  0.00    -0.460 OA
BRANCH  38  39
ATOM     39  C   UNL A   1      41.589  26.447  25.798  1.00  0.00     0.338 C 
ATOM     40  O   UNL A   1      40.968  25.630  25.141  1.00  0.00    -0.246 OA
BRANCH  39  41
ATOM     41  C   UNL A   1      40.962  27.399  26.734  1.00  0.00     0.060 A 
ATOM     42  C   UNL A   1      41.512  28.681  26.847  1.00  0.00     0.016 A 
ATOM     43  C   UNL A   1      39.865  27.020  27.513  1.00  0.00     0.016 A 
ATOM     44  C   UNL A   1      41.015  29.567  27.800  1.00  0.00     0.010 A 
ATOM     45  C   UNL A   1      39.380  27.900  28.482  1.00  0.00     0.010 A 
ATOM     46  C   UNL A   1      39.993  29.152  28.664  1.00  0.00    -0.014 A 
BRANCH  46  47
ATOM     47  C   UNL A   1      39.783  29.894  29.927  1.00  0.00     0.031 A 
ATOM     48  C   UNL A   1      40.741  29.625  31.058  1.00  0.00     0.074 A 
ATOM     49  C   UNL A   1      38.801  30.799  30.068  1.00  0.00     0.049 A 
ATOM     50  N   UNL A   1      40.784  30.151  32.255  1.00  0.00    -0.248 NA
ATOM     51  C   UNL A   1      41.797  28.630  30.799  1.00  0.00     0.031 C 
ATOM     52  C   UNL A   1      37.836  31.175  29.037  1.00  0.00     0.029 A 
ATOM     53  N   UNL A   1      38.462  31.570  31.150  1.00  0.00    -0.354 N 
ATOM     54  C   UNL A   1      41.867  29.551  32.886  1.00  0.00     0.074 A 
ATOM     55  C   UNL A   1      42.437  28.603  31.957  1.00  0.00     0.031 C 
ATOM     56  C   UNL A   1      37.006  32.106  29.542  1.00  0.00     0.029 A 
ATOM     57  C   UNL A   1      37.370  32.372  30.933  1.00  0.00     0.049 A 
ATOM     58  H   UNL A   1      38.953  31.548  32.003  1.00  0.00     0.167 HD
ATOM     59  C   UNL A   1      42.355  29.774  34.128  1.00  0.00     0.031 A 
ATOM     60  C   UNL A   1      36.737  33.217  31.769  1.00  0.00     0.031 A 
ATOM     61  C   UNL A   1      41.778  30.693  35.067  1.00  0.00     0.049 A 
ATOM     62  C   UNL A   1      37.254  33.395  33.174  1.00  0.00     0.074 A 
ATOM     63  C   UNL A   1      42.190  30.986  36.353  1.00  0.00     0.029 A 
ATOM     64  N   UNL A   1      40.654  31.463  34.817  1.00  0.00    -0.354 N 
ATOM     65  N   UNL A   1      38.297  32.845  33.749  1.00  0.00    -0.248 NA
ATOM     66  C   UNL A   1      36.510  34.322  34.040  1.00  0.00     0.031 C 
ATOM     67  C   UNL A   1      41.288  31.905  36.899  1.00  0.00     0.029 A 
ATOM     68  C   UNL A   1      40.346  32.221  35.933  1.00  0.00     0.049 A 
ATOM     69  H   UNL A   1      40.148  31.470  33.972  1.00  0.00     0.167 HD
ATOM     70  C   UNL A   1      38.353  33.385  35.029  1.00  0.00     0.074 A 
ATOM     71  C   UNL A   1      37.245  34.310  35.143  1.00  0.00     0.031 C 
ATOM     72  C   UNL A   1      39.245  33.142  36.021  1.00  0.00     0.031 A 
BRANCH  59  73
ATOM     73  C   UNL A   1      43.553  28.972  34.544  1.00  0.00    -0.014 A 
ATOM     74  C   UNL A   1      43.438  27.922  35.468  1.00  0.00     0.009 A 
ATOM     75  C   UNL A   1      44.813  29.272  34.007  1.00  0.00     0.009 A 
ATOM     76  C   UNL A   1      44.568  27.208  35.871  1.00  0.00     0.001 A 
ATOM     77  C   UNL A   1      45.939  28.541  34.393  1.00  0.00     0.001 A 
ATOM     78  C   UNL A   1      45.816  27.516  35.330  1.00  0.00     0.000 A 
ENDBRANCH  59  73
BRANCH  60  79
ATOM     79  C   UNL A   1      35.537  33.964  31.311  1.00  0.00    -0.014 A 
ATOM     80  C   UNL A   1      34.966  34.963  32.114  1.00  0.00     0.009 A 
ATOM     81  C   UNL A   1      34.937  33.656  30.080  1.00  0.00     0.009 A 
ATOM     82  C   UNL A   1      33.802  35.619  31.705  1.00  0.00     0.001 A 
ATOM     83  C   UNL A   1      33.788  34.331  29.663  1.00  0.00     0.001 A 
ATOM     84  C   UNL A   1      33.216  35.305  30.480  1.00  0.00     0.000 A 
ENDBRANCH  60  79
BRANCH  72  85
ATOM     85  C   UNL A   1      39.091  33.922  37.295  1.00  0.00    -0.014 A 
ATOM     86  C   UNL A   1      38.620  33.318  38.471  1.00  0.00     0.009 A 
ATOM     87  C   UNL A   1      39.473  35.273  37.327  1.00  0.00     0.009 A 
ATOM     88  C   UNL A   1      38.506  34.061  39.647  1.00  0.00     0.001 A 
ATOM     89  C   UNL A   1      39.383  36.007  38.511  1.00  0.00     0.001 A 
ATOM     90  C   UNL A   1      38.891  35.402  39.667  1.00  0.00     0.000 A 
ENDBRANCH  72  85
ENDBRANCH  46  47
ENDBRANCH  39  41
ENDBRANCH  38  39
ENDBRANCH  37  38
ENDBRANCH  36  37
ENDBRANCH  35  36
ENDBRANCH  34  35
ENDBRANCH   1  34
TORSDOF 23
ENDMDL
MODEL 3
REMARK VINA RESULT:      -9.5      1.026      5.579
REMARK SMILES COc1cc2c(cc1OC)[C@H](C(=O)OCCOCCOCCOCCOC(=O)c1ccc(-c3c4nc(c(-c5ccccc5)c5ccc([nH]5)c(-c5ccccc5)c5nc(c(-c6ccccc6)c6ccc3[nH]6)C=C5)C=C4)cc1)[C@H](c1cccc(Cl)c1)N(C)C2=O
REMARK SMILES IDX 21 1 20 2 19 3 18 4 17 5 16 6 15 7 14 8 12 9 13 10 11 11
REMARK SMILES IDX 3 12 4 13 8 14 5 15 7 16 6 17 87 18 85 19 88 20 77 21 86 22
REMARK SMILES IDX 2 23 1 24 9 25 10 26 78 27 79 28 84 29 80 30 82 31 81 32
REMARK SMILES IDX 83 33 22 34 23 35 24 36 25 37 26 38 27 39 28 40 29 41 30 42
REMARK SMILES IDX 76 43 31 44 75 45 32 46 33 47 34 48 69 49 35 50 74 51 68 52
REMARK SMILES IDX 70 53 36 54 73 55 67 56 66 57 37 59 59 60 44 61 58 62 45 63
REMARK SMILES IDX 48 64 57 65 71 66 46 67 47 68 56 70 72 71 49 72 38 73 39 74
REMARK SMILES IDX 43 75 40 76 42 77 41 78 60 79 61 80 65 81 62 82 64 83 63 84
REMARK SMILES IDX 50 85 51 86 55 87 52 88 54 89 53 90
REMARK H PARENT 70 58 48 69
REMARK Flexibility Score: inf
ROOT
ATOM      1  C   UNL A   1      41.988  20.342  27.170  1.00  0.00     0.188 C 
ENDROOT
BRANCH   1   2
ATOM      2  O   UNL A   1      40.567  20.408  27.224  1.00  0.00    -0.377 OA
BRANCH   2   3
ATOM      3  C   UNL A   1      39.841  20.122  26.044  1.00  0.00     0.188 C 
BRANCH   3   4
ATOM      4  C   UNL A   1      38.897  21.260  25.612  1.00  0.00     0.188 C 
BRANCH   4   5
ATOM      5  O   UNL A   1      37.600  20.833  25.194  1.00  0.00    -0.376 OA
BRANCH   5   6
ATOM      6  C   UNL A   1      36.667  21.859  24.851  1.00  0.00     0.202 C 
BRANCH   6   7
ATOM      7  C   UNL A   1      36.883  23.197  25.562  1.00  0.00     0.261 C 
BRANCH   7   8
ATOM      8  O   UNL A   1      35.666  23.664  26.161  1.00  0.00    -0.463 OA
BRANCH   8   9
ATOM      9  C   UNL A   1      34.862  24.426  25.381  1.00  0.00     0.316 C 
ATOM     10  O   UNL A   1      35.220  24.913  24.320  1.00  0.00    -0.251 OA
BRANCH   9  11
ATOM     11  C   UNL A   1      33.518  24.610  26.078  1.00  0.00     0.157 C 
ATOM     12  C   UNL A   1      31.372  27.928  24.365  1.00  0.00     0.161 A 
ATOM     13  C   UNL A   1      30.680  26.881  25.004  1.00  0.00     0.064 A 
ATOM     14  C   UNL A   1      32.772  27.954  24.411  1.00  0.00     0.161 A 
ATOM     15  C   UNL A   1      31.375  25.832  25.619  1.00  0.00     0.048 A 
ATOM     16  C   UNL A   1      33.448  26.898  25.017  1.00  0.00     0.056 A 
ATOM     17  C   UNL A   1      32.765  25.796  25.541  1.00  0.00    -0.015 A 
ATOM     18  C   UNL A   1      30.635  24.777  26.378  1.00  0.00     0.254 C 
ATOM     19  N   UNL A   1      31.339  23.617  26.711  1.00  0.00    -0.333 N 
ATOM     20  O   UNL A   1      29.463  24.965  26.685  1.00  0.00    -0.269 OA
ATOM     21  C   UNL A   1      32.654  23.321  26.108  1.00  0.00     0.134 C 
ATOM     22  C   UNL A   1      30.672  22.575  27.476  1.00  0.00     0.147 C 
BRANCH  12  23
ATOM     23  O   UNL A   1      30.728  28.894  23.643  1.00  0.00    -0.493 OA
ATOM     24  C   UNL A   1      30.397  28.561  22.303  1.00  0.00     0.278 C 
ENDBRANCH  12  23
BRANCH  14  25
ATOM     25  O   UNL A   1      33.645  28.899  23.950  1.00  0.00    -0.493 OA
ATOM     26  C   UNL A   1      34.189  28.755  22.651  1.00  0.00     0.278 C 
ENDBRANCH  14  25
BRANCH  21  27
ATOM     27  C   UNL A   1      32.530  22.572  24.782  1.00  0.00    -0.023 A 
ATOM     28  C   UNL A   1      32.143  23.280  23.626  1.00  0.00     0.006 A 
ATOM     29  C   UNL A   1      32.687  21.182  24.677  1.00  0.00     0.026 A 
ATOM     30  C   UNL A   1      31.807  22.608  22.449  1.00  0.00     0.002 A 
ATOM     31  C   UNL A   1      32.372  20.517  23.491  1.00  0.00     0.041 A 
ATOM     32  C   UNL A   1      31.907  21.221  22.386  1.00  0.00     0.020 A 
ATOM     33  Cl  UNL A   1      32.527  18.805  23.412  1.00  0.00    -0.084 Cl
ENDBRANCH  21  27
ENDBRANCH   9  11
ENDBRANCH   8   9
ENDBRANCH   7   8
ENDBRANCH   6   7
ENDBRANCH   5   6
ENDBRANCH   4   5
ENDBRANCH   3   4
ENDBRANCH   2   3
ENDBRANCH   1   2
BRANCH   1  34
ATOM     34  C   UNL A   1      42.723  19.897  25.888  1.00  0.00     0.188 C 
BRANCH  34  35
ATOM     35  O   UNL A   1      43.139  20.968  25.044  1.00  0.00    -0.376 OA
BRANCH  35  36
ATOM     36  C   UNL A   1      43.190  22.264  25.629  1.00  0.00     0.202 C 
BRANCH  36  37
ATOM     37  C   UNL A   1      43.827  23.337  24.735  1.00  0.00     0.261 C 
BRANCH  37  38
ATOM     38  O   UNL A   1      44.078  24.594  25.385  1.00  0.00    -0.460 OA
BRANCH  38  39
ATOM     39  C   UNL A   1      43.038  25.448  25.490  1.00  0.00     0.338 C 
ATOM     40  O   UNL A   1      42.118  25.591  24.704  1.00  0.00    -0.246 OA
BRANCH  39  41
ATOM     41  C   UNL A   1      43.080  26.063  26.830  1.00  0.00     0.060 A 
ATOM     42  C   UNL A   1      42.353  25.458  27.862  1.00  0.00     0.016 A 
ATOM     43  C   UNL A   1      43.800  27.239  27.056  1.00  0.00     0.016 A 
ATOM     44  C   UNL A   1      42.280  26.072  29.110  1.00  0.00     0.010 A 
ATOM     45  C   UNL A   1      43.710  27.865  28.301  1.00  0.00     0.010 A 
ATOM     46  C   UNL A   1      42.903  27.312  29.309  1.00  0.00    -0.014 A 
BRANCH  46  47
ATOM     47  C   UNL A   1      42.465  28.156  30.444  1.00  0.00     0.031 A 
ATOM     48  C   UNL A   1      41.232  28.999  30.246  1.00  0.00     0.074 A 
ATOM     49  C   UNL A   1      43.109  28.158  31.622  1.00  0.00     0.049 A 
ATOM     50  N   UNL A   1      40.636  29.809  31.081  1.00  0.00    -0.248 NA
ATOM     51  C   UNL A   1      40.585  28.912  28.924  1.00  0.00     0.031 C 
ATOM     52  C   UNL A   1      44.287  27.358  31.949  1.00  0.00     0.029 A 
ATOM     53  N   UNL A   1      42.849  28.867  32.766  1.00  0.00    -0.354 N 
ATOM     54  C   UNL A   1      39.547  30.324  30.387  1.00  0.00     0.074 A 
ATOM     55  C   UNL A   1      39.579  29.762  29.057  1.00  0.00     0.031 C 
ATOM     56  C   UNL A   1      44.653  27.627  33.216  1.00  0.00     0.029 A 
ATOM     57  C   UNL A   1      43.748  28.630  33.776  1.00  0.00     0.049 A 
ATOM     58  H   UNL A   1      42.091  29.488  32.855  1.00  0.00     0.167 HD
ATOM     59  C   UNL A   1      38.596  31.183  30.819  1.00  0.00     0.031 A 
ATOM     60  C   UNL A   1      43.829  29.170  35.006  1.00  0.00     0.031 A 
ATOM     61  C   UNL A   1      38.572  31.767  32.129  1.00  0.00     0.049 A 
ATOM     62  C   UNL A   1      42.800  30.182  35.441  1.00  0.00     0.074 A 
ATOM     63  C   UNL A   1      37.658  32.655  32.663  1.00  0.00     0.029 A 
ATOM     64  N   UNL A   1      39.520  31.524  33.110  1.00  0.00    -0.354 N 
ATOM     65  N   UNL A   1      41.758  30.637  34.787  1.00  0.00    -0.248 NA
ATOM     66  C   UNL A   1      42.954  30.744  36.792  1.00  0.00     0.031 C 
ATOM     67  C   UNL A   1      38.075  32.984  33.957  1.00  0.00     0.029 A 
ATOM     68  C   UNL A   1      39.221  32.259  34.244  1.00  0.00     0.049 A 
ATOM     69  H   UNL A   1      40.291  30.919  33.016  1.00  0.00     0.167 HD
ATOM     70  C   UNL A   1      41.115  31.510  35.657  1.00  0.00     0.074 A 
ATOM     71  C   UNL A   1      41.880  31.515  36.887  1.00  0.00     0.031 C 
ATOM     72  C   UNL A   1      39.990  32.241  35.460  1.00  0.00     0.031 A 
BRANCH  59  73
ATOM     73  C   UNL A   1      37.525  31.563  29.838  1.00  0.00    -0.014 A 
ATOM     74  C   UNL A   1      36.442  30.708  29.579  1.00  0.00     0.009 A 
ATOM     75  C   UNL A   1      37.602  32.790  29.163  1.00  0.00     0.009 A 
ATOM     76  C   UNL A   1      35.473  31.061  28.639  1.00  0.00     0.001 A 
ATOM     77  C   UNL A   1      36.618  33.152  28.241  1.00  0.00     0.001 A 
ATOM     78  C   UNL A   1      35.560  32.285  27.973  1.00  0.00     0.000 A 
ENDBRANCH  59  73
BRANCH  60  79
ATOM     79  C   UNL A   1      44.928  28.776  35.925  1.00  0.00    -0.014 A 
ATOM     80  C   UNL A   1      44.760  27.716  36.829  1.00  0.00     0.009 A 
ATOM     81  C   UNL A   1      46.142  29.482  35.925  1.00  0.00     0.009 A 
ATOM     82  C   UNL A   1      45.774  27.389  37.733  1.00  0.00     0.001 A 
ATOM     83  C   UNL A   1      47.163  29.136  36.812  1.00  0.00     0.001 A 
ATOM     84  C   UNL A   1      46.975  28.097  37.721  1.00  0.00     0.000 A 
ENDBRANCH  60  79
BRANCH  72  85
ATOM     85  C   UNL A   1      39.488  33.063  36.612  1.00  0.00    -0.014 A 
ATOM     86  C   UNL A   1      38.572  32.542  37.538  1.00  0.00     0.009 A 
ATOM     87  C   UNL A   1      39.983  34.364  36.799  1.00  0.00     0.009 A 
ATOM     88  C   UNL A   1      38.137  33.321  38.612  1.00  0.00     0.001 A 
ATOM     89  C   UNL A   1      39.567  35.130  37.887  1.00  0.00     0.001 A 
ATOM     90  C   UNL A   1      38.638  34.611  38.788  1.00  0.00     0.000 A 
ENDBRANCH  72  85
ENDBRANCH  46  47
ENDBRANCH  39  41
ENDBRANCH  38  39
ENDBRANCH  37  38
ENDBRANCH  36  37
ENDBRANCH  35  36
ENDBRANCH  34  35
ENDBRANCH   1  34
TORSDOF 23
ENDMDL
