MODEL 1
REMARK VINA RESULT:      -9.8      0.000      0.000
REMARK SMILES O=C(OCCOCCOCCOCCOC(=O)[C@@H]1CC[C@H](CNc2c(F)c(F)c(F)c(F)c2F)O1)c1ccc(-c2c3nc(c(-c4ccccc4)c4ccc([nH]4)c(-c4ccccc4)c4nc(c(-c5ccccc5)c5ccc2[nH]5)C=C4)C=C3)cc1
REMARK SMILES IDX 10 1 9 2 8 3 7 4 6 5 5 6 4 7 3 8 2 9 1 10 36 11 37 12 83 13
REMARK SMILES IDX 38 14 82 15 39 16 40 17 41 18 76 19 42 20 81 21 75 22 77 23
REMARK SMILES IDX 43 24 80 25 74 26 73 27 44 29 66 30 51 31 65 32 52 33 55 34
REMARK SMILES IDX 64 35 78 36 53 37 54 38 63 40 79 41 56 42 45 43 46 44 50 45
REMARK SMILES IDX 47 46 49 47 48 48 67 49 68 50 72 51 69 52 71 53 70 54 57 55
REMARK SMILES IDX 58 56 62 57 59 58 61 59 60 60 11 61 12 62 13 63 14 64 15 65
REMARK SMILES IDX 16 66 17 67 18 68 19 69 35 70 20 71 21 72 22 73 23 74 24 76
REMARK SMILES IDX 25 77 33 78 26 79 27 80 31 81 34 82 28 83 29 84 32 85 30 86
REMARK H PARENT 77 28 55 39 23 75
REMARK Flexibility Score: inf
ROOT
ATOM      1  C   UNL A   1      33.862  30.317  27.671  1.00  0.00     0.188 C 
ENDROOT
BRANCH   1   2
ATOM      2  O   UNL A   1      35.055  31.047  27.923  1.00  0.00    -0.377 OA
BRANCH   2   3
ATOM      3  C   UNL A   1      34.977  32.472  27.935  1.00  0.00     0.188 C 
BRANCH   3   4
ATOM      4  C   UNL A   1      34.554  33.113  29.251  1.00  0.00     0.188 C 
BRANCH   4   5
ATOM      5  O   UNL A   1      34.467  34.523  29.072  1.00  0.00    -0.376 OA
BRANCH   5   6
ATOM      6  C   UNL A   1      33.157  35.083  29.169  1.00  0.00     0.202 C 
BRANCH   6   7
ATOM      7  C   UNL A   1      33.128  36.483  29.768  1.00  0.00     0.261 C 
BRANCH   7   8
ATOM      8  O   UNL A   1      32.404  36.560  31.007  1.00  0.00    -0.460 OA
BRANCH   8   9
ATOM      9  C   UNL A   1      32.456  35.717  32.067  1.00  0.00     0.338 C 
ATOM     10  O   UNL A   1      31.410  35.441  32.653  1.00  0.00    -0.246 OA
BRANCH   9  11
ATOM     11  C   UNL A   1      33.706  35.058  32.542  1.00  0.00     0.060 A 
ATOM     12  C   UNL A   1      34.950  35.676  32.625  1.00  0.00     0.016 A 
ATOM     13  C   UNL A   1      33.599  33.746  33.028  1.00  0.00     0.016 A 
ATOM     14  C   UNL A   1      36.076  35.013  33.065  1.00  0.00     0.010 A 
ATOM     15  C   UNL A   1      34.720  33.072  33.522  1.00  0.00     0.010 A 
ATOM     16  C   UNL A   1      35.970  33.702  33.502  1.00  0.00    -0.014 A 
BRANCH  16  17
ATOM     17  C   UNL A   1      37.233  32.988  33.717  1.00  0.00     0.031 A 
ATOM     18  C   UNL A   1      37.863  33.112  35.069  1.00  0.00     0.074 A 
ATOM     19  C   UNL A   1      37.658  32.091  32.809  1.00  0.00     0.049 A 
ATOM     20  N   UNL A   1      38.993  32.629  35.503  1.00  0.00    -0.248 NA
ATOM     21  C   UNL A   1      37.103  33.872  36.080  1.00  0.00     0.031 C 
ATOM     22  C   UNL A   1      36.968  31.761  31.556  1.00  0.00     0.029 A 
ATOM     23  N   UNL A   1      38.737  31.253  32.825  1.00  0.00    -0.354 N 
ATOM     24  C   UNL A   1      39.102  33.071  36.814  1.00  0.00     0.074 A 
ATOM     25  C   UNL A   1      37.925  33.850  37.115  1.00  0.00     0.031 C 
ATOM     26  C   UNL A   1      37.628  30.766  30.943  1.00  0.00     0.029 A 
ATOM     27  C   UNL A   1      38.828  30.459  31.708  1.00  0.00     0.049 A 
ATOM     28  H   UNL A   1      39.385  31.221  33.565  1.00  0.00     0.167 HD
ATOM     29  C   UNL A   1      40.119  32.856  37.678  1.00  0.00     0.031 A 
ATOM     30  C   UNL A   1      39.810  29.619  31.336  1.00  0.00     0.031 A 
ATOM     31  C   UNL A   1      41.272  32.076  37.331  1.00  0.00     0.049 A 
ATOM     32  C   UNL A   1      40.994  29.500  32.256  1.00  0.00     0.074 A 
ATOM     33  C   UNL A   1      42.427  31.859  38.053  1.00  0.00     0.029 A 
ATOM     34  N   UNL A   1      41.399  31.377  36.136  1.00  0.00    -0.354 N 
ATOM     35  N   UNL A   1      41.169  30.028  33.446  1.00  0.00    -0.248 NA
ATOM     36  C   UNL A   1      42.123  28.698  31.776  1.00  0.00     0.031 C 
ATOM     37  C   UNL A   1      43.275  31.063  37.273  1.00  0.00     0.029 A 
ATOM     38  C   UNL A   1      42.622  30.738  36.091  1.00  0.00     0.049 A 
ATOM     39  H   UNL A   1      40.717  31.341  35.427  1.00  0.00     0.167 HD
ATOM     40  C   UNL A   1      42.423  29.614  33.866  1.00  0.00     0.074 A 
ATOM     41  C   UNL A   1      42.952  28.770  32.809  1.00  0.00     0.031 C 
ATOM     42  C   UNL A   1      43.090  29.905  35.011  1.00  0.00     0.031 A 
BRANCH  29  43
ATOM     43  C   UNL A   1      40.049  33.573  38.995  1.00  0.00    -0.014 A 
ATOM     44  C   UNL A   1      39.425  33.008  40.117  1.00  0.00     0.009 A 
ATOM     45  C   UNL A   1      40.552  34.881  39.084  1.00  0.00     0.009 A 
ATOM     46  C   UNL A   1      39.266  33.756  41.288  1.00  0.00     0.001 A 
ATOM     47  C   UNL A   1      40.415  35.616  40.263  1.00  0.00     0.001 A 
ATOM     48  C   UNL A   1      39.761  35.058  41.359  1.00  0.00     0.000 A 
ENDBRANCH  29  43
BRANCH  30  49
ATOM     49  C   UNL A   1      39.760  28.924  30.022  1.00  0.00    -0.014 A 
ATOM     50  C   UNL A   1      39.319  27.596  29.917  1.00  0.00     0.009 A 
ATOM     51  C   UNL A   1      40.172  29.587  28.853  1.00  0.00     0.009 A 
ATOM     52  C   UNL A   1      39.315  26.945  28.679  1.00  0.00     0.001 A 
ATOM     53  C   UNL A   1      40.137  28.946  27.613  1.00  0.00     0.001 A 
ATOM     54  C   UNL A   1      39.719  27.621  27.528  1.00  0.00     0.000 A 
ENDBRANCH  30  49
BRANCH  42  55
ATOM     55  C   UNL A   1      44.436  29.269  35.180  1.00  0.00    -0.014 A 
ATOM     56  C   UNL A   1      44.576  28.018  35.798  1.00  0.00     0.009 A 
ATOM     57  C   UNL A   1      45.568  29.914  34.662  1.00  0.00     0.009 A 
ATOM     58  C   UNL A   1      45.838  27.438  35.922  1.00  0.00     0.001 A 
ATOM     59  C   UNL A   1      46.823  29.316  34.759  1.00  0.00     0.001 A 
ATOM     60  C   UNL A   1      46.957  28.084  35.396  1.00  0.00     0.000 A 
ENDBRANCH  42  55
ENDBRANCH  16  17
ENDBRANCH   9  11
ENDBRANCH   8   9
ENDBRANCH   7   8
ENDBRANCH   6   7
ENDBRANCH   5   6
ENDBRANCH   4   5
ENDBRANCH   3   4
ENDBRANCH   2   3
ENDBRANCH   1   2
BRANCH   1  61
ATOM     61  C   UNL A   1      32.753  30.923  26.804  1.00  0.00     0.188 C 
BRANCH  61  62
ATOM     62  O   UNL A   1      32.368  30.248  25.626  1.00  0.00    -0.376 OA
BRANCH  62  63
ATOM     63  C   UNL A   1      31.549  29.087  25.722  1.00  0.00     0.202 C 
BRANCH  63  64
ATOM     64  C   UNL A   1      32.039  27.675  25.345  1.00  0.00     0.261 C 
BRANCH  64  65
ATOM     65  O   UNL A   1      31.087  26.850  24.650  1.00  0.00    -0.461 OA
BRANCH  65  66
ATOM     66  C   UNL A   1      31.557  25.646  24.202  1.00  0.00     0.335 C 
ATOM     67  O   UNL A   1      32.429  25.511  23.369  1.00  0.00    -0.249 OA
BRANCH  66  68
ATOM     68  C   UNL A   1      30.858  24.444  24.869  1.00  0.00     0.228 C 
ATOM     69  C   UNL A   1      31.136  24.367  26.352  1.00  0.00     0.047 C 
ATOM     70  O   UNL A   1      31.121  23.136  24.364  1.00  0.00    -0.361 OA
ATOM     71  C   UNL A   1      30.721  22.950  26.668  1.00  0.00     0.037 C 
ATOM     72  C   UNL A   1      31.172  22.180  25.436  1.00  0.00     0.138 C 
BRANCH  72  73
ATOM     73  C   UNL A   1      32.572  21.513  25.565  1.00  0.00     0.145 C 
BRANCH  73  74
ATOM     74  N   UNL A   1      33.594  22.452  25.116  1.00  0.00    -0.378 N 
ATOM     75  H   UNL A   1      33.268  23.263  24.664  1.00  0.00     0.160 HD
BRANCH  74  76
ATOM     76  C   UNL A   1      34.968  22.339  25.248  1.00  0.00     0.113 A 
ATOM     77  C   UNL A   1      35.861  23.379  25.534  1.00  0.00     0.188 A 
ATOM     78  C   UNL A   1      35.530  21.065  25.021  1.00  0.00     0.188 A 
ATOM     79  F   UNL A   1      35.408  24.621  25.768  1.00  0.00    -0.201 F 
ATOM     80  C   UNL A   1      37.239  23.146  25.613  1.00  0.00     0.199 A 
ATOM     81  C   UNL A   1      36.899  20.835  25.078  1.00  0.00     0.199 A 
ATOM     82  F   UNL A   1      34.710  20.044  24.719  1.00  0.00    -0.201 F 
ATOM     83  F   UNL A   1      38.072  24.152  25.912  1.00  0.00    -0.200 F 
ATOM     84  C   UNL A   1      37.755  21.877  25.380  1.00  0.00     0.200 A 
ATOM     85  F   UNL A   1      37.382  19.609  24.831  1.00  0.00    -0.200 F 
ATOM     86  F   UNL A   1      39.076  21.661  25.443  1.00  0.00    -0.200 F 
ENDBRANCH  74  76
ENDBRANCH  73  74
ENDBRANCH  72  73
ENDBRANCH  66  68
ENDBRANCH  65  66
ENDBRANCH  64  65
ENDBRANCH  63  64
ENDBRANCH  62  63
ENDBRANCH  61  62
ENDBRANCH   1  61
TORSDOF 23
ENDMDL
MODEL 2
REMARK VINA RESULT:      -9.6      3.713      9.197
REMARK SMILES O=C(OCCOCCOCCOCCOC(=O)[C@@H]1CC[C@H](CNc2c(F)c(F)c(F)c(F)c2F)O1)c1ccc(-c2c3nc(c(-c4ccccc4)c4ccc([nH]4)c(-c4ccccc4)c4nc(c(-c5ccccc5)c5ccc2[nH]5)C=C4)C=C3)cc1
REMARK SMILES IDX 10 1 9 2 8 3 7 4 6 5 5 6 4 7 3 8 2 9 1 10 36 11 37 12 83 13
REMARK SMILES IDX 38 14 82 15 39 16 40 17 41 18 76 19 42 20 81 21 75 22 77 23
REMARK SMILES IDX 43 24 80 25 74 26 73 27 44 29 66 30 51 31 65 32 52 33 55 34
REMARK SMILES IDX 64 35 78 36 53 37 54 38 63 40 79 41 56 42 45 43 46 44 50 45
REMARK SMILES IDX 47 46 49 47 48 48 67 49 68 50 72 51 69 52 71 53 70 54 57 55
REMARK SMILES IDX 58 56 62 57 59 58 61 59 60 60 11 61 12 62 13 63 14 64 15 65
REMARK SMILES IDX 16 66 17 67 18 68 19 69 35 70 20 71 21 72 22 73 23 74 24 76
REMARK SMILES IDX 25 77 33 78 26 79 27 80 31 81 34 82 28 83 29 84 32 85 30 86
REMARK H PARENT 77 28 55 39 23 75
REMARK Flexibility Score: inf
ROOT
ATOM      1  C   UNL A   1      36.180  21.506  24.950  1.00  0.00     0.188 C 
ENDROOT
BRANCH   1   2
ATOM      2  O   UNL A   1      36.761  20.211  25.033  1.00  0.00    -0.377 OA
BRANCH   2   3
ATOM      3  C   UNL A   1      38.184  20.121  25.102  1.00  0.00     0.188 C 
BRANCH   3   4
ATOM      4  C   UNL A   1      38.899  21.264  25.813  1.00  0.00     0.188 C 
BRANCH   4   5
ATOM      5  O   UNL A   1      40.189  20.820  26.220  1.00  0.00    -0.376 OA
BRANCH   5   6
ATOM      6  C   UNL A   1      40.794  21.557  27.283  1.00  0.00     0.202 C 
BRANCH   6   7
ATOM      7  C   UNL A   1      41.912  22.488  26.830  1.00  0.00     0.261 C 
BRANCH   7   8
ATOM      8  O   UNL A   1      41.437  23.673  26.170  1.00  0.00    -0.460 OA
BRANCH   8   9
ATOM      9  C   UNL A   1      41.982  24.914  26.170  1.00  0.00     0.338 C 
ATOM     10  O   UNL A   1      42.781  25.207  25.282  1.00  0.00    -0.246 OA
BRANCH   9  11
ATOM     11  C   UNL A   1      41.635  25.973  27.161  1.00  0.00     0.060 A 
ATOM     12  C   UNL A   1      42.226  27.231  27.221  1.00  0.00     0.016 A 
ATOM     13  C   UNL A   1      40.572  25.712  28.038  1.00  0.00     0.016 A 
ATOM     14  C   UNL A   1      41.870  28.169  28.167  1.00  0.00     0.010 A 
ATOM     15  C   UNL A   1      40.165  26.668  28.974  1.00  0.00     0.010 A 
ATOM     16  C   UNL A   1      40.848  27.887  29.058  1.00  0.00    -0.014 A 
BRANCH  16  17
ATOM     17  C   UNL A   1      40.694  28.817  30.183  1.00  0.00     0.031 A 
ATOM     18  C   UNL A   1      39.532  29.758  30.132  1.00  0.00     0.074 A 
ATOM     19  C   UNL A   1      41.435  28.654  31.293  1.00  0.00     0.049 A 
ATOM     20  N   UNL A   1      39.197  30.705  30.962  1.00  0.00    -0.248 NA
ATOM     21  C   UNL A   1      38.605  29.596  28.996  1.00  0.00     0.031 C 
ATOM     22  C   UNL A   1      42.446  27.608  31.492  1.00  0.00     0.029 A 
ATOM     23  N   UNL A   1      41.413  29.325  32.483  1.00  0.00    -0.354 N 
ATOM     24  C   UNL A   1      38.058  31.283  30.420  1.00  0.00     0.074 A 
ATOM     25  C   UNL A   1      37.746  30.579  29.200  1.00  0.00     0.031 C 
ATOM     26  C   UNL A   1      42.922  27.692  32.744  1.00  0.00     0.029 A 
ATOM     27  C   UNL A   1      42.321  28.848  33.396  1.00  0.00     0.049 A 
ATOM     28  H   UNL A   1      40.806  30.077  32.667  1.00  0.00     0.167 HD
ATOM     29  C   UNL A   1      37.352  32.330  30.901  1.00  0.00     0.031 A 
ATOM     30  C   UNL A   1      42.655  29.337  34.603  1.00  0.00     0.031 A 
ATOM     31  C   UNL A   1      37.704  33.002  32.119  1.00  0.00     0.049 A 
ATOM     32  C   UNL A   1      41.946  30.583  35.056  1.00  0.00     0.074 A 
ATOM     33  C   UNL A   1      37.156  34.138  32.678  1.00  0.00     0.029 A 
ATOM     34  N   UNL A   1      38.714  32.571  32.972  1.00  0.00    -0.354 N 
ATOM     35  N   UNL A   1      40.952  31.222  34.481  1.00  0.00    -0.248 NA
ATOM     36  C   UNL A   1      42.416  31.192  36.304  1.00  0.00     0.031 C 
ATOM     37  C   UNL A   1      37.869  34.423  33.849  1.00  0.00     0.029 A 
ATOM     38  C   UNL A   1      38.819  33.430  34.048  1.00  0.00     0.049 A 
ATOM     39  H   UNL A   1      39.271  31.773  32.831  1.00  0.00     0.167 HD
ATOM     40  C   UNL A   1      40.668  32.302  35.300  1.00  0.00     0.074 A 
ATOM     41  C   UNL A   1      41.581  32.216  36.426  1.00  0.00     0.031 C 
ATOM     42  C   UNL A   1      39.747  33.286  35.143  1.00  0.00     0.031 A 
BRANCH  29  43
ATOM     43  C   UNL A   1      36.238  32.847  30.038  1.00  0.00    -0.014 A 
ATOM     44  C   UNL A   1      34.984  32.219  29.985  1.00  0.00     0.009 A 
ATOM     45  C   UNL A   1      36.483  33.945  29.197  1.00  0.00     0.009 A 
ATOM     46  C   UNL A   1      34.015  32.653  29.075  1.00  0.00     0.001 A 
ATOM     47  C   UNL A   1      35.505  34.392  28.307  1.00  0.00     0.001 A 
ATOM     48  C   UNL A   1      34.276  33.737  28.237  1.00  0.00     0.000 A 
ENDBRANCH  29  43
BRANCH  30  49
ATOM     49  C   UNL A   1      43.751  28.720  35.398  1.00  0.00    -0.014 A 
ATOM     50  C   UNL A   1      43.479  27.796  36.418  1.00  0.00     0.009 A 
ATOM     51  C   UNL A   1      45.089  29.069  35.149  1.00  0.00     0.009 A 
ATOM     52  C   UNL A   1      44.519  27.254  37.181  1.00  0.00     0.001 A 
ATOM     53  C   UNL A   1      46.129  28.503  35.891  1.00  0.00     0.001 A 
ATOM     54  C   UNL A   1      45.842  27.605  36.914  1.00  0.00     0.000 A 
ENDBRANCH  30  49
BRANCH  42  55
ATOM     55  C   UNL A   1      39.669  34.309  36.236  1.00  0.00    -0.014 A 
ATOM     56  C   UNL A   1      38.956  34.056  37.417  1.00  0.00     0.009 A 
ATOM     57  C   UNL A   1      40.366  35.517  36.095  1.00  0.00     0.009 A 
ATOM     58  C   UNL A   1      38.919  35.016  38.428  1.00  0.00     0.001 A 
ATOM     59  C   UNL A   1      40.353  36.459  37.120  1.00  0.00     0.001 A 
ATOM     60  C   UNL A   1      39.623  36.212  38.281  1.00  0.00     0.000 A 
ENDBRANCH  42  55
ENDBRANCH  16  17
ENDBRANCH   9  11
ENDBRANCH   8   9
ENDBRANCH   7   8
ENDBRANCH   6   7
ENDBRANCH   5   6
ENDBRANCH   4   5
ENDBRANCH   3   4
ENDBRANCH   2   3
ENDBRANCH   1   2
BRANCH   1  61
ATOM     61  C   UNL A   1      35.077  21.922  25.929  1.00  0.00     0.188 C 
BRANCH  61  62
ATOM     62  O   UNL A   1      34.213  20.930  26.439  1.00  0.00    -0.376 OA
BRANCH  62  63
ATOM     63  C   UNL A   1      33.221  20.363  25.589  1.00  0.00     0.202 C 
BRANCH  63  64
ATOM     64  C   UNL A   1      31.962  21.126  25.134  1.00  0.00     0.261 C 
BRANCH  64  65
ATOM     65  O   UNL A   1      31.587  22.252  25.947  1.00  0.00    -0.461 OA
BRANCH  65  66
ATOM     66  C   UNL A   1      31.378  23.427  25.278  1.00  0.00     0.335 C 
ATOM     67  O   UNL A   1      30.498  24.222  25.537  1.00  0.00    -0.249 OA
BRANCH  66  68
ATOM     68  C   UNL A   1      32.387  23.653  24.134  1.00  0.00     0.228 C 
ATOM     69  C   UNL A   1      33.303  24.825  24.399  1.00  0.00     0.047 C 
ATOM     70  O   UNL A   1      31.886  23.854  22.814  1.00  0.00    -0.361 OA
ATOM     71  C   UNL A   1      33.870  25.088  23.025  1.00  0.00     0.037 C 
ATOM     72  C   UNL A   1      32.683  24.821  22.111  1.00  0.00     0.138 C 
BRANCH  72  73
ATOM     73  C   UNL A   1      31.868  26.088  21.722  1.00  0.00     0.145 C 
BRANCH  73  74
ATOM     74  N   UNL A   1      32.572  27.275  22.194  1.00  0.00    -0.378 N 
ATOM     75  H   UNL A   1      33.468  27.426  21.816  1.00  0.00     0.160 HD
BRANCH  74  76
ATOM     76  C   UNL A   1      32.131  28.215  23.110  1.00  0.00     0.113 A 
ATOM     77  C   UNL A   1      30.895  28.875  23.091  1.00  0.00     0.188 A 
ATOM     78  C   UNL A   1      33.030  28.586  24.131  1.00  0.00     0.188 A 
ATOM     79  F   UNL A   1      29.979  28.577  22.155  1.00  0.00    -0.201 F 
ATOM     80  C   UNL A   1      30.572  29.832  24.059  1.00  0.00     0.199 A 
ATOM     81  C   UNL A   1      32.721  29.552  25.081  1.00  0.00     0.199 A 
ATOM     82  F   UNL A   1      34.237  27.995  24.171  1.00  0.00    -0.201 F 
ATOM     83  F   UNL A   1      29.374  30.432  24.034  1.00  0.00    -0.200 F 
ATOM     84  C   UNL A   1      31.487  30.172  25.048  1.00  0.00     0.200 A 
ATOM     85  F   UNL A   1      33.623  29.882  26.017  1.00  0.00    -0.200 F 
ATOM     86  F   UNL A   1      31.180  31.100  25.965  1.00  0.00    -0.200 F 
ENDBRANCH  74  76
ENDBRANCH  73  74
ENDBRANCH  72  73
ENDBRANCH  66  68
ENDBRANCH  65  66
ENDBRANCH  64  65
ENDBRANCH  63  64
ENDBRANCH  62  63
ENDBRANCH  61  62
ENDBRANCH   1  61
TORSDOF 23
ENDMDL
MODEL 3
REMARK VINA RESULT:      -9.6      1.856      2.878
REMARK SMILES O=C(OCCOCCOCCOCCOC(=O)[C@@H]1CC[C@H](CNc2c(F)c(F)c(F)c(F)c2F)O1)c1ccc(-c2c3nc(c(-c4ccccc4)c4ccc([nH]4)c(-c4ccccc4)c4nc(c(-c5ccccc5)c5ccc2[nH]5)C=C4)C=C3)cc1
REMARK SMILES IDX 10 1 9 2 8 3 7 4 6 5 5 6 4 7 3 8 2 9 1 10 36 11 37 12 83 13
REMARK SMILES IDX 38 14 82 15 39 16 40 17 41 18 76 19 42 20 81 21 75 22 77 23
REMARK SMILES IDX 43 24 80 25 74 26 73 27 44 29 66 30 51 31 65 32 52 33 55 34
REMARK SMILES IDX 64 35 78 36 53 37 54 38 63 40 79 41 56 42 45 43 46 44 50 45
REMARK SMILES IDX 47 46 49 47 48 48 67 49 68 50 72 51 69 52 71 53 70 54 57 55
REMARK SMILES IDX 58 56 62 57 59 58 61 59 60 60 11 61 12 62 13 63 14 64 15 65
REMARK SMILES IDX 16 66 17 67 18 68 19 69 35 70 20 71 21 72 22 73 23 74 24 76
REMARK SMILES IDX 25 77 33 78 26 79 27 80 31 81 34 82 28 83 29 84 32 85 30 86
REMARK H PARENT 77 28 55 39 23 75
REMARK Flexibility Score: inf
ROOT
ATOM      1  C   UNL A   1      33.978  29.505  27.614  1.00  0.00     0.188 C 
ENDROOT
BRANCH   1   2
ATOM      2  O   UNL A   1      35.016  30.412  27.960  1.00  0.00    -0.377 OA
BRANCH   2   3
ATOM      3  C   UNL A   1      34.792  31.803  27.730  1.00  0.00     0.188 C 
BRANCH   3   4
ATOM      4  C   UNL A   1      34.410  32.635  28.948  1.00  0.00     0.188 C 
BRANCH   4   5
ATOM      5  O   UNL A   1      34.259  33.994  28.550  1.00  0.00    -0.376 OA
BRANCH   5   6
ATOM      6  C   UNL A   1      33.044  34.628  28.950  1.00  0.00     0.202 C 
BRANCH   6   7
ATOM      7  C   UNL A   1      33.225  36.062  29.432  1.00  0.00     0.261 C 
BRANCH   7   8
ATOM      8  O   UNL A   1      32.566  36.334  30.679  1.00  0.00    -0.460 OA
BRANCH   8   9
ATOM      9  C   UNL A   1      32.633  35.634  31.837  1.00  0.00     0.338 C 
ATOM     10  O   UNL A   1      31.608  35.495  32.503  1.00  0.00    -0.246 OA
BRANCH   9  11
ATOM     11  C   UNL A   1      33.873  34.975  32.338  1.00  0.00     0.060 A 
ATOM     12  C   UNL A   1      35.105  35.604  32.485  1.00  0.00     0.016 A 
ATOM     13  C   UNL A   1      33.764  33.647  32.779  1.00  0.00     0.016 A 
ATOM     14  C   UNL A   1      36.222  34.939  32.946  1.00  0.00     0.010 A 
ATOM     15  C   UNL A   1      34.874  32.970  33.293  1.00  0.00     0.010 A 
ATOM     16  C   UNL A   1      36.116  33.615  33.339  1.00  0.00    -0.014 A 
BRANCH  16  17
ATOM     17  C   UNL A   1      37.380  32.908  33.577  1.00  0.00     0.031 A 
ATOM     18  C   UNL A   1      37.993  33.053  34.934  1.00  0.00     0.074 A 
ATOM     19  C   UNL A   1      37.818  32.001  32.686  1.00  0.00     0.049 A 
ATOM     20  N   UNL A   1      39.120  32.579  35.388  1.00  0.00    -0.248 NA
ATOM     21  C   UNL A   1      37.219  33.823  35.926  1.00  0.00     0.031 C 
ATOM     22  C   UNL A   1      37.144  31.651  31.430  1.00  0.00     0.029 A 
ATOM     23  N   UNL A   1      38.900  31.167  32.726  1.00  0.00    -0.354 N 
ATOM     24  C   UNL A   1      39.212  33.039  36.694  1.00  0.00     0.074 A 
ATOM     25  C   UNL A   1      38.029  33.817  36.971  1.00  0.00     0.031 C 
ATOM     26  C   UNL A   1      37.814  30.651  30.838  1.00  0.00     0.029 A 
ATOM     27  C   UNL A   1      39.007  30.359  31.621  1.00  0.00     0.049 A 
ATOM     28  H   UNL A   1      39.539  31.147  33.473  1.00  0.00     0.167 HD
ATOM     29  C   UNL A   1      40.220  32.839  37.572  1.00  0.00     0.031 A 
ATOM     30  C   UNL A   1      39.995  29.517  31.271  1.00  0.00     0.031 A 
ATOM     31  C   UNL A   1      41.380  32.059  37.249  1.00  0.00     0.049 A 
ATOM     32  C   UNL A   1      41.169  29.415  32.206  1.00  0.00     0.074 A 
ATOM     33  C   UNL A   1      42.526  31.855  37.988  1.00  0.00     0.029 A 
ATOM     34  N   UNL A   1      41.523  31.344  36.065  1.00  0.00    -0.354 N 
ATOM     35  N   UNL A   1      41.329  29.959  33.391  1.00  0.00    -0.248 NA
ATOM     36  C   UNL A   1      42.307  28.611  31.750  1.00  0.00     0.031 C 
ATOM     37  C   UNL A   1      43.386  31.053  37.228  1.00  0.00     0.029 A 
ATOM     38  C   UNL A   1      42.748  30.709  36.043  1.00  0.00     0.049 A 
ATOM     39  H   UNL A   1      40.849  31.297  35.349  1.00  0.00     0.167 HD
ATOM     40  C   UNL A   1      42.579  29.555  33.831  1.00  0.00     0.074 A 
ATOM     41  C   UNL A   1      43.124  28.699  32.792  1.00  0.00     0.031 C 
ATOM     42  C   UNL A   1      43.231  29.864  34.980  1.00  0.00     0.031 A 
BRANCH  29  43
ATOM     43  C   UNL A   1      40.132  33.573  38.879  1.00  0.00    -0.014 A 
ATOM     44  C   UNL A   1      40.726  34.830  39.068  1.00  0.00     0.009 A 
ATOM     45  C   UNL A   1      39.506  32.947  39.969  1.00  0.00     0.009 A 
ATOM     46  C   UNL A   1      40.733  35.425  40.334  1.00  0.00     0.001 A 
ATOM     47  C   UNL A   1      39.492  33.555  41.225  1.00  0.00     0.001 A 
ATOM     48  C   UNL A   1      40.117  34.787  41.410  1.00  0.00     0.000 A 
ENDBRANCH  29  43
BRANCH  30  49
ATOM     49  C   UNL A   1      39.963  28.804  29.965  1.00  0.00    -0.014 A 
ATOM     50  C   UNL A   1      40.408  29.423  28.787  1.00  0.00     0.009 A 
ATOM     51  C   UNL A   1      39.467  27.492  29.888  1.00  0.00     0.009 A 
ATOM     52  C   UNL A   1      40.336  28.751  27.562  1.00  0.00     0.001 A 
ATOM     53  C   UNL A   1      39.425  26.811  28.669  1.00  0.00     0.001 A 
ATOM     54  C   UNL A   1      39.849  27.445  27.505  1.00  0.00     0.000 A 
ENDBRANCH  30  49
BRANCH  42  55
ATOM     55  C   UNL A   1      44.578  29.235  35.173  1.00  0.00    -0.014 A 
ATOM     56  C   UNL A   1      44.720  28.021  35.859  1.00  0.00     0.009 A 
ATOM     57  C   UNL A   1      45.707  29.847  34.610  1.00  0.00     0.009 A 
ATOM     58  C   UNL A   1      45.982  27.445  36.004  1.00  0.00     0.001 A 
ATOM     59  C   UNL A   1      46.961  29.253  34.729  1.00  0.00     0.001 A 
ATOM     60  C   UNL A   1      47.099  28.058  35.433  1.00  0.00     0.000 A 
ENDBRANCH  42  55
ENDBRANCH  16  17
ENDBRANCH   9  11
ENDBRANCH   8   9
ENDBRANCH   7   8
ENDBRANCH   6   7
ENDBRANCH   5   6
ENDBRANCH   4   5
ENDBRANCH   3   4
ENDBRANCH   2   3
ENDBRANCH   1   2
BRANCH   1  61
ATOM     61  C   UNL A   1      33.217  29.668  26.293  1.00  0.00     0.188 C 
BRANCH  61  62
ATOM     62  O   UNL A   1      33.682  28.979  25.153  1.00  0.00    -0.376 OA
BRANCH  62  63
ATOM     63  C   UNL A   1      33.076  27.743  24.788  1.00  0.00     0.202 C 
BRANCH  63  64
ATOM     64  C   UNL A   1      33.881  26.508  24.340  1.00  0.00     0.261 C 
BRANCH  64  65
ATOM     65  O   UNL A   1      33.723  26.126  22.962  1.00  0.00    -0.461 OA
BRANCH  65  66
ATOM     66  C   UNL A   1      33.691  24.781  22.717  1.00  0.00     0.335 C 
ATOM     67  O   UNL A   1      33.278  24.275  21.693  1.00  0.00    -0.249 OA
BRANCH  66  68
ATOM     68  C   UNL A   1      34.238  23.943  23.890  1.00  0.00     0.228 C 
ATOM     69  C   UNL A   1      35.325  22.987  23.455  1.00  0.00     0.047 C 
ATOM     70  O   UNL A   1      33.324  23.158  24.653  1.00  0.00    -0.361 OA
ATOM     71  C   UNL A   1      35.385  22.039  24.628  1.00  0.00     0.037 C 
ATOM     72  C   UNL A   1      33.926  21.912  25.039  1.00  0.00     0.138 C 
BRANCH  72  73
ATOM     73  C   UNL A   1      33.186  20.686  24.431  1.00  0.00     0.145 C 
BRANCH  73  74
ATOM     74  N   UNL A   1      34.134  19.591  24.257  1.00  0.00    -0.378 N 
ATOM     75  H   UNL A   1      35.001  19.829  23.856  1.00  0.00     0.160 HD
BRANCH  74  76
ATOM     76  C   UNL A   1      33.961  18.258  24.587  1.00  0.00     0.113 A 
ATOM     77  C   UNL A   1      32.737  17.603  24.774  1.00  0.00     0.188 A 
ATOM     78  C   UNL A   1      35.126  17.496  24.810  1.00  0.00     0.188 A 
ATOM     79  F   UNL A   1      31.579  18.255  24.577  1.00  0.00    -0.201 F 
ATOM     80  C   UNL A   1      32.688  16.253  25.138  1.00  0.00     0.199 A 
ATOM     81  C   UNL A   1      35.081  16.160  25.192  1.00  0.00     0.199 A 
ATOM     82  F   UNL A   1      36.322  18.092  24.666  1.00  0.00    -0.201 F 
ATOM     83  F   UNL A   1      31.504  15.641  25.286  1.00  0.00    -0.200 F 
ATOM     84  C   UNL A   1      33.858  15.536  25.351  1.00  0.00     0.200 A 
ATOM     85  F   UNL A   1      36.221  15.490  25.412  1.00  0.00    -0.200 F 
ATOM     86  F   UNL A   1      33.808  14.247  25.712  1.00  0.00    -0.200 F 
ENDBRANCH  74  76
ENDBRANCH  73  74
ENDBRANCH  72  73
ENDBRANCH  66  68
ENDBRANCH  65  66
ENDBRANCH  64  65
ENDBRANCH  63  64
ENDBRANCH  62  63
ENDBRANCH  61  62
ENDBRANCH   1  61
TORSDOF 23
ENDMDL
