MODEL 1
REMARK VINA RESULT:      -7.2      0.000      0.000
REMARK SMILES C[C@H]1CN(C(=O)NCCOCC(=O)OCCOCCOCCOCCOC(=O)c2ccc(-c3c4nc(c(-c5ccccc5)c5ccc([nH]5)c(-c5ccccc5)c5nc(c(-c6ccccc6)c6ccc3[nH]6)C=C5)C=C4)cc2)CC[N@@H+]1C
REMARK SMILES IDX 18 1 17 2 16 3 15 4 14 5 12 6 13 7 11 8 10 9 9 10 8 11 7 12
REMARK SMILES IDX 5 13 6 14 4 16 1 17 2 18 3 19 79 20 78 21 80 22 77 24 19 25
REMARK SMILES IDX 20 26 21 27 22 28 23 29 24 30 25 31 26 32 27 33 28 34 29 35
REMARK SMILES IDX 30 36 76 37 31 38 75 39 32 40 33 41 34 42 69 43 35 44 74 45
REMARK SMILES IDX 68 46 70 47 36 48 73 49 67 50 66 51 37 53 59 54 44 55 58 56
REMARK SMILES IDX 45 57 48 58 57 59 71 60 46 61 47 62 56 64 72 65 49 66 38 67
REMARK SMILES IDX 39 68 43 69 40 70 42 71 41 72 60 73 61 74 65 75 62 76 64 77
REMARK SMILES IDX 63 78 50 79 51 80 55 81 52 82 54 83 53 84
REMARK H PARENT 7 15 79 23 70 52 48 63
REMARK Flexibility Score: inf
ROOT
ATOM      1  C   UNL A   1      47.161  43.875  24.133  1.00  0.00     0.188 C 
ENDROOT
BRANCH   1   2
ATOM      2  O   UNL A   1      46.880  44.838  23.116  1.00  0.00    -0.376 OA
BRANCH   2   3
ATOM      3  C   UNL A   1      46.448  44.350  21.848  1.00  0.00     0.202 C 
BRANCH   3   4
ATOM      4  C   UNL A   1      44.947  44.453  21.519  1.00  0.00     0.261 C 
BRANCH   4   5
ATOM      5  O   UNL A   1      44.220  43.202  21.498  1.00  0.00    -0.462 OA
BRANCH   5   6
ATOM      6  C   UNL A   1      42.884  43.305  21.273  1.00  0.00     0.332 C 
ATOM      7  O   UNL A   1      42.079  43.758  22.084  1.00  0.00    -0.250 OA
BRANCH   6   8
ATOM      8  C   UNL A   1      42.412  42.821  19.882  1.00  0.00     0.282 C 
BRANCH   8   9
ATOM      9  O   UNL A   1      42.841  43.230  18.605  1.00  0.00    -0.368 OA
BRANCH   9  10
ATOM     10  C   UNL A   1      42.989  44.624  18.339  1.00  0.00     0.182 C 
BRANCH  10  11
ATOM     11  C   UNL A   1      41.713  45.496  18.341  1.00  0.00     0.146 C 
BRANCH  11  12
ATOM     12  N   UNL A   1      41.684  46.564  17.344  1.00  0.00    -0.336 N 
ATOM     13  C   UNL A   1      42.409  47.588  16.878  1.00  0.00     0.317 C 
ATOM     14  O   UNL A   1      41.854  48.188  15.948  1.00  0.00    -0.249 OA
ATOM     15  H   UNL A   1      40.838  46.514  16.842  1.00  0.00     0.165 HD
BRANCH  13  16
ATOM     16  N   UNL A   1      43.610  47.996  17.351  1.00  0.00    -0.313 N 
ATOM     17  C   UNL A   1      45.405  47.997  20.706  1.00  0.00     0.077 C 
ATOM     18  C   UNL A   1      45.064  47.487  19.299  1.00  0.00     0.200 C 
ATOM     19  C   UNL A   1      44.017  48.447  18.673  1.00  0.00     0.186 C 
ATOM     20  N   UNL A   1      46.269  47.404  18.427  1.00  0.00    -0.332 N 
ATOM     21  C   UNL A   1      45.877  47.021  17.046  1.00  0.00     0.284 C 
ATOM     22  C   UNL A   1      47.267  46.456  18.925  1.00  0.00     0.333 C 
ATOM     23  H   UNL A   1      46.695  48.332  18.432  1.00  0.00     0.348 HD
ATOM     24  C   UNL A   1      44.775  47.921  16.452  1.00  0.00     0.183 C 
ENDBRANCH  13  16
ENDBRANCH  11  12
ENDBRANCH  10  11
ENDBRANCH   9  10
ENDBRANCH   8   9
ENDBRANCH   6   8
ENDBRANCH   5   6
ENDBRANCH   4   5
ENDBRANCH   3   4
ENDBRANCH   2   3
ENDBRANCH   1   2
BRANCH   1  25
ATOM     25  C   UNL A   1      46.188  43.859  25.311  1.00  0.00     0.188 C 
BRANCH  25  26
ATOM     26  O   UNL A   1      44.860  43.584  24.882  1.00  0.00    -0.377 OA
BRANCH  26  27
ATOM     27  C   UNL A   1      44.052  42.674  25.620  1.00  0.00     0.188 C 
BRANCH  27  28
ATOM     28  C   UNL A   1      44.486  42.362  27.052  1.00  0.00     0.188 C 
BRANCH  28  29
ATOM     29  O   UNL A   1      44.361  41.019  27.528  1.00  0.00    -0.376 OA
BRANCH  29  30
ATOM     30  C   UNL A   1      43.483  40.114  26.874  1.00  0.00     0.202 C 
BRANCH  30  31
ATOM     31  C   UNL A   1      43.863  38.635  26.888  1.00  0.00     0.261 C 
BRANCH  31  32
ATOM     32  O   UNL A   1      42.768  37.794  26.530  1.00  0.00    -0.460 OA
BRANCH  32  33
ATOM     33  C   UNL A   1      42.406  36.943  27.520  1.00  0.00     0.338 C 
ATOM     34  O   UNL A   1      41.610  37.133  28.418  1.00  0.00    -0.246 OA
BRANCH  33  35
ATOM     35  C   UNL A   1      43.031  35.641  27.258  1.00  0.00     0.060 A 
ATOM     36  C   UNL A   1      43.494  34.913  28.360  1.00  0.00     0.016 A 
ATOM     37  C   UNL A   1      43.214  35.182  25.951  1.00  0.00     0.016 A 
ATOM     38  C   UNL A   1      44.189  33.735  28.158  1.00  0.00     0.010 A 
ATOM     39  C   UNL A   1      43.942  34.016  25.746  1.00  0.00     0.010 A 
ATOM     40  C   UNL A   1      44.471  33.326  26.850  1.00  0.00    -0.014 A 
BRANCH  40  41
ATOM     41  C   UNL A   1      45.528  32.322  26.667  1.00  0.00     0.031 A 
ATOM     42  C   UNL A   1      46.945  32.804  26.567  1.00  0.00     0.074 A 
ATOM     43  C   UNL A   1      45.228  31.017  26.684  1.00  0.00     0.049 A 
ATOM     44  N   UNL A   1      48.050  32.114  26.475  1.00  0.00    -0.248 NA
ATOM     45  C   UNL A   1      47.143  34.264  26.577  1.00  0.00     0.031 C 
ATOM     46  C   UNL A   1      43.883  30.463  26.831  1.00  0.00     0.029 A 
ATOM     47  N   UNL A   1      46.043  29.923  26.590  1.00  0.00    -0.354 N 
ATOM     48  C   UNL A   1      49.070  33.053  26.409  1.00  0.00     0.074 A 
ATOM     49  C   UNL A   1      48.453  34.360  26.431  1.00  0.00     0.031 C 
ATOM     50  C   UNL A   1      43.965  29.124  26.816  1.00  0.00     0.029 A 
ATOM     51  C   UNL A   1      45.361  28.735  26.630  1.00  0.00     0.049 A 
ATOM     52  H   UNL A   1      47.021  29.984  26.501  1.00  0.00     0.167 HD
ATOM     53  C   UNL A   1      50.404  32.840  26.339  1.00  0.00     0.031 A 
ATOM     54  C   UNL A   1      45.821  27.478  26.512  1.00  0.00     0.031 A 
ATOM     55  C   UNL A   1      50.993  31.529  26.286  1.00  0.00     0.049 A 
ATOM     56  C   UNL A   1      47.301  27.262  26.364  1.00  0.00     0.074 A 
ATOM     57  C   UNL A   1      52.329  31.183  26.221  1.00  0.00     0.029 A 
ATOM     58  N   UNL A   1      50.268  30.344  26.277  1.00  0.00    -0.354 N 
ATOM     59  N   UNL A   1      48.266  28.152  26.328  1.00  0.00    -0.248 NA
ATOM     60  C   UNL A   1      47.757  25.871  26.258  1.00  0.00     0.031 C 
ATOM     61  C   UNL A   1      52.410  29.792  26.099  1.00  0.00     0.029 A 
ATOM     62  C   UNL A   1      51.128  29.265  26.169  1.00  0.00     0.049 A 
ATOM     63  H   UNL A   1      49.288  30.281  26.337  1.00  0.00     0.167 HD
ATOM     64  C   UNL A   1      49.447  27.430  26.222  1.00  0.00     0.074 A 
ATOM     65  C   UNL A   1      49.074  26.027  26.212  1.00  0.00     0.031 C 
ATOM     66  C   UNL A   1      50.725  27.879  26.145  1.00  0.00     0.031 A 
BRANCH  53  67
ATOM     67  C   UNL A   1      51.288  34.055  26.245  1.00  0.00    -0.014 A 
ATOM     68  C   UNL A   1      51.759  34.719  27.389  1.00  0.00     0.009 A 
ATOM     69  C   UNL A   1      51.630  34.561  24.981  1.00  0.00     0.009 A 
ATOM     70  C   UNL A   1      52.507  35.894  27.270  1.00  0.00     0.001 A 
ATOM     71  C   UNL A   1      52.407  35.714  24.864  1.00  0.00     0.001 A 
ATOM     72  C   UNL A   1      52.831  36.389  26.008  1.00  0.00     0.000 A 
ENDBRANCH  53  67
BRANCH  54  73
ATOM     73  C   UNL A   1      44.858  26.349  26.523  1.00  0.00    -0.014 A 
ATOM     74  C   UNL A   1      44.624  25.608  27.689  1.00  0.00     0.009 A 
ATOM     75  C   UNL A   1      44.123  26.043  25.364  1.00  0.00     0.009 A 
ATOM     76  C   UNL A   1      43.680  24.578  27.692  1.00  0.00     0.001 A 
ATOM     77  C   UNL A   1      43.161  25.032  25.379  1.00  0.00     0.001 A 
ATOM     78  C   UNL A   1      42.944  24.297  26.542  1.00  0.00     0.000 A 
ENDBRANCH  54  73
BRANCH  66  79
ATOM     79  C   UNL A   1      51.812  26.844  26.078  1.00  0.00    -0.014 A 
ATOM     80  C   UNL A   1      52.158  26.218  24.870  1.00  0.00     0.009 A 
ATOM     81  C   UNL A   1      52.533  26.523  27.241  1.00  0.00     0.009 A 
ATOM     82  C   UNL A   1      53.177  25.263  24.837  1.00  0.00     0.001 A 
ATOM     83  C   UNL A   1      53.573  25.596  27.197  1.00  0.00     0.001 A 
ATOM     84  C   UNL A   1      53.887  24.958  25.998  1.00  0.00     0.000 A 
ENDBRANCH  66  79
ENDBRANCH  40  41
ENDBRANCH  33  35
ENDBRANCH  32  33
ENDBRANCH  31  32
ENDBRANCH  30  31
ENDBRANCH  29  30
ENDBRANCH  28  29
ENDBRANCH  27  28
ENDBRANCH  26  27
ENDBRANCH  25  26
ENDBRANCH   1  25
TORSDOF 25
ENDMDL
MODEL 2
REMARK VINA RESULT:      -7.0     11.539     15.069
REMARK SMILES C[C@H]1CN(C(=O)NCCOCC(=O)OCCOCCOCCOCCOC(=O)c2ccc(-c3c4nc(c(-c5ccccc5)c5ccc([nH]5)c(-c5ccccc5)c5nc(c(-c6ccccc6)c6ccc3[nH]6)C=C5)C=C4)cc2)CC[N@@H+]1C
REMARK SMILES IDX 18 1 17 2 16 3 15 4 14 5 12 6 13 7 11 8 10 9 9 10 8 11 7 12
REMARK SMILES IDX 5 13 6 14 4 16 1 17 2 18 3 19 79 20 78 21 80 22 77 24 19 25
REMARK SMILES IDX 20 26 21 27 22 28 23 29 24 30 25 31 26 32 27 33 28 34 29 35
REMARK SMILES IDX 30 36 76 37 31 38 75 39 32 40 33 41 34 42 69 43 35 44 74 45
REMARK SMILES IDX 68 46 70 47 36 48 73 49 67 50 66 51 37 53 59 54 44 55 58 56
REMARK SMILES IDX 45 57 48 58 57 59 71 60 46 61 47 62 56 64 72 65 49 66 38 67
REMARK SMILES IDX 39 68 43 69 40 70 42 71 41 72 60 73 61 74 65 75 62 76 64 77
REMARK SMILES IDX 63 78 50 79 51 80 55 81 52 82 54 83 53 84
REMARK H PARENT 7 15 79 23 70 52 48 63
REMARK Flexibility Score: inf
ROOT
ATOM      1  C   UNL A   1      37.865  22.049  25.718  1.00  0.00     0.188 C 
ENDROOT
BRANCH   1   2
ATOM      2  O   UNL A   1      36.776  22.904  25.370  1.00  0.00    -0.376 OA
BRANCH   2   3
ATOM      3  C   UNL A   1      35.466  22.490  25.750  1.00  0.00     0.202 C 
BRANCH   3   4
ATOM      4  C   UNL A   1      34.932  21.175  25.152  1.00  0.00     0.261 C 
BRANCH   4   5
ATOM      5  O   UNL A   1      33.892  21.314  24.156  1.00  0.00    -0.462 OA
BRANCH   5   6
ATOM      6  C   UNL A   1      33.660  22.581  23.725  1.00  0.00     0.332 C 
ATOM      7  O   UNL A   1      34.331  23.154  22.869  1.00  0.00    -0.250 OA
BRANCH   6   8
ATOM      8  C   UNL A   1      32.448  23.286  24.377  1.00  0.00     0.282 C 
BRANCH   8   9
ATOM      9  O   UNL A   1      32.287  24.641  24.724  1.00  0.00    -0.368 OA
BRANCH   9  10
ATOM     10  C   UNL A   1      31.698  24.967  25.983  1.00  0.00     0.182 C 
BRANCH  10  11
ATOM     11  C   UNL A   1      30.480  25.918  25.981  1.00  0.00     0.146 C 
BRANCH  11  12
ATOM     12  N   UNL A   1      30.136  26.491  24.681  1.00  0.00    -0.336 N 
ATOM     13  C   UNL A   1      30.450  27.500  23.860  1.00  0.00     0.317 C 
ATOM     14  O   UNL A   1      29.799  27.487  22.808  1.00  0.00    -0.249 OA
ATOM     15  H   UNL A   1      29.428  25.947  24.266  1.00  0.00     0.165 HD
BRANCH  13  16
ATOM     16  N   UNL A   1      31.351  28.481  24.109  1.00  0.00    -0.313 N 
ATOM     17  C   UNL A   1      31.755  31.281  26.653  1.00  0.00     0.077 C 
ATOM     18  C   UNL A   1      32.008  29.897  26.041  1.00  0.00     0.200 C 
ATOM     19  C   UNL A   1      31.196  29.791  24.722  1.00  0.00     0.186 C 
ATOM     20  N   UNL A   1      33.454  29.659  25.772  1.00  0.00    -0.332 N 
ATOM     21  C   UNL A   1      33.639  28.361  25.074  1.00  0.00     0.284 C 
ATOM     22  C   UNL A   1      34.268  29.672  26.989  1.00  0.00     0.333 C 
ATOM     23  H   UNL A   1      33.769  30.429  25.181  1.00  0.00     0.348 HD
ATOM     24  C   UNL A   1      32.769  28.218  23.809  1.00  0.00     0.183 C 
ENDBRANCH  13  16
ENDBRANCH  11  12
ENDBRANCH  10  11
ENDBRANCH   9  10
ENDBRANCH   8   9
ENDBRANCH   6   8
ENDBRANCH   5   6
ENDBRANCH   4   5
ENDBRANCH   3   4
ENDBRANCH   2   3
ENDBRANCH   1   2
BRANCH   1  25
ATOM     25  C   UNL A   1      39.081  22.746  26.328  1.00  0.00     0.188 C 
BRANCH  25  26
ATOM     26  O   UNL A   1      40.014  21.803  26.842  1.00  0.00    -0.377 OA
BRANCH  26  27
ATOM     27  C   UNL A   1      41.369  21.842  26.410  1.00  0.00     0.188 C 
BRANCH  27  28
ATOM     28  C   UNL A   1      41.962  23.216  26.101  1.00  0.00     0.188 C 
BRANCH  28  29
ATOM     29  O   UNL A   1      42.178  24.129  27.182  1.00  0.00    -0.376 OA
BRANCH  29  30
ATOM     30  C   UNL A   1      41.289  25.221  27.373  1.00  0.00     0.202 C 
BRANCH  30  31
ATOM     31  C   UNL A   1      41.040  26.140  26.179  1.00  0.00     0.261 C 
BRANCH  31  32
ATOM     32  O   UNL A   1      41.621  27.430  26.361  1.00  0.00    -0.460 OA
BRANCH  32  33
ATOM     33  C   UNL A   1      42.632  27.684  25.497  1.00  0.00     0.338 C 
ATOM     34  O   UNL A   1      42.559  28.088  24.354  1.00  0.00    -0.246 OA
BRANCH  33  35
ATOM     35  C   UNL A   1      43.901  27.537  26.220  1.00  0.00     0.060 A 
ATOM     36  C   UNL A   1      44.598  26.334  26.064  1.00  0.00     0.016 A 
ATOM     37  C   UNL A   1      44.356  28.537  27.083  1.00  0.00     0.016 A 
ATOM     38  C   UNL A   1      45.740  26.103  26.809  1.00  0.00     0.010 A 
ATOM     39  C   UNL A   1      45.484  28.292  27.858  1.00  0.00     0.010 A 
ATOM     40  C   UNL A   1      46.140  27.053  27.754  1.00  0.00    -0.014 A 
BRANCH  40  41
ATOM     41  C   UNL A   1      47.088  26.622  28.791  1.00  0.00     0.031 A 
ATOM     42  C   UNL A   1      48.553  26.741  28.497  1.00  0.00     0.074 A 
ATOM     43  C   UNL A   1      46.640  26.225  29.989  1.00  0.00     0.049 A 
ATOM     44  N   UNL A   1      49.576  26.494  29.270  1.00  0.00    -0.248 NA
ATOM     45  C   UNL A   1      48.915  27.205  27.146  1.00  0.00     0.031 C 
ATOM     46  C   UNL A   1      45.233  26.133  30.375  1.00  0.00     0.029 A 
ATOM     47  N   UNL A   1      47.330  25.840  31.105  1.00  0.00    -0.354 N 
ATOM     48  C   UNL A   1      50.698  26.766  28.501  1.00  0.00     0.074 A 
ATOM     49  C   UNL A   1      50.235  27.158  27.189  1.00  0.00     0.031 C 
ATOM     50  C   UNL A   1      45.162  25.713  31.648  1.00  0.00     0.029 A 
ATOM     51  C   UNL A   1      46.516  25.483  32.148  1.00  0.00     0.049 A 
ATOM     52  H   UNL A   1      48.313  25.820  31.154  1.00  0.00     0.167 HD
ATOM     53  C   UNL A   1      52.001  26.698  28.860  1.00  0.00     0.031 A 
ATOM     54  C   UNL A   1      46.838  25.009  33.364  1.00  0.00     0.031 A 
ATOM     55  C   UNL A   1      52.438  26.275  30.164  1.00  0.00     0.049 A 
ATOM     56  C   UNL A   1      48.291  24.871  33.723  1.00  0.00     0.074 A 
ATOM     57  C   UNL A   1      53.727  26.170  30.651  1.00  0.00     0.029 A 
ATOM     58  N   UNL A   1      51.587  25.870  31.183  1.00  0.00    -0.354 N 
ATOM     59  N   UNL A   1      49.351  25.155  33.002  1.00  0.00    -0.248 NA
ATOM     60  C   UNL A   1      48.593  24.367  35.068  1.00  0.00     0.031 C 
ATOM     61  C   UNL A   1      53.658  25.632  31.941  1.00  0.00     0.029 A 
ATOM     62  C   UNL A   1      52.324  25.478  32.287  1.00  0.00     0.049 A 
ATOM     63  H   UNL A   1      50.605  25.862  31.129  1.00  0.00     0.167 HD
ATOM     64  C   UNL A   1      50.446  24.888  33.812  1.00  0.00     0.074 A 
ATOM     65  C   UNL A   1      49.917  24.434  35.084  1.00  0.00     0.031 C 
ATOM     66  C   UNL A   1      51.769  25.013  33.536  1.00  0.00     0.031 A 
BRANCH  53  67
ATOM     67  C   UNL A   1      53.022  27.021  27.804  1.00  0.00    -0.014 A 
ATOM     68  C   UNL A   1      53.556  26.031  26.962  1.00  0.00     0.009 A 
ATOM     69  C   UNL A   1      53.480  28.341  27.669  1.00  0.00     0.009 A 
ATOM     70  C   UNL A   1      54.565  26.346  26.048  1.00  0.00     0.001 A 
ATOM     71  C   UNL A   1      54.462  28.661  26.731  1.00  0.00     0.001 A 
ATOM     72  C   UNL A   1      55.016  27.661  25.932  1.00  0.00     0.000 A 
ENDBRANCH  53  67
BRANCH  54  73
ATOM     73  C   UNL A   1      45.755  24.628  34.305  1.00  0.00    -0.014 A 
ATOM     74  C   UNL A   1      45.083  23.405  34.179  1.00  0.00     0.009 A 
ATOM     75  C   UNL A   1      45.427  25.477  35.377  1.00  0.00     0.009 A 
ATOM     76  C   UNL A   1      44.098  23.043  35.100  1.00  0.00     0.001 A 
ATOM     77  C   UNL A   1      44.462  25.099  36.312  1.00  0.00     0.001 A 
ATOM     78  C   UNL A   1      43.795  23.885  36.170  1.00  0.00     0.000 A 
ENDBRANCH  54  73
BRANCH  66  79
ATOM     79  C   UNL A   1      52.733  24.684  34.642  1.00  0.00    -0.014 A 
ATOM     80  C   UNL A   1      53.074  25.627  35.624  1.00  0.00     0.009 A 
ATOM     81  C   UNL A   1      53.273  23.390  34.724  1.00  0.00     0.009 A 
ATOM     82  C   UNL A   1      53.968  25.291  36.643  1.00  0.00     0.001 A 
ATOM     83  C   UNL A   1      54.137  23.048  35.764  1.00  0.00     0.001 A 
ATOM     84  C   UNL A   1      54.493  24.001  36.715  1.00  0.00     0.000 A 
ENDBRANCH  66  79
ENDBRANCH  40  41
ENDBRANCH  33  35
ENDBRANCH  32  33
ENDBRANCH  31  32
ENDBRANCH  30  31
ENDBRANCH  29  30
ENDBRANCH  28  29
ENDBRANCH  27  28
ENDBRANCH  26  27
ENDBRANCH  25  26
ENDBRANCH   1  25
TORSDOF 25
ENDMDL
MODEL 3
REMARK VINA RESULT:      -6.9     11.708     15.815
REMARK SMILES C[C@H]1CN(C(=O)NCCOCC(=O)OCCOCCOCCOCCOC(=O)c2ccc(-c3c4nc(c(-c5ccccc5)c5ccc([nH]5)c(-c5ccccc5)c5nc(c(-c6ccccc6)c6ccc3[nH]6)C=C5)C=C4)cc2)CC[N@@H+]1C
REMARK SMILES IDX 18 1 17 2 16 3 15 4 14 5 12 6 13 7 11 8 10 9 9 10 8 11 7 12
REMARK SMILES IDX 5 13 6 14 4 16 1 17 2 18 3 19 79 20 78 21 80 22 77 24 19 25
REMARK SMILES IDX 20 26 21 27 22 28 23 29 24 30 25 31 26 32 27 33 28 34 29 35
REMARK SMILES IDX 30 36 76 37 31 38 75 39 32 40 33 41 34 42 69 43 35 44 74 45
REMARK SMILES IDX 68 46 70 47 36 48 73 49 67 50 66 51 37 53 59 54 44 55 58 56
REMARK SMILES IDX 45 57 48 58 57 59 71 60 46 61 47 62 56 64 72 65 49 66 38 67
REMARK SMILES IDX 39 68 43 69 40 70 42 71 41 72 60 73 61 74 65 75 62 76 64 77
REMARK SMILES IDX 63 78 50 79 51 80 55 81 52 82 54 83 53 84
REMARK H PARENT 7 15 79 23 70 52 48 63
REMARK Flexibility Score: inf
ROOT
ATOM      1  C   UNL A   1      32.099  26.605  25.219  1.00  0.00     0.188 C 
ENDROOT
BRANCH   1   2
ATOM      2  O   UNL A   1      33.369  25.952  25.216  1.00  0.00    -0.376 OA
BRANCH   2   3
ATOM      3  C   UNL A   1      33.501  24.765  25.993  1.00  0.00     0.202 C 
BRANCH   3   4
ATOM      4  C   UNL A   1      33.448  23.417  25.249  1.00  0.00     0.261 C 
BRANCH   4   5
ATOM      5  O   UNL A   1      34.723  22.767  25.036  1.00  0.00    -0.462 OA
BRANCH   5   6
ATOM      6  C   UNL A   1      34.962  21.677  25.810  1.00  0.00     0.332 C 
ATOM      7  O   UNL A   1      34.797  21.645  27.028  1.00  0.00    -0.250 OA
BRANCH   6   8
ATOM      8  C   UNL A   1      35.453  20.423  25.050  1.00  0.00     0.282 C 
BRANCH   8   9
ATOM      9  O   UNL A   1      36.768  20.024  24.747  1.00  0.00    -0.368 OA
BRANCH   9  10
ATOM     10  C   UNL A   1      37.817  20.347  25.659  1.00  0.00     0.182 C 
BRANCH  10  11
ATOM     11  C   UNL A   1      39.269  20.050  25.220  1.00  0.00     0.146 C 
BRANCH  11  12
ATOM     12  N   UNL A   1      40.177  19.650  26.293  1.00  0.00    -0.336 N 
ATOM     13  C   UNL A   1      41.166  20.119  27.063  1.00  0.00     0.317 C 
ATOM     14  O   UNL A   1      41.589  19.280  27.868  1.00  0.00    -0.249 OA
ATOM     15  H   UNL A   1      40.002  18.711  26.530  1.00  0.00     0.165 HD
BRANCH  13  16
ATOM     16  N   UNL A   1      41.712  21.356  26.996  1.00  0.00    -0.313 N 
ATOM     17  C   UNL A   1      43.170  23.872  29.450  1.00  0.00     0.077 C 
ATOM     18  C   UNL A   1      43.210  22.760  28.393  1.00  0.00     0.200 C 
ATOM     19  C   UNL A   1      41.753  22.440  27.966  1.00  0.00     0.186 C 
ATOM     20  N   UNL A   1      44.019  23.148  27.204  1.00  0.00    -0.332 N 
ATOM     21  C   UNL A   1      43.934  22.094  26.160  1.00  0.00     0.284 C 
ATOM     22  C   UNL A   1      45.426  23.392  27.528  1.00  0.00     0.333 C 
ATOM     23  H   UNL A   1      43.625  24.024  26.858  1.00  0.00     0.348 HD
ATOM     24  C   UNL A   1      42.486  21.713  25.794  1.00  0.00     0.183 C 
ENDBRANCH  13  16
ENDBRANCH  11  12
ENDBRANCH  10  11
ENDBRANCH   9  10
ENDBRANCH   8   9
ENDBRANCH   6   8
ENDBRANCH   5   6
ENDBRANCH   4   5
ENDBRANCH   3   4
ENDBRANCH   2   3
ENDBRANCH   1   2
BRANCH   1  25
ATOM     25  C   UNL A   1      31.905  27.673  24.143  1.00  0.00     0.188 C 
BRANCH  25  26
ATOM     26  O   UNL A   1      32.167  28.975  24.653  1.00  0.00    -0.377 OA
BRANCH  26  27
ATOM     27  C   UNL A   1      33.406  29.246  25.295  1.00  0.00     0.188 C 
BRANCH  27  28
ATOM     28  C   UNL A   1      33.374  29.462  26.808  1.00  0.00     0.188 C 
BRANCH  28  29
ATOM     29  O   UNL A   1      34.468  28.980  27.593  1.00  0.00    -0.376 OA
BRANCH  29  30
ATOM     30  C   UNL A   1      35.486  29.878  28.014  1.00  0.00     0.202 C 
BRANCH  30  31
ATOM     31  C   UNL A   1      36.933  29.482  27.728  1.00  0.00     0.261 C 
BRANCH  31  32
ATOM     32  O   UNL A   1      37.582  28.942  28.878  1.00  0.00    -0.460 OA
BRANCH  32  33
ATOM     33  C   UNL A   1      38.421  29.821  29.476  1.00  0.00     0.338 C 
ATOM     34  O   UNL A   1      38.138  30.837  30.078  1.00  0.00    -0.246 OA
BRANCH  33  35
ATOM     35  C   UNL A   1      39.780  29.268  29.421  1.00  0.00     0.060 A 
ATOM     36  C   UNL A   1      39.915  27.877  29.486  1.00  0.00     0.016 A 
ATOM     37  C   UNL A   1      40.895  30.108  29.374  1.00  0.00     0.016 A 
ATOM     38  C   UNL A   1      41.177  27.315  29.550  1.00  0.00     0.010 A 
ATOM     39  C   UNL A   1      42.163  29.546  29.473  1.00  0.00     0.010 A 
ATOM     40  C   UNL A   1      42.294  28.154  29.613  1.00  0.00    -0.014 A 
BRANCH  40  41
ATOM     41  C   UNL A   1      43.558  27.566  30.079  1.00  0.00     0.031 A 
ATOM     42  C   UNL A   1      44.634  27.317  29.065  1.00  0.00     0.074 A 
ATOM     43  C   UNL A   1      43.759  27.354  31.386  1.00  0.00     0.049 A 
ATOM     44  N   UNL A   1      45.851  26.878  29.239  1.00  0.00    -0.248 NA
ATOM     45  C   UNL A   1      44.291  27.608  27.662  1.00  0.00     0.031 C 
ATOM     46  C   UNL A   1      42.786  27.620  32.444  1.00  0.00     0.029 A 
ATOM     47  N   UNL A   1      44.860  26.878  32.043  1.00  0.00    -0.354 N 
ATOM     48  C   UNL A   1      46.415  26.832  27.972  1.00  0.00     0.074 A 
ATOM     49  C   UNL A   1      45.398  27.251  27.034  1.00  0.00     0.031 C 
ATOM     50  C   UNL A   1      43.335  27.299  33.625  1.00  0.00     0.029 A 
ATOM     51  C   UNL A   1      44.683  26.782  33.398  1.00  0.00     0.049 A 
ATOM     52  H   UNL A   1      45.696  26.627  31.587  1.00  0.00     0.167 HD
ATOM     53  C   UNL A   1      47.673  26.476  27.624  1.00  0.00     0.031 A 
ATOM     54  C   UNL A   1      45.517  26.312  34.341  1.00  0.00     0.031 A 
ATOM     55  C   UNL A   1      48.659  26.033  28.574  1.00  0.00     0.049 A 
ATOM     56  C   UNL A   1      46.887  25.853  33.929  1.00  0.00     0.074 A 
ATOM     57  C   UNL A   1      49.967  25.652  28.347  1.00  0.00     0.029 A 
ATOM     58  N   UNL A   1      48.429  25.899  29.937  1.00  0.00    -0.354 N 
ATOM     59  N   UNL A   1      47.428  25.836  32.732  1.00  0.00    -0.248 NA
ATOM     60  C   UNL A   1      47.769  25.365  34.996  1.00  0.00     0.031 C 
ATOM     61  C   UNL A   1      50.507  25.217  29.563  1.00  0.00     0.029 A 
ATOM     62  C   UNL A   1      49.561  25.404  30.560  1.00  0.00     0.049 A 
ATOM     63  H   UNL A   1      47.586  26.121  30.392  1.00  0.00     0.167 HD
ATOM     64  C   UNL A   1      48.721  25.362  32.903  1.00  0.00     0.074 A 
ATOM     65  C   UNL A   1      48.885  25.116  34.324  1.00  0.00     0.031 C 
ATOM     66  C   UNL A   1      49.689  25.153  31.976  1.00  0.00     0.031 A 
BRANCH  53  67
ATOM     67  C   UNL A   1      48.008  26.488  26.158  1.00  0.00    -0.014 A 
ATOM     68  C   UNL A   1      48.536  27.627  25.527  1.00  0.00     0.009 A 
ATOM     69  C   UNL A   1      47.762  25.343  25.385  1.00  0.00     0.009 A 
ATOM     70  C   UNL A   1      48.757  27.637  24.148  1.00  0.00     0.001 A 
ATOM     71  C   UNL A   1      48.017  25.342  24.013  1.00  0.00     0.001 A 
ATOM     72  C   UNL A   1      48.499  26.494  23.392  1.00  0.00     0.000 A 
ENDBRANCH  53  67
BRANCH  54  73
ATOM     73  C   UNL A   1      45.059  26.252  35.751  1.00  0.00    -0.014 A 
ATOM     74  C   UNL A   1      45.032  27.401  36.554  1.00  0.00     0.009 A 
ATOM     75  C   UNL A   1      44.589  25.039  36.285  1.00  0.00     0.009 A 
ATOM     76  C   UNL A   1      44.555  27.334  37.865  1.00  0.00     0.001 A 
ATOM     77  C   UNL A   1      44.085  24.983  37.586  1.00  0.00     0.001 A 
ATOM     78  C   UNL A   1      44.074  26.129  38.376  1.00  0.00     0.000 A 
ENDBRANCH  54  73
BRANCH  66  79
ATOM     79  C   UNL A   1      51.021  24.665  32.475  1.00  0.00    -0.014 A 
ATOM     80  C   UNL A   1      52.053  25.557  32.807  1.00  0.00     0.009 A 
ATOM     81  C   UNL A   1      51.227  23.288  32.658  1.00  0.00     0.009 A 
ATOM     82  C   UNL A   1      53.278  25.075  33.273  1.00  0.00     0.001 A 
ATOM     83  C   UNL A   1      52.439  22.813  33.158  1.00  0.00     0.001 A 
ATOM     84  C   UNL A   1      53.467  23.705  33.454  1.00  0.00     0.000 A 
ENDBRANCH  66  79
ENDBRANCH  40  41
ENDBRANCH  33  35
ENDBRANCH  32  33
ENDBRANCH  31  32
ENDBRANCH  30  31
ENDBRANCH  29  30
ENDBRANCH  28  29
ENDBRANCH  27  28
ENDBRANCH  26  27
ENDBRANCH  25  26
ENDBRANCH   1  25
TORSDOF 25
ENDMDL
