MODEL 1
REMARK VINA RESULT:     -10.1      0.000      0.000
REMARK SMILES O=C(OCCOCCOCCOCCOC(=O)[C@@H]1CC(=O)N(c2ccc(Cl)cc2C(=O)c2ccccc2)C1)c1ccc(-c2c3nc(c(-c4ccccc4)c4ccc([nH]4)c(-c4ccccc4)c4nc(c(-c5ccccc5)c5ccc2[nH]5)C=C4)C=C3)cc1
REMARK SMILES IDX 10 1 9 2 8 3 7 4 6 5 5 6 4 7 3 8 2 9 1 10 39 11 40 12 86 13
REMARK SMILES IDX 41 14 85 15 42 16 43 17 44 18 79 19 45 20 84 21 78 22 80 23
REMARK SMILES IDX 46 24 83 25 77 26 76 27 47 29 69 30 54 31 68 32 55 33 58 34
REMARK SMILES IDX 67 35 81 36 56 37 57 38 66 40 82 41 59 42 48 43 49 44 53 45
REMARK SMILES IDX 50 46 52 47 51 48 70 49 71 50 75 51 72 52 74 53 73 54 60 55
REMARK SMILES IDX 61 56 65 57 62 58 64 59 63 60 11 61 12 62 13 63 14 64 15 65
REMARK SMILES IDX 16 66 17 67 18 68 19 69 38 70 20 71 22 72 21 73 23 74 24 75
REMARK SMILES IDX 29 76 25 77 28 78 26 79 27 80 30 81 31 82 32 83 33 84 37 85
REMARK SMILES IDX 34 86 36 87 35 88
REMARK H PARENT 80 28 58 39
REMARK Flexibility Score: inf
ROOT
ATOM      1  C   UNL A   1      40.010  23.350  27.031  1.00  0.00     0.188 C 
ENDROOT
BRANCH   1   2
ATOM      2  O   UNL A   1      41.201  23.825  26.429  1.00  0.00    -0.377 OA
BRANCH   2   3
ATOM      3  C   UNL A   1      42.295  22.923  26.300  1.00  0.00     0.188 C 
BRANCH   3   4
ATOM      4  C   UNL A   1      43.078  23.146  25.028  1.00  0.00     0.188 C 
BRANCH   4   5
ATOM      5  O   UNL A   1      43.373  21.849  24.543  1.00  0.00    -0.376 OA
BRANCH   5   6
ATOM      6  C   UNL A   1      44.272  21.057  25.279  1.00  0.00     0.202 C 
BRANCH   6   7
ATOM      7  C   UNL A   1      45.712  21.236  24.815  1.00  0.00     0.261 C 
BRANCH   7   8
ATOM      8  O   UNL A   1      46.398  22.097  25.751  1.00  0.00    -0.460 OA
BRANCH   8   9
ATOM      9  C   UNL A   1      46.505  23.421  25.422  1.00  0.00     0.338 C 
ATOM     10  O   UNL A   1      46.747  23.908  24.348  1.00  0.00    -0.246 OA
BRANCH   9  11
ATOM     11  C   UNL A   1      46.596  24.112  26.731  1.00  0.00     0.060 A 
ATOM     12  C   UNL A   1      45.449  24.086  27.511  1.00  0.00     0.016 A 
ATOM     13  C   UNL A   1      47.575  25.064  26.970  1.00  0.00     0.016 A 
ATOM     14  C   UNL A   1      45.080  25.226  28.183  1.00  0.00     0.010 A 
ATOM     15  C   UNL A   1      47.323  26.052  27.921  1.00  0.00     0.010 A 
ATOM     16  C   UNL A   1      46.029  26.196  28.460  1.00  0.00    -0.014 A 
BRANCH  16  17
ATOM     17  C   UNL A   1      45.639  27.386  29.244  1.00  0.00     0.031 A 
ATOM     18  C   UNL A   1      45.297  27.187  30.687  1.00  0.00     0.074 A 
ATOM     19  C   UNL A   1      45.615  28.609  28.675  1.00  0.00     0.049 A 
ATOM     20  N   UNL A   1      44.526  27.900  31.456  1.00  0.00    -0.248 NA
ATOM     21  C   UNL A   1      45.862  25.990  31.341  1.00  0.00     0.031 C 
ATOM     22  C   UNL A   1      46.101  28.955  27.331  1.00  0.00     0.029 A 
ATOM     23  N   UNL A   1      45.150  29.805  29.157  1.00  0.00    -0.354 N 
ATOM     24  C   UNL A   1      44.416  27.181  32.639  1.00  0.00     0.074 A 
ATOM     25  C   UNL A   1      45.225  25.992  32.502  1.00  0.00     0.031 C 
ATOM     26  C   UNL A   1      45.945  30.266  27.115  1.00  0.00     0.029 A 
ATOM     27  C   UNL A   1      45.181  30.810  28.218  1.00  0.00     0.049 A 
ATOM     28  H   UNL A   1      44.829  29.931  30.080  1.00  0.00     0.167 HD
ATOM     29  C   UNL A   1      43.656  27.491  33.713  1.00  0.00     0.031 A 
ATOM     30  C   UNL A   1      44.549  31.996  28.198  1.00  0.00     0.031 A 
ATOM     31  C   UNL A   1      42.896  28.711  33.775  1.00  0.00     0.049 A 
ATOM     32  C   UNL A   1      43.637  32.282  29.355  1.00  0.00     0.074 A 
ATOM     33  C   UNL A   1      42.039  29.161  34.759  1.00  0.00     0.029 A 
ATOM     34  N   UNL A   1      42.931  29.691  32.787  1.00  0.00    -0.354 N 
ATOM     35  N   UNL A   1      43.405  31.551  30.421  1.00  0.00    -0.248 NA
ATOM     36  C   UNL A   1      42.880  33.533  29.296  1.00  0.00     0.031 C 
ATOM     37  C   UNL A   1      41.518  30.390  34.339  1.00  0.00     0.029 A 
ATOM     38  C   UNL A   1      42.105  30.740  33.130  1.00  0.00     0.049 A 
ATOM     39  H   UNL A   1      43.468  29.642  31.964  1.00  0.00     0.167 HD
ATOM     40  C   UNL A   1      42.494  32.266  31.180  1.00  0.00     0.074 A 
ATOM     41  C   UNL A   1      42.235  33.498  30.453  1.00  0.00     0.031 C 
ATOM     42  C   UNL A   1      41.914  31.946  32.362  1.00  0.00     0.031 A 
BRANCH  29  43
ATOM     43  C   UNL A   1      43.538  26.463  34.805  1.00  0.00    -0.014 A 
ATOM     44  C   UNL A   1      42.537  25.479  34.803  1.00  0.00     0.009 A 
ATOM     45  C   UNL A   1      44.428  26.515  35.890  1.00  0.00     0.009 A 
ATOM     46  C   UNL A   1      42.402  24.602  35.884  1.00  0.00     0.001 A 
ATOM     47  C   UNL A   1      44.310  25.619  36.955  1.00  0.00     0.001 A 
ATOM     48  C   UNL A   1      43.289  24.671  36.958  1.00  0.00     0.000 A 
ENDBRANCH  29  43
BRANCH  30  49
ATOM     49  C   UNL A   1      44.652  32.907  27.022  1.00  0.00    -0.014 A 
ATOM     50  C   UNL A   1      43.779  32.765  25.934  1.00  0.00     0.009 A 
ATOM     51  C   UNL A   1      45.627  33.919  26.970  1.00  0.00     0.009 A 
ATOM     52  C   UNL A   1      43.905  33.586  24.809  1.00  0.00     0.001 A 
ATOM     53  C   UNL A   1      45.724  34.767  25.862  1.00  0.00     0.001 A 
ATOM     54  C   UNL A   1      44.873  34.588  24.775  1.00  0.00     0.000 A 
ENDBRANCH  30  49
BRANCH  42  55
ATOM     55  C   UNL A   1      41.018  32.987  32.959  1.00  0.00    -0.014 A 
ATOM     56  C   UNL A   1      41.511  33.964  33.834  1.00  0.00     0.009 A 
ATOM     57  C   UNL A   1      39.664  33.006  32.591  1.00  0.00     0.009 A 
ATOM     58  C   UNL A   1      40.651  34.929  34.357  1.00  0.00     0.001 A 
ATOM     59  C   UNL A   1      38.817  33.993  33.084  1.00  0.00     0.001 A 
ATOM     60  C   UNL A   1      39.309  34.948  33.973  1.00  0.00     0.000 A 
ENDBRANCH  42  55
ENDBRANCH  16  17
ENDBRANCH   9  11
ENDBRANCH   8   9
ENDBRANCH   7   8
ENDBRANCH   6   7
ENDBRANCH   5   6
ENDBRANCH   4   5
ENDBRANCH   3   4
ENDBRANCH   2   3
ENDBRANCH   1   2
BRANCH   1  61
ATOM     61  C   UNL A   1      38.702  23.964  26.501  1.00  0.00     0.188 C 
BRANCH  61  62
ATOM     62  O   UNL A   1      37.658  23.077  26.126  1.00  0.00    -0.376 OA
BRANCH  62  63
ATOM     63  C   UNL A   1      38.006  21.755  25.754  1.00  0.00     0.202 C 
BRANCH  63  64
ATOM     64  C   UNL A   1      37.147  21.058  24.631  1.00  0.00     0.261 C 
BRANCH  64  65
ATOM     65  O   UNL A   1      35.830  21.942  23.985  1.00  0.00    -0.463 OA
BRANCH  65  66
ATOM     66  C   UNL A   1      34.433  23.193  24.002  1.00  0.00     0.311 C 
ATOM     67  O   UNL A   1      33.423  23.216  23.239  1.00  0.00    -0.252 OA
BRANCH  66  68
ATOM     68  C   UNL A   1      34.256  24.433  25.080  1.00  0.00     0.128 C 
ATOM     69  C   UNL A   1      33.279  23.990  26.186  1.00  0.00     0.117 C 
ATOM     70  C   UNL A   1      34.069  25.951  25.071  1.00  0.00     0.141 C 
ATOM     71  C   UNL A   1      32.197  25.028  26.133  1.00  0.00     0.227 C 
ATOM     72  N   UNL A   1      32.719  26.162  25.505  1.00  0.00    -0.311 N 
ATOM     73  O   UNL A   1      31.057  24.876  26.541  1.00  0.00    -0.274 OA
BRANCH  72  74
ATOM     74  C   UNL A   1      31.873  27.007  24.776  1.00  0.00     0.055 A 
ATOM     75  C   UNL A   1      31.658  26.719  23.420  1.00  0.00     0.028 A 
ATOM     76  C   UNL A   1      31.424  28.206  25.333  1.00  0.00     0.048 A 
ATOM     77  C   UNL A   1      31.020  27.646  22.594  1.00  0.00     0.023 A 
ATOM     78  C   UNL A   1      30.860  29.159  24.469  1.00  0.00     0.035 A 
ATOM     79  C   UNL A   1      30.637  28.874  23.121  1.00  0.00     0.041 A 
ATOM     80  Cl  UNL A   1      29.915  30.057  22.098  1.00  0.00    -0.084 Cl
BRANCH  76  81
ATOM     81  C   UNL A   1      31.730  28.611  26.728  1.00  0.00     0.195 C 
ATOM     82  O   UNL A   1      31.052  28.076  27.611  1.00  0.00    -0.289 OA
BRANCH  81  83
ATOM     83  C   UNL A   1      32.705  29.660  27.189  1.00  0.00     0.023 A 
ATOM     84  C   UNL A   1      32.506  31.487  27.249  1.00  0.00     0.012 A 
ATOM     85  C   UNL A   1      34.339  28.950  27.499  1.00  0.00     0.012 A 
ATOM     86  C   UNL A   1      33.945  32.562  27.627  1.00  0.00     0.001 A 
ATOM     87  C   UNL A   1      35.773  30.001  27.792  1.00  0.00     0.001 A 
ATOM     88  C   UNL A   1      35.591  31.819  27.854  1.00  0.00     0.000 A 
ENDBRANCH  81  83
ENDBRANCH  76  81
ENDBRANCH  72  74
ENDBRANCH  66  68
ENDBRANCH  65  66
ENDBRANCH  64  65
ENDBRANCH  63  64
ENDBRANCH  62  63
ENDBRANCH  61  62
ENDBRANCH   1  61
TORSDOF 23
ENDMDL
MODEL 2
REMARK VINA RESULT:      -9.2      3.430      5.658
REMARK SMILES O=C(OCCOCCOCCOCCOC(=O)[C@@H]1CC(=O)N(c2ccc(Cl)cc2C(=O)c2ccccc2)C1)c1ccc(-c2c3nc(c(-c4ccccc4)c4ccc([nH]4)c(-c4ccccc4)c4nc(c(-c5ccccc5)c5ccc2[nH]5)C=C4)C=C3)cc1
REMARK SMILES IDX 10 1 9 2 8 3 7 4 6 5 5 6 4 7 3 8 2 9 1 10 39 11 40 12 86 13
REMARK SMILES IDX 41 14 85 15 42 16 43 17 44 18 79 19 45 20 84 21 78 22 80 23
REMARK SMILES IDX 46 24 83 25 77 26 76 27 47 29 69 30 54 31 68 32 55 33 58 34
REMARK SMILES IDX 67 35 81 36 56 37 57 38 66 40 82 41 59 42 48 43 49 44 53 45
REMARK SMILES IDX 50 46 52 47 51 48 70 49 71 50 75 51 72 52 74 53 73 54 60 55
REMARK SMILES IDX 61 56 65 57 62 58 64 59 63 60 11 61 12 62 13 63 14 64 15 65
REMARK SMILES IDX 16 66 17 67 18 68 19 69 38 70 20 71 22 72 21 73 23 74 24 75
REMARK SMILES IDX 29 76 25 77 28 78 26 79 27 80 30 81 31 82 32 83 33 84 37 85
REMARK SMILES IDX 34 86 36 87 35 88
REMARK H PARENT 80 28 58 39
REMARK Flexibility Score: inf
ROOT
ATOM      1  C   UNL A   1      40.247  23.280  27.103  1.00  0.00     0.188 C 
ENDROOT
BRANCH   1   2
ATOM      2  O   UNL A   1      41.331  24.058  26.626  1.00  0.00    -0.377 OA
BRANCH   2   3
ATOM      3  C   UNL A   1      41.947  24.975  27.524  1.00  0.00     0.188 C 
BRANCH   3   4
ATOM      4  C   UNL A   1      43.255  25.510  26.993  1.00  0.00     0.188 C 
BRANCH   4   5
ATOM      5  O   UNL A   1      44.107  24.383  26.902  1.00  0.00    -0.376 OA
BRANCH   5   6
ATOM      6  C   UNL A   1      44.724  23.924  28.078  1.00  0.00     0.202 C 
BRANCH   6   7
ATOM      7  C   UNL A   1      45.568  25.002  28.746  1.00  0.00     0.261 C 
BRANCH   7   8
ATOM      8  O   UNL A   1      45.400  24.904  30.178  1.00  0.00    -0.460 OA
BRANCH   8   9
ATOM      9  C   UNL A   1      45.920  25.914  30.941  1.00  0.00     0.338 C 
ATOM     10  O   UNL A   1      47.023  26.001  31.415  1.00  0.00    -0.246 OA
BRANCH   9  11
ATOM     11  C   UNL A   1      44.735  26.710  31.343  1.00  0.00     0.060 A 
ATOM     12  C   UNL A   1      44.674  28.001  30.839  1.00  0.00     0.016 A 
ATOM     13  C   UNL A   1      43.985  26.364  32.456  1.00  0.00     0.016 A 
ATOM     14  C   UNL A   1      44.256  29.014  31.668  1.00  0.00     0.010 A 
ATOM     15  C   UNL A   1      43.275  27.365  33.116  1.00  0.00     0.010 A 
ATOM     16  C   UNL A   1      43.490  28.717  32.783  1.00  0.00    -0.014 A 
BRANCH  16  17
ATOM     17  C   UNL A   1      42.986  29.819  33.629  1.00  0.00     0.031 A 
ATOM     18  C   UNL A   1      43.776  30.176  34.849  1.00  0.00     0.074 A 
ATOM     19  C   UNL A   1      41.864  30.487  33.294  1.00  0.00     0.049 A 
ATOM     20  N   UNL A   1      43.375  30.735  35.954  1.00  0.00    -0.248 NA
ATOM     21  C   UNL A   1      45.205  29.808  34.842  1.00  0.00     0.031 C 
ATOM     22  C   UNL A   1      41.111  30.352  32.037  1.00  0.00     0.029 A 
ATOM     23  N   UNL A   1      41.144  31.422  33.991  1.00  0.00    -0.354 N 
ATOM     24  C   UNL A   1      44.464  30.676  36.814  1.00  0.00     0.074 A 
ATOM     25  C   UNL A   1      45.554  30.059  36.095  1.00  0.00     0.031 C 
ATOM     26  C   UNL A   1      40.070  31.192  32.039  1.00  0.00     0.029 A 
ATOM     27  C   UNL A   1      39.974  31.777  33.360  1.00  0.00     0.049 A 
ATOM     28  H   UNL A   1      41.435  31.800  34.853  1.00  0.00     0.167 HD
ATOM     29  C   UNL A   1      44.502  31.070  38.107  1.00  0.00     0.031 A 
ATOM     30  C   UNL A   1      38.884  32.399  33.843  1.00  0.00     0.031 A 
ATOM     31  C   UNL A   1      43.373  31.699  38.740  1.00  0.00     0.049 A 
ATOM     32  C   UNL A   1      38.908  32.745  35.302  1.00  0.00     0.074 A 
ATOM     33  C   UNL A   1      43.222  32.116  40.047  1.00  0.00     0.029 A 
ATOM     34  N   UNL A   1      42.193  32.015  38.072  1.00  0.00    -0.354 N 
ATOM     35  N   UNL A   1      39.875  32.569  36.174  1.00  0.00    -0.248 NA
ATOM     36  C   UNL A   1      37.692  33.343  35.853  1.00  0.00     0.031 C 
ATOM     37  C   UNL A   1      41.929  32.636  40.179  1.00  0.00     0.029 A 
ATOM     38  C   UNL A   1      41.303  32.612  38.939  1.00  0.00     0.049 A 
ATOM     39  H   UNL A   1      42.020  31.837  37.120  1.00  0.00     0.167 HD
ATOM     40  C   UNL A   1      39.396  33.062  37.376  1.00  0.00     0.074 A 
ATOM     41  C   UNL A   1      38.057  33.561  37.108  1.00  0.00     0.031 C 
ATOM     42  C   UNL A   1      39.991  33.101  38.593  1.00  0.00     0.031 A 
BRANCH  29  43
ATOM     43  C   UNL A   1      45.730  30.729  38.904  1.00  0.00    -0.014 A 
ATOM     44  C   UNL A   1      46.816  31.611  39.023  1.00  0.00     0.009 A 
ATOM     45  C   UNL A   1      45.821  29.467  39.513  1.00  0.00     0.009 A 
ATOM     46  C   UNL A   1      47.980  31.218  39.692  1.00  0.00     0.001 A 
ATOM     47  C   UNL A   1      46.971  29.087  40.207  1.00  0.00     0.001 A 
ATOM     48  C   UNL A   1      48.056  29.958  40.285  1.00  0.00     0.000 A 
ENDBRANCH  29  43
BRANCH  30  49
ATOM     49  C   UNL A   1      37.673  32.605  32.997  1.00  0.00    -0.014 A 
ATOM     50  C   UNL A   1      36.689  31.610  32.908  1.00  0.00     0.009 A 
ATOM     51  C   UNL A   1      37.493  33.792  32.264  1.00  0.00     0.009 A 
ATOM     52  C   UNL A   1      35.577  31.780  32.078  1.00  0.00     0.001 A 
ATOM     53  C   UNL A   1      36.359  33.977  31.467  1.00  0.00     0.001 A 
ATOM     54  C   UNL A   1      35.410  32.964  31.361  1.00  0.00     0.000 A 
ENDBRANCH  30  49
BRANCH  42  55
ATOM     55  C   UNL A   1      39.218  33.777  39.683  1.00  0.00    -0.014 A 
ATOM     56  C   UNL A   1      39.314  35.158  39.901  1.00  0.00     0.009 A 
ATOM     57  C   UNL A   1      38.342  33.011  40.467  1.00  0.00     0.009 A 
ATOM     58  C   UNL A   1      38.566  35.756  40.915  1.00  0.00     0.001 A 
ATOM     59  C   UNL A   1      37.568  33.618  41.450  1.00  0.00     0.001 A 
ATOM     60  C   UNL A   1      37.687  34.988  41.679  1.00  0.00     0.000 A 
ENDBRANCH  42  55
ENDBRANCH  16  17
ENDBRANCH   9  11
ENDBRANCH   8   9
ENDBRANCH   7   8
ENDBRANCH   6   7
ENDBRANCH   5   6
ENDBRANCH   4   5
ENDBRANCH   3   4
ENDBRANCH   2   3
ENDBRANCH   1   2
BRANCH   1  61
ATOM     61  C   UNL A   1      38.870  23.616  26.505  1.00  0.00     0.188 C 
BRANCH  61  62
ATOM     62  O   UNL A   1      37.949  22.550  26.323  1.00  0.00    -0.376 OA
BRANCH  62  63
ATOM     63  C   UNL A   1      38.300  21.511  25.425  1.00  0.00     0.202 C 
BRANCH  63  64
ATOM     64  C   UNL A   1      37.133  20.769  24.669  1.00  0.00     0.261 C 
BRANCH  64  65
ATOM     65  O   UNL A   1      35.744  21.689  24.270  1.00  0.00    -0.463 OA
BRANCH  65  66
ATOM     66  C   UNL A   1      34.156  22.627  24.605  1.00  0.00     0.311 C 
ATOM     67  O   UNL A   1      33.001  22.350  24.165  1.00  0.00    -0.252 OA
BRANCH  66  68
ATOM     68  C   UNL A   1      33.996  23.935  25.603  1.00  0.00     0.128 C 
ATOM     69  C   UNL A   1      32.901  23.629  26.644  1.00  0.00     0.117 C 
ATOM     70  C   UNL A   1      33.934  25.459  25.505  1.00  0.00     0.141 C 
ATOM     71  C   UNL A   1      31.914  24.743  26.450  1.00  0.00     0.227 C 
ATOM     72  N   UNL A   1      32.575  25.797  25.815  1.00  0.00    -0.311 N 
ATOM     73  O   UNL A   1      30.737  24.702  26.770  1.00  0.00    -0.274 OA
BRANCH  72  74
ATOM     74  C   UNL A   1      31.862  26.664  24.978  1.00  0.00     0.055 A 
ATOM     75  C   UNL A   1      31.697  26.299  23.633  1.00  0.00     0.028 A 
ATOM     76  C   UNL A   1      31.503  27.938  25.423  1.00  0.00     0.048 A 
ATOM     77  C   UNL A   1      31.203  27.221  22.707  1.00  0.00     0.023 A 
ATOM     78  C   UNL A   1      31.087  28.875  24.463  1.00  0.00     0.035 A 
ATOM     79  C   UNL A   1      30.915  28.514  23.125  1.00  0.00     0.041 A 
ATOM     80  Cl  UNL A   1      30.375  29.683  21.981  1.00  0.00    -0.084 Cl
BRANCH  76  81
ATOM     81  C   UNL A   1      31.767  28.413  26.805  1.00  0.00     0.195 C 
ATOM     82  O   UNL A   1      31.058  27.925  27.691  1.00  0.00    -0.289 OA
BRANCH  81  83
ATOM     83  C   UNL A   1      32.733  29.480  27.242  1.00  0.00     0.023 A 
ATOM     84  C   UNL A   1      32.479  31.297  27.369  1.00  0.00     0.012 A 
ATOM     85  C   UNL A   1      34.403  28.816  27.440  1.00  0.00     0.012 A 
ATOM     86  C   UNL A   1      33.903  32.408  27.698  1.00  0.00     0.001 A 
ATOM     87  C   UNL A   1      35.818  29.906  27.685  1.00  0.00     0.001 A 
ATOM     88  C   UNL A   1      35.582  31.714  27.812  1.00  0.00     0.000 A 
ENDBRANCH  81  83
ENDBRANCH  76  81
ENDBRANCH  72  74
ENDBRANCH  66  68
ENDBRANCH  65  66
ENDBRANCH  64  65
ENDBRANCH  63  64
ENDBRANCH  62  63
ENDBRANCH  61  62
ENDBRANCH   1  61
TORSDOF 23
ENDMDL
MODEL 3
REMARK VINA RESULT:      -9.2      5.662     11.069
REMARK SMILES O=C(OCCOCCOCCOCCOC(=O)[C@@H]1CC(=O)N(c2ccc(Cl)cc2C(=O)c2ccccc2)C1)c1ccc(-c2c3nc(c(-c4ccccc4)c4ccc([nH]4)c(-c4ccccc4)c4nc(c(-c5ccccc5)c5ccc2[nH]5)C=C4)C=C3)cc1
REMARK SMILES IDX 10 1 9 2 8 3 7 4 6 5 5 6 4 7 3 8 2 9 1 10 39 11 40 12 86 13
REMARK SMILES IDX 41 14 85 15 42 16 43 17 44 18 79 19 45 20 84 21 78 22 80 23
REMARK SMILES IDX 46 24 83 25 77 26 76 27 47 29 69 30 54 31 68 32 55 33 58 34
REMARK SMILES IDX 67 35 81 36 56 37 57 38 66 40 82 41 59 42 48 43 49 44 53 45
REMARK SMILES IDX 50 46 52 47 51 48 70 49 71 50 75 51 72 52 74 53 73 54 60 55
REMARK SMILES IDX 61 56 65 57 62 58 64 59 63 60 11 61 12 62 13 63 14 64 15 65
REMARK SMILES IDX 16 66 17 67 18 68 19 69 38 70 20 71 22 72 21 73 23 74 24 75
REMARK SMILES IDX 29 76 25 77 28 78 26 79 27 80 30 81 31 82 32 83 33 84 37 85
REMARK SMILES IDX 34 86 36 87 35 88
REMARK H PARENT 80 28 58 39
REMARK Flexibility Score: inf
ROOT
ATOM      1  C   UNL A   1      36.958  32.801  28.832  1.00  0.00     0.188 C 
ENDROOT
BRANCH   1   2
ATOM      2  O   UNL A   1      38.019  33.686  29.144  1.00  0.00    -0.377 OA
BRANCH   2   3
ATOM      3  C   UNL A   1      38.575  33.634  30.454  1.00  0.00     0.188 C 
BRANCH   3   4
ATOM      4  C   UNL A   1      40.077  33.786  30.449  1.00  0.00     0.188 C 
BRANCH   4   5
ATOM      5  O   UNL A   1      40.546  32.864  31.416  1.00  0.00    -0.376 OA
BRANCH   5   6
ATOM      6  C   UNL A   1      41.744  32.179  31.150  1.00  0.00     0.202 C 
BRANCH   6   7
ATOM      7  C   UNL A   1      41.522  30.686  30.947  1.00  0.00     0.261 C 
BRANCH   7   8
ATOM      8  O   UNL A   1      40.124  30.390  31.162  1.00  0.00    -0.460 OA
BRANCH   8   9
ATOM      9  C   UNL A   1      39.824  29.247  31.854  1.00  0.00     0.338 C 
ATOM     10  O   UNL A   1      39.592  28.149  31.418  1.00  0.00    -0.246 OA
BRANCH   9  11
ATOM     11  C   UNL A   1      39.512  29.724  33.222  1.00  0.00     0.060 A 
ATOM     12  C   UNL A   1      38.413  30.561  33.335  1.00  0.00     0.016 A 
ATOM     13  C   UNL A   1      40.470  29.697  34.224  1.00  0.00     0.016 A 
ATOM     14  C   UNL A   1      38.495  31.651  34.168  1.00  0.00     0.010 A 
ATOM     15  C   UNL A   1      40.360  30.610  35.272  1.00  0.00     0.010 A 
ATOM     16  C   UNL A   1      39.425  31.661  35.195  1.00  0.00    -0.014 A 
BRANCH  16  17
ATOM     17  C   UNL A   1      39.460  32.806  36.128  1.00  0.00     0.031 A 
ATOM     18  C   UNL A   1      40.342  33.963  35.779  1.00  0.00     0.074 A 
ATOM     19  C   UNL A   1      38.702  32.807  37.245  1.00  0.00     0.049 A 
ATOM     20  N   UNL A   1      40.902  34.837  36.564  1.00  0.00    -0.248 NA
ATOM     21  C   UNL A   1      40.680  34.128  34.351  1.00  0.00     0.031 C 
ATOM     22  C   UNL A   1      37.670  31.821  37.599  1.00  0.00     0.029 A 
ATOM     23  N   UNL A   1      38.686  33.673  38.307  1.00  0.00    -0.354 N 
ATOM     24  C   UNL A   1      41.749  35.576  35.749  1.00  0.00     0.074 A 
ATOM     25  C   UNL A   1      41.606  35.074  34.402  1.00  0.00     0.031 C 
ATOM     26  C   UNL A   1      37.102  32.157  38.763  1.00  0.00     0.029 A 
ATOM     27  C   UNL A   1      37.855  33.260  39.323  1.00  0.00     0.049 A 
ATOM     28  H   UNL A   1      39.214  34.504  38.339  1.00  0.00     0.167 HD
ATOM     29  C   UNL A   1      42.599  36.556  36.133  1.00  0.00     0.031 A 
ATOM     30  C   UNL A   1      37.802  33.646  40.609  1.00  0.00     0.031 A 
ATOM     31  C   UNL A   1      42.662  37.011  37.496  1.00  0.00     0.049 A 
ATOM     32  C   UNL A   1      38.814  34.667  41.039  1.00  0.00     0.074 A 
ATOM     33  C   UNL A   1      43.492  37.954  38.068  1.00  0.00     0.029 A 
ATOM     34  N   UNL A   1      41.821  36.544  38.503  1.00  0.00    -0.354 N 
ATOM     35  N   UNL A   1      39.724  35.279  40.315  1.00  0.00    -0.248 NA
ATOM     36  C   UNL A   1      38.817  35.028  42.457  1.00  0.00     0.031 C 
ATOM     37  C   UNL A   1      43.186  38.018  39.433  1.00  0.00     0.029 A 
ATOM     38  C   UNL A   1      42.117  37.170  39.696  1.00  0.00     0.049 A 
ATOM     39  H   UNL A   1      41.118  35.866  38.382  1.00  0.00     0.167 HD
ATOM     40  C   UNL A   1      40.393  36.124  41.185  1.00  0.00     0.074 A 
ATOM     41  C   UNL A   1      39.766  35.953  42.485  1.00  0.00     0.031 C 
ATOM     42  C   UNL A   1      41.432  36.962  40.948  1.00  0.00     0.031 A 
BRANCH  29  43
ATOM     43  C   UNL A   1      43.565  37.083  35.108  1.00  0.00    -0.014 A 
ATOM     44  C   UNL A   1      44.877  36.597  34.994  1.00  0.00     0.009 A 
ATOM     45  C   UNL A   1      43.161  38.130  34.265  1.00  0.00     0.009 A 
ATOM     46  C   UNL A   1      45.774  37.180  34.094  1.00  0.00     0.001 A 
ATOM     47  C   UNL A   1      44.049  38.691  33.344  1.00  0.00     0.001 A 
ATOM     48  C   UNL A   1      45.359  38.224  33.268  1.00  0.00     0.000 A 
ENDBRANCH  29  43
BRANCH  30  49
ATOM     49  C   UNL A   1      36.873  32.992  41.575  1.00  0.00    -0.014 A 
ATOM     50  C   UNL A   1      35.549  33.435  41.701  1.00  0.00     0.009 A 
ATOM     51  C   UNL A   1      37.302  31.927  42.387  1.00  0.00     0.009 A 
ATOM     52  C   UNL A   1      34.690  32.856  42.641  1.00  0.00     0.001 A 
ATOM     53  C   UNL A   1      36.430  31.321  43.297  1.00  0.00     0.001 A 
ATOM     54  C   UNL A   1      35.130  31.797  43.435  1.00  0.00     0.000 A 
ENDBRANCH  30  49
BRANCH  42  55
ATOM     55  C   UNL A   1      41.879  37.800  42.105  1.00  0.00    -0.014 A 
ATOM     56  C   UNL A   1      42.900  37.376  42.966  1.00  0.00     0.009 A 
ATOM     57  C   UNL A   1      41.291  39.060  42.295  1.00  0.00     0.009 A 
ATOM     58  C   UNL A   1      43.303  38.191  44.024  1.00  0.00     0.001 A 
ATOM     59  C   UNL A   1      41.723  39.887  43.327  1.00  0.00     0.001 A 
ATOM     60  C   UNL A   1      42.722  39.448  44.195  1.00  0.00     0.000 A 
ENDBRANCH  42  55
ENDBRANCH  16  17
ENDBRANCH   9  11
ENDBRANCH   8   9
ENDBRANCH   7   8
ENDBRANCH   6   7
ENDBRANCH   5   6
ENDBRANCH   4   5
ENDBRANCH   3   4
ENDBRANCH   2   3
ENDBRANCH   1   2
BRANCH   1  61
ATOM     61  C   UNL A   1      35.638  33.465  28.403  1.00  0.00     0.188 C 
BRANCH  61  62
ATOM     62  O   UNL A   1      34.638  32.639  27.824  1.00  0.00    -0.376 OA
BRANCH  62  63
ATOM     63  C   UNL A   1      34.946  31.274  27.600  1.00  0.00     0.202 C 
BRANCH  63  64
ATOM     64  C   UNL A   1      33.744  30.268  27.434  1.00  0.00     0.261 C 
BRANCH  64  65
ATOM     65  O   UNL A   1      33.256  29.881  25.839  1.00  0.00    -0.463 OA
BRANCH  65  66
ATOM     66  C   UNL A   1      33.340  28.995  24.188  1.00  0.00     0.311 C 
ATOM     67  O   UNL A   1      33.135  29.497  23.044  1.00  0.00    -0.252 OA
BRANCH  66  68
ATOM     68  C   UNL A   1      33.777  27.418  23.957  1.00  0.00     0.128 C 
ATOM     69  C   UNL A   1      33.393  27.006  22.522  1.00  0.00     0.117 C 
ATOM     70  C   UNL A   1      33.720  26.085  24.704  1.00  0.00     0.141 C 
ATOM     71  C   UNL A   1      32.491  25.824  22.728  1.00  0.00     0.227 C 
ATOM     72  N   UNL A   1      32.746  25.304  23.999  1.00  0.00    -0.311 N 
ATOM     73  O   UNL A   1      31.663  25.426  21.924  1.00  0.00    -0.274 OA
BRANCH  72  74
ATOM     74  C   UNL A   1      31.724  24.657  24.705  1.00  0.00     0.055 A 
ATOM     75  C   UNL A   1      30.992  25.402  25.642  1.00  0.00     0.028 A 
ATOM     76  C   UNL A   1      31.578  23.271  24.621  1.00  0.00     0.048 A 
ATOM     77  C   UNL A   1      30.128  24.762  26.533  1.00  0.00     0.023 A 
ATOM     78  C   UNL A   1      30.769  22.638  25.579  1.00  0.00     0.035 A 
ATOM     79  C   UNL A   1      30.033  23.376  26.508  1.00  0.00     0.041 A 
ATOM     80  Cl  UNL A   1      29.028  22.566  27.649  1.00  0.00    -0.084 Cl
BRANCH  76  81
ATOM     81  C   UNL A   1      32.414  22.425  23.732  1.00  0.00     0.195 C 
ATOM     82  O   UNL A   1      31.848  21.953  22.741  1.00  0.00    -0.289 OA
BRANCH  81  83
ATOM     83  C   UNL A   1      33.843  22.002  23.942  1.00  0.00     0.023 A 
ATOM     84  C   UNL A   1      34.528  20.759  25.111  1.00  0.00     0.012 A 
ATOM     85  C   UNL A   1      34.985  23.068  23.032  1.00  0.00     0.012 A 
ATOM     86  C   UNL A   1      36.343  20.607  25.338  1.00  0.00     0.001 A 
ATOM     87  C   UNL A   1      36.764  22.980  23.308  1.00  0.00     0.001 A 
ATOM     88  C   UNL A   1      37.460  21.751  24.468  1.00  0.00     0.000 A 
ENDBRANCH  81  83
ENDBRANCH  76  81
ENDBRANCH  72  74
ENDBRANCH  66  68
ENDBRANCH  65  66
ENDBRANCH  64  65
ENDBRANCH  63  64
ENDBRANCH  62  63
ENDBRANCH  61  62
ENDBRANCH   1  61
TORSDOF 23
ENDMDL
