MODEL 1
REMARK VINA RESULT:      -8.6      0.000      0.000
REMARK SMILES Cc1ccc(-c2cc(Cl)cc3c2O[C@H](C(F)(F)F)C(C(=O)OCCOCCOCCOCCOC(=O)c2ccc(-c4c5nc(c(-c6ccccc6)c6ccc([nH]6)c(-c6ccccc6)c6nc(c(-c7ccccc7)c7ccc4[nH]7)C=C6)C=C5)cc2)=C3)cc1F
REMARK SMILES IDX 29 1 28 2 27 3 26 4 25 5 24 6 23 7 22 8 20 9 21 10 19 11
REMARK SMILES IDX 6 12 7 13 12 14 8 15 11 16 13 17 9 18 10 19 85 20 14 21 5 22
REMARK SMILES IDX 1 23 2 24 3 25 87 26 4 27 86 28 88 29 15 30 16 31 17 32
REMARK SMILES IDX 18 33 30 34 31 35 32 36 33 37 34 38 35 39 36 40 37 41 38 42
REMARK SMILES IDX 84 43 39 44 83 45 40 46 41 47 42 48 77 49 43 50 82 51 76 52
REMARK SMILES IDX 78 53 44 54 81 55 75 56 74 57 45 59 67 60 52 61 66 62 53 63
REMARK SMILES IDX 56 64 65 65 79 66 54 67 55 68 64 70 80 71 57 72 46 73 47 74
REMARK SMILES IDX 51 75 48 76 50 77 49 78 68 79 69 80 73 81 70 82 72 83 71 84
REMARK SMILES IDX 58 85 59 86 63 87 60 88 62 89 61 90
REMARK H PARENT 78 58 56 69
REMARK Flexibility Score: inf
ROOT
ATOM      1  C   UNL A   1      42.572  20.292  25.861  1.00  0.00     0.188 C 
ENDROOT
BRANCH   1   2
ATOM      2  O   UNL A   1      42.451  21.098  27.034  1.00  0.00    -0.377 OA
BRANCH   2   3
ATOM      3  C   UNL A   1      42.419  22.506  26.855  1.00  0.00     0.188 C 
BRANCH   3   4
ATOM      4  C   UNL A   1      41.024  23.104  27.118  1.00  0.00     0.188 C 
BRANCH   4   5
ATOM      5  O   UNL A   1      41.019  24.530  27.085  1.00  0.00    -0.376 OA
BRANCH   5   6
ATOM      6  C   UNL A   1      40.870  25.217  28.322  1.00  0.00     0.202 C 
BRANCH   6   7
ATOM      7  C   UNL A   1      39.768  26.283  28.422  1.00  0.00     0.261 C 
BRANCH   7   8
ATOM      8  O   UNL A   1      39.914  27.219  29.501  1.00  0.00    -0.460 OA
BRANCH   8   9
ATOM      9  C   UNL A   1      40.293  28.476  29.201  1.00  0.00     0.338 C 
ATOM     10  O   UNL A   1      41.029  28.820  28.294  1.00  0.00    -0.246 OA
BRANCH   9  11
ATOM     11  C   UNL A   1      39.523  29.398  30.066  1.00  0.00     0.087 C 
ATOM     12  C   UNL A   1      37.199  31.895  32.509  1.00  0.00     0.026 A 
ATOM     13  C   UNL A   1      37.278  31.724  33.903  1.00  0.00     0.033 A 
ATOM     14  C   UNL A   1      38.050  31.109  31.695  1.00  0.00     0.135 A 
ATOM     15  C   UNL A   1      38.162  30.800  34.459  1.00  0.00     0.042 A 
ATOM     16  C   UNL A   1      38.888  30.137  32.254  1.00  0.00     0.019 A 
ATOM     17  O   UNL A   1      38.018  31.360  30.349  1.00  0.00    -0.475 OA
ATOM     18  Cl  UNL A   1      38.237  30.614  36.168  1.00  0.00    -0.084 Cl
ATOM     19  C   UNL A   1      38.960  30.002  33.643  1.00  0.00     0.032 A 
ATOM     20  C   UNL A   1      39.631  29.232  31.390  1.00  0.00     0.027 C 
ATOM     21  C   UNL A   1      38.738  30.511  29.424  1.00  0.00     0.316 C 
BRANCH  12  22
ATOM     22  C   UNL A   1      36.196  32.818  31.934  1.00  0.00    -0.012 A 
ATOM     23  C   UNL A   1      33.249  35.468  30.182  1.00  0.00     0.047 C 
ATOM     24  C   UNL A   1      34.261  34.562  30.811  1.00  0.00    -0.015 A 
ATOM     25  C   UNL A   1      34.947  34.920  31.975  1.00  0.00     0.007 A 
ATOM     26  C   UNL A   1      34.544  33.330  30.225  1.00  0.00     0.126 A 
ATOM     27  C   UNL A   1      35.904  34.057  32.528  1.00  0.00     0.009 A 
ATOM     28  C   UNL A   1      35.485  32.466  30.776  1.00  0.00     0.048 A 
ATOM     29  F   UNL A   1      33.902  32.957  29.109  1.00  0.00    -0.207 F 
ENDBRANCH  12  22
BRANCH  21  30
ATOM     30  C   UNL A   1      37.735  30.002  28.380  1.00  0.00     0.430 C 
ATOM     31  F   UNL A   1      37.113  28.876  28.805  1.00  0.00    -0.167 F 
ATOM     32  F   UNL A   1      36.763  30.905  28.118  1.00  0.00    -0.167 F 
ATOM     33  F   UNL A   1      38.343  29.709  27.207  1.00  0.00    -0.167 F 
ENDBRANCH  21  30
ENDBRANCH   9  11
ENDBRANCH   8   9
ENDBRANCH   7   8
ENDBRANCH   6   7
ENDBRANCH   5   6
ENDBRANCH   4   5
ENDBRANCH   3   4
ENDBRANCH   2   3
ENDBRANCH   1   2
BRANCH   1  34
ATOM     34  C   UNL A   1      43.945  19.783  25.364  1.00  0.00     0.188 C 
BRANCH  34  35
ATOM     35  O   UNL A   1      44.472  20.529  24.269  1.00  0.00    -0.376 OA
BRANCH  35  36
ATOM     36  C   UNL A   1      45.320  21.624  24.586  1.00  0.00     0.202 C 
BRANCH  36  37
ATOM     37  C   UNL A   1      44.863  22.956  23.981  1.00  0.00     0.261 C 
BRANCH  37  38
ATOM     38  O   UNL A   1      44.766  24.046  24.912  1.00  0.00    -0.460 OA
BRANCH  38  39
ATOM     39  C   UNL A   1      45.824  24.880  25.018  1.00  0.00     0.338 C 
ATOM     40  O   UNL A   1      46.846  24.866  24.357  1.00  0.00    -0.246 OA
BRANCH  39  41
ATOM     41  C   UNL A   1      45.442  25.957  25.957  1.00  0.00     0.060 A 
ATOM     42  C   UNL A   1      44.102  26.333  26.091  1.00  0.00     0.016 A 
ATOM     43  C   UNL A   1      46.441  26.621  26.680  1.00  0.00     0.016 A 
ATOM     44  C   UNL A   1      43.760  27.353  26.978  1.00  0.00     0.010 A 
ATOM     45  C   UNL A   1      46.096  27.647  27.563  1.00  0.00     0.010 A 
ATOM     46  C   UNL A   1      44.750  28.000  27.737  1.00  0.00    -0.014 A 
BRANCH  46  47
ATOM     47  C   UNL A   1      44.345  28.896  28.847  1.00  0.00     0.031 A 
ATOM     48  C   UNL A   1      44.209  30.377  28.674  1.00  0.00     0.074 A 
ATOM     49  C   UNL A   1      44.074  28.325  30.037  1.00  0.00     0.049 A 
ATOM     50  N   UNL A   1      43.759  31.259  29.531  1.00  0.00    -0.248 NA
ATOM     51  C   UNL A   1      44.623  30.946  27.383  1.00  0.00     0.031 C 
ATOM     52  C   UNL A   1      44.176  26.890  30.317  1.00  0.00     0.029 A 
ATOM     53  N   UNL A   1      43.639  28.866  31.219  1.00  0.00    -0.354 N 
ATOM     54  C   UNL A   1      43.808  32.483  28.880  1.00  0.00     0.074 A 
ATOM     55  C   UNL A   1      44.374  32.239  27.568  1.00  0.00     0.031 C 
ATOM     56  C   UNL A   1      43.776  26.662  31.576  1.00  0.00     0.029 A 
ATOM     57  C   UNL A   1      43.420  27.931  32.202  1.00  0.00     0.049 A 
ATOM     58  H   UNL A   1      43.498  29.831  31.352  1.00  0.00     0.167 HD
ATOM     59  C   UNL A   1      43.398  33.691  29.334  1.00  0.00     0.031 A 
ATOM     60  C   UNL A   1      42.971  28.073  33.463  1.00  0.00     0.031 A 
ATOM     61  C   UNL A   1      42.856  33.929  30.649  1.00  0.00     0.049 A 
ATOM     62  C   UNL A   1      42.592  29.439  33.958  1.00  0.00     0.074 A 
ATOM     63  C   UNL A   1      42.395  35.121  31.182  1.00  0.00     0.029 A 
ATOM     64  N   UNL A   1      42.711  32.967  31.637  1.00  0.00    -0.354 N 
ATOM     65  N   UNL A   1      42.579  30.577  33.306  1.00  0.00    -0.248 NA
ATOM     66  C   UNL A   1      42.153  29.542  35.356  1.00  0.00     0.031 C 
ATOM     67  C   UNL A   1      42.033  34.896  32.511  1.00  0.00     0.029 A 
ATOM     68  C   UNL A   1      42.197  33.548  32.785  1.00  0.00     0.049 A 
ATOM     69  H   UNL A   1      42.939  32.015  31.538  1.00  0.00     0.167 HD
ATOM     70  C   UNL A   1      42.101  31.522  34.203  1.00  0.00     0.074 A 
ATOM     71  C   UNL A   1      41.820  30.824  35.440  1.00  0.00     0.031 C 
ATOM     72  C   UNL A   1      41.912  32.848  34.012  1.00  0.00     0.031 A 
BRANCH  59  73
ATOM     73  C   UNL A   1      43.486  34.876  28.409  1.00  0.00    -0.014 A 
ATOM     74  C   UNL A   1      44.642  35.672  28.393  1.00  0.00     0.009 A 
ATOM     75  C   UNL A   1      42.361  35.297  27.684  1.00  0.00     0.009 A 
ATOM     76  C   UNL A   1      44.662  36.880  27.694  1.00  0.00     0.001 A 
ATOM     77  C   UNL A   1      42.393  36.495  26.965  1.00  0.00     0.001 A 
ATOM     78  C   UNL A   1      43.536  37.292  26.982  1.00  0.00     0.000 A 
ENDBRANCH  59  73
BRANCH  60  79
ATOM     79  C   UNL A   1      42.813  26.874  34.327  1.00  0.00    -0.014 A 
ATOM     80  C   UNL A   1      43.928  26.108  34.704  1.00  0.00     0.009 A 
ATOM     81  C   UNL A   1      41.540  26.474  34.758  1.00  0.00     0.009 A 
ATOM     82  C   UNL A   1      43.769  24.958  35.479  1.00  0.00     0.001 A 
ATOM     83  C   UNL A   1      41.387  25.342  35.563  1.00  0.00     0.001 A 
ATOM     84  C   UNL A   1      42.502  24.580  35.915  1.00  0.00     0.000 A 
ENDBRANCH  60  79
BRANCH  72  85
ATOM     85  C   UNL A   1      41.353  33.653  35.154  1.00  0.00    -0.014 A 
ATOM     86  C   UNL A   1      39.971  33.892  35.226  1.00  0.00     0.009 A 
ATOM     87  C   UNL A   1      42.197  34.260  36.097  1.00  0.00     0.009 A 
ATOM     88  C   UNL A   1      39.446  34.735  36.207  1.00  0.00     0.001 A 
ATOM     89  C   UNL A   1      41.665  35.077  37.096  1.00  0.00     0.001 A 
ATOM     90  C   UNL A   1      40.294  35.324  37.144  1.00  0.00     0.000 A 
ENDBRANCH  72  85
ENDBRANCH  46  47
ENDBRANCH  39  41
ENDBRANCH  38  39
ENDBRANCH  37  38
ENDBRANCH  36  37
ENDBRANCH  35  36
ENDBRANCH  34  35
ENDBRANCH   1  34
TORSDOF 22
ENDMDL
MODEL 2
REMARK VINA RESULT:      -8.0      4.036      8.467
REMARK SMILES Cc1ccc(-c2cc(Cl)cc3c2O[C@H](C(F)(F)F)C(C(=O)OCCOCCOCCOCCOC(=O)c2ccc(-c4c5nc(c(-c6ccccc6)c6ccc([nH]6)c(-c6ccccc6)c6nc(c(-c7ccccc7)c7ccc4[nH]7)C=C6)C=C5)cc2)=C3)cc1F
REMARK SMILES IDX 29 1 28 2 27 3 26 4 25 5 24 6 23 7 22 8 20 9 21 10 19 11
REMARK SMILES IDX 6 12 7 13 12 14 8 15 11 16 13 17 9 18 10 19 85 20 14 21 5 22
REMARK SMILES IDX 1 23 2 24 3 25 87 26 4 27 86 28 88 29 15 30 16 31 17 32
REMARK SMILES IDX 18 33 30 34 31 35 32 36 33 37 34 38 35 39 36 40 37 41 38 42
REMARK SMILES IDX 84 43 39 44 83 45 40 46 41 47 42 48 77 49 43 50 82 51 76 52
REMARK SMILES IDX 78 53 44 54 81 55 75 56 74 57 45 59 67 60 52 61 66 62 53 63
REMARK SMILES IDX 56 64 65 65 79 66 54 67 55 68 64 70 80 71 57 72 46 73 47 74
REMARK SMILES IDX 51 75 48 76 50 77 49 78 68 79 69 80 73 81 70 82 72 83 71 84
REMARK SMILES IDX 58 85 59 86 63 87 60 88 62 89 61 90
REMARK H PARENT 78 58 56 69
REMARK Flexibility Score: inf
ROOT
ATOM      1  C   UNL A   1      50.179  21.893  33.655  1.00  0.00     0.188 C 
ENDROOT
BRANCH   1   2
ATOM      2  O   UNL A   1      51.279  22.261  32.821  1.00  0.00    -0.377 OA
BRANCH   2   3
ATOM      3  C   UNL A   1      51.651  23.631  32.802  1.00  0.00     0.188 C 
BRANCH   3   4
ATOM      4  C   UNL A   1      50.493  24.553  32.374  1.00  0.00     0.188 C 
BRANCH   4   5
ATOM      5  O   UNL A   1      50.214  24.479  30.977  1.00  0.00    -0.376 OA
BRANCH   5   6
ATOM      6  C   UNL A   1      49.770  25.666  30.330  1.00  0.00     0.202 C 
BRANCH   6   7
ATOM      7  C   UNL A   1      49.177  25.534  28.919  1.00  0.00     0.261 C 
BRANCH   7   8
ATOM      8  O   UNL A   1      47.782  25.198  28.866  1.00  0.00    -0.460 OA
BRANCH   8   9
ATOM      9  C   UNL A   1      47.270  24.808  27.683  1.00  0.00     0.338 C 
ATOM     10  O   UNL A   1      47.890  24.395  26.719  1.00  0.00    -0.246 OA
BRANCH   9  11
ATOM     11  C   UNL A   1      45.795  24.809  27.808  1.00  0.00     0.087 C 
ATOM     12  C   UNL A   1      41.603  24.837  27.980  1.00  0.00     0.026 A 
ATOM     13  C   UNL A   1      40.924  23.610  27.880  1.00  0.00     0.033 A 
ATOM     14  C   UNL A   1      43.018  24.813  28.009  1.00  0.00     0.135 A 
ATOM     15  C   UNL A   1      41.629  22.409  27.800  1.00  0.00     0.042 A 
ATOM     16  C   UNL A   1      43.721  23.611  27.863  1.00  0.00     0.019 A 
ATOM     17  O   UNL A   1      43.651  26.012  28.200  1.00  0.00    -0.475 OA
ATOM     18  Cl  UNL A   1      40.770  20.923  27.679  1.00  0.00    -0.084 Cl
ATOM     19  C   UNL A   1      43.022  22.404  27.784  1.00  0.00     0.032 A 
ATOM     20  C   UNL A   1      45.171  23.628  27.732  1.00  0.00     0.027 C 
ATOM     21  C   UNL A   1      45.092  26.109  28.095  1.00  0.00     0.316 C 
BRANCH  12  22
ATOM     22  C   UNL A   1      40.841  26.105  27.978  1.00  0.00    -0.012 A 
ATOM     23  C   UNL A   1      38.658  29.849  27.908  1.00  0.00     0.047 C 
ATOM     24  C   UNL A   1      39.391  28.544  27.941  1.00  0.00    -0.015 A 
ATOM     25  C   UNL A   1      39.120  27.573  28.910  1.00  0.00     0.007 A 
ATOM     26  C   UNL A   1      40.379  28.281  26.995  1.00  0.00     0.126 A 
ATOM     27  C   UNL A   1      39.839  26.368  28.927  1.00  0.00     0.009 A 
ATOM     28  C   UNL A   1      41.087  27.083  27.002  1.00  0.00     0.048 A 
ATOM     29  F   UNL A   1      40.661  29.192  26.053  1.00  0.00    -0.207 F 
ENDBRANCH  12  22
BRANCH  21  30
ATOM     30  C   UNL A   1      45.412  27.197  27.060  1.00  0.00     0.430 C 
ATOM     31  F   UNL A   1      46.637  27.735  27.277  1.00  0.00    -0.167 F 
ATOM     32  F   UNL A   1      45.419  26.717  25.796  1.00  0.00    -0.167 F 
ATOM     33  F   UNL A   1      44.513  28.207  27.105  1.00  0.00    -0.167 F 
ENDBRANCH  21  30
ENDBRANCH   9  11
ENDBRANCH   8   9
ENDBRANCH   7   8
ENDBRANCH   6   7
ENDBRANCH   5   6
ENDBRANCH   4   5
ENDBRANCH   3   4
ENDBRANCH   2   3
ENDBRANCH   1   2
BRANCH   1  34
ATOM     34  C   UNL A   1      50.190  22.161  35.178  1.00  0.00     0.188 C 
BRANCH  34  35
ATOM     35  O   UNL A   1      49.182  21.450  35.894  1.00  0.00    -0.376 OA
BRANCH  35  36
ATOM     36  C   UNL A   1      47.912  22.076  36.007  1.00  0.00     0.202 C 
BRANCH  36  37
ATOM     37  C   UNL A   1      47.005  21.861  34.791  1.00  0.00     0.261 C 
BRANCH  37  38
ATOM     38  O   UNL A   1      46.324  23.036  34.323  1.00  0.00    -0.460 OA
BRANCH  38  39
ATOM     39  C   UNL A   1      45.007  22.931  34.042  1.00  0.00     0.338 C 
ATOM     40  O   UNL A   1      44.249  22.037  34.373  1.00  0.00    -0.246 OA
BRANCH  39  41
ATOM     41  C   UNL A   1      44.586  24.205  33.422  1.00  0.00     0.060 A 
ATOM     42  C   UNL A   1      44.287  25.313  34.221  1.00  0.00     0.016 A 
ATOM     43  C   UNL A   1      44.454  24.278  32.030  1.00  0.00     0.016 A 
ATOM     44  C   UNL A   1      43.889  26.507  33.620  1.00  0.00     0.010 A 
ATOM     45  C   UNL A   1      44.048  25.474  31.430  1.00  0.00     0.010 A 
ATOM     46  C   UNL A   1      43.790  26.603  32.221  1.00  0.00    -0.014 A 
BRANCH  46  47
ATOM     47  C   UNL A   1      43.613  27.936  31.596  1.00  0.00     0.031 A 
ATOM     48  C   UNL A   1      42.320  28.688  31.662  1.00  0.00     0.074 A 
ATOM     49  C   UNL A   1      44.679  28.472  30.971  1.00  0.00     0.049 A 
ATOM     50  N   UNL A   1      42.065  29.905  31.253  1.00  0.00    -0.248 NA
ATOM     51  C   UNL A   1      41.169  27.999  32.263  1.00  0.00     0.031 C 
ATOM     52  C   UNL A   1      45.987  27.825  30.845  1.00  0.00     0.029 A 
ATOM     53  N   UNL A   1      44.845  29.683  30.349  1.00  0.00    -0.354 N 
ATOM     54  C   UNL A   1      40.735  30.143  31.568  1.00  0.00     0.074 A 
ATOM     55  C   UNL A   1      40.221  28.926  32.164  1.00  0.00     0.031 C 
ATOM     56  C   UNL A   1      46.831  28.662  30.222  1.00  0.00     0.029 A 
ATOM     57  C   UNL A   1      46.119  29.887  29.878  1.00  0.00     0.049 A 
ATOM     58  H   UNL A   1      44.120  30.343  30.250  1.00  0.00     0.167 HD
ATOM     59  C   UNL A   1      40.021  31.280  31.391  1.00  0.00     0.031 A 
ATOM     60  C   UNL A   1      46.662  30.947  29.249  1.00  0.00     0.031 A 
ATOM     61  C   UNL A   1      40.535  32.478  30.775  1.00  0.00     0.049 A 
ATOM     62  C   UNL A   1      45.820  32.166  29.005  1.00  0.00     0.074 A 
ATOM     63  C   UNL A   1      39.884  33.685  30.577  1.00  0.00     0.029 A 
ATOM     64  N   UNL A   1      41.810  32.623  30.253  1.00  0.00    -0.354 N 
ATOM     65  N   UNL A   1      44.584  32.400  29.372  1.00  0.00    -0.248 NA
ATOM     66  C   UNL A   1      46.451  33.274  28.274  1.00  0.00     0.031 C 
ATOM     67  C   UNL A   1      40.741  34.536  29.878  1.00  0.00     0.029 A 
ATOM     68  C   UNL A   1      41.953  33.888  29.706  1.00  0.00     0.049 A 
ATOM     69  H   UNL A   1      42.510  31.931  30.268  1.00  0.00     0.167 HD
ATOM     70  C   UNL A   1      44.300  33.690  28.945  1.00  0.00     0.074 A 
ATOM     71  C   UNL A   1      45.497  34.195  28.307  1.00  0.00     0.031 C 
ATOM     72  C   UNL A   1      43.148  34.389  29.076  1.00  0.00     0.031 A 
BRANCH  59  73
ATOM     73  C   UNL A   1      38.600  31.322  31.883  1.00  0.00    -0.014 A 
ATOM     74  C   UNL A   1      37.542  31.044  31.003  1.00  0.00     0.009 A 
ATOM     75  C   UNL A   1      38.306  31.802  33.168  1.00  0.00     0.009 A 
ATOM     76  C   UNL A   1      36.219  31.273  31.388  1.00  0.00     0.001 A 
ATOM     77  C   UNL A   1      36.980  32.006  33.560  1.00  0.00     0.001 A 
ATOM     78  C   UNL A   1      35.940  31.756  32.667  1.00  0.00     0.000 A 
ENDBRANCH  59  73
BRANCH  60  79
ATOM     79  C   UNL A   1      48.094  30.911  28.849  1.00  0.00    -0.014 A 
ATOM     80  C   UNL A   1      49.104  31.242  29.767  1.00  0.00     0.009 A 
ATOM     81  C   UNL A   1      48.455  30.571  27.538  1.00  0.00     0.009 A 
ATOM     82  C   UNL A   1      50.443  31.250  29.374  1.00  0.00     0.001 A 
ATOM     83  C   UNL A   1      49.798  30.546  27.157  1.00  0.00     0.001 A 
ATOM     84  C   UNL A   1      50.791  30.894  28.074  1.00  0.00     0.000 A 
ENDBRANCH  60  79
BRANCH  72  85
ATOM     85  C   UNL A   1      43.111  35.795  28.541  1.00  0.00    -0.014 A 
ATOM     86  C   UNL A   1      43.527  36.862  29.355  1.00  0.00     0.009 A 
ATOM     87  C   UNL A   1      42.573  36.077  27.276  1.00  0.00     0.009 A 
ATOM     88  C   UNL A   1      43.387  38.181  28.923  1.00  0.00     0.001 A 
ATOM     89  C   UNL A   1      42.464  37.396  26.834  1.00  0.00     0.001 A 
ATOM     90  C   UNL A   1      42.859  38.447  27.660  1.00  0.00     0.000 A 
ENDBRANCH  72  85
ENDBRANCH  46  47
ENDBRANCH  39  41
ENDBRANCH  38  39
ENDBRANCH  37  38
ENDBRANCH  36  37
ENDBRANCH  35  36
ENDBRANCH  34  35
ENDBRANCH   1  34
TORSDOF 22
ENDMDL
MODEL 3
REMARK VINA RESULT:      -7.8      3.661      7.579
REMARK SMILES Cc1ccc(-c2cc(Cl)cc3c2O[C@H](C(F)(F)F)C(C(=O)OCCOCCOCCOCCOC(=O)c2ccc(-c4c5nc(c(-c6ccccc6)c6ccc([nH]6)c(-c6ccccc6)c6nc(c(-c7ccccc7)c7ccc4[nH]7)C=C6)C=C5)cc2)=C3)cc1F
REMARK SMILES IDX 29 1 28 2 27 3 26 4 25 5 24 6 23 7 22 8 20 9 21 10 19 11
REMARK SMILES IDX 6 12 7 13 12 14 8 15 11 16 13 17 9 18 10 19 85 20 14 21 5 22
REMARK SMILES IDX 1 23 2 24 3 25 87 26 4 27 86 28 88 29 15 30 16 31 17 32
REMARK SMILES IDX 18 33 30 34 31 35 32 36 33 37 34 38 35 39 36 40 37 41 38 42
REMARK SMILES IDX 84 43 39 44 83 45 40 46 41 47 42 48 77 49 43 50 82 51 76 52
REMARK SMILES IDX 78 53 44 54 81 55 75 56 74 57 45 59 67 60 52 61 66 62 53 63
REMARK SMILES IDX 56 64 65 65 79 66 54 67 55 68 64 70 80 71 57 72 46 73 47 74
REMARK SMILES IDX 51 75 48 76 50 77 49 78 68 79 69 80 73 81 70 82 72 83 71 84
REMARK SMILES IDX 58 85 59 86 63 87 60 88 62 89 61 90
REMARK H PARENT 78 58 56 69
REMARK Flexibility Score: inf
ROOT
ATOM      1  C   UNL A   1      42.467  19.004  26.067  1.00  0.00     0.188 C 
ENDROOT
BRANCH   1   2
ATOM      2  O   UNL A   1      43.836  19.263  25.753  1.00  0.00    -0.377 OA
BRANCH   2   3
ATOM      3  C   UNL A   1      44.171  20.579  25.341  1.00  0.00     0.188 C 
BRANCH   3   4
ATOM      4  C   UNL A   1      45.471  20.627  24.514  1.00  0.00     0.188 C 
BRANCH   4   5
ATOM      5  O   UNL A   1      46.327  21.703  24.892  1.00  0.00    -0.376 OA
BRANCH   5   6
ATOM      6  C   UNL A   1      45.959  23.014  24.480  1.00  0.00     0.202 C 
BRANCH   6   7
ATOM      7  C   UNL A   1      46.781  24.193  25.022  1.00  0.00     0.261 C 
BRANCH   7   8
ATOM      8  O   UNL A   1      46.678  24.418  26.436  1.00  0.00    -0.460 OA
BRANCH   8   9
ATOM      9  C   UNL A   1      45.978  25.488  26.857  1.00  0.00     0.338 C 
ATOM     10  O   UNL A   1      45.294  26.229  26.173  1.00  0.00    -0.246 OA
BRANCH   9  11
ATOM     11  C   UNL A   1      46.045  25.518  28.336  1.00  0.00     0.087 C 
ATOM     12  C   UNL A   1      46.244  25.419  32.526  1.00  0.00     0.026 A 
ATOM     13  C   UNL A   1      47.509  25.493  33.134  1.00  0.00     0.033 A 
ATOM     14  C   UNL A   1      46.176  25.541  31.117  1.00  0.00     0.135 A 
ATOM     15  C   UNL A   1      48.660  25.670  32.367  1.00  0.00     0.042 A 
ATOM     16  C   UNL A   1      47.341  25.652  30.346  1.00  0.00     0.019 A 
ATOM     17  O   UNL A   1      44.926  25.558  30.559  1.00  0.00    -0.475 OA
ATOM     18  Cl  UNL A   1      50.195  25.757  33.141  1.00  0.00    -0.084 Cl
ATOM     19  C   UNL A   1      48.583  25.742  30.978  1.00  0.00     0.032 A 
ATOM     20  C   UNL A   1      47.258  25.612  28.894  1.00  0.00     0.027 C 
ATOM     21  C   UNL A   1      44.761  25.528  29.121  1.00  0.00     0.316 C 
BRANCH  12  22
ATOM     22  C   UNL A   1      45.044  25.147  33.347  1.00  0.00    -0.012 A 
ATOM     23  C   UNL A   1      41.522  24.434  35.770  1.00  0.00     0.047 C 
ATOM     24  C   UNL A   1      42.733  24.659  34.919  1.00  0.00    -0.015 A 
ATOM     25  C   UNL A   1      43.456  23.595  34.371  1.00  0.00     0.007 A 
ATOM     26  C   UNL A   1      43.170  25.958  34.667  1.00  0.00     0.126 A 
ATOM     27  C   UNL A   1      44.598  23.838  33.595  1.00  0.00     0.009 A 
ATOM     28  C   UNL A   1      44.297  26.204  33.889  1.00  0.00     0.048 A 
ATOM     29  F   UNL A   1      42.497  26.999  35.178  1.00  0.00    -0.207 F 
ENDBRANCH  12  22
BRANCH  21  30
ATOM     30  C   UNL A   1      43.850  24.341  28.780  1.00  0.00     0.430 C 
ATOM     31  F   UNL A   1      42.966  24.664  27.805  1.00  0.00    -0.167 F 
ATOM     32  F   UNL A   1      44.545  23.271  28.333  1.00  0.00    -0.167 F 
ATOM     33  F   UNL A   1      43.134  23.938  29.856  1.00  0.00    -0.167 F 
ENDBRANCH  21  30
ENDBRANCH   9  11
ENDBRANCH   8   9
ENDBRANCH   7   8
ENDBRANCH   6   7
ENDBRANCH   5   6
ENDBRANCH   4   5
ENDBRANCH   3   4
ENDBRANCH   2   3
ENDBRANCH   1   2
BRANCH   1  34
ATOM     34  C   UNL A   1      41.599  20.033  26.828  1.00  0.00     0.188 C 
BRANCH  34  35
ATOM     35  O   UNL A   1      40.290  20.195  26.284  1.00  0.00    -0.376 OA
BRANCH  35  36
ATOM     36  C   UNL A   1      39.746  21.508  26.300  1.00  0.00     0.202 C 
BRANCH  36  37
ATOM     37  C   UNL A   1      40.665  22.551  26.943  1.00  0.00     0.261 C 
BRANCH  37  38
ATOM     38  O   UNL A   1      39.995  23.561  27.715  1.00  0.00    -0.460 OA
BRANCH  38  39
ATOM     39  C   UNL A   1      39.348  24.540  27.045  1.00  0.00     0.338 C 
ATOM     40  O   UNL A   1      38.604  24.415  26.090  1.00  0.00    -0.246 OA
BRANCH  39  41
ATOM     41  C   UNL A   1      39.543  25.794  27.803  1.00  0.00     0.060 A 
ATOM     42  C   UNL A   1      39.228  25.851  29.163  1.00  0.00     0.016 A 
ATOM     43  C   UNL A   1      40.010  26.932  27.133  1.00  0.00     0.016 A 
ATOM     44  C   UNL A   1      39.416  27.044  29.863  1.00  0.00     0.010 A 
ATOM     45  C   UNL A   1      40.191  28.128  27.835  1.00  0.00     0.010 A 
ATOM     46  C   UNL A   1      39.920  28.182  29.210  1.00  0.00    -0.014 A 
BRANCH  46  47
ATOM     47  C   UNL A   1      40.346  29.352  30.015  1.00  0.00     0.031 A 
ATOM     48  C   UNL A   1      39.372  30.357  30.548  1.00  0.00     0.074 A 
ATOM     49  C   UNL A   1      41.661  29.476  30.279  1.00  0.00     0.049 A 
ATOM     50  N   UNL A   1      39.600  31.363  31.354  1.00  0.00    -0.248 NA
ATOM     51  C   UNL A   1      37.968  30.222  30.132  1.00  0.00     0.031 C 
ATOM     52  C   UNL A   1      42.699  28.554  29.808  1.00  0.00     0.029 A 
ATOM     53  N   UNL A   1      42.349  30.402  31.020  1.00  0.00    -0.354 N 
ATOM     54  C   UNL A   1      38.370  31.967  31.568  1.00  0.00     0.074 A 
ATOM     55  C   UNL A   1      37.401  31.242  30.770  1.00  0.00     0.031 C 
ATOM     56  C   UNL A   1      43.883  28.940  30.304  1.00  0.00     0.029 A 
ATOM     57  C   UNL A   1      43.697  30.148  31.100  1.00  0.00     0.049 A 
ATOM     58  H   UNL A   1      41.919  31.174  31.453  1.00  0.00     0.167 HD
ATOM     59  C   UNL A   1      38.079  33.017  32.372  1.00  0.00     0.031 A 
ATOM     60  C   UNL A   1      44.676  30.805  31.750  1.00  0.00     0.031 A 
ATOM     61  C   UNL A   1      39.053  33.747  33.145  1.00  0.00     0.049 A 
ATOM     62  C   UNL A   1      44.328  32.009  32.577  1.00  0.00     0.074 A 
ATOM     63  C   UNL A   1      38.840  34.812  34.005  1.00  0.00     0.029 A 
ATOM     64  N   UNL A   1      40.417  33.500  33.148  1.00  0.00    -0.354 N 
ATOM     65  N   UNL A   1      43.149  32.526  32.823  1.00  0.00    -0.248 NA
ATOM     66  C   UNL A   1      45.443  32.714  33.227  1.00  0.00     0.031 C 
ATOM     67  C   UNL A   1      40.078  35.250  34.477  1.00  0.00     0.029 A 
ATOM     68  C   UNL A   1      41.058  34.412  33.971  1.00  0.00     0.049 A 
ATOM     69  H   UNL A   1      40.863  32.784  32.642  1.00  0.00     0.167 HD
ATOM     70  C   UNL A   1      43.376  33.594  33.681  1.00  0.00     0.074 A 
ATOM     71  C   UNL A   1      44.802  33.643  33.925  1.00  0.00     0.031 C 
ATOM     72  C   UNL A   1      42.477  34.453  34.216  1.00  0.00     0.031 A 
BRANCH  59  73
ATOM     73  C   UNL A   1      36.645  33.453  32.497  1.00  0.00    -0.014 A 
ATOM     74  C   UNL A   1      35.872  33.026  33.590  1.00  0.00     0.009 A 
ATOM     75  C   UNL A   1      36.016  34.144  31.450  1.00  0.00     0.009 A 
ATOM     76  C   UNL A   1      34.495  33.255  33.618  1.00  0.00     0.001 A 
ATOM     77  C   UNL A   1      34.642  34.393  31.493  1.00  0.00     0.001 A 
ATOM     78  C   UNL A   1      33.881  33.937  32.568  1.00  0.00     0.000 A 
ENDBRANCH  59  73
BRANCH  60  79
ATOM     79  C   UNL A   1      46.073  30.302  31.678  1.00  0.00    -0.014 A 
ATOM     80  C   UNL A   1      46.895  30.618  30.584  1.00  0.00     0.009 A 
ATOM     81  C   UNL A   1      46.583  29.479  32.693  1.00  0.00     0.009 A 
ATOM     82  C   UNL A   1      48.191  30.107  30.500  1.00  0.00     0.001 A 
ATOM     83  C   UNL A   1      47.892  28.997  32.623  1.00  0.00     0.001 A 
ATOM     84  C   UNL A   1      48.692  29.305  31.522  1.00  0.00     0.000 A 
ENDBRANCH  60  79
BRANCH  72  85
ATOM     85  C   UNL A   1      42.988  35.521  35.145  1.00  0.00    -0.014 A 
ATOM     86  C   UNL A   1      43.055  35.269  36.526  1.00  0.00     0.009 A 
ATOM     87  C   UNL A   1      43.305  36.804  34.673  1.00  0.00     0.009 A 
ATOM     88  C   UNL A   1      43.411  36.284  37.416  1.00  0.00     0.001 A 
ATOM     89  C   UNL A   1      43.692  37.807  35.563  1.00  0.00     0.001 A 
ATOM     90  C   UNL A   1      43.733  37.551  36.933  1.00  0.00     0.000 A 
ENDBRANCH  72  85
ENDBRANCH  46  47
ENDBRANCH  39  41
ENDBRANCH  38  39
ENDBRANCH  37  38
ENDBRANCH  36  37
ENDBRANCH  35  36
ENDBRANCH  34  35
ENDBRANCH   1  34
TORSDOF 22
ENDMDL
