MODEL 1
REMARK VINA RESULT:      -9.9      0.000      0.000
REMARK SMILES O=C(OCCOCCOCCOCCOC(=O)[C@@H]1CCCCN1c1ncnc2sccc12)c1ccc(-c2c3nc(c(-c4ccccc4)c4ccc([nH]4)c(-c4ccccc4)c4nc(c(-c5ccccc5)c5ccc2[nH]5)C=C4)C=C3)cc1
REMARK SMILES IDX 8 1 7 2 6 3 5 4 4 5 3 6 2 7 1 8 33 9 34 10 80 11 35 12 79 13
REMARK SMILES IDX 36 14 37 15 38 16 73 17 39 18 78 19 72 20 74 21 40 22 77 23
REMARK SMILES IDX 71 24 70 25 41 27 63 28 48 29 62 30 49 31 52 32 61 33 75 34
REMARK SMILES IDX 50 35 51 36 60 38 76 39 53 40 42 41 43 42 47 43 44 44 46 45
REMARK SMILES IDX 45 46 64 47 65 48 69 49 66 50 68 51 67 52 54 53 55 54 59 55
REMARK SMILES IDX 56 56 58 57 57 58 9 59 10 60 11 61 12 62 13 63 14 64 15 65
REMARK SMILES IDX 16 66 17 67 18 68 19 69 23 70 20 71 22 72 21 73 24 74 25 75
REMARK SMILES IDX 32 76 26 77 28 78 31 79 27 80 29 81 30 82
REMARK H PARENT 74 26 52 37
REMARK Flexibility Score: inf
ROOT
ATOM      1  C   UNL A   1      33.055  35.988  29.431  1.00  0.00     0.188 C 
ENDROOT
BRANCH   1   2
ATOM      2  C   UNL A   1      32.906  36.499  30.853  1.00  0.00     0.188 C 
BRANCH   2   3
ATOM      3  O   UNL A   1      33.149  35.443  31.780  1.00  0.00    -0.376 OA
BRANCH   3   4
ATOM      4  C   UNL A   1      34.133  35.722  32.770  1.00  0.00     0.202 C 
BRANCH   4   5
ATOM      5  C   UNL A   1      34.610  34.480  33.527  1.00  0.00     0.261 C 
BRANCH   5   6
ATOM      6  O   UNL A   1      35.628  33.779  32.786  1.00  0.00    -0.460 OA
BRANCH   6   7
ATOM      7  C   UNL A   1      35.513  32.682  31.999  1.00  0.00     0.338 C 
ATOM      8  O   UNL A   1      34.391  32.249  31.754  1.00  0.00    -0.246 OA
BRANCH   7   9
ATOM      9  C   UNL A   1      36.683  31.921  31.452  1.00  0.00     0.060 A 
ATOM     10  C   UNL A   1      37.588  31.177  32.211  1.00  0.00     0.016 A 
ATOM     11  C   UNL A   1      36.823  31.883  30.055  1.00  0.00     0.016 A 
ATOM     12  C   UNL A   1      38.612  30.444  31.635  1.00  0.00     0.010 A 
ATOM     13  C   UNL A   1      37.861  31.162  29.457  1.00  0.00     0.010 A 
ATOM     14  C   UNL A   1      38.769  30.461  30.259  1.00  0.00    -0.014 A 
BRANCH  14  15
ATOM     15  C   UNL A   1      40.024  29.927  29.717  1.00  0.00     0.031 A 
ATOM     16  C   UNL A   1      41.198  30.856  29.680  1.00  0.00     0.074 A 
ATOM     17  C   UNL A   1      40.129  28.626  29.401  1.00  0.00     0.049 A 
ATOM     18  N   UNL A   1      42.373  30.683  29.144  1.00  0.00    -0.248 NA
ATOM     19  C   UNL A   1      41.024  32.159  30.351  1.00  0.00     0.031 C 
ATOM     20  C   UNL A   1      39.079  27.621  29.583  1.00  0.00     0.029 A 
ATOM     21  N   UNL A   1      41.178  27.925  28.873  1.00  0.00    -0.354 N 
ATOM     22  C   UNL A   1      43.056  31.873  29.363  1.00  0.00     0.074 A 
ATOM     23  C   UNL A   1      42.181  32.751  30.101  1.00  0.00     0.031 C 
ATOM     24  C   UNL A   1      39.536  26.432  29.155  1.00  0.00     0.029 A 
ATOM     25  C   UNL A   1      40.875  26.612  28.606  1.00  0.00     0.049 A 
ATOM     26  H   UNL A   1      42.063  28.322  28.703  1.00  0.00     0.167 HD
ATOM     27  C   UNL A   1      44.298  32.201  28.948  1.00  0.00     0.031 A 
ATOM     28  C   UNL A   1      41.588  25.693  27.930  1.00  0.00     0.031 A 
ATOM     29  C   UNL A   1      45.131  31.295  28.211  1.00  0.00     0.049 A 
ATOM     30  C   UNL A   1      42.925  26.119  27.378  1.00  0.00     0.074 A 
ATOM     31  C   UNL A   1      46.392  31.505  27.690  1.00  0.00     0.029 A 
ATOM     32  N   UNL A   1      44.769  29.992  27.892  1.00  0.00    -0.354 N 
ATOM     33  N   UNL A   1      43.553  27.262  27.528  1.00  0.00    -0.248 NA
ATOM     34  C   UNL A   1      43.639  25.144  26.544  1.00  0.00     0.031 C 
ATOM     35  C   UNL A   1      46.766  30.347  27.001  1.00  0.00     0.029 A 
ATOM     36  C   UNL A   1      45.765  29.397  27.145  1.00  0.00     0.049 A 
ATOM     37  H   UNL A   1      43.926  29.559  28.159  1.00  0.00     0.167 HD
ATOM     38  C   UNL A   1      44.738  27.144  26.816  1.00  0.00     0.074 A 
ATOM     39  C   UNL A   1      44.752  25.805  26.258  1.00  0.00     0.031 C 
ATOM     40  C   UNL A   1      45.724  28.055  26.623  1.00  0.00     0.031 A 
BRANCH  27  41
ATOM     41  C   UNL A   1      44.754  33.611  29.182  1.00  0.00    -0.014 A 
ATOM     42  C   UNL A   1      45.382  34.004  30.373  1.00  0.00     0.009 A 
ATOM     43  C   UNL A   1      44.525  34.572  28.185  1.00  0.00     0.009 A 
ATOM     44  C   UNL A   1      45.741  35.340  30.572  1.00  0.00     0.001 A 
ATOM     45  C   UNL A   1      44.908  35.901  28.375  1.00  0.00     0.001 A 
ATOM     46  C   UNL A   1      45.508  36.286  29.573  1.00  0.00     0.000 A 
ENDBRANCH  27  41
BRANCH  28  47
ATOM     47  C   UNL A   1      41.017  24.349  27.638  1.00  0.00    -0.014 A 
ATOM     48  C   UNL A   1      41.490  23.199  28.286  1.00  0.00     0.009 A 
ATOM     49  C   UNL A   1      40.007  24.206  26.670  1.00  0.00     0.009 A 
ATOM     50  C   UNL A   1      40.987  21.937  27.951  1.00  0.00     0.001 A 
ATOM     51  C   UNL A   1      39.481  22.949  26.362  1.00  0.00     0.001 A 
ATOM     52  C   UNL A   1      39.980  21.813  26.993  1.00  0.00     0.000 A 
ENDBRANCH  28  47
BRANCH  40  53
ATOM     53  C   UNL A   1      46.895  27.619  25.795  1.00  0.00    -0.014 A 
ATOM     54  C   UNL A   1      47.987  26.963  26.380  1.00  0.00     0.009 A 
ATOM     55  C   UNL A   1      46.859  27.792  24.403  1.00  0.00     0.009 A 
ATOM     56  C   UNL A   1      49.035  26.504  25.584  1.00  0.00     0.001 A 
ATOM     57  C   UNL A   1      47.893  27.304  23.607  1.00  0.00     0.001 A 
ATOM     58  C   UNL A   1      48.983  26.667  24.199  1.00  0.00     0.000 A 
ENDBRANCH  40  53
ENDBRANCH  14  15
ENDBRANCH   7   9
ENDBRANCH   6   7
ENDBRANCH   5   6
ENDBRANCH   4   5
ENDBRANCH   3   4
ENDBRANCH   2   3
ENDBRANCH   1   2
BRANCH   1  59
ATOM     59  O   UNL A   1      32.722  34.607  29.358  1.00  0.00    -0.377 OA
BRANCH  59  60
ATOM     60  C   UNL A   1      33.768  33.796  28.837  1.00  0.00     0.188 C 
BRANCH  60  61
ATOM     61  C   UNL A   1      33.239  32.610  28.027  1.00  0.00     0.188 C 
BRANCH  61  62
ATOM     62  O   UNL A   1      34.193  31.618  27.668  1.00  0.00    -0.376 OA
BRANCH  62  63
ATOM     63  C   UNL A   1      33.790  30.573  26.777  1.00  0.00     0.202 C 
BRANCH  63  64
ATOM     64  C   UNL A   1      33.031  29.352  27.327  1.00  0.00     0.261 C 
BRANCH  64  65
ATOM     65  O   UNL A   1      31.728  29.138  26.722  1.00  0.00    -0.462 OA
BRANCH  65  66
ATOM     66  C   UNL A   1      31.449  27.879  26.327  1.00  0.00     0.328 C 
ATOM     67  O   UNL A   1      31.206  26.976  27.136  1.00  0.00    -0.250 OA
BRANCH  66  68
ATOM     68  C   UNL A   1      31.583  27.515  24.851  1.00  0.00     0.193 C 
ATOM     69  C   UNL A   1      30.210  27.309  24.206  1.00  0.00     0.037 C 
ATOM     70  N   UNL A   1      32.594  26.637  24.203  1.00  0.00    -0.342 N 
ATOM     71  C   UNL A   1      30.290  27.562  22.697  1.00  0.00     0.005 C 
ATOM     72  C   UNL A   1      32.752  27.013  22.770  1.00  0.00     0.119 C 
ATOM     73  C   UNL A   1      31.418  26.754  22.055  1.00  0.00     0.022 C 
BRANCH  70  74
ATOM     74  C   UNL A   1      33.037  25.342  24.436  1.00  0.00     0.141 A 
ATOM     75  N   UNL A   1      34.336  25.096  24.059  1.00  0.00    -0.219 NA
ATOM     76  C   UNL A   1      32.330  24.224  24.949  1.00  0.00     0.054 A 
ATOM     77  C   UNL A   1      34.882  23.879  24.152  1.00  0.00     0.225 A 
ATOM     78  C   UNL A   1      33.044  23.026  25.034  1.00  0.00     0.128 A 
ATOM     79  C   UNL A   1      30.978  23.986  25.371  1.00  0.00     0.026 A 
ATOM     80  N   UNL A   1      34.308  22.795  24.647  1.00  0.00    -0.225 NA
ATOM     81  S   UNL A   1      32.159  21.749  25.737  1.00  0.00    -0.124 S 
ATOM     82  C   UNL A   1      30.763  22.713  25.855  1.00  0.00     0.068 A 
ENDBRANCH  70  74
ENDBRANCH  66  68
ENDBRANCH  65  66
ENDBRANCH  64  65
ENDBRANCH  63  64
ENDBRANCH  62  63
ENDBRANCH  61  62
ENDBRANCH  60  61
ENDBRANCH  59  60
ENDBRANCH   1  59
TORSDOF 21
ENDMDL
MODEL 2
REMARK VINA RESULT:      -9.7      1.711      2.705
REMARK SMILES O=C(OCCOCCOCCOCCOC(=O)[C@@H]1CCCCN1c1ncnc2sccc12)c1ccc(-c2c3nc(c(-c4ccccc4)c4ccc([nH]4)c(-c4ccccc4)c4nc(c(-c5ccccc5)c5ccc2[nH]5)C=C4)C=C3)cc1
REMARK SMILES IDX 8 1 7 2 6 3 5 4 4 5 3 6 2 7 1 8 33 9 34 10 80 11 35 12 79 13
REMARK SMILES IDX 36 14 37 15 38 16 73 17 39 18 78 19 72 20 74 21 40 22 77 23
REMARK SMILES IDX 71 24 70 25 41 27 63 28 48 29 62 30 49 31 52 32 61 33 75 34
REMARK SMILES IDX 50 35 51 36 60 38 76 39 53 40 42 41 43 42 47 43 44 44 46 45
REMARK SMILES IDX 45 46 64 47 65 48 69 49 66 50 68 51 67 52 54 53 55 54 59 55
REMARK SMILES IDX 56 56 58 57 57 58 9 59 10 60 11 61 12 62 13 63 14 64 15 65
REMARK SMILES IDX 16 66 17 67 18 68 19 69 23 70 20 71 22 72 21 73 24 74 25 75
REMARK SMILES IDX 32 76 26 77 28 78 31 79 27 80 29 81 30 82
REMARK H PARENT 74 26 52 37
REMARK Flexibility Score: inf
ROOT
ATOM      1  C   UNL A   1      33.470  35.716  28.953  1.00  0.00     0.188 C 
ENDROOT
BRANCH   1   2
ATOM      2  C   UNL A   1      33.050  36.398  30.243  1.00  0.00     0.188 C 
BRANCH   2   3
ATOM      3  O   UNL A   1      33.215  35.507  31.344  1.00  0.00    -0.376 OA
BRANCH   3   4
ATOM      4  C   UNL A   1      34.124  35.948  32.347  1.00  0.00     0.202 C 
BRANCH   4   5
ATOM      5  C   UNL A   1      34.880  34.807  33.034  1.00  0.00     0.261 C 
BRANCH   5   6
ATOM      6  O   UNL A   1      35.733  34.115  32.101  1.00  0.00    -0.460 OA
BRANCH   6   7
ATOM      7  C   UNL A   1      35.647  32.842  31.643  1.00  0.00     0.338 C 
ATOM      8  O   UNL A   1      34.555  32.281  31.668  1.00  0.00    -0.246 OA
BRANCH   7   9
ATOM      9  C   UNL A   1      36.822  32.049  31.158  1.00  0.00     0.060 A 
ATOM     10  C   UNL A   1      37.782  31.448  31.973  1.00  0.00     0.016 A 
ATOM     11  C   UNL A   1      36.910  31.819  29.775  1.00  0.00     0.016 A 
ATOM     12  C   UNL A   1      38.810  30.673  31.462  1.00  0.00     0.010 A 
ATOM     13  C   UNL A   1      37.951  31.053  29.240  1.00  0.00     0.010 A 
ATOM     14  C   UNL A   1      38.914  30.501  30.091  1.00  0.00    -0.014 A 
BRANCH  14  15
ATOM     15  C   UNL A   1      40.166  29.936  29.576  1.00  0.00     0.031 A 
ATOM     16  C   UNL A   1      41.352  30.848  29.521  1.00  0.00     0.074 A 
ATOM     17  C   UNL A   1      40.257  28.625  29.300  1.00  0.00     0.049 A 
ATOM     18  N   UNL A   1      42.528  30.645  29.000  1.00  0.00    -0.248 NA
ATOM     19  C   UNL A   1      41.189  32.172  30.152  1.00  0.00     0.031 C 
ATOM     20  C   UNL A   1      39.192  27.638  29.503  1.00  0.00     0.029 A 
ATOM     21  N   UNL A   1      41.301  27.895  28.801  1.00  0.00    -0.354 N 
ATOM     22  C   UNL A   1      43.225  31.833  29.189  1.00  0.00     0.074 A 
ATOM     23  C   UNL A   1      42.355  32.743  29.894  1.00  0.00     0.031 C 
ATOM     24  C   UNL A   1      39.638  26.431  29.114  1.00  0.00     0.029 A 
ATOM     25  C   UNL A   1      40.983  26.579  28.571  1.00  0.00     0.049 A 
ATOM     26  H   UNL A   1      42.192  28.276  28.626  1.00  0.00     0.167 HD
ATOM     27  C   UNL A   1      44.474  32.132  28.774  1.00  0.00     0.031 A 
ATOM     28  C   UNL A   1      41.690  25.631  27.928  1.00  0.00     0.031 A 
ATOM     29  C   UNL A   1      45.302  31.194  28.072  1.00  0.00     0.049 A 
ATOM     30  C   UNL A   1      43.036  26.023  27.374  1.00  0.00     0.074 A 
ATOM     31  C   UNL A   1      46.569  31.373  27.555  1.00  0.00     0.029 A 
ATOM     32  N   UNL A   1      44.925  29.887  27.788  1.00  0.00    -0.354 N 
ATOM     33  N   UNL A   1      43.678  27.163  27.495  1.00  0.00    -0.248 NA
ATOM     34  C   UNL A   1      43.744  25.015  26.576  1.00  0.00     0.031 C 
ATOM     35  C   UNL A   1      46.934  30.191  26.903  1.00  0.00     0.029 A 
ATOM     36  C   UNL A   1      45.919  29.258  27.068  1.00  0.00     0.049 A 
ATOM     37  H   UNL A   1      44.075  29.472  28.061  1.00  0.00     0.167 HD
ATOM     38  C   UNL A   1      44.867  27.009  26.797  1.00  0.00     0.074 A 
ATOM     39  C   UNL A   1      44.867  25.654  26.279  1.00  0.00     0.031 C 
ATOM     40  C   UNL A   1      45.866  27.901  26.585  1.00  0.00     0.031 A 
BRANCH  27  41
ATOM     41  C   UNL A   1      44.946  33.542  28.970  1.00  0.00    -0.014 A 
ATOM     42  C   UNL A   1      44.467  34.606  28.192  1.00  0.00     0.009 A 
ATOM     43  C   UNL A   1      45.918  33.802  29.951  1.00  0.00     0.009 A 
ATOM     44  C   UNL A   1      44.974  35.896  28.371  1.00  0.00     0.001 A 
ATOM     45  C   UNL A   1      46.405  35.095  30.145  1.00  0.00     0.001 A 
ATOM     46  C   UNL A   1      45.940  36.140  29.349  1.00  0.00     0.000 A 
ENDBRANCH  27  41
BRANCH  28  47
ATOM     47  C   UNL A   1      41.104  24.286  27.671  1.00  0.00    -0.014 A 
ATOM     48  C   UNL A   1      41.638  23.133  28.263  1.00  0.00     0.009 A 
ATOM     49  C   UNL A   1      40.015  24.146  26.792  1.00  0.00     0.009 A 
ATOM     50  C   UNL A   1      41.115  21.871  27.959  1.00  0.00     0.001 A 
ATOM     51  C   UNL A   1      39.473  22.889  26.516  1.00  0.00     0.001 A 
ATOM     52  C   UNL A   1      40.031  21.750  27.090  1.00  0.00     0.000 A 
ENDBRANCH  28  47
BRANCH  40  53
ATOM     53  C   UNL A   1      47.037  27.427  25.780  1.00  0.00    -0.014 A 
ATOM     54  C   UNL A   1      47.096  27.645  24.396  1.00  0.00     0.009 A 
ATOM     55  C   UNL A   1      48.128  26.832  26.431  1.00  0.00     0.009 A 
ATOM     56  C   UNL A   1      48.224  27.258  23.674  1.00  0.00     0.001 A 
ATOM     57  C   UNL A   1      49.266  26.475  25.712  1.00  0.00     0.001 A 
ATOM     58  C   UNL A   1      49.310  26.682  24.334  1.00  0.00     0.000 A 
ENDBRANCH  40  53
ENDBRANCH  14  15
ENDBRANCH   7   9
ENDBRANCH   6   7
ENDBRANCH   5   6
ENDBRANCH   4   5
ENDBRANCH   3   4
ENDBRANCH   2   3
ENDBRANCH   1   2
BRANCH   1  59
ATOM     59  O   UNL A   1      33.822  34.359  29.197  1.00  0.00    -0.377 OA
BRANCH  59  60
ATOM     60  C   UNL A   1      34.315  33.683  28.046  1.00  0.00     0.188 C 
BRANCH  60  61
ATOM     61  C   UNL A   1      33.850  32.228  27.979  1.00  0.00     0.188 C 
BRANCH  61  62
ATOM     62  O   UNL A   1      32.671  31.978  27.223  1.00  0.00    -0.376 OA
BRANCH  62  63
ATOM     63  C   UNL A   1      32.189  30.633  27.131  1.00  0.00     0.202 C 
BRANCH  63  64
ATOM     64  C   UNL A   1      33.133  29.515  26.655  1.00  0.00     0.261 C 
BRANCH  64  65
ATOM     65  O   UNL A   1      32.736  28.893  25.403  1.00  0.00    -0.462 OA
BRANCH  65  66
ATOM     66  C   UNL A   1      33.145  27.623  25.209  1.00  0.00     0.328 C 
ATOM     67  O   UNL A   1      33.974  27.080  25.948  1.00  0.00    -0.250 OA
BRANCH  66  68
ATOM     68  C   UNL A   1      32.689  26.878  23.958  1.00  0.00     0.193 C 
ATOM     69  C   UNL A   1      33.406  27.403  22.710  1.00  0.00     0.037 C 
ATOM     70  N   UNL A   1      31.322  26.408  23.606  1.00  0.00    -0.342 N 
ATOM     71  C   UNL A   1      33.444  26.322  21.626  1.00  0.00     0.005 C 
ATOM     72  C   UNL A   1      31.405  25.258  22.664  1.00  0.00     0.119 C 
ATOM     73  C   UNL A   1      32.051  25.748  21.361  1.00  0.00     0.022 C 
BRANCH  70  74
ATOM     74  C   UNL A   1      30.079  27.022  23.545  1.00  0.00     0.141 A 
ATOM     75  N   UNL A   1      29.033  26.264  24.017  1.00  0.00    -0.219 NA
ATOM     76  C   UNL A   1      29.721  28.288  23.012  1.00  0.00     0.054 A 
ATOM     77  C   UNL A   1      27.766  26.689  23.956  1.00  0.00     0.225 A 
ATOM     78  C   UNL A   1      28.364  28.619  23.060  1.00  0.00     0.128 A 
ATOM     79  C   UNL A   1      30.431  29.347  22.351  1.00  0.00     0.026 A 
ATOM     80  N   UNL A   1      27.350  27.863  23.509  1.00  0.00    -0.225 NA
ATOM     81  S   UNL A   1      28.020  30.186  22.482  1.00  0.00    -0.124 S 
ATOM     82  C   UNL A   1      29.645  30.439  22.051  1.00  0.00     0.068 A 
ENDBRANCH  70  74
ENDBRANCH  66  68
ENDBRANCH  65  66
ENDBRANCH  64  65
ENDBRANCH  63  64
ENDBRANCH  62  63
ENDBRANCH  61  62
ENDBRANCH  60  61
ENDBRANCH  59  60
ENDBRANCH   1  59
TORSDOF 21
ENDMDL
MODEL 3
REMARK VINA RESULT:      -9.6      3.853      8.976
REMARK SMILES O=C(OCCOCCOCCOCCOC(=O)[C@@H]1CCCCN1c1ncnc2sccc12)c1ccc(-c2c3nc(c(-c4ccccc4)c4ccc([nH]4)c(-c4ccccc4)c4nc(c(-c5ccccc5)c5ccc2[nH]5)C=C4)C=C3)cc1
REMARK SMILES IDX 8 1 7 2 6 3 5 4 4 5 3 6 2 7 1 8 33 9 34 10 80 11 35 12 79 13
REMARK SMILES IDX 36 14 37 15 38 16 73 17 39 18 78 19 72 20 74 21 40 22 77 23
REMARK SMILES IDX 71 24 70 25 41 27 63 28 48 29 62 30 49 31 52 32 61 33 75 34
REMARK SMILES IDX 50 35 51 36 60 38 76 39 53 40 42 41 43 42 47 43 44 44 46 45
REMARK SMILES IDX 45 46 64 47 65 48 69 49 66 50 68 51 67 52 54 53 55 54 59 55
REMARK SMILES IDX 56 56 58 57 57 58 9 59 10 60 11 61 12 62 13 63 14 64 15 65
REMARK SMILES IDX 16 66 17 67 18 68 19 69 23 70 20 71 22 72 21 73 24 74 25 75
REMARK SMILES IDX 32 76 26 77 28 78 31 79 27 80 29 81 30 82
REMARK H PARENT 74 26 52 37
REMARK Flexibility Score: inf
ROOT
ATOM      1  C   UNL A   1      36.381  22.450  25.762  1.00  0.00     0.188 C 
ENDROOT
BRANCH   1   2
ATOM      2  C   UNL A   1      36.301  21.761  24.411  1.00  0.00     0.188 C 
BRANCH   2   3
ATOM      3  O   UNL A   1      37.432  20.912  24.227  1.00  0.00    -0.376 OA
BRANCH   3   4
ATOM      4  C   UNL A   1      38.332  20.857  25.328  1.00  0.00     0.202 C 
BRANCH   4   5
ATOM      5  C   UNL A   1      38.839  19.446  25.636  1.00  0.00     0.261 C 
BRANCH   5   6
ATOM      6  O   UNL A   1      40.239  19.317  25.315  1.00  0.00    -0.460 OA
BRANCH   6   7
ATOM      7  C   UNL A   1      41.322  19.647  26.059  1.00  0.00     0.338 C 
ATOM      8  O   UNL A   1      42.108  18.759  26.378  1.00  0.00    -0.246 OA
BRANCH   7   9
ATOM      9  C   UNL A   1      41.593  21.028  26.571  1.00  0.00     0.060 A 
ATOM     10  C   UNL A   1      42.057  22.097  25.804  1.00  0.00     0.016 A 
ATOM     11  C   UNL A   1      41.267  21.287  27.914  1.00  0.00     0.016 A 
ATOM     12  C   UNL A   1      42.227  23.369  26.327  1.00  0.00     0.010 A 
ATOM     13  C   UNL A   1      41.448  22.560  28.463  1.00  0.00     0.010 A 
ATOM     14  C   UNL A   1      41.952  23.594  27.667  1.00  0.00    -0.014 A 
BRANCH  14  15
ATOM     15  C   UNL A   1      42.423  24.856  28.247  1.00  0.00     0.031 A 
ATOM     16  C   UNL A   1      41.393  25.913  28.504  1.00  0.00     0.074 A 
ATOM     17  C   UNL A   1      43.699  24.987  28.646  1.00  0.00     0.049 A 
ATOM     18  N   UNL A   1      41.553  27.147  28.887  1.00  0.00    -0.248 NA
ATOM     19  C   UNL A   1      39.985  25.515  28.311  1.00  0.00     0.031 C 
ATOM     20  C   UNL A   1      44.717  23.934  28.594  1.00  0.00     0.029 A 
ATOM     21  N   UNL A   1      44.352  26.060  29.188  1.00  0.00    -0.354 N 
ATOM     22  C   UNL A   1      40.274  27.689  28.925  1.00  0.00     0.074 A 
ATOM     23  C   UNL A   1      39.346  26.648  28.554  1.00  0.00     0.031 C 
ATOM     24  C   UNL A   1      45.874  24.424  29.071  1.00  0.00     0.029 A 
ATOM     25  C   UNL A   1      45.692  25.835  29.389  1.00  0.00     0.049 A 
ATOM     26  H   UNL A   1      43.905  26.908  29.413  1.00  0.00     0.167 HD
ATOM     27  C   UNL A   1      39.924  28.960  29.217  1.00  0.00     0.031 A 
ATOM     28  C   UNL A   1      46.661  26.706  29.727  1.00  0.00     0.031 A 
ATOM     29  C   UNL A   1      40.883  29.963  29.577  1.00  0.00     0.049 A 
ATOM     30  C   UNL A   1      46.261  28.144  29.937  1.00  0.00     0.074 A 
ATOM     31  C   UNL A   1      40.678  31.299  29.857  1.00  0.00     0.029 A 
ATOM     32  N   UNL A   1      42.246  29.724  29.703  1.00  0.00    -0.354 N 
ATOM     33  N   UNL A   1      45.061  28.679  29.915  1.00  0.00    -0.248 NA
ATOM     34  C   UNL A   1      47.343  29.103  30.190  1.00  0.00     0.031 C 
ATOM     35  C   UNL A   1      41.927  31.882  30.091  1.00  0.00     0.029 A 
ATOM     36  C   UNL A   1      42.901  30.896  30.018  1.00  0.00     0.049 A 
ATOM     37  H   UNL A   1      42.679  28.847  29.586  1.00  0.00     0.167 HD
ATOM     38  C   UNL A   1      45.241  30.032  30.159  1.00  0.00     0.074 A 
ATOM     39  C   UNL A   1      46.664  30.231  30.353  1.00  0.00     0.031 C 
ATOM     40  C   UNL A   1      44.323  31.030  30.207  1.00  0.00     0.031 A 
BRANCH  27  41
ATOM     41  C   UNL A   1      38.482  29.336  29.040  1.00  0.00    -0.014 A 
ATOM     42  C   UNL A   1      37.965  29.756  27.806  1.00  0.00     0.009 A 
ATOM     43  C   UNL A   1      37.627  29.286  30.153  1.00  0.00     0.009 A 
ATOM     44  C   UNL A   1      36.628  30.150  27.699  1.00  0.00     0.001 A 
ATOM     45  C   UNL A   1      36.286  29.656  30.038  1.00  0.00     0.001 A 
ATOM     46  C   UNL A   1      35.790  30.096  28.813  1.00  0.00     0.000 A 
ENDBRANCH  27  41
BRANCH  28  47
ATOM     47  C   UNL A   1      48.087  26.280  29.769  1.00  0.00    -0.014 A 
ATOM     48  C   UNL A   1      48.890  26.308  28.620  1.00  0.00     0.009 A 
ATOM     49  C   UNL A   1      48.648  25.805  30.968  1.00  0.00     0.009 A 
ATOM     50  C   UNL A   1      50.209  25.842  28.664  1.00  0.00     0.001 A 
ATOM     51  C   UNL A   1      49.975  25.373  31.018  1.00  0.00     0.001 A 
ATOM     52  C   UNL A   1      50.752  25.380  29.862  1.00  0.00     0.000 A 
ENDBRANCH  28  47
BRANCH  40  53
ATOM     53  C   UNL A   1      44.837  32.408  30.497  1.00  0.00    -0.014 A 
ATOM     54  C   UNL A   1      44.995  33.349  29.471  1.00  0.00     0.009 A 
ATOM     55  C   UNL A   1      45.082  32.788  31.826  1.00  0.00     0.009 A 
ATOM     56  C   UNL A   1      45.409  34.647  29.769  1.00  0.00     0.001 A 
ATOM     57  C   UNL A   1      45.465  34.093  32.124  1.00  0.00     0.001 A 
ATOM     58  C   UNL A   1      45.635  35.019  31.095  1.00  0.00     0.000 A 
ENDBRANCH  40  53
ENDBRANCH  14  15
ENDBRANCH   7   9
ENDBRANCH   6   7
ENDBRANCH   5   6
ENDBRANCH   4   5
ENDBRANCH   3   4
ENDBRANCH   2   3
ENDBRANCH   1   2
BRANCH   1  59
ATOM     59  O   UNL A   1      35.091  22.881  26.180  1.00  0.00    -0.377 OA
BRANCH  59  60
ATOM     60  C   UNL A   1      34.590  22.167  27.305  1.00  0.00     0.188 C 
BRANCH  60  61
ATOM     61  C   UNL A   1      33.446  21.222  26.933  1.00  0.00     0.188 C 
BRANCH  61  62
ATOM     62  O   UNL A   1      32.856  21.420  25.654  1.00  0.00    -0.376 OA
BRANCH  62  63
ATOM     63  C   UNL A   1      31.684  22.238  25.560  1.00  0.00     0.202 C 
BRANCH  63  64
ATOM     64  C   UNL A   1      31.077  22.850  26.834  1.00  0.00     0.261 C 
BRANCH  64  65
ATOM     65  O   UNL A   1      31.534  24.198  27.125  1.00  0.00    -0.462 OA
BRANCH  65  66
ATOM     66  C   UNL A   1      31.031  25.182  26.353  1.00  0.00     0.328 C 
ATOM     67  O   UNL A   1      29.900  25.648  26.537  1.00  0.00    -0.250 OA
BRANCH  66  68
ATOM     68  C   UNL A   1      31.812  25.636  25.123  1.00  0.00     0.193 C 
ATOM     69  C   UNL A   1      33.320  25.616  25.388  1.00  0.00     0.037 C 
ATOM     70  N   UNL A   1      31.473  26.716  24.157  1.00  0.00    -0.342 N 
ATOM     71  C   UNL A   1      34.087  25.456  24.072  1.00  0.00     0.005 C 
ATOM     72  C   UNL A   1      32.118  26.445  22.843  1.00  0.00     0.119 C 
ATOM     73  C   UNL A   1      33.641  26.488  23.036  1.00  0.00     0.022 C 
BRANCH  70  74
ATOM     74  C   UNL A   1      31.141  28.057  24.290  1.00  0.00     0.141 A 
ATOM     75  N   UNL A   1      31.870  28.745  25.232  1.00  0.00    -0.219 NA
ATOM     76  C   UNL A   1      30.123  28.805  23.644  1.00  0.00     0.054 A 
ATOM     77  C   UNL A   1      31.617  30.024  25.527  1.00  0.00     0.225 A 
ATOM     78  C   UNL A   1      30.006  30.145  24.018  1.00  0.00     0.128 A 
ATOM     79  C   UNL A   1      29.090  28.500  22.692  1.00  0.00     0.026 A 
ATOM     80  N   UNL A   1      30.714  30.801  24.951  1.00  0.00    -0.225 NA
ATOM     81  S   UNL A   1      28.821  31.002  23.141  1.00  0.00    -0.124 S 
ATOM     82  C   UNL A   1      28.350  29.597  22.307  1.00  0.00     0.068 A 
ENDBRANCH  70  74
ENDBRANCH  66  68
ENDBRANCH  65  66
ENDBRANCH  64  65
ENDBRANCH  63  64
ENDBRANCH  62  63
ENDBRANCH  61  62
ENDBRANCH  60  61
ENDBRANCH  59  60
ENDBRANCH   1  59
TORSDOF 21
ENDMDL
