MODEL 1
REMARK VINA RESULT:      -9.6      0.000      0.000
REMARK SMILES O=C(Cc1ccn(-c2ccccc2F)c1)OCCOCCOCCOCCOC(=O)c1ccc(-c2c3nc(c(-c4ccccc4)c4ccc([nH]4)c(-c4ccccc4)c4nc(c(-c5ccccc5)c5ccc2[nH]5)C=C4)C=C3)cc1
REMARK SMILES IDX 22 1 21 2 20 3 19 4 18 5 17 6 16 7 2 8 1 9 3 10 4 11 5 12
REMARK SMILES IDX 15 13 6 14 7 15 8 16 9 17 13 18 10 19 12 20 14 21 11 22
REMARK SMILES IDX 23 23 24 24 25 25 26 26 27 27 28 28 29 29 30 30 31 31 32 32
REMARK SMILES IDX 78 33 33 34 77 35 34 36 35 37 36 38 71 39 37 40 76 41 70 42
REMARK SMILES IDX 72 43 38 44 75 45 69 46 68 47 39 49 61 50 46 51 60 52 47 53
REMARK SMILES IDX 50 54 59 55 73 56 48 57 49 58 58 60 74 61 51 62 40 63 41 64
REMARK SMILES IDX 45 65 42 66 44 67 43 68 62 69 63 70 67 71 64 72 66 73 65 74
REMARK SMILES IDX 52 75 53 76 57 77 54 78 56 79 55 80
REMARK H PARENT 72 48 50 59
REMARK Flexibility Score: inf
ROOT
ATOM      1  O   UNL A   1      32.780  30.186  27.593  1.00  0.00    -0.377 OA
ENDROOT
BRANCH   1   2
ATOM      2  C   UNL A   1      32.565  29.242  26.545  1.00  0.00     0.188 C 
BRANCH   2   3
ATOM      3  C   UNL A   1      33.481  29.483  25.351  1.00  0.00     0.188 C 
BRANCH   3   4
ATOM      4  O   UNL A   1      34.086  28.306  24.838  1.00  0.00    -0.376 OA
BRANCH   4   5
ATOM      5  C   UNL A   1      33.703  27.720  23.606  1.00  0.00     0.202 C 
BRANCH   5   6
ATOM      6  C   UNL A   1      32.804  28.464  22.629  1.00  0.00     0.261 C 
BRANCH   6   7
ATOM      7  O   UNL A   1      31.475  28.863  23.023  1.00  0.00    -0.463 OA
BRANCH   7   8
ATOM      8  C   UNL A   1      30.285  28.235  22.930  1.00  0.00     0.310 C 
ATOM      9  O   UNL A   1      29.564  28.477  21.960  1.00  0.00    -0.252 OA
BRANCH   8  10
ATOM     10  C   UNL A   1      29.799  27.354  24.043  1.00  0.00     0.159 C 
BRANCH  10  11
ATOM     11  C   UNL A   1      30.489  26.045  24.156  1.00  0.00    -0.019 A 
ATOM     12  C   UNL A   1      30.444  24.901  23.320  1.00  0.00     0.024 A 
ATOM     13  C   UNL A   1      31.399  25.754  25.147  1.00  0.00     0.095 A 
ATOM     14  C   UNL A   1      31.343  23.982  23.817  1.00  0.00     0.091 A 
ATOM     15  N   UNL A   1      31.863  24.470  24.997  1.00  0.00    -0.321 N 
BRANCH  15  16
ATOM     16  C   UNL A   1      32.710  23.790  25.899  1.00  0.00     0.081 A 
ATOM     17  C   UNL A   1      34.097  23.813  25.722  1.00  0.00     0.030 A 
ATOM     18  C   UNL A   1      32.160  23.067  26.963  1.00  0.00     0.147 A 
ATOM     19  C   UNL A   1      34.917  23.126  26.620  1.00  0.00     0.002 A 
ATOM     20  C   UNL A   1      32.975  22.366  27.841  1.00  0.00     0.041 A 
ATOM     21  F   UNL A   1      30.834  22.958  27.136  1.00  0.00    -0.205 F 
ATOM     22  C   UNL A   1      34.357  22.398  27.672  1.00  0.00     0.003 A 
ENDBRANCH  15  16
ENDBRANCH  10  11
ENDBRANCH   8  10
ENDBRANCH   7   8
ENDBRANCH   6   7
ENDBRANCH   5   6
ENDBRANCH   4   5
ENDBRANCH   3   4
ENDBRANCH   2   3
ENDBRANCH   1   2
BRANCH   1  23
ATOM     23  C   UNL A   1      34.105  30.688  27.657  1.00  0.00     0.188 C 
BRANCH  23  24
ATOM     24  C   UNL A   1      34.306  32.189  27.989  1.00  0.00     0.188 C 
BRANCH  24  25
ATOM     25  O   UNL A   1      34.124  32.819  29.251  1.00  0.00    -0.376 OA
BRANCH  25  26
ATOM     26  C   UNL A   1      35.141  33.563  29.892  1.00  0.00     0.202 C 
BRANCH  26  27
ATOM     27  C   UNL A   1      35.917  32.863  31.006  1.00  0.00     0.261 C 
BRANCH  27  28
ATOM     28  O   UNL A   1      36.410  31.591  30.615  1.00  0.00    -0.460 OA
BRANCH  28  29
ATOM     29  C   UNL A   1      37.606  31.665  30.013  1.00  0.00     0.338 C 
ATOM     30  O   UNL A   1      38.325  32.653  29.859  1.00  0.00    -0.246 OA
BRANCH  29  31
ATOM     31  C   UNL A   1      37.973  30.367  29.474  1.00  0.00     0.060 A 
ATOM     32  C   UNL A   1      38.495  29.433  30.378  1.00  0.00     0.016 A 
ATOM     33  C   UNL A   1      38.099  30.235  28.089  1.00  0.00     0.016 A 
ATOM     34  C   UNL A   1      39.333  28.457  29.899  1.00  0.00     0.010 A 
ATOM     35  C   UNL A   1      38.981  29.293  27.616  1.00  0.00     0.010 A 
ATOM     36  C   UNL A   1      39.644  28.469  28.537  1.00  0.00    -0.014 A 
BRANCH  36  37
ATOM     37  C   UNL A   1      40.743  27.624  28.072  1.00  0.00     0.031 A 
ATOM     38  C   UNL A   1      42.056  28.367  28.000  1.00  0.00     0.074 A 
ATOM     39  C   UNL A   1      40.395  26.334  27.790  1.00  0.00     0.049 A 
ATOM     40  N   UNL A   1      43.158  28.018  27.421  1.00  0.00    -0.248 NA
ATOM     41  C   UNL A   1      42.166  29.706  28.642  1.00  0.00     0.031 C 
ATOM     42  C   UNL A   1      39.022  25.791  27.923  1.00  0.00     0.029 A 
ATOM     43  N   UNL A   1      41.085  25.232  27.339  1.00  0.00    -0.354 N 
ATOM     44  C   UNL A   1      44.121  28.978  27.764  1.00  0.00     0.074 A 
ATOM     45  C   UNL A   1      43.441  30.036  28.448  1.00  0.00     0.031 C 
ATOM     46  C   UNL A   1      38.969  24.513  27.503  1.00  0.00     0.029 A 
ATOM     47  C   UNL A   1      40.291  24.087  27.093  1.00  0.00     0.049 A 
ATOM     48  H   UNL A   1      42.059  25.239  27.197  1.00  0.00     0.167 HD
ATOM     49  C   UNL A   1      45.453  28.792  27.571  1.00  0.00     0.031 A 
ATOM     50  C   UNL A   1      40.657  22.879  26.572  1.00  0.00     0.031 A 
ATOM     51  C   UNL A   1      45.711  27.610  26.820  1.00  0.00     0.049 A 
ATOM     52  C   UNL A   1      42.124  22.900  26.451  1.00  0.00     0.074 A 
ATOM     53  C   UNL A   1      45.512  27.285  25.503  1.00  0.00     0.029 A 
ATOM     54  N   UNL A   1      45.923  26.454  27.529  1.00  0.00    -0.354 N 
ATOM     55  N   UNL A   1      42.951  22.838  27.450  1.00  0.00    -0.248 NA
ATOM     56  C   UNL A   1      42.733  23.079  25.129  1.00  0.00     0.031 C 
ATOM     57  C   UNL A   1      45.196  25.906  25.523  1.00  0.00     0.029 A 
ATOM     58  C   UNL A   1      45.312  25.434  26.834  1.00  0.00     0.049 A 
ATOM     59  H   UNL A   1      46.418  26.369  28.376  1.00  0.00     0.167 HD
ATOM     60  C   UNL A   1      44.106  23.361  26.920  1.00  0.00     0.074 A 
ATOM     61  C   UNL A   1      44.011  23.192  25.488  1.00  0.00     0.031 C 
ATOM     62  C   UNL A   1      44.781  24.326  27.597  1.00  0.00     0.031 A 
BRANCH  49  63
ATOM     63  C   UNL A   1      46.592  29.526  28.200  1.00  0.00    -0.014 A 
ATOM     64  C   UNL A   1      47.458  30.248  27.355  1.00  0.00     0.009 A 
ATOM     65  C   UNL A   1      47.005  29.307  29.521  1.00  0.00     0.009 A 
ATOM     66  C   UNL A   1      48.715  30.671  27.788  1.00  0.00     0.001 A 
ATOM     67  C   UNL A   1      48.253  29.758  29.967  1.00  0.00     0.001 A 
ATOM     68  C   UNL A   1      49.116  30.415  29.094  1.00  0.00     0.000 A 
ENDBRANCH  49  63
BRANCH  50  69
ATOM     69  C   UNL A   1      39.949  21.645  26.083  1.00  0.00    -0.014 A 
ATOM     70  C   UNL A   1      40.452  20.341  26.128  1.00  0.00     0.009 A 
ATOM     71  C   UNL A   1      38.629  21.773  25.576  1.00  0.00     0.009 A 
ATOM     72  C   UNL A   1      39.659  19.234  25.764  1.00  0.00     0.001 A 
ATOM     73  C   UNL A   1      37.826  20.678  25.244  1.00  0.00     0.001 A 
ATOM     74  C   UNL A   1      38.341  19.399  25.349  1.00  0.00     0.000 A 
ENDBRANCH  50  69
BRANCH  62  75
ATOM     75  C   UNL A   1      44.482  24.378  29.086  1.00  0.00    -0.014 A 
ATOM     76  C   UNL A   1      44.223  25.601  29.721  1.00  0.00     0.009 A 
ATOM     77  C   UNL A   1      44.574  23.238  29.903  1.00  0.00     0.009 A 
ATOM     78  C   UNL A   1      44.083  25.680  31.113  1.00  0.00     0.001 A 
ATOM     79  C   UNL A   1      44.429  23.309  31.294  1.00  0.00     0.001 A 
ATOM     80  C   UNL A   1      44.189  24.535  31.901  1.00  0.00     0.000 A 
ENDBRANCH  62  75
ENDBRANCH  36  37
ENDBRANCH  29  31
ENDBRANCH  28  29
ENDBRANCH  27  28
ENDBRANCH  26  27
ENDBRANCH  25  26
ENDBRANCH  24  25
ENDBRANCH  23  24
ENDBRANCH   1  23
TORSDOF 22
ENDMDL
MODEL 2
REMARK VINA RESULT:      -9.6      3.200      4.868
REMARK SMILES O=C(Cc1ccn(-c2ccccc2F)c1)OCCOCCOCCOCCOC(=O)c1ccc(-c2c3nc(c(-c4ccccc4)c4ccc([nH]4)c(-c4ccccc4)c4nc(c(-c5ccccc5)c5ccc2[nH]5)C=C4)C=C3)cc1
REMARK SMILES IDX 22 1 21 2 20 3 19 4 18 5 17 6 16 7 2 8 1 9 3 10 4 11 5 12
REMARK SMILES IDX 15 13 6 14 7 15 8 16 9 17 13 18 10 19 12 20 14 21 11 22
REMARK SMILES IDX 23 23 24 24 25 25 26 26 27 27 28 28 29 29 30 30 31 31 32 32
REMARK SMILES IDX 78 33 33 34 77 35 34 36 35 37 36 38 71 39 37 40 76 41 70 42
REMARK SMILES IDX 72 43 38 44 75 45 69 46 68 47 39 49 61 50 46 51 60 52 47 53
REMARK SMILES IDX 50 54 59 55 73 56 48 57 49 58 58 60 74 61 51 62 40 63 41 64
REMARK SMILES IDX 45 65 42 66 44 67 43 68 62 69 63 70 67 71 64 72 66 73 65 74
REMARK SMILES IDX 52 75 53 76 57 77 54 78 56 79 55 80
REMARK H PARENT 72 48 50 59
REMARK Flexibility Score: inf
ROOT
ATOM      1  O   UNL A   1      35.024  32.380  27.574  1.00  0.00    -0.377 OA
ENDROOT
BRANCH   1   2
ATOM      2  C   UNL A   1      35.123  30.958  27.518  1.00  0.00     0.188 C 
BRANCH   2   3
ATOM      3  C   UNL A   1      33.758  30.280  27.560  1.00  0.00     0.188 C 
BRANCH   3   4
ATOM      4  O   UNL A   1      33.394  29.634  26.350  1.00  0.00    -0.376 OA
BRANCH   4   5
ATOM      5  C   UNL A   1      32.269  30.022  25.581  1.00  0.00     0.202 C 
BRANCH   5   6
ATOM      6  C   UNL A   1      31.914  29.299  24.289  1.00  0.00     0.261 C 
BRANCH   6   7
ATOM      7  O   UNL A   1      30.533  29.109  23.919  1.00  0.00    -0.463 OA
BRANCH   7   8
ATOM      8  C   UNL A   1      29.943  28.245  23.069  1.00  0.00     0.310 C 
ATOM      9  O   UNL A   1      29.958  28.498  21.863  1.00  0.00    -0.252 OA
BRANCH   8  10
ATOM     10  C   UNL A   1      29.180  27.062  23.592  1.00  0.00     0.159 C 
BRANCH  10  11
ATOM     11  C   UNL A   1      29.969  26.125  24.430  1.00  0.00    -0.019 A 
ATOM     12  C   UNL A   1      30.267  26.151  25.816  1.00  0.00     0.024 A 
ATOM     13  C   UNL A   1      30.523  24.962  23.946  1.00  0.00     0.095 A 
ATOM     14  C   UNL A   1      30.959  24.998  26.118  1.00  0.00     0.091 A 
ATOM     15  N   UNL A   1      31.198  24.309  24.948  1.00  0.00    -0.321 N 
BRANCH  15  16
ATOM     16  C   UNL A   1      31.991  23.153  24.788  1.00  0.00     0.081 A 
ATOM     17  C   UNL A   1      33.177  23.204  24.049  1.00  0.00     0.030 A 
ATOM     18  C   UNL A   1      31.578  21.939  25.351  1.00  0.00     0.147 A 
ATOM     19  C   UNL A   1      33.942  22.046  23.894  1.00  0.00     0.002 A 
ATOM     20  C   UNL A   1      32.328  20.785  25.175  1.00  0.00     0.041 A 
ATOM     21  F   UNL A   1      30.416  21.823  26.010  1.00  0.00    -0.205 F 
ATOM     22  C   UNL A   1      33.515  20.838  24.449  1.00  0.00     0.003 A 
ENDBRANCH  15  16
ENDBRANCH  10  11
ENDBRANCH   8  10
ENDBRANCH   7   8
ENDBRANCH   6   7
ENDBRANCH   5   6
ENDBRANCH   4   5
ENDBRANCH   3   4
ENDBRANCH   2   3
ENDBRANCH   1   2
BRANCH   1  23
ATOM     23  C   UNL A   1      33.720  32.858  27.860  1.00  0.00     0.188 C 
BRANCH  23  24
ATOM     24  C   UNL A   1      33.580  34.245  28.538  1.00  0.00     0.188 C 
BRANCH  24  25
ATOM     25  O   UNL A   1      32.842  34.553  29.715  1.00  0.00    -0.376 OA
BRANCH  25  26
ATOM     26  C   UNL A   1      33.196  35.604  30.591  1.00  0.00     0.202 C 
BRANCH  26  27
ATOM     27  C   UNL A   1      33.676  35.212  31.987  1.00  0.00     0.261 C 
BRANCH  27  28
ATOM     28  O   UNL A   1      33.723  33.807  32.177  1.00  0.00    -0.460 OA
BRANCH  28  29
ATOM     29  C   UNL A   1      34.650  33.439  33.074  1.00  0.00     0.338 C 
ATOM     30  O   UNL A   1      34.830  33.876  34.211  1.00  0.00    -0.246 OA
BRANCH  29  31
ATOM     31  C   UNL A   1      35.523  32.428  32.501  1.00  0.00     0.060 A 
ATOM     32  C   UNL A   1      36.454  31.837  33.363  1.00  0.00     0.016 A 
ATOM     33  C   UNL A   1      35.615  32.342  31.110  1.00  0.00     0.016 A 
ATOM     34  C   UNL A   1      37.609  31.323  32.826  1.00  0.00     0.010 A 
ATOM     35  C   UNL A   1      36.794  31.879  30.576  1.00  0.00     0.010 A 
ATOM     36  C   UNL A   1      37.804  31.449  31.448  1.00  0.00    -0.014 A 
BRANCH  36  37
ATOM     37  C   UNL A   1      39.135  31.169  30.911  1.00  0.00     0.031 A 
ATOM     38  C   UNL A   1      40.040  32.378  30.944  1.00  0.00     0.074 A 
ATOM     39  C   UNL A   1      39.323  29.886  30.482  1.00  0.00     0.049 A 
ATOM     40  N   UNL A   1      41.172  32.564  30.348  1.00  0.00    -0.248 NA
ATOM     41  C   UNL A   1      39.625  33.571  31.732  1.00  0.00     0.031 C 
ATOM     42  C   UNL A   1      38.284  28.829  30.531  1.00  0.00     0.029 A 
ATOM     43  N   UNL A   1      40.381  29.207  29.923  1.00  0.00    -0.354 N 
ATOM     44  C   UNL A   1      41.682  33.785  30.812  1.00  0.00     0.074 A 
ATOM     45  C   UNL A   1      40.657  34.402  31.598  1.00  0.00     0.031 C 
ATOM     46  C   UNL A   1      38.733  27.690  29.971  1.00  0.00     0.029 A 
ATOM     47  C   UNL A   1      40.103  27.875  29.539  1.00  0.00     0.049 A 
ATOM     48  H   UNL A   1      41.267  29.619  29.800  1.00  0.00     0.167 HD
ATOM     49  C   UNL A   1      42.972  34.169  30.622  1.00  0.00     0.031 A 
ATOM     50  C   UNL A   1      40.906  26.978  28.893  1.00  0.00     0.031 A 
ATOM     51  C   UNL A   1      43.657  33.277  29.750  1.00  0.00     0.049 A 
ATOM     52  C   UNL A   1      42.239  27.596  28.800  1.00  0.00     0.074 A 
ATOM     53  C   UNL A   1      43.567  33.044  28.401  1.00  0.00     0.029 A 
ATOM     54  N   UNL A   1      44.333  32.233  30.330  1.00  0.00    -0.354 N 
ATOM     55  N   UNL A   1      43.050  27.762  29.800  1.00  0.00    -0.248 NA
ATOM     56  C   UNL A   1      42.687  28.145  27.517  1.00  0.00     0.031 C 
ATOM     57  C   UNL A   1      43.828  31.661  28.264  1.00  0.00     0.029 A 
ATOM     58  C   UNL A   1      44.161  31.136  29.515  1.00  0.00     0.049 A 
ATOM     59  H   UNL A   1      44.845  32.261  31.170  1.00  0.00     0.167 HD
ATOM     60  C   UNL A   1      43.884  28.757  29.351  1.00  0.00     0.074 A 
ATOM     61  C   UNL A   1      43.824  28.720  27.907  1.00  0.00     0.031 C 
ATOM     62  C   UNL A   1      44.138  29.832  30.142  1.00  0.00     0.031 A 
BRANCH  49  63
ATOM     63  C   UNL A   1      43.740  35.224  31.348  1.00  0.00    -0.014 A 
ATOM     64  C   UNL A   1      43.877  35.096  32.745  1.00  0.00     0.009 A 
ATOM     65  C   UNL A   1      44.080  36.455  30.771  1.00  0.00     0.009 A 
ATOM     66  C   UNL A   1      44.266  36.174  33.541  1.00  0.00     0.001 A 
ATOM     67  C   UNL A   1      44.503  37.527  31.565  1.00  0.00     0.001 A 
ATOM     68  C   UNL A   1      44.569  37.394  32.950  1.00  0.00     0.000 A 
ENDBRANCH  49  63
BRANCH  50  69
ATOM     69  C   UNL A   1      40.735  25.625  28.259  1.00  0.00    -0.014 A 
ATOM     70  C   UNL A   1      41.571  24.520  28.448  1.00  0.00     0.009 A 
ATOM     71  C   UNL A   1      39.603  25.398  27.433  1.00  0.00     0.009 A 
ATOM     72  C   UNL A   1      41.254  23.257  27.911  1.00  0.00     0.001 A 
ATOM     73  C   UNL A   1      39.265  24.141  26.923  1.00  0.00     0.001 A 
ATOM     74  C   UNL A   1      40.090  23.061  27.174  1.00  0.00     0.000 A 
ENDBRANCH  50  69
BRANCH  62  75
ATOM     75  C   UNL A   1      43.886  29.599  31.623  1.00  0.00    -0.014 A 
ATOM     76  C   UNL A   1      42.699  30.042  32.224  1.00  0.00     0.009 A 
ATOM     77  C   UNL A   1      44.868  29.050  32.466  1.00  0.00     0.009 A 
ATOM     78  C   UNL A   1      42.514  29.958  33.611  1.00  0.00     0.001 A 
ATOM     79  C   UNL A   1      44.686  28.957  33.851  1.00  0.00     0.001 A 
ATOM     80  C   UNL A   1      43.508  29.419  34.426  1.00  0.00     0.000 A 
ENDBRANCH  62  75
ENDBRANCH  36  37
ENDBRANCH  29  31
ENDBRANCH  28  29
ENDBRANCH  27  28
ENDBRANCH  26  27
ENDBRANCH  25  26
ENDBRANCH  24  25
ENDBRANCH  23  24
ENDBRANCH   1  23
TORSDOF 22
ENDMDL
MODEL 3
REMARK VINA RESULT:      -9.6      4.242      9.222
REMARK SMILES O=C(Cc1ccn(-c2ccccc2F)c1)OCCOCCOCCOCCOC(=O)c1ccc(-c2c3nc(c(-c4ccccc4)c4ccc([nH]4)c(-c4ccccc4)c4nc(c(-c5ccccc5)c5ccc2[nH]5)C=C4)C=C3)cc1
REMARK SMILES IDX 22 1 21 2 20 3 19 4 18 5 17 6 16 7 2 8 1 9 3 10 4 11 5 12
REMARK SMILES IDX 15 13 6 14 7 15 8 16 9 17 13 18 10 19 12 20 14 21 11 22
REMARK SMILES IDX 23 23 24 24 25 25 26 26 27 27 28 28 29 29 30 30 31 31 32 32
REMARK SMILES IDX 78 33 33 34 77 35 34 36 35 37 36 38 71 39 37 40 76 41 70 42
REMARK SMILES IDX 72 43 38 44 75 45 69 46 68 47 39 49 61 50 46 51 60 52 47 53
REMARK SMILES IDX 50 54 59 55 73 56 48 57 49 58 58 60 74 61 51 62 40 63 41 64
REMARK SMILES IDX 45 65 42 66 44 67 43 68 62 69 63 70 67 71 64 72 66 73 65 74
REMARK SMILES IDX 52 75 53 76 57 77 54 78 56 79 55 80
REMARK H PARENT 72 48 50 59
REMARK Flexibility Score: inf
ROOT
ATOM      1  O   UNL A   1      38.289  21.027  25.097  1.00  0.00    -0.377 OA
ENDROOT
BRANCH   1   2
ATOM      2  C   UNL A   1      36.973  21.404  24.697  1.00  0.00     0.188 C 
BRANCH   2   3
ATOM      3  C   UNL A   1      36.024  21.544  25.882  1.00  0.00     0.188 C 
BRANCH   3   4
ATOM      4  O   UNL A   1      34.772  20.900  25.702  1.00  0.00    -0.376 OA
BRANCH   4   5
ATOM      5  C   UNL A   1      33.982  21.071  24.539  1.00  0.00     0.202 C 
BRANCH   5   6
ATOM      6  C   UNL A   1      33.014  22.240  24.412  1.00  0.00     0.261 C 
BRANCH   6   7
ATOM      7  O   UNL A   1      32.277  22.701  25.563  1.00  0.00    -0.463 OA
BRANCH   7   8
ATOM      8  C   UNL A   1      32.503  23.712  26.426  1.00  0.00     0.310 C 
ATOM      9  O   UNL A   1      31.788  23.807  27.425  1.00  0.00    -0.252 OA
BRANCH   8  10
ATOM     10  C   UNL A   1      33.523  24.769  26.113  1.00  0.00     0.159 C 
BRANCH  10  11
ATOM     11  C   UNL A   1      33.087  25.792  25.130  1.00  0.00    -0.019 A 
ATOM     12  C   UNL A   1      33.804  26.446  24.096  1.00  0.00     0.024 A 
ATOM     13  C   UNL A   1      31.791  26.246  25.037  1.00  0.00     0.095 A 
ATOM     14  C   UNL A   1      32.914  27.241  23.407  1.00  0.00     0.091 A 
ATOM     15  N   UNL A   1      31.694  27.190  24.045  1.00  0.00    -0.321 N 
BRANCH  15  16
ATOM     16  C   UNL A   1      30.548  27.961  23.752  1.00  0.00     0.081 A 
ATOM     17  C   UNL A   1      29.383  27.348  23.281  1.00  0.00     0.030 A 
ATOM     18  C   UNL A   1      30.583  29.352  23.910  1.00  0.00     0.147 A 
ATOM     19  C   UNL A   1      28.263  28.130  22.988  1.00  0.00     0.002 A 
ATOM     20  C   UNL A   1      29.477  30.129  23.595  1.00  0.00     0.041 A 
ATOM     21  F   UNL A   1      31.696  29.993  24.293  1.00  0.00    -0.205 F 
ATOM     22  C   UNL A   1      28.312  29.517  23.137  1.00  0.00     0.003 A 
ENDBRANCH  15  16
ENDBRANCH  10  11
ENDBRANCH   8  10
ENDBRANCH   7   8
ENDBRANCH   6   7
ENDBRANCH   5   6
ENDBRANCH   4   5
ENDBRANCH   3   4
ENDBRANCH   2   3
ENDBRANCH   1   2
BRANCH   1  23
ATOM     23  C   UNL A   1      38.842  21.848  26.114  1.00  0.00     0.188 C 
BRANCH  23  24
ATOM     24  C   UNL A   1      40.364  21.748  26.390  1.00  0.00     0.188 C 
BRANCH  24  25
ATOM     25  O   UNL A   1      41.419  21.914  25.449  1.00  0.00    -0.376 OA
BRANCH  25  26
ATOM     26  C   UNL A   1      42.668  22.482  25.788  1.00  0.00     0.202 C 
BRANCH  26  27
ATOM     27  C   UNL A   1      42.778  24.004  25.728  1.00  0.00     0.261 C 
BRANCH  27  28
ATOM     28  O   UNL A   1      43.276  24.566  26.932  1.00  0.00    -0.460 OA
BRANCH  28  29
ATOM     29  C   UNL A   1      42.420  24.432  27.955  1.00  0.00     0.338 C 
ATOM     30  O   UNL A   1      42.347  23.519  28.778  1.00  0.00    -0.246 OA
BRANCH  29  31
ATOM     31  C   UNL A   1      41.479  25.539  27.964  1.00  0.00     0.060 A 
ATOM     32  C   UNL A   1      42.014  26.824  27.817  1.00  0.00     0.016 A 
ATOM     33  C   UNL A   1      40.184  25.306  28.434  1.00  0.00     0.016 A 
ATOM     34  C   UNL A   1      41.320  27.886  28.341  1.00  0.00     0.010 A 
ATOM     35  C   UNL A   1      39.515  26.360  29.009  1.00  0.00     0.010 A 
ATOM     36  C   UNL A   1      40.129  27.620  29.022  1.00  0.00    -0.014 A 
BRANCH  36  37
ATOM     37  C   UNL A   1      39.536  28.692  29.821  1.00  0.00     0.031 A 
ATOM     38  C   UNL A   1      40.231  28.878  31.149  1.00  0.00     0.074 A 
ATOM     39  C   UNL A   1      38.476  29.325  29.236  1.00  0.00     0.049 A 
ATOM     40  N   UNL A   1      39.841  29.547  32.184  1.00  0.00    -0.248 NA
ATOM     41  C   UNL A   1      41.540  28.208  31.381  1.00  0.00     0.031 C 
ATOM     42  C   UNL A   1      37.932  28.981  27.900  1.00  0.00     0.029 A 
ATOM     43  N   UNL A   1      37.645  30.353  29.616  1.00  0.00    -0.354 N 
ATOM     44  C   UNL A   1      40.900  29.530  33.103  1.00  0.00     0.074 A 
ATOM     45  C   UNL A   1      41.889  28.628  32.595  1.00  0.00     0.031 C 
ATOM     46  C   UNL A   1      36.844  29.723  27.620  1.00  0.00     0.029 A 
ATOM     47  C   UNL A   1      36.593  30.638  28.714  1.00  0.00     0.049 A 
ATOM     48  H   UNL A   1      37.773  30.854  30.453  1.00  0.00     0.167 HD
ATOM     49  C   UNL A   1      40.961  30.359  34.179  1.00  0.00     0.031 A 
ATOM     50  C   UNL A   1      35.568  31.532  28.839  1.00  0.00     0.031 A 
ATOM     51  C   UNL A   1      39.748  31.084  34.345  1.00  0.00     0.049 A 
ATOM     52  C   UNL A   1      35.837  32.314  30.057  1.00  0.00     0.074 A 
ATOM     53  C   UNL A   1      38.490  30.713  34.748  1.00  0.00     0.029 A 
ATOM     54  N   UNL A   1      39.667  32.314  33.739  1.00  0.00    -0.354 N 
ATOM     55  N   UNL A   1      36.771  33.209  30.172  1.00  0.00    -0.248 NA
ATOM     56  C   UNL A   1      35.066  32.037  31.273  1.00  0.00     0.031 C 
ATOM     57  C   UNL A   1      37.621  31.542  34.002  1.00  0.00     0.029 A 
ATOM     58  C   UNL A   1      38.384  32.444  33.256  1.00  0.00     0.049 A 
ATOM     59  H   UNL A   1      40.390  32.978  33.664  1.00  0.00     0.167 HD
ATOM     60  C   UNL A   1      36.945  33.292  31.533  1.00  0.00     0.074 A 
ATOM     61  C   UNL A   1      35.715  32.824  32.131  1.00  0.00     0.031 C 
ATOM     62  C   UNL A   1      38.196  33.232  32.057  1.00  0.00     0.031 A 
BRANCH  49  63
ATOM     63  C   UNL A   1      42.151  30.714  35.008  1.00  0.00    -0.014 A 
ATOM     64  C   UNL A   1      42.673  29.727  35.869  1.00  0.00     0.009 A 
ATOM     65  C   UNL A   1      42.590  32.033  35.188  1.00  0.00     0.009 A 
ATOM     66  C   UNL A   1      43.541  30.055  36.911  1.00  0.00     0.001 A 
ATOM     67  C   UNL A   1      43.486  32.357  36.213  1.00  0.00     0.001 A 
ATOM     68  C   UNL A   1      43.939  31.374  37.089  1.00  0.00     0.000 A 
ENDBRANCH  49  63
BRANCH  50  69
ATOM     69  C   UNL A   1      34.296  31.840  28.098  1.00  0.00    -0.014 A 
ATOM     70  C   UNL A   1      33.502  30.913  27.415  1.00  0.00     0.009 A 
ATOM     71  C   UNL A   1      33.799  33.169  28.121  1.00  0.00     0.009 A 
ATOM     72  C   UNL A   1      32.258  31.277  26.861  1.00  0.00     0.001 A 
ATOM     73  C   UNL A   1      32.552  33.531  27.602  1.00  0.00     0.001 A 
ATOM     74  C   UNL A   1      31.772  32.576  26.978  1.00  0.00     0.000 A 
ENDBRANCH  50  69
BRANCH  62  75
ATOM     75  C   UNL A   1      39.307  33.581  31.080  1.00  0.00    -0.014 A 
ATOM     76  C   UNL A   1      40.456  32.782  30.988  1.00  0.00     0.009 A 
ATOM     77  C   UNL A   1      39.290  34.769  30.328  1.00  0.00     0.009 A 
ATOM     78  C   UNL A   1      41.545  33.167  30.194  1.00  0.00     0.001 A 
ATOM     79  C   UNL A   1      40.372  35.156  29.529  1.00  0.00     0.001 A 
ATOM     80  C   UNL A   1      41.505  34.355  29.467  1.00  0.00     0.000 A 
ENDBRANCH  62  75
ENDBRANCH  36  37
ENDBRANCH  29  31
ENDBRANCH  28  29
ENDBRANCH  27  28
ENDBRANCH  26  27
ENDBRANCH  25  26
ENDBRANCH  24  25
ENDBRANCH  23  24
ENDBRANCH   1  23
TORSDOF 22
ENDMDL
