MODEL 1
REMARK VINA RESULT:     -10.4      0.000      0.000
REMARK SMILES Cc1cc(F)c([C@@H](C)[N@@H+]2C[C@H](C)[C@H](C(=O)OCCOCCOCCOCCOC(=O)c3ccc(-c4c5nc(c(-c6ccccc6)c6ccc([nH]6)c(-c6ccccc6)c6nc(c(-c7ccccc7)c7ccc4[nH]7)C=C6)C=C5)cc3)C2)cc1F
REMARK SMILES IDX 22 1 21 2 20 3 19 4 18 5 17 6 16 7 14 8 15 9 13 10 9 11
REMARK SMILES IDX 10 12 79 13 11 15 12 16 7 17 8 18 6 19 1 20 2 21 3 22 81 23
REMARK SMILES IDX 4 24 80 25 82 26 5 27 23 28 24 29 25 30 26 31 27 32 28 33
REMARK SMILES IDX 29 34 30 35 31 36 32 37 78 38 33 39 77 40 34 41 35 42 36 43
REMARK SMILES IDX 71 44 37 45 76 46 70 47 72 48 38 49 75 50 69 51 68 52 39 54
REMARK SMILES IDX 61 55 46 56 60 57 47 58 50 59 59 60 73 61 48 62 49 63 58 65
REMARK SMILES IDX 74 66 51 67 40 68 41 69 45 70 42 71 44 72 43 73 62 74 63 75
REMARK SMILES IDX 67 76 64 77 66 78 65 79 52 80 53 81 57 82 54 83 56 84 55 85
REMARK H PARENT 9 14 72 53 50 64
REMARK Flexibility Score: inf
ROOT
ATOM      1  O   UNL A   1      33.252  35.909  29.684  1.00  0.00    -0.377 OA
ENDROOT
BRANCH   1   2
ATOM      2  C   UNL A   1      33.305  34.574  29.204  1.00  0.00     0.188 C 
BRANCH   2   3
ATOM      3  C   UNL A   1      33.780  34.293  27.771  1.00  0.00     0.188 C 
BRANCH   3   4
ATOM      4  O   UNL A   1      34.718  33.233  27.647  1.00  0.00    -0.376 OA
BRANCH   4   5
ATOM      5  C   UNL A   1      34.339  32.013  28.273  1.00  0.00     0.202 C 
BRANCH   5   6
ATOM      6  C   UNL A   1      34.343  30.777  27.363  1.00  0.00     0.261 C 
BRANCH   6   7
ATOM      7  O   UNL A   1      33.442  29.727  27.756  1.00  0.00    -0.463 OA
BRANCH   7   8
ATOM      8  C   UNL A   1      32.519  29.347  26.855  1.00  0.00     0.315 C 
ATOM      9  O   UNL A   1      31.441  28.848  27.171  1.00  0.00    -0.252 OA
BRANCH   8  10
ATOM     10  C   UNL A   1      32.886  29.607  25.403  1.00  0.00     0.162 C 
ATOM     11  N   UNL A   1      31.702  29.319  23.320  1.00  0.00    -0.328 N 
ATOM     12  C   UNL A   1      33.100  28.988  23.084  1.00  0.00     0.267 C 
ATOM     13  C   UNL A   1      31.588  29.900  24.652  1.00  0.00     0.278 C 
ATOM     14  H   UNL A   1      31.423  30.035  22.648  1.00  0.00     0.348 HD
ATOM     15  C   UNL A   1      33.729  28.720  24.461  1.00  0.00     0.061 C 
ATOM     16  C   UNL A   1      33.921  27.226  24.707  1.00  0.00     0.015 C 
BRANCH  11  17
ATOM     17  C   UNL A   1      30.686  28.343  22.897  1.00  0.00     0.215 C 
ATOM     18  C   UNL A   1      29.253  28.860  23.099  1.00  0.00     0.081 C 
BRANCH  17  19
ATOM     19  C   UNL A   1      30.853  26.919  23.405  1.00  0.00     0.048 A 
ATOM     20  C   UNL A   1      30.940  22.847  24.885  1.00  0.00     0.047 C 
ATOM     21  C   UNL A   1      30.967  24.261  24.398  1.00  0.00    -0.012 A 
ATOM     22  C   UNL A   1      31.440  24.564  23.117  1.00  0.00     0.046 A 
ATOM     23  C   UNL A   1      30.466  25.298  25.183  1.00  0.00     0.126 A 
ATOM     24  C   UNL A   1      31.389  25.877  22.639  1.00  0.00     0.132 A 
ATOM     25  C   UNL A   1      30.415  26.607  24.706  1.00  0.00     0.052 A 
ATOM     26  F   UNL A   1      29.991  25.042  26.410  1.00  0.00    -0.207 F 
ATOM     27  F   UNL A   1      31.840  26.098  21.398  1.00  0.00    -0.206 F 
ENDBRANCH  17  19
ENDBRANCH  11  17
ENDBRANCH   8  10
ENDBRANCH   7   8
ENDBRANCH   6   7
ENDBRANCH   5   6
ENDBRANCH   4   5
ENDBRANCH   3   4
ENDBRANCH   2   3
ENDBRANCH   1   2
BRANCH   1  28
ATOM     28  C   UNL A   1      32.818  36.160  31.014  1.00  0.00     0.188 C 
BRANCH  28  29
ATOM     29  C   UNL A   1      33.813  36.761  32.020  1.00  0.00     0.188 C 
BRANCH  29  30
ATOM     30  O   UNL A   1      34.100  35.924  33.131  1.00  0.00    -0.376 OA
BRANCH  30  31
ATOM     31  C   UNL A   1      33.901  34.528  32.944  1.00  0.00     0.202 C 
BRANCH  31  32
ATOM     32  C   UNL A   1      35.014  33.764  32.214  1.00  0.00     0.261 C 
BRANCH  32  33
ATOM     33  O   UNL A   1      35.346  32.463  32.730  1.00  0.00    -0.460 OA
BRANCH  33  34
ATOM     34  C   UNL A   1      36.489  32.313  33.432  1.00  0.00     0.338 C 
ATOM     35  O   UNL A   1      36.674  32.556  34.612  1.00  0.00    -0.246 OA
BRANCH  34  36
ATOM     36  C   UNL A   1      37.446  31.605  32.554  1.00  0.00     0.060 A 
ATOM     37  C   UNL A   1      37.274  31.619  31.167  1.00  0.00     0.016 A 
ATOM     38  C   UNL A   1      38.498  30.882  33.129  1.00  0.00     0.016 A 
ATOM     39  C   UNL A   1      38.178  30.933  30.352  1.00  0.00     0.010 A 
ATOM     40  C   UNL A   1      39.391  30.181  32.313  1.00  0.00     0.010 A 
ATOM     41  C   UNL A   1      39.253  30.224  30.917  1.00  0.00    -0.014 A 
BRANCH  41  42
ATOM     42  C   UNL A   1      40.349  29.721  30.052  1.00  0.00     0.031 A 
ATOM     43  C   UNL A   1      40.335  28.356  29.434  1.00  0.00     0.074 A 
ATOM     44  C   UNL A   1      41.400  30.539  29.847  1.00  0.00     0.049 A 
ATOM     45  N   UNL A   1      41.173  27.850  28.564  1.00  0.00    -0.248 NA
ATOM     46  C   UNL A   1      39.252  27.444  29.827  1.00  0.00     0.031 C 
ATOM     47  C   UNL A   1      41.537  31.882  30.414  1.00  0.00     0.029 A 
ATOM     48  N   UNL A   1      42.548  30.364  29.116  1.00  0.00    -0.354 N 
ATOM     49  C   UNL A   1      40.687  26.588  28.254  1.00  0.00     0.074 A 
ATOM     50  C   UNL A   1      39.520  26.373  29.084  1.00  0.00     0.031 C 
ATOM     51  C   UNL A   1      42.698  32.413  30.004  1.00  0.00     0.029 A 
ATOM     52  C   UNL A   1      43.398  31.442  29.168  1.00  0.00     0.049 A 
ATOM     53  H   UNL A   1      42.743  29.548  28.603  1.00  0.00     0.167 HD
ATOM     54  C   UNL A   1      41.162  25.708  27.341  1.00  0.00     0.031 A 
ATOM     55  C   UNL A   1      44.609  31.632  28.611  1.00  0.00     0.031 A 
ATOM     56  C   UNL A   1      42.373  25.895  26.581  1.00  0.00     0.049 A 
ATOM     57  C   UNL A   1      45.191  30.561  27.732  1.00  0.00     0.074 A 
ATOM     58  C   UNL A   1      42.912  25.062  25.616  1.00  0.00     0.029 A 
ATOM     59  N   UNL A   1      43.248  26.957  26.729  1.00  0.00    -0.354 N 
ATOM     60  N   UNL A   1      44.647  29.435  27.339  1.00  0.00    -0.248 NA
ATOM     61  C   UNL A   1      46.546  30.790  27.209  1.00  0.00     0.031 C 
ATOM     62  C   UNL A   1      44.157  25.573  25.246  1.00  0.00     0.029 A 
ATOM     63  C   UNL A   1      44.357  26.766  25.922  1.00  0.00     0.049 A 
ATOM     64  H   UNL A   1      43.104  27.733  27.318  1.00  0.00     0.167 HD
ATOM     65  C   UNL A   1      45.580  28.835  26.504  1.00  0.00     0.074 A 
ATOM     66  C   UNL A   1      46.719  29.726  26.435  1.00  0.00     0.031 C 
ATOM     67  C   UNL A   1      45.492  27.650  25.854  1.00  0.00     0.031 A 
BRANCH  54  68
ATOM     68  C   UNL A   1      40.379  24.454  27.067  1.00  0.00    -0.014 A 
ATOM     69  C   UNL A   1      41.014  23.202  27.099  1.00  0.00     0.009 A 
ATOM     70  C   UNL A   1      39.065  24.538  26.582  1.00  0.00     0.009 A 
ATOM     71  C   UNL A   1      40.359  22.065  26.621  1.00  0.00     0.001 A 
ATOM     72  C   UNL A   1      38.405  23.395  26.123  1.00  0.00     0.001 A 
ATOM     73  C   UNL A   1      39.058  22.162  26.130  1.00  0.00     0.000 A 
ENDBRANCH  54  68
BRANCH  55  74
ATOM     74  C   UNL A   1      45.339  32.902  28.861  1.00  0.00    -0.014 A 
ATOM     75  C   UNL A   1      46.180  33.036  29.978  1.00  0.00     0.009 A 
ATOM     76  C   UNL A   1      45.175  33.999  28.002  1.00  0.00     0.009 A 
ATOM     77  C   UNL A   1      46.824  34.247  30.242  1.00  0.00     0.001 A 
ATOM     78  C   UNL A   1      45.848  35.198  28.249  1.00  0.00     0.001 A 
ATOM     79  C   UNL A   1      46.664  35.323  29.373  1.00  0.00     0.000 A 
ENDBRANCH  55  74
BRANCH  67  80
ATOM     80  C   UNL A   1      46.652  27.219  25.000  1.00  0.00    -0.014 A 
ATOM     81  C   UNL A   1      47.608  26.330  25.518  1.00  0.00     0.009 A 
ATOM     82  C   UNL A   1      46.867  27.790  23.737  1.00  0.00     0.009 A 
ATOM     83  C   UNL A   1      48.772  26.045  24.802  1.00  0.00     0.001 A 
ATOM     84  C   UNL A   1      48.018  27.479  23.010  1.00  0.00     0.001 A 
ATOM     85  C   UNL A   1      48.975  26.620  23.548  1.00  0.00     0.000 A 
ENDBRANCH  67  80
ENDBRANCH  41  42
ENDBRANCH  34  36
ENDBRANCH  33  34
ENDBRANCH  32  33
ENDBRANCH  31  32
ENDBRANCH  30  31
ENDBRANCH  29  30
ENDBRANCH  28  29
ENDBRANCH   1  28
TORSDOF 22
ENDMDL
MODEL 2
REMARK VINA RESULT:     -10.4      4.287      7.219
REMARK SMILES Cc1cc(F)c([C@@H](C)[N@@H+]2C[C@H](C)[C@H](C(=O)OCCOCCOCCOCCOC(=O)c3ccc(-c4c5nc(c(-c6ccccc6)c6ccc([nH]6)c(-c6ccccc6)c6nc(c(-c7ccccc7)c7ccc4[nH]7)C=C6)C=C5)cc3)C2)cc1F
REMARK SMILES IDX 22 1 21 2 20 3 19 4 18 5 17 6 16 7 14 8 15 9 13 10 9 11
REMARK SMILES IDX 10 12 79 13 11 15 12 16 7 17 8 18 6 19 1 20 2 21 3 22 81 23
REMARK SMILES IDX 4 24 80 25 82 26 5 27 23 28 24 29 25 30 26 31 27 32 28 33
REMARK SMILES IDX 29 34 30 35 31 36 32 37 78 38 33 39 77 40 34 41 35 42 36 43
REMARK SMILES IDX 71 44 37 45 76 46 70 47 72 48 38 49 75 50 69 51 68 52 39 54
REMARK SMILES IDX 61 55 46 56 60 57 47 58 50 59 59 60 73 61 48 62 49 63 58 65
REMARK SMILES IDX 74 66 51 67 40 68 41 69 45 70 42 71 44 72 43 73 62 74 63 75
REMARK SMILES IDX 67 76 64 77 66 78 65 79 52 80 53 81 57 82 54 83 56 84 55 85
REMARK H PARENT 9 14 72 53 50 64
REMARK Flexibility Score: inf
ROOT
ATOM      1  O   UNL A   1      34.798  31.781  27.504  1.00  0.00    -0.377 OA
ENDROOT
BRANCH   1   2
ATOM      2  C   UNL A   1      34.673  30.374  27.645  1.00  0.00     0.188 C 
BRANCH   2   3
ATOM      3  C   UNL A   1      33.612  29.614  26.837  1.00  0.00     0.188 C 
BRANCH   3   4
ATOM      4  O   UNL A   1      32.694  30.436  26.129  1.00  0.00    -0.376 OA
BRANCH   4   5
ATOM      5  C   UNL A   1      31.479  29.801  25.752  1.00  0.00     0.202 C 
BRANCH   5   6
ATOM      6  C   UNL A   1      31.405  29.335  24.291  1.00  0.00     0.261 C 
BRANCH   6   7
ATOM      7  O   UNL A   1      30.816  28.038  24.094  1.00  0.00    -0.463 OA
BRANCH   7   8
ATOM      8  C   UNL A   1      30.525  27.687  22.829  1.00  0.00     0.315 C 
ATOM      9  O   UNL A   1      29.904  28.415  22.058  1.00  0.00    -0.252 OA
BRANCH   8  10
ATOM     10  C   UNL A   1      31.048  26.326  22.398  1.00  0.00     0.162 C 
ATOM     11  N   UNL A   1      31.957  24.445  23.607  1.00  0.00    -0.328 N 
ATOM     12  C   UNL A   1      32.681  24.555  22.348  1.00  0.00     0.267 C 
ATOM     13  C   UNL A   1      30.828  25.365  23.566  1.00  0.00     0.278 C 
ATOM     14  H   UNL A   1      31.581  23.499  23.679  1.00  0.00     0.348 HD
ATOM     15  C   UNL A   1      32.437  25.978  21.820  1.00  0.00     0.061 C 
ATOM     16  C   UNL A   1      33.655  26.872  22.039  1.00  0.00     0.015 C 
BRANCH  11  17
ATOM     17  C   UNL A   1      32.745  24.365  24.845  1.00  0.00     0.215 C 
ATOM     18  C   UNL A   1      32.988  25.743  25.480  1.00  0.00     0.081 C 
BRANCH  17  19
ATOM     19  C   UNL A   1      34.017  23.532  24.793  1.00  0.00     0.048 A 
ATOM     20  C   UNL A   1      37.699  21.258  25.019  1.00  0.00     0.047 C 
ATOM     21  C   UNL A   1      36.438  22.051  24.880  1.00  0.00    -0.012 A 
ATOM     22  C   UNL A   1      35.220  21.412  24.623  1.00  0.00     0.046 A 
ATOM     23  C   UNL A   1      36.437  23.432  25.064  1.00  0.00     0.126 A 
ATOM     24  C   UNL A   1      34.034  22.149  24.572  1.00  0.00     0.132 A 
ATOM     25  C   UNL A   1      35.254  24.167  25.014  1.00  0.00     0.052 A 
ATOM     26  F   UNL A   1      37.583  24.075  25.327  1.00  0.00    -0.207 F 
ATOM     27  F   UNL A   1      32.900  21.477  24.340  1.00  0.00    -0.206 F 
ENDBRANCH  17  19
ENDBRANCH  11  17
ENDBRANCH   8  10
ENDBRANCH   7   8
ENDBRANCH   6   7
ENDBRANCH   5   6
ENDBRANCH   4   5
ENDBRANCH   3   4
ENDBRANCH   2   3
ENDBRANCH   1   2
BRANCH   1  28
ATOM     28  C   UNL A   1      35.610  32.509  28.415  1.00  0.00     0.188 C 
BRANCH  28  29
ATOM     29  C   UNL A   1      34.931  33.333  29.522  1.00  0.00     0.188 C 
BRANCH  29  30
ATOM     30  O   UNL A   1      33.675  33.882  29.155  1.00  0.00    -0.376 OA
BRANCH  30  31
ATOM     31  C   UNL A   1      33.645  35.276  28.875  1.00  0.00     0.202 C 
BRANCH  31  32
ATOM     32  C   UNL A   1      32.676  36.127  29.709  1.00  0.00     0.261 C 
BRANCH  32  33
ATOM     33  O   UNL A   1      33.099  36.462  31.042  1.00  0.00    -0.460 OA
BRANCH  33  34
ATOM     34  C   UNL A   1      32.716  35.671  32.066  1.00  0.00     0.338 C 
ATOM     35  O   UNL A   1      31.580  35.445  32.445  1.00  0.00    -0.246 OA
BRANCH  34  36
ATOM     36  C   UNL A   1      33.923  34.959  32.537  1.00  0.00     0.060 A 
ATOM     37  C   UNL A   1      33.806  33.729  33.191  1.00  0.00     0.016 A 
ATOM     38  C   UNL A   1      35.180  35.551  32.364  1.00  0.00     0.016 A 
ATOM     39  C   UNL A   1      34.956  33.076  33.644  1.00  0.00     0.010 A 
ATOM     40  C   UNL A   1      36.327  34.904  32.834  1.00  0.00     0.010 A 
ATOM     41  C   UNL A   1      36.225  33.649  33.453  1.00  0.00    -0.014 A 
BRANCH  41  42
ATOM     42  C   UNL A   1      37.449  32.845  33.694  1.00  0.00     0.031 A 
ATOM     43  C   UNL A   1      37.884  31.736  32.787  1.00  0.00     0.074 A 
ATOM     44  C   UNL A   1      38.172  33.133  34.795  1.00  0.00     0.049 A 
ATOM     45  N   UNL A   1      38.996  31.044  32.824  1.00  0.00    -0.248 NA
ATOM     46  C   UNL A   1      36.973  31.351  31.699  1.00  0.00     0.031 C 
ATOM     47  C   UNL A   1      37.836  34.177  35.765  1.00  0.00     0.029 A 
ATOM     48  N   UNL A   1      39.326  32.578  35.285  1.00  0.00    -0.354 N 
ATOM     49  C   UNL A   1      38.951  30.189  31.732  1.00  0.00     0.074 A 
ATOM     50  C   UNL A   1      37.670  30.395  31.091  1.00  0.00     0.031 C 
ATOM     51  C   UNL A   1      38.767  34.192  36.730  1.00  0.00     0.029 A 
ATOM     52  C   UNL A   1      39.750  33.146  36.462  1.00  0.00     0.049 A 
ATOM     53  H   UNL A   1      39.805  31.844  34.837  1.00  0.00     0.167 HD
ATOM     54  C   UNL A   1      39.908  29.334  31.297  1.00  0.00     0.031 A 
ATOM     55  C   UNL A   1      40.807  32.859  37.245  1.00  0.00     0.031 A 
ATOM     56  C   UNL A   1      41.145  29.075  31.991  1.00  0.00     0.049 A 
ATOM     57  C   UNL A   1      41.766  31.783  36.820  1.00  0.00     0.074 A 
ATOM     58  C   UNL A   1      42.181  28.241  31.605  1.00  0.00     0.029 A 
ATOM     59  N   UNL A   1      41.493  29.605  33.221  1.00  0.00    -0.354 N 
ATOM     60  N   UNL A   1      41.780  31.086  35.710  1.00  0.00    -0.248 NA
ATOM     61  C   UNL A   1      42.861  31.462  37.746  1.00  0.00     0.031 C 
ATOM     62  C   UNL A   1      43.112  28.195  32.643  1.00  0.00     0.029 A 
ATOM     63  C   UNL A   1      42.697  29.062  33.641  1.00  0.00     0.049 A 
ATOM     64  H   UNL A   1      40.966  30.268  33.723  1.00  0.00     0.167 HD
ATOM     65  C   UNL A   1      42.896  30.264  35.792  1.00  0.00     0.074 A 
ATOM     66  C   UNL A   1      43.543  30.557  37.054  1.00  0.00     0.031 C 
ATOM     67  C   UNL A   1      43.340  29.351  34.897  1.00  0.00     0.031 A 
BRANCH  54  68
ATOM     68  C   UNL A   1      39.698  28.613  29.996  1.00  0.00    -0.014 A 
ATOM     69  C   UNL A   1      39.252  27.282  29.988  1.00  0.00     0.009 A 
ATOM     70  C   UNL A   1      40.136  29.190  28.794  1.00  0.00     0.009 A 
ATOM     71  C   UNL A   1      39.278  26.533  28.809  1.00  0.00     0.001 A 
ATOM     72  C   UNL A   1      40.142  28.445  27.612  1.00  0.00     0.001 A 
ATOM     73  C   UNL A   1      39.726  27.114  27.624  1.00  0.00     0.000 A 
ENDBRANCH  54  68
BRANCH  55  74
ATOM     74  C   UNL A   1      41.015  33.622  38.503  1.00  0.00    -0.014 A 
ATOM     75  C   UNL A   1      41.820  34.774  38.516  1.00  0.00     0.009 A 
ATOM     76  C   UNL A   1      40.438  33.187  39.704  1.00  0.00     0.009 A 
ATOM     77  C   UNL A   1      42.060  35.460  39.708  1.00  0.00     0.001 A 
ATOM     78  C   UNL A   1      40.650  33.895  40.889  1.00  0.00     0.001 A 
ATOM     79  C   UNL A   1      41.468  35.025  40.891  1.00  0.00     0.000 A 
ENDBRANCH  55  74
BRANCH  67  80
ATOM     80  C   UNL A   1      44.589  28.581  35.225  1.00  0.00    -0.014 A 
ATOM     81  C   UNL A   1      45.825  28.999  34.703  1.00  0.00     0.009 A 
ATOM     82  C   UNL A   1      44.525  27.376  35.940  1.00  0.00     0.009 A 
ATOM     83  C   UNL A   1      46.965  28.209  34.863  1.00  0.00     0.001 A 
ATOM     84  C   UNL A   1      45.674  26.604  36.125  1.00  0.00     0.001 A 
ATOM     85  C   UNL A   1      46.888  27.013  35.575  1.00  0.00     0.000 A 
ENDBRANCH  67  80
ENDBRANCH  41  42
ENDBRANCH  34  36
ENDBRANCH  33  34
ENDBRANCH  32  33
ENDBRANCH  31  32
ENDBRANCH  30  31
ENDBRANCH  29  30
ENDBRANCH  28  29
ENDBRANCH   1  28
TORSDOF 22
ENDMDL
MODEL 3
REMARK VINA RESULT:     -10.1      1.710      2.573
REMARK SMILES Cc1cc(F)c([C@@H](C)[N@@H+]2C[C@H](C)[C@H](C(=O)OCCOCCOCCOCCOC(=O)c3ccc(-c4c5nc(c(-c6ccccc6)c6ccc([nH]6)c(-c6ccccc6)c6nc(c(-c7ccccc7)c7ccc4[nH]7)C=C6)C=C5)cc3)C2)cc1F
REMARK SMILES IDX 22 1 21 2 20 3 19 4 18 5 17 6 16 7 14 8 15 9 13 10 9 11
REMARK SMILES IDX 10 12 79 13 11 15 12 16 7 17 8 18 6 19 1 20 2 21 3 22 81 23
REMARK SMILES IDX 4 24 80 25 82 26 5 27 23 28 24 29 25 30 26 31 27 32 28 33
REMARK SMILES IDX 29 34 30 35 31 36 32 37 78 38 33 39 77 40 34 41 35 42 36 43
REMARK SMILES IDX 71 44 37 45 76 46 70 47 72 48 38 49 75 50 69 51 68 52 39 54
REMARK SMILES IDX 61 55 46 56 60 57 47 58 50 59 59 60 73 61 48 62 49 63 58 65
REMARK SMILES IDX 74 66 51 67 40 68 41 69 45 70 42 71 44 72 43 73 62 74 63 75
REMARK SMILES IDX 67 76 64 77 66 78 65 79 52 80 53 81 57 82 54 83 56 84 55 85
REMARK H PARENT 9 14 72 53 50 64
REMARK Flexibility Score: inf
ROOT
ATOM      1  O   UNL A   1      32.677  34.663  29.544  1.00  0.00    -0.377 OA
ENDROOT
BRANCH   1   2
ATOM      2  C   UNL A   1      33.248  34.187  28.334  1.00  0.00     0.188 C 
BRANCH   2   3
ATOM      3  C   UNL A   1      34.279  33.050  28.369  1.00  0.00     0.188 C 
BRANCH   3   4
ATOM      4  O   UNL A   1      33.727  31.739  28.342  1.00  0.00    -0.376 OA
BRANCH   4   5
ATOM      5  C   UNL A   1      33.391  31.251  27.049  1.00  0.00     0.202 C 
BRANCH   5   6
ATOM      6  C   UNL A   1      32.077  30.461  26.966  1.00  0.00     0.261 C 
BRANCH   6   7
ATOM      7  O   UNL A   1      32.213  29.036  27.105  1.00  0.00    -0.463 OA
BRANCH   7   8
ATOM      8  C   UNL A   1      31.950  28.290  26.018  1.00  0.00     0.315 C 
ATOM      9  O   UNL A   1      32.170  28.675  24.872  1.00  0.00    -0.252 OA
BRANCH   8  10
ATOM     10  C   UNL A   1      31.382  26.909  26.303  1.00  0.00     0.162 C 
ATOM     11  N   UNL A   1      32.113  24.675  25.757  1.00  0.00    -0.328 N 
ATOM     12  C   UNL A   1      30.660  24.697  25.676  1.00  0.00     0.267 C 
ATOM     13  C   UNL A   1      32.558  25.933  26.341  1.00  0.00     0.278 C 
ATOM     14  H   UNL A   1      32.388  23.926  26.395  1.00  0.00     0.348 HD
ATOM     15  C   UNL A   1      30.246  26.173  25.559  1.00  0.00     0.061 C 
ATOM     16  C   UNL A   1      29.847  26.531  24.130  1.00  0.00     0.015 C 
BRANCH  11  17
ATOM     17  C   UNL A   1      32.855  24.141  24.605  1.00  0.00     0.215 C 
ATOM     18  C   UNL A   1      32.701  25.012  23.349  1.00  0.00     0.081 C 
BRANCH  17  19
ATOM     19  C   UNL A   1      32.668  22.663  24.298  1.00  0.00     0.048 A 
ATOM     20  C   UNL A   1      32.415  18.492  23.150  1.00  0.00     0.047 C 
ATOM     21  C   UNL A   1      32.443  19.929  23.563  1.00  0.00    -0.012 A 
ATOM     22  C   UNL A   1      32.822  20.290  24.861  1.00  0.00     0.046 A 
ATOM     23  C   UNL A   1      32.152  20.942  22.651  1.00  0.00     0.126 A 
ATOM     24  C   UNL A   1      32.921  21.637  25.217  1.00  0.00     0.132 A 
ATOM     25  C   UNL A   1      32.252  22.286  23.007  1.00  0.00     0.052 A 
ATOM     26  F   UNL A   1      31.800  20.634  21.396  1.00  0.00    -0.207 F 
ATOM     27  F   UNL A   1      33.307  21.917  26.469  1.00  0.00    -0.206 F 
ENDBRANCH  17  19
ENDBRANCH  11  17
ENDBRANCH   8  10
ENDBRANCH   7   8
ENDBRANCH   6   7
ENDBRANCH   5   6
ENDBRANCH   4   5
ENDBRANCH   3   4
ENDBRANCH   2   3
ENDBRANCH   1   2
BRANCH   1  28
ATOM     28  C   UNL A   1      32.902  36.008  29.944  1.00  0.00     0.188 C 
BRANCH  28  29
ATOM     29  C   UNL A   1      33.329  36.291  31.394  1.00  0.00     0.188 C 
BRANCH  29  30
ATOM     30  O   UNL A   1      34.613  35.791  31.735  1.00  0.00    -0.376 OA
BRANCH  30  31
ATOM     31  C   UNL A   1      34.797  35.371  33.081  1.00  0.00     0.202 C 
BRANCH  31  32
ATOM     32  C   UNL A   1      36.069  34.567  33.385  1.00  0.00     0.261 C 
BRANCH  32  33
ATOM     33  O   UNL A   1      35.914  33.143  33.518  1.00  0.00    -0.460 OA
BRANCH  33  34
ATOM     34  C   UNL A   1      35.388  32.446  32.489  1.00  0.00     0.338 C 
ATOM     35  O   UNL A   1      34.251  32.505  32.055  1.00  0.00    -0.246 OA
BRANCH  34  36
ATOM     36  C   UNL A   1      36.505  31.724  31.841  1.00  0.00     0.060 A 
ATOM     37  C   UNL A   1      36.617  31.702  30.448  1.00  0.00     0.016 A 
ATOM     38  C   UNL A   1      37.420  31.023  32.635  1.00  0.00     0.016 A 
ATOM     39  C   UNL A   1      37.669  31.003  29.851  1.00  0.00     0.010 A 
ATOM     40  C   UNL A   1      38.461  30.308  32.035  1.00  0.00     0.010 A 
ATOM     41  C   UNL A   1      38.608  30.316  30.639  1.00  0.00    -0.014 A 
BRANCH  41  42
ATOM     42  C   UNL A   1      39.858  29.799  30.028  1.00  0.00     0.031 A 
ATOM     43  C   UNL A   1      40.005  28.388  29.548  1.00  0.00     0.074 A 
ATOM     44  C   UNL A   1      40.897  30.652  29.929  1.00  0.00     0.049 A 
ATOM     45  N   UNL A   1      41.001  27.853  28.887  1.00  0.00    -0.248 NA
ATOM     46  C   UNL A   1      38.905  27.456  29.835  1.00  0.00     0.031 C 
ATOM     47  C   UNL A   1      40.881  32.044  30.381  1.00  0.00     0.029 A 
ATOM     48  N   UNL A   1      42.161  30.477  29.426  1.00  0.00    -0.354 N 
ATOM     49  C   UNL A   1      40.625  26.545  28.620  1.00  0.00     0.074 A 
ATOM     50  C   UNL A   1      39.340  26.341  29.253  1.00  0.00     0.031 C 
ATOM     51  C   UNL A   1      42.075  32.600  30.129  1.00  0.00     0.029 A 
ATOM     52  C   UNL A   1      42.948  31.599  29.521  1.00  0.00     0.049 A 
ATOM     53  H   UNL A   1      42.474  29.630  29.034  1.00  0.00     0.167 HD
ATOM     54  C   UNL A   1      41.287  25.616  27.889  1.00  0.00     0.031 A 
ATOM     55  C   UNL A   1      44.230  31.805  29.166  1.00  0.00     0.031 A 
ATOM     56  C   UNL A   1      42.604  25.801  27.335  1.00  0.00     0.049 A 
ATOM     57  C   UNL A   1      44.997  30.695  28.505  1.00  0.00     0.074 A 
ATOM     58  C   UNL A   1      43.337  24.918  26.560  1.00  0.00     0.029 A 
ATOM     59  N   UNL A   1      43.399  26.918  27.529  1.00  0.00    -0.354 N 
ATOM     60  N   UNL A   1      44.574  29.512  28.133  1.00  0.00    -0.248 NA
ATOM     61  C   UNL A   1      46.413  30.950  28.203  1.00  0.00     0.031 C 
ATOM     62  C   UNL A   1      44.607  25.462  26.363  1.00  0.00     0.029 A 
ATOM     63  C   UNL A   1      44.640  26.717  26.947  1.00  0.00     0.049 A 
ATOM     64  H   UNL A   1      43.124  27.733  28.009  1.00  0.00     0.167 HD
ATOM     65  C   UNL A   1      45.661  28.892  27.532  1.00  0.00     0.074 A 
ATOM     66  C   UNL A   1      46.760  29.834  27.575  1.00  0.00     0.031 C 
ATOM     67  C   UNL A   1      45.734  27.653  26.992  1.00  0.00     0.031 A 
BRANCH  54  68
ATOM     68  C   UNL A   1      40.612  24.303  27.605  1.00  0.00    -0.014 A 
ATOM     69  C   UNL A   1      41.189  23.101  28.047  1.00  0.00     0.009 A 
ATOM     70  C   UNL A   1      39.518  24.250  26.729  1.00  0.00     0.009 A 
ATOM     71  C   UNL A   1      40.702  21.874  27.592  1.00  0.00     0.001 A 
ATOM     72  C   UNL A   1      39.020  23.020  26.291  1.00  0.00     0.001 A 
ATOM     73  C   UNL A   1      39.621  21.834  26.712  1.00  0.00     0.000 A 
ENDBRANCH  54  68
BRANCH  55  74
ATOM     74  C   UNL A   1      44.855  33.130  29.416  1.00  0.00    -0.014 A 
ATOM     75  C   UNL A   1      45.165  33.539  30.723  1.00  0.00     0.009 A 
ATOM     76  C   UNL A   1      45.118  34.006  28.352  1.00  0.00     0.009 A 
ATOM     77  C   UNL A   1      45.704  34.805  30.963  1.00  0.00     0.001 A 
ATOM     78  C   UNL A   1      45.689  35.257  28.591  1.00  0.00     0.001 A 
ATOM     79  C   UNL A   1      45.972  35.659  29.897  1.00  0.00     0.000 A 
ENDBRANCH  55  74
BRANCH  67  80
ATOM     80  C   UNL A   1      47.042  27.212  26.394  1.00  0.00    -0.014 A 
ATOM     81  C   UNL A   1      47.884  26.350  27.116  1.00  0.00     0.009 A 
ATOM     82  C   UNL A   1      47.497  27.750  25.182  1.00  0.00     0.009 A 
ATOM     83  C   UNL A   1      49.168  26.060  26.650  1.00  0.00     0.001 A 
ATOM     84  C   UNL A   1      48.770  27.433  24.703  1.00  0.00     0.001 A 
ATOM     85  C   UNL A   1      49.609  26.601  25.443  1.00  0.00     0.000 A 
ENDBRANCH  67  80
ENDBRANCH  41  42
ENDBRANCH  34  36
ENDBRANCH  33  34
ENDBRANCH  32  33
ENDBRANCH  31  32
ENDBRANCH  30  31
ENDBRANCH  29  30
ENDBRANCH  28  29
ENDBRANCH   1  28
TORSDOF 22
ENDMDL
