MODEL 1
REMARK VINA RESULT:      -9.0      0.000      0.000
REMARK SMILES O=C(OCCOCCOCCOCCOC(=O)c1cccc(Oc2ncc([N+](=O)[O-])cc2Br)c1)c1ccc(-c2c3nc(c(-c4ccccc4)c4ccc([nH]4)c(-c4ccccc4)c4nc(c(-c5ccccc5)c5ccc2[nH]5)C=C4)C=C3)cc1
REMARK SMILES IDX 10 1 9 2 8 3 7 4 6 5 5 6 4 7 3 8 2 9 1 10 35 11 36 12 82 13
REMARK SMILES IDX 37 14 81 15 38 16 39 17 40 18 75 19 41 20 80 21 74 22 76 23
REMARK SMILES IDX 42 24 79 25 73 26 72 27 43 29 65 30 50 31 64 32 51 33 54 34
REMARK SMILES IDX 63 35 77 36 52 37 53 38 62 40 78 41 55 42 44 43 45 44 49 45
REMARK SMILES IDX 46 46 48 47 47 48 66 49 67 50 71 51 68 52 70 53 69 54 56 55
REMARK SMILES IDX 57 56 61 57 58 58 60 59 59 60 11 61 12 62 13 63 14 64 15 65
REMARK SMILES IDX 16 66 17 67 18 68 19 69 34 70 20 71 22 72 21 73 23 74 24 75
REMARK SMILES IDX 25 76 32 77 26 78 31 79 33 80 27 81 28 82 29 83 30 84
REMARK H PARENT 76 28 54 39
REMARK Flexibility Score: inf
ROOT
ATOM      1  C   UNL A   1      35.478  24.426  25.084  1.00  0.00     0.188 C 
ENDROOT
BRANCH   1   2
ATOM      2  O   UNL A   1      34.211  25.069  25.029  1.00  0.00    -0.377 OA
BRANCH   2   3
ATOM      3  C   UNL A   1      34.127  26.371  25.605  1.00  0.00     0.188 C 
BRANCH   3   4
ATOM      4  C   UNL A   1      32.747  26.758  26.140  1.00  0.00     0.188 C 
BRANCH   4   5
ATOM      5  O   UNL A   1      32.513  28.159  25.972  1.00  0.00    -0.376 OA
BRANCH   5   6
ATOM      6  C   UNL A   1      31.776  28.781  27.026  1.00  0.00     0.202 C 
BRANCH   6   7
ATOM      7  C   UNL A   1      31.482  30.259  26.779  1.00  0.00     0.261 C 
BRANCH   7   8
ATOM      8  O   UNL A   1      32.664  30.990  26.425  1.00  0.00    -0.460 OA
BRANCH   8   9
ATOM      9  C   UNL A   1      33.517  31.647  27.251  1.00  0.00     0.338 C 
ATOM     10  O   UNL A   1      33.202  32.780  27.618  1.00  0.00    -0.246 OA
BRANCH   9  11
ATOM     11  C   UNL A   1      34.803  31.082  27.779  1.00  0.00     0.060 A 
ATOM     12  C   UNL A   1      35.095  29.729  27.977  1.00  0.00     0.016 A 
ATOM     13  C   UNL A   1      35.820  32.013  28.063  1.00  0.00     0.016 A 
ATOM     14  C   UNL A   1      36.303  29.313  28.519  1.00  0.00     0.010 A 
ATOM     15  C   UNL A   1      37.046  31.607  28.597  1.00  0.00     0.010 A 
ATOM     16  C   UNL A   1      37.264  30.254  28.869  1.00  0.00    -0.014 A 
BRANCH  16  17
ATOM     17  C   UNL A   1      38.361  29.808  29.743  1.00  0.00     0.031 A 
ATOM     18  C   UNL A   1      39.458  29.005  29.111  1.00  0.00     0.074 A 
ATOM     19  C   UNL A   1      38.447  30.250  31.008  1.00  0.00     0.049 A 
ATOM     20  N   UNL A   1      40.529  28.489  29.651  1.00  0.00    -0.248 NA
ATOM     21  C   UNL A   1      39.342  28.772  27.660  1.00  0.00     0.031 C 
ATOM     22  C   UNL A   1      37.503  31.170  31.648  1.00  0.00     0.029 A 
ATOM     23  N   UNL A   1      39.394  30.018  31.966  1.00  0.00    -0.354 N 
ATOM     24  C   UNL A   1      41.189  27.842  28.614  1.00  0.00     0.074 A 
ATOM     25  C   UNL A   1      40.406  28.028  27.416  1.00  0.00     0.031 C 
ATOM     26  C   UNL A   1      37.937  31.442  32.890  1.00  0.00     0.029 A 
ATOM     27  C   UNL A   1      39.147  30.670  33.149  1.00  0.00     0.049 A 
ATOM     28  H   UNL A   1      40.178  29.439  31.822  1.00  0.00     0.167 HD
ATOM     29  C   UNL A   1      42.344  27.139  28.666  1.00  0.00     0.031 A 
ATOM     30  C   UNL A   1      39.821  30.614  34.312  1.00  0.00     0.031 A 
ATOM     31  C   UNL A   1      43.089  26.954  29.879  1.00  0.00     0.049 A 
ATOM     32  C   UNL A   1      41.037  29.730  34.381  1.00  0.00     0.074 A 
ATOM     33  C   UNL A   1      44.227  26.202  30.094  1.00  0.00     0.029 A 
ATOM     34  N   UNL A   1      42.752  27.540  31.093  1.00  0.00    -0.354 N 
ATOM     35  N   UNL A   1      41.615  29.045  33.421  1.00  0.00    -0.248 NA
ATOM     36  C   UNL A   1      41.685  29.599  35.692  1.00  0.00     0.031 C 
ATOM     37  C   UNL A   1      44.549  26.293  31.454  1.00  0.00     0.029 A 
ATOM     38  C   UNL A   1      43.648  27.152  32.070  1.00  0.00     0.049 A 
ATOM     39  H   UNL A   1      41.988  28.143  31.235  1.00  0.00     0.167 HD
ATOM     40  C   UNL A   1      42.704  28.414  34.004  1.00  0.00     0.074 A 
ATOM     41  C   UNL A   1      42.714  28.814  35.400  1.00  0.00     0.031 C 
ATOM     42  C   UNL A   1      43.616  27.579  33.446  1.00  0.00     0.031 A 
BRANCH  29  43
ATOM     43  C   UNL A   1      42.770  26.452  27.400  1.00  0.00    -0.014 A 
ATOM     44  C   UNL A   1      42.340  25.154  27.079  1.00  0.00     0.009 A 
ATOM     45  C   UNL A   1      43.693  27.088  26.555  1.00  0.00     0.009 A 
ATOM     46  C   UNL A   1      42.869  24.488  25.969  1.00  0.00     0.001 A 
ATOM     47  C   UNL A   1      44.198  26.431  25.432  1.00  0.00     0.001 A 
ATOM     48  C   UNL A   1      43.799  25.127  25.149  1.00  0.00     0.000 A 
ENDBRANCH  29  43
BRANCH  30  49
ATOM     49  C   UNL A   1      39.337  31.372  35.498  1.00  0.00    -0.014 A 
ATOM     50  C   UNL A   1      38.297  30.876  36.298  1.00  0.00     0.009 A 
ATOM     51  C   UNL A   1      39.923  32.602  35.843  1.00  0.00     0.009 A 
ATOM     52  C   UNL A   1      37.847  31.600  37.407  1.00  0.00     0.001 A 
ATOM     53  C   UNL A   1      39.492  33.309  36.967  1.00  0.00     0.001 A 
ATOM     54  C   UNL A   1      38.448  32.811  37.744  1.00  0.00     0.000 A 
ENDBRANCH  30  49
BRANCH  42  55
ATOM     55  C   UNL A   1      44.714  27.082  34.340  1.00  0.00    -0.014 A 
ATOM     56  C   UNL A   1      44.518  25.992  35.198  1.00  0.00     0.009 A 
ATOM     57  C   UNL A   1      45.978  27.689  34.277  1.00  0.00     0.009 A 
ATOM     58  C   UNL A   1      45.564  25.535  36.001  1.00  0.00     0.001 A 
ATOM     59  C   UNL A   1      47.028  27.212  35.058  1.00  0.00     0.001 A 
ATOM     60  C   UNL A   1      46.818  26.141  35.926  1.00  0.00     0.000 A 
ENDBRANCH  42  55
ENDBRANCH  16  17
ENDBRANCH   9  11
ENDBRANCH   8   9
ENDBRANCH   7   8
ENDBRANCH   6   7
ENDBRANCH   5   6
ENDBRANCH   4   5
ENDBRANCH   3   4
ENDBRANCH   2   3
ENDBRANCH   1   2
BRANCH   1  61
ATOM     61  C   UNL A   1      35.862  23.436  23.959  1.00  0.00     0.188 C 
BRANCH  61  62
ATOM     62  O   UNL A   1      37.174  22.896  24.046  1.00  0.00    -0.376 OA
BRANCH  62  63
ATOM     63  C   UNL A   1      37.380  21.934  25.077  1.00  0.00     0.202 C 
BRANCH  63  64
ATOM     64  C   UNL A   1      36.478  20.697  24.980  1.00  0.00     0.261 C 
BRANCH  64  65
ATOM     65  O   UNL A   1      35.288  20.751  25.783  1.00  0.00    -0.460 OA
BRANCH  65  66
ATOM     66  C   UNL A   1      34.116  20.373  25.228  1.00  0.00     0.338 C 
ATOM     67  O   UNL A   1      33.839  19.289  24.744  1.00  0.00    -0.246 OA
BRANCH  66  68
ATOM     68  C   UNL A   1      33.137  21.454  25.478  1.00  0.00     0.063 A 
ATOM     69  C   UNL A   1      32.914  21.917  26.777  1.00  0.00     0.016 A 
ATOM     70  C   UNL A   1      32.486  22.055  24.401  1.00  0.00     0.062 A 
ATOM     71  C   UNL A   1      32.042  22.987  26.988  1.00  0.00     0.005 A 
ATOM     72  C   UNL A   1      31.490  23.008  24.630  1.00  0.00     0.130 A 
ATOM     73  C   UNL A   1      31.312  23.516  25.918  1.00  0.00     0.047 A 
BRANCH  72  74
ATOM     74  O   UNL A   1      30.598  23.441  23.664  1.00  0.00    -0.438 OA
BRANCH  74  75
ATOM     75  C   UNL A   1      30.705  24.758  23.263  1.00  0.00     0.234 A 
ATOM     76  N   UNL A   1      29.777  25.574  23.821  1.00  0.00    -0.214 NA
ATOM     77  C   UNL A   1      31.755  25.230  22.461  1.00  0.00     0.087 A 
ATOM     78  C   UNL A   1      29.954  26.909  23.674  1.00  0.00     0.200 A 
ATOM     79  C   UNL A   1      31.957  26.607  22.382  1.00  0.00     0.108 A 
ATOM     80  Br  UNL A   1      32.967  24.101  21.535  1.00  0.00    -0.045 Br
ATOM     81  C   UNL A   1      31.045  27.453  23.017  1.00  0.00     0.288 A 
BRANCH  81  82
ATOM     82  N   UNL A   1      31.246  28.892  23.027  1.00  0.00     0.064 N 
ATOM     83  O   UNL A   1      32.339  29.321  22.637  1.00  0.00    -0.258 OA
ATOM     84  O   UNL A   1      30.303  29.595  23.413  1.00  0.00    -0.258 OA
ENDBRANCH  81  82
ENDBRANCH  74  75
ENDBRANCH  72  74
ENDBRANCH  66  68
ENDBRANCH  65  66
ENDBRANCH  64  65
ENDBRANCH  63  64
ENDBRANCH  62  63
ENDBRANCH  61  62
ENDBRANCH   1  61
TORSDOF 23
ENDMDL
MODEL 2
REMARK VINA RESULT:      -8.2      1.966      2.642
REMARK SMILES O=C(OCCOCCOCCOCCOC(=O)c1cccc(Oc2ncc([N+](=O)[O-])cc2Br)c1)c1ccc(-c2c3nc(c(-c4ccccc4)c4ccc([nH]4)c(-c4ccccc4)c4nc(c(-c5ccccc5)c5ccc2[nH]5)C=C4)C=C3)cc1
REMARK SMILES IDX 10 1 9 2 8 3 7 4 6 5 5 6 4 7 3 8 2 9 1 10 35 11 36 12 82 13
REMARK SMILES IDX 37 14 81 15 38 16 39 17 40 18 75 19 41 20 80 21 74 22 76 23
REMARK SMILES IDX 42 24 79 25 73 26 72 27 43 29 65 30 50 31 64 32 51 33 54 34
REMARK SMILES IDX 63 35 77 36 52 37 53 38 62 40 78 41 55 42 44 43 45 44 49 45
REMARK SMILES IDX 46 46 48 47 47 48 66 49 67 50 71 51 68 52 70 53 69 54 56 55
REMARK SMILES IDX 57 56 61 57 58 58 60 59 59 60 11 61 12 62 13 63 14 64 15 65
REMARK SMILES IDX 16 66 17 67 18 68 19 69 34 70 20 71 22 72 21 73 23 74 24 75
REMARK SMILES IDX 25 76 32 77 26 78 31 79 33 80 27 81 28 82 29 83 30 84
REMARK H PARENT 76 28 54 39
REMARK Flexibility Score: inf
ROOT
ATOM      1  C   UNL A   1      35.712  23.926  24.661  1.00  0.00     0.188 C 
ENDROOT
BRANCH   1   2
ATOM      2  O   UNL A   1      34.570  24.605  24.154  1.00  0.00    -0.377 OA
BRANCH   2   3
ATOM      3  C   UNL A   1      33.799  25.353  25.092  1.00  0.00     0.188 C 
BRANCH   3   4
ATOM      4  C   UNL A   1      34.366  26.727  25.450  1.00  0.00     0.188 C 
BRANCH   4   5
ATOM      5  O   UNL A   1      33.439  27.464  26.254  1.00  0.00    -0.376 OA
BRANCH   5   6
ATOM      6  C   UNL A   1      33.615  28.881  26.237  1.00  0.00     0.202 C 
BRANCH   6   7
ATOM      7  C   UNL A   1      33.084  29.580  27.488  1.00  0.00     0.261 C 
BRANCH   7   8
ATOM      8  O   UNL A   1      33.500  30.950  27.554  1.00  0.00    -0.460 OA
BRANCH   8   9
ATOM      9  C   UNL A   1      34.749  31.432  27.773  1.00  0.00     0.338 C 
ATOM     10  O   UNL A   1      34.944  32.633  27.579  1.00  0.00    -0.246 OA
BRANCH   9  11
ATOM     11  C   UNL A   1      35.908  30.615  28.265  1.00  0.00     0.060 A 
ATOM     12  C   UNL A   1      36.007  29.982  29.507  1.00  0.00     0.016 A 
ATOM     13  C   UNL A   1      36.977  30.447  27.364  1.00  0.00     0.016 A 
ATOM     14  C   UNL A   1      37.148  29.288  29.885  1.00  0.00     0.010 A 
ATOM     15  C   UNL A   1      38.127  29.740  27.727  1.00  0.00     0.010 A 
ATOM     16  C   UNL A   1      38.226  29.202  29.013  1.00  0.00    -0.014 A 
BRANCH  16  17
ATOM     17  C   UNL A   1      39.517  28.770  29.572  1.00  0.00     0.031 A 
ATOM     18  C   UNL A   1      40.097  27.490  29.049  1.00  0.00     0.074 A 
ATOM     19  C   UNL A   1      40.212  29.581  30.386  1.00  0.00     0.049 A 
ATOM     20  N   UNL A   1      41.209  26.886  29.372  1.00  0.00    -0.248 NA
ATOM     21  C   UNL A   1      39.324  26.807  27.996  1.00  0.00     0.031 C 
ATOM     22  C   UNL A   1      39.789  30.917  30.811  1.00  0.00     0.029 A 
ATOM     23  N   UNL A   1      41.439  29.414  30.967  1.00  0.00    -0.354 N 
ATOM     24  C   UNL A   1      41.246  25.738  28.590  1.00  0.00     0.074 A 
ATOM     25  C   UNL A   1      40.053  25.727  27.778  1.00  0.00     0.031 C 
ATOM     26  C   UNL A   1      40.758  31.459  31.568  1.00  0.00     0.029 A 
ATOM     27  C   UNL A   1      41.833  30.485  31.730  1.00  0.00     0.049 A 
ATOM     28  H   UNL A   1      41.987  28.604  30.850  1.00  0.00     0.167 HD
ATOM     29  C   UNL A   1      42.191  24.771  28.568  1.00  0.00     0.031 A 
ATOM     30  C   UNL A   1      42.932  30.635  32.491  1.00  0.00     0.031 A 
ATOM     31  C   UNL A   1      43.356  24.801  29.405  1.00  0.00     0.049 A 
ATOM     32  C   UNL A   1      43.912  29.493  32.545  1.00  0.00     0.074 A 
ATOM     33  C   UNL A   1      44.351  23.853  29.546  1.00  0.00     0.029 A 
ATOM     34  N   UNL A   1      43.675  25.854  30.253  1.00  0.00    -0.354 N 
ATOM     35  N   UNL A   1      43.904  28.366  31.871  1.00  0.00    -0.248 NA
ATOM     36  C   UNL A   1      45.043  29.637  33.470  1.00  0.00     0.031 C 
ATOM     37  C   UNL A   1      45.246  24.313  30.520  1.00  0.00     0.029 A 
ATOM     38  C   UNL A   1      44.841  25.574  30.938  1.00  0.00     0.049 A 
ATOM     39  H   UNL A   1      43.147  26.679  30.352  1.00  0.00     0.167 HD
ATOM     40  C   UNL A   1      45.035  27.671  32.277  1.00  0.00     0.074 A 
ATOM     41  C   UNL A   1      45.713  28.515  33.243  1.00  0.00     0.031 C 
ATOM     42  C   UNL A   1      45.477  26.448  31.891  1.00  0.00     0.031 A 
BRANCH  29  43
ATOM     43  C   UNL A   1      41.914  23.581  27.693  1.00  0.00    -0.014 A 
ATOM     44  C   UNL A   1      42.676  23.311  26.545  1.00  0.00     0.009 A 
ATOM     45  C   UNL A   1      40.810  22.764  27.981  1.00  0.00     0.009 A 
ATOM     46  C   UNL A   1      42.302  22.283  25.674  1.00  0.00     0.001 A 
ATOM     47  C   UNL A   1      40.456  21.720  27.124  1.00  0.00     0.001 A 
ATOM     48  C   UNL A   1      41.191  21.491  25.964  1.00  0.00     0.000 A 
ENDBRANCH  29  43
BRANCH  30  49
ATOM     49  C   UNL A   1      43.133  31.875  33.287  1.00  0.00    -0.014 A 
ATOM     50  C   UNL A   1      42.469  32.067  34.508  1.00  0.00     0.009 A 
ATOM     51  C   UNL A   1      44.004  32.880  32.830  1.00  0.00     0.009 A 
ATOM     52  C   UNL A   1      42.661  33.241  35.244  1.00  0.00     0.001 A 
ATOM     53  C   UNL A   1      44.216  34.038  33.580  1.00  0.00     0.001 A 
ATOM     54  C   UNL A   1      43.538  34.221  34.784  1.00  0.00     0.000 A 
ENDBRANCH  30  49
BRANCH  42  55
ATOM     55  C   UNL A   1      46.771  25.979  32.489  1.00  0.00    -0.014 A 
ATOM     56  C   UNL A   1      47.998  26.226  31.858  1.00  0.00     0.009 A 
ATOM     57  C   UNL A   1      46.757  25.327  33.732  1.00  0.00     0.009 A 
ATOM     58  C   UNL A   1      49.188  25.801  32.448  1.00  0.00     0.001 A 
ATOM     59  C   UNL A   1      47.950  24.930  34.333  1.00  0.00     0.001 A 
ATOM     60  C   UNL A   1      49.164  25.158  33.687  1.00  0.00     0.000 A 
ENDBRANCH  42  55
ENDBRANCH  16  17
ENDBRANCH   9  11
ENDBRANCH   8   9
ENDBRANCH   7   8
ENDBRANCH   6   7
ENDBRANCH   5   6
ENDBRANCH   4   5
ENDBRANCH   3   4
ENDBRANCH   2   3
ENDBRANCH   1   2
BRANCH   1  61
ATOM     61  C   UNL A   1      36.586  23.104  23.686  1.00  0.00     0.188 C 
BRANCH  61  62
ATOM     62  O   UNL A   1      37.648  22.375  24.287  1.00  0.00    -0.376 OA
BRANCH  62  63
ATOM     63  C   UNL A   1      37.270  21.482  25.331  1.00  0.00     0.202 C 
BRANCH  63  64
ATOM     64  C   UNL A   1      36.397  20.306  24.876  1.00  0.00     0.261 C 
BRANCH  64  65
ATOM     65  O   UNL A   1      35.102  20.238  25.496  1.00  0.00    -0.460 OA
BRANCH  65  66
ATOM     66  C   UNL A   1      34.018  20.062  24.709  1.00  0.00     0.338 C 
ATOM     67  O   UNL A   1      33.771  19.112  23.988  1.00  0.00    -0.246 OA
BRANCH  66  68
ATOM     68  C   UNL A   1      33.066  21.153  25.016  1.00  0.00     0.063 A 
ATOM     69  C   UNL A   1      32.803  21.508  26.341  1.00  0.00     0.016 A 
ATOM     70  C   UNL A   1      32.481  21.869  23.972  1.00  0.00     0.062 A 
ATOM     71  C   UNL A   1      31.959  22.587  26.612  1.00  0.00     0.005 A 
ATOM     72  C   UNL A   1      31.509  22.835  24.245  1.00  0.00     0.130 A 
ATOM     73  C   UNL A   1      31.294  23.234  25.565  1.00  0.00     0.047 A 
BRANCH  72  74
ATOM     74  O   UNL A   1      30.674  23.383  23.288  1.00  0.00    -0.438 OA
BRANCH  74  75
ATOM     75  C   UNL A   1      30.797  24.739  23.056  1.00  0.00     0.234 A 
ATOM     76  N   UNL A   1      29.981  25.499  23.829  1.00  0.00    -0.214 NA
ATOM     77  C   UNL A   1      31.767  25.285  22.202  1.00  0.00     0.087 A 
ATOM     78  C   UNL A   1      30.204  26.835  23.842  1.00  0.00     0.200 A 
ATOM     79  C   UNL A   1      32.025  26.652  22.286  1.00  0.00     0.108 A 
ATOM     80  Br  UNL A   1      32.806  24.257  20.992  1.00  0.00    -0.045 Br
ATOM     81  C   UNL A   1      31.236  27.430  23.135  1.00  0.00     0.288 A 
BRANCH  81  82
ATOM     82  N   UNL A   1      31.506  28.846  23.313  1.00  0.00     0.064 N 
ATOM     83  O   UNL A   1      32.581  29.284  22.884  1.00  0.00    -0.258 OA
ATOM     84  O   UNL A   1      30.634  29.526  23.871  1.00  0.00    -0.258 OA
ENDBRANCH  81  82
ENDBRANCH  74  75
ENDBRANCH  72  74
ENDBRANCH  66  68
ENDBRANCH  65  66
ENDBRANCH  64  65
ENDBRANCH  63  64
ENDBRANCH  62  63
ENDBRANCH  61  62
ENDBRANCH   1  61
TORSDOF 23
ENDMDL
MODEL 3
REMARK VINA RESULT:      -7.7      4.239     10.193
REMARK SMILES O=C(OCCOCCOCCOCCOC(=O)c1cccc(Oc2ncc([N+](=O)[O-])cc2Br)c1)c1ccc(-c2c3nc(c(-c4ccccc4)c4ccc([nH]4)c(-c4ccccc4)c4nc(c(-c5ccccc5)c5ccc2[nH]5)C=C4)C=C3)cc1
REMARK SMILES IDX 10 1 9 2 8 3 7 4 6 5 5 6 4 7 3 8 2 9 1 10 35 11 36 12 82 13
REMARK SMILES IDX 37 14 81 15 38 16 39 17 40 18 75 19 41 20 80 21 74 22 76 23
REMARK SMILES IDX 42 24 79 25 73 26 72 27 43 29 65 30 50 31 64 32 51 33 54 34
REMARK SMILES IDX 63 35 77 36 52 37 53 38 62 40 78 41 55 42 44 43 45 44 49 45
REMARK SMILES IDX 46 46 48 47 47 48 66 49 67 50 71 51 68 52 70 53 69 54 56 55
REMARK SMILES IDX 57 56 61 57 58 58 60 59 59 60 11 61 12 62 13 63 14 64 15 65
REMARK SMILES IDX 16 66 17 67 18 68 19 69 34 70 20 71 22 72 21 73 23 74 24 75
REMARK SMILES IDX 25 76 32 77 26 78 31 79 33 80 27 81 28 82 29 83 30 84
REMARK H PARENT 76 28 54 39
REMARK Flexibility Score: inf
ROOT
ATOM      1  C   UNL A   1      32.595  23.907  23.349  1.00  0.00     0.188 C 
ENDROOT
BRANCH   1   2
ATOM      2  O   UNL A   1      33.536  23.096  22.657  1.00  0.00    -0.377 OA
BRANCH   2   3
ATOM      3  C   UNL A   1      34.915  23.375  22.887  1.00  0.00     0.188 C 
BRANCH   3   4
ATOM      4  C   UNL A   1      35.614  22.435  23.870  1.00  0.00     0.188 C 
BRANCH   4   5
ATOM      5  O   UNL A   1      36.378  23.177  24.826  1.00  0.00    -0.376 OA
BRANCH   5   6
ATOM      6  C   UNL A   1      36.790  22.439  25.978  1.00  0.00     0.202 C 
BRANCH   6   7
ATOM      7  C   UNL A   1      37.551  21.157  25.645  1.00  0.00     0.261 C 
BRANCH   7   8
ATOM      8  O   UNL A   1      38.905  21.423  25.257  1.00  0.00    -0.460 OA
BRANCH   8   9
ATOM      9  C   UNL A   1      40.042  20.925  25.806  1.00  0.00     0.338 C 
ATOM     10  O   UNL A   1      40.078  19.719  26.057  1.00  0.00    -0.246 OA
BRANCH   9  11
ATOM     11  C   UNL A   1      41.273  21.729  26.103  1.00  0.00     0.060 A 
ATOM     12  C   UNL A   1      42.574  21.234  26.234  1.00  0.00     0.016 A 
ATOM     13  C   UNL A   1      41.094  23.121  26.221  1.00  0.00     0.016 A 
ATOM     14  C   UNL A   1      43.642  22.060  26.559  1.00  0.00     0.010 A 
ATOM     15  C   UNL A   1      42.162  23.965  26.535  1.00  0.00     0.010 A 
ATOM     16  C   UNL A   1      43.430  23.420  26.751  1.00  0.00    -0.014 A 
BRANCH  16  17
ATOM     17  C   UNL A   1      44.495  24.182  27.423  1.00  0.00     0.031 A 
ATOM     18  C   UNL A   1      44.470  24.219  28.922  1.00  0.00     0.074 A 
ATOM     19  C   UNL A   1      45.528  24.674  26.721  1.00  0.00     0.049 A 
ATOM     20  N   UNL A   1      45.280  24.817  29.754  1.00  0.00    -0.248 NA
ATOM     21  C   UNL A   1      43.392  23.454  29.575  1.00  0.00     0.031 C 
ATOM     22  C   UNL A   1      45.709  24.535  25.274  1.00  0.00     0.029 A 
ATOM     23  N   UNL A   1      46.640  25.352  27.137  1.00  0.00    -0.354 N 
ATOM     24  C   UNL A   1      44.786  24.530  31.020  1.00  0.00     0.074 A 
ATOM     25  C   UNL A   1      43.612  23.707  30.853  1.00  0.00     0.031 C 
ATOM     26  C   UNL A   1      46.881  25.093  24.927  1.00  0.00     0.029 A 
ATOM     27  C   UNL A   1      47.496  25.678  26.114  1.00  0.00     0.049 A 
ATOM     28  H   UNL A   1      46.811  25.585  28.079  1.00  0.00     0.167 HD
ATOM     29  C   UNL A   1      45.267  24.935  32.218  1.00  0.00     0.031 A 
ATOM     30  C   UNL A   1      48.634  26.396  26.147  1.00  0.00     0.031 A 
ATOM     31  C   UNL A   1      46.425  25.772  32.350  1.00  0.00     0.049 A 
ATOM     32  C   UNL A   1      49.086  26.939  27.477  1.00  0.00     0.074 A 
ATOM     33  C   UNL A   1      46.975  26.323  33.491  1.00  0.00     0.029 A 
ATOM     34  N   UNL A   1      47.213  26.179  31.280  1.00  0.00    -0.354 N 
ATOM     35  N   UNL A   1      48.569  26.741  28.668  1.00  0.00    -0.248 NA
ATOM     36  C   UNL A   1      50.265  27.812  27.466  1.00  0.00     0.031 C 
ATOM     37  C   UNL A   1      48.068  27.107  33.102  1.00  0.00     0.029 A 
ATOM     38  C   UNL A   1      48.236  26.992  31.729  1.00  0.00     0.049 A 
ATOM     39  H   UNL A   1      47.065  25.925  30.341  1.00  0.00     0.167 HD
ATOM     40  C   UNL A   1      49.368  27.450  29.553  1.00  0.00     0.074 A 
ATOM     41  C   UNL A   1      50.415  28.069  28.759  1.00  0.00     0.031 C 
ATOM     42  C   UNL A   1      49.254  27.584  30.898  1.00  0.00     0.031 A 
BRANCH  29  43
ATOM     43  C   UNL A   1      44.461  24.557  33.428  1.00  0.00    -0.014 A 
ATOM     44  C   UNL A   1      43.519  25.432  33.995  1.00  0.00     0.009 A 
ATOM     45  C   UNL A   1      44.715  23.332  34.063  1.00  0.00     0.009 A 
ATOM     46  C   UNL A   1      42.893  25.110  35.203  1.00  0.00     0.001 A 
ATOM     47  C   UNL A   1      44.067  23.000  35.254  1.00  0.00     0.001 A 
ATOM     48  C   UNL A   1      43.170  23.896  35.832  1.00  0.00     0.000 A 
ENDBRANCH  29  43
BRANCH  30  49
ATOM     49  C   UNL A   1      49.383  26.676  24.893  1.00  0.00    -0.014 A 
ATOM     50  C   UNL A   1      48.762  27.306  23.804  1.00  0.00     0.009 A 
ATOM     51  C   UNL A   1      50.738  26.319  24.780  1.00  0.00     0.009 A 
ATOM     52  C   UNL A   1      49.475  27.559  22.628  1.00  0.00     0.001 A 
ATOM     53  C   UNL A   1      51.456  26.598  23.615  1.00  0.00     0.001 A 
ATOM     54  C   UNL A   1      50.822  27.211  22.537  1.00  0.00     0.000 A 
ENDBRANCH  30  49
BRANCH  42  55
ATOM     55  C   UNL A   1      50.310  28.396  31.588  1.00  0.00    -0.014 A 
ATOM     56  C   UNL A   1      50.143  29.770  31.811  1.00  0.00     0.009 A 
ATOM     57  C   UNL A   1      51.464  27.758  32.068  1.00  0.00     0.009 A 
ATOM     58  C   UNL A   1      51.130  30.497  32.478  1.00  0.00     0.001 A 
ATOM     59  C   UNL A   1      52.434  28.480  32.759  1.00  0.00     0.001 A 
ATOM     60  C   UNL A   1      52.271  29.851  32.956  1.00  0.00     0.000 A 
ENDBRANCH  42  55
ENDBRANCH  16  17
ENDBRANCH   9  11
ENDBRANCH   8   9
ENDBRANCH   7   8
ENDBRANCH   6   7
ENDBRANCH   5   6
ENDBRANCH   4   5
ENDBRANCH   3   4
ENDBRANCH   2   3
ENDBRANCH   1   2
BRANCH   1  61
ATOM     61  C   UNL A   1      33.111  25.090  24.201  1.00  0.00     0.188 C 
BRANCH  61  62
ATOM     62  O   UNL A   1      32.420  26.318  24.018  1.00  0.00    -0.376 OA
BRANCH  62  63
ATOM     63  C   UNL A   1      32.419  27.199  25.138  1.00  0.00     0.202 C 
BRANCH  63  64
ATOM     64  C   UNL A   1      33.602  28.174  25.181  1.00  0.00     0.261 C 
BRANCH  64  65
ATOM     65  O   UNL A   1      34.042  28.536  26.500  1.00  0.00    -0.460 OA
BRANCH  65  66
ATOM     66  C   UNL A   1      33.965  29.831  26.874  1.00  0.00     0.338 C 
ATOM     67  O   UNL A   1      33.016  30.586  26.746  1.00  0.00    -0.246 OA
BRANCH  66  68
ATOM     68  C   UNL A   1      35.184  30.142  27.653  1.00  0.00     0.063 A 
ATOM     69  C   UNL A   1      36.398  29.526  27.338  1.00  0.00     0.016 A 
ATOM     70  C   UNL A   1      35.130  31.103  28.662  1.00  0.00     0.062 A 
ATOM     71  C   UNL A   1      37.554  29.884  28.034  1.00  0.00     0.005 A 
ATOM     72  C   UNL A   1      36.248  31.335  29.467  1.00  0.00     0.130 A 
ATOM     73  C   UNL A   1      37.475  30.769  29.113  1.00  0.00     0.047 A 
BRANCH  72  74
ATOM     74  O   UNL A   1      36.211  32.040  30.657  1.00  0.00    -0.438 OA
BRANCH  74  75
ATOM     75  C   UNL A   1      35.506  33.228  30.656  1.00  0.00     0.234 A 
ATOM     76  N   UNL A   1      35.261  33.714  29.413  1.00  0.00    -0.214 NA
ATOM     77  C   UNL A   1      34.978  33.806  31.820  1.00  0.00     0.087 A 
ATOM     78  C   UNL A   1      34.378  34.735  29.308  1.00  0.00     0.200 A 
ATOM     79  C   UNL A   1      34.020  34.808  31.682  1.00  0.00     0.108 A 
ATOM     80  Br  UNL A   1      35.435  33.249  33.576  1.00  0.00    -0.045 Br
ATOM     81  C   UNL A   1      33.709  35.263  30.400  1.00  0.00     0.288 A 
BRANCH  81  82
ATOM     82  N   UNL A   1      32.668  36.256  30.194  1.00  0.00     0.064 N 
ATOM     83  O   UNL A   1      32.288  36.456  29.033  1.00  0.00    -0.258 OA
ATOM     84  O   UNL A   1      32.220  36.827  31.197  1.00  0.00    -0.258 OA
ENDBRANCH  81  82
ENDBRANCH  74  75
ENDBRANCH  72  74
ENDBRANCH  66  68
ENDBRANCH  65  66
ENDBRANCH  64  65
ENDBRANCH  63  64
ENDBRANCH  62  63
ENDBRANCH  61  62
ENDBRANCH   1  61
TORSDOF 23
ENDMDL
