MODEL 1
REMARK VINA RESULT:      -8.8      0.000      0.000
REMARK SMILES O=C(CC[C@H]1CCC[N@H+](Cc2cccc(C3CC3)c2)C1)OCCOCCOCCOCCOC(=O)c1ccc(-c2c3nc(c(-c4ccccc4)c4ccc([nH]4)c(-c4ccccc4)c4nc(c(-c5ccccc5)c5ccc2[nH]5)C=C4)C=C3)cc1
REMARK SMILES IDX 25 1 24 2 23 3 22 4 21 5 2 6 1 7 3 8 4 9 5 10 6 11 20 12
REMARK SMILES IDX 7 13 9 14 8 15 10 17 11 18 12 19 19 20 13 21 15 22 14 23
REMARK SMILES IDX 16 24 17 25 18 26 26 27 27 28 28 29 29 30 30 31 31 32 32 33
REMARK SMILES IDX 33 34 34 35 35 36 36 37 37 38 83 39 38 40 82 41 39 42 40 43
REMARK SMILES IDX 41 44 76 45 42 46 81 47 75 48 77 49 43 50 80 51 74 52 73 53
REMARK SMILES IDX 44 55 66 56 51 57 65 58 52 59 55 60 64 61 78 62 53 63 54 64
REMARK SMILES IDX 63 66 79 67 56 68 45 69 46 70 50 71 47 72 49 73 48 74 67 75
REMARK SMILES IDX 68 76 72 77 69 78 71 79 70 80 57 81 58 82 62 83 59 84 61 85
REMARK SMILES IDX 60 86
REMARK H PARENT 9 16 77 54 55 65
REMARK Flexibility Score: inf
ROOT
ATOM      1  C   UNL A   1      38.817  34.624  31.823  1.00  0.00     0.188 C 
ENDROOT
BRANCH   1   2
ATOM      2  O   UNL A   1      39.659  34.464  32.954  1.00  0.00    -0.376 OA
BRANCH   2   3
ATOM      3  C   UNL A   1      39.110  34.692  34.224  1.00  0.00     0.202 C 
BRANCH   3   4
ATOM      4  C   UNL A   1      37.651  34.365  34.505  1.00  0.00     0.261 C 
BRANCH   4   5
ATOM      5  O   UNL A   1      37.017  33.413  33.692  1.00  0.00    -0.463 OA
BRANCH   5   6
ATOM      6  C   UNL A   1      35.883  33.974  33.189  1.00  0.00     0.305 C 
ATOM      7  O   UNL A   1      35.618  35.160  33.320  1.00  0.00    -0.252 OA
BRANCH   6   8
ATOM      8  C   UNL A   1      34.968  32.927  32.576  1.00  0.00     0.123 C 
BRANCH   8   9
ATOM      9  C   UNL A   1      35.524  31.627  31.963  1.00  0.00     0.021 C 
BRANCH   9  10
ATOM     10  C   UNL A   1      36.189  31.300  30.555  1.00  0.00     0.045 C 
ATOM     11  C   UNL A   1      36.930  29.949  30.617  1.00  0.00     0.015 C 
ATOM     12  C   UNL A   1      35.563  31.487  29.101  1.00  0.00     0.265 C 
ATOM     13  C   UNL A   1      37.566  29.670  29.260  1.00  0.00     0.062 C 
ATOM     14  N   UNL A   1      35.233  30.182  28.449  1.00  0.00    -0.331 N 
ATOM     15  C   UNL A   1      36.497  29.461  28.174  1.00  0.00     0.262 C 
ATOM     16  H   UNL A   1      34.636  29.701  29.123  1.00  0.00     0.348 HD
BRANCH  14  17
ATOM     17  C   UNL A   1      34.384  30.214  27.220  1.00  0.00     0.299 C 
BRANCH  17  18
ATOM     18  C   UNL A   1      33.422  29.009  27.028  1.00  0.00     0.006 A 
ATOM     19  C   UNL A   1      32.072  29.101  27.370  1.00  0.00     0.009 A 
ATOM     20  C   UNL A   1      33.836  27.741  26.549  1.00  0.00     0.013 A 
ATOM     21  C   UNL A   1      31.218  27.996  27.222  1.00  0.00     0.001 A 
ATOM     22  C   UNL A   1      32.993  26.651  26.240  1.00  0.00    -0.044 A 
ATOM     23  C   UNL A   1      31.669  26.803  26.644  1.00  0.00     0.004 A 
BRANCH  22  24
ATOM     24  C   UNL A   1      33.408  25.400  25.455  1.00  0.00     0.019 C 
ATOM     25  C   UNL A   1      33.992  25.430  24.059  1.00  0.00     0.009 C 
ATOM     26  C   UNL A   1      34.854  25.041  25.227  1.00  0.00     0.009 C 
ENDBRANCH  22  24
ENDBRANCH  17  18
ENDBRANCH  14  17
ENDBRANCH   9  10
ENDBRANCH   8   9
ENDBRANCH   6   8
ENDBRANCH   5   6
ENDBRANCH   4   5
ENDBRANCH   3   4
ENDBRANCH   2   3
ENDBRANCH   1   2
BRANCH   1  27
ATOM     27  C   UNL A   1      39.411  34.478  30.418  1.00  0.00     0.188 C 
BRANCH  27  28
ATOM     28  O   UNL A   1      40.218  33.360  30.088  1.00  0.00    -0.377 OA
BRANCH  28  29
ATOM     29  C   UNL A   1      41.619  33.546  29.929  1.00  0.00     0.188 C 
BRANCH  29  30
ATOM     30  C   UNL A   1      41.964  34.957  29.446  1.00  0.00     0.188 C 
BRANCH  30  31
ATOM     31  O   UNL A   1      42.951  34.934  28.427  1.00  0.00    -0.376 OA
BRANCH  31  32
ATOM     32  C   UNL A   1      42.974  35.991  27.473  1.00  0.00     0.202 C 
BRANCH  32  33
ATOM     33  C   UNL A   1      42.840  37.470  27.901  1.00  0.00     0.261 C 
BRANCH  33  34
ATOM     34  O   UNL A   1      43.086  38.498  26.916  1.00  0.00    -0.460 OA
BRANCH  34  35
ATOM     35  C   UNL A   1      42.840  39.789  27.211  1.00  0.00     0.338 C 
ATOM     36  O   UNL A   1      42.356  40.223  28.244  1.00  0.00    -0.246 OA
BRANCH  35  37
ATOM     37  C   UNL A   1      43.458  40.649  26.160  1.00  0.00     0.060 A 
ATOM     38  C   UNL A   1      44.813  40.454  25.855  1.00  0.00     0.016 A 
ATOM     39  C   UNL A   1      42.733  41.632  25.475  1.00  0.00     0.016 A 
ATOM     40  C   UNL A   1      45.463  41.285  24.935  1.00  0.00     0.010 A 
ATOM     41  C   UNL A   1      43.388  42.473  24.561  1.00  0.00     0.010 A 
ATOM     42  C   UNL A   1      44.771  42.342  24.331  1.00  0.00    -0.014 A 
BRANCH  42  43
ATOM     43  C   UNL A   1      45.542  43.463  23.721  1.00  0.00     0.031 A 
ATOM     44  C   UNL A   1      45.098  43.959  22.366  1.00  0.00     0.074 A 
ATOM     45  C   UNL A   1      46.566  44.079  24.343  1.00  0.00     0.049 A 
ATOM     46  N   UNL A   1      45.592  44.918  21.624  1.00  0.00    -0.248 NA
ATOM     47  C   UNL A   1      43.933  43.282  21.775  1.00  0.00     0.031 C 
ATOM     48  C   UNL A   1      47.071  43.759  25.674  1.00  0.00     0.029 A 
ATOM     49  N   UNL A   1      47.365  45.116  23.920  1.00  0.00    -0.354 N 
ATOM     50  C   UNL A   1      44.798  44.955  20.483  1.00  0.00     0.074 A 
ATOM     51  C   UNL A   1      43.817  43.901  20.612  1.00  0.00     0.031 C 
ATOM     52  C   UNL A   1      48.102  44.579  25.957  1.00  0.00     0.029 A 
ATOM     53  C   UNL A   1      48.347  45.462  24.818  1.00  0.00     0.049 A 
ATOM     54  H   UNL A   1      47.245  45.569  23.054  1.00  0.00     0.167 HD
ATOM     55  C   UNL A   1      44.862  45.795  19.423  1.00  0.00     0.031 A 
ATOM     56  C   UNL A   1      49.337  46.375  24.723  1.00  0.00     0.031 A 
ATOM     57  C   UNL A   1      45.841  46.834  19.266  1.00  0.00     0.049 A 
ATOM     58  C   UNL A   1      49.458  47.228  23.483  1.00  0.00     0.074 A 
ATOM     59  C   UNL A   1      45.985  47.731  18.222  1.00  0.00     0.029 A 
ATOM     60  N   UNL A   1      46.852  47.107  20.172  1.00  0.00    -0.354 N 
ATOM     61  N   UNL A   1      48.685  47.268  22.424  1.00  0.00    -0.248 NA
ATOM     62  C   UNL A   1      50.588  48.172  23.433  1.00  0.00     0.031 C 
ATOM     63  C   UNL A   1      47.119  48.510  18.469  1.00  0.00     0.029 A 
ATOM     64  C   UNL A   1      47.641  48.142  19.698  1.00  0.00     0.049 A 
ATOM     65  H   UNL A   1      46.989  46.636  21.026  1.00  0.00     0.167 HD
ATOM     66  C   UNL A   1      49.213  48.261  21.604  1.00  0.00     0.074 A 
ATOM     67  C   UNL A   1      50.364  48.807  22.292  1.00  0.00     0.031 C 
ATOM     68  C   UNL A   1      48.780  48.685  20.391  1.00  0.00     0.031 A 
BRANCH  55  69
ATOM     69  C   UNL A   1      43.853  45.592  18.328  1.00  0.00    -0.014 A 
ATOM     70  C   UNL A   1      42.745  46.443  18.192  1.00  0.00     0.009 A 
ATOM     71  C   UNL A   1      44.023  44.542  17.414  1.00  0.00     0.009 A 
ATOM     72  C   UNL A   1      41.807  46.222  17.181  1.00  0.00     0.001 A 
ATOM     73  C   UNL A   1      43.099  44.343  16.386  1.00  0.00     0.001 A 
ATOM     74  C   UNL A   1      41.988  45.176  16.277  1.00  0.00     0.000 A 
ENDBRANCH  55  69
BRANCH  56  75
ATOM     75  C   UNL A   1      50.328  46.530  25.825  1.00  0.00    -0.014 A 
ATOM     76  C   UNL A   1      50.137  47.482  26.838  1.00  0.00     0.009 A 
ATOM     77  C   UNL A   1      51.504  45.763  25.833  1.00  0.00     0.009 A 
ATOM     78  C   UNL A   1      51.116  47.686  27.816  1.00  0.00     0.001 A 
ATOM     79  C   UNL A   1      52.467  45.947  26.828  1.00  0.00     0.001 A 
ATOM     80  C   UNL A   1      52.278  46.915  27.812  1.00  0.00     0.000 A 
ENDBRANCH  56  75
BRANCH  68  81
ATOM     81  C   UNL A   1      49.518  49.826  19.744  1.00  0.00    -0.014 A 
ATOM     82  C   UNL A   1      50.577  49.605  18.850  1.00  0.00     0.009 A 
ATOM     83  C   UNL A   1      49.108  51.146  19.994  1.00  0.00     0.009 A 
ATOM     84  C   UNL A   1      51.233  50.683  18.251  1.00  0.00     0.001 A 
ATOM     85  C   UNL A   1      49.744  52.220  19.370  1.00  0.00     0.001 A 
ATOM     86  C   UNL A   1      50.813  51.988  18.506  1.00  0.00     0.000 A 
ENDBRANCH  68  81
ENDBRANCH  42  43
ENDBRANCH  35  37
ENDBRANCH  34  35
ENDBRANCH  33  34
ENDBRANCH  32  33
ENDBRANCH  31  32
ENDBRANCH  30  31
ENDBRANCH  29  30
ENDBRANCH  28  29
ENDBRANCH  27  28
ENDBRANCH   1  27
TORSDOF 25
ENDMDL
MODEL 2
REMARK VINA RESULT:      -8.8     15.005     19.909
REMARK SMILES O=C(CC[C@H]1CCC[N@H+](Cc2cccc(C3CC3)c2)C1)OCCOCCOCCOCCOC(=O)c1ccc(-c2c3nc(c(-c4ccccc4)c4ccc([nH]4)c(-c4ccccc4)c4nc(c(-c5ccccc5)c5ccc2[nH]5)C=C4)C=C3)cc1
REMARK SMILES IDX 25 1 24 2 23 3 22 4 21 5 2 6 1 7 3 8 4 9 5 10 6 11 20 12
REMARK SMILES IDX 7 13 9 14 8 15 10 17 11 18 12 19 19 20 13 21 15 22 14 23
REMARK SMILES IDX 16 24 17 25 18 26 26 27 27 28 28 29 29 30 30 31 31 32 32 33
REMARK SMILES IDX 33 34 34 35 35 36 36 37 37 38 83 39 38 40 82 41 39 42 40 43
REMARK SMILES IDX 41 44 76 45 42 46 81 47 75 48 77 49 43 50 80 51 74 52 73 53
REMARK SMILES IDX 44 55 66 56 51 57 65 58 52 59 55 60 64 61 78 62 53 63 54 64
REMARK SMILES IDX 63 66 79 67 56 68 45 69 46 70 50 71 47 72 49 73 48 74 67 75
REMARK SMILES IDX 68 76 72 77 69 78 71 79 70 80 57 81 58 82 62 83 59 84 61 85
REMARK SMILES IDX 60 86
REMARK H PARENT 9 16 77 54 55 65
REMARK Flexibility Score: inf
ROOT
ATOM      1  C   UNL A   1      46.048  18.988  25.386  1.00  0.00     0.188 C 
ENDROOT
BRANCH   1   2
ATOM      2  O   UNL A   1      44.947  18.093  25.358  1.00  0.00    -0.376 OA
BRANCH   2   3
ATOM      3  C   UNL A   1      43.654  18.635  25.327  1.00  0.00     0.202 C 
BRANCH   3   4
ATOM      4  C   UNL A   1      42.745  18.532  26.542  1.00  0.00     0.261 C 
BRANCH   4   5
ATOM      5  O   UNL A   1      42.256  19.720  27.107  1.00  0.00    -0.463 OA
BRANCH   5   6
ATOM      6  C   UNL A   1      41.456  20.328  26.188  1.00  0.00     0.305 C 
ATOM      7  O   UNL A   1      41.753  21.384  25.649  1.00  0.00    -0.252 OA
BRANCH   6   8
ATOM      8  C   UNL A   1      40.134  19.597  26.031  1.00  0.00     0.123 C 
BRANCH   8   9
ATOM      9  C   UNL A   1      38.970  20.197  25.219  1.00  0.00     0.021 C 
BRANCH   9  10
ATOM     10  C   UNL A   1      37.845  21.265  25.578  1.00  0.00     0.045 C 
ATOM     11  C   UNL A   1      38.487  22.634  25.879  1.00  0.00     0.015 C 
ATOM     12  C   UNL A   1      36.437  21.493  24.865  1.00  0.00     0.265 C 
ATOM     13  C   UNL A   1      37.388  23.630  26.232  1.00  0.00     0.062 C 
ATOM     14  N   UNL A   1      36.394  22.765  24.080  1.00  0.00    -0.331 N 
ATOM     15  C   UNL A   1      36.473  23.903  25.025  1.00  0.00     0.262 C 
ATOM     16  H   UNL A   1      37.197  22.709  23.454  1.00  0.00     0.348 HD
BRANCH  14  17
ATOM     17  C   UNL A   1      35.252  22.962  23.137  1.00  0.00     0.299 C 
BRANCH  17  18
ATOM     18  C   UNL A   1      34.083  23.840  23.662  1.00  0.00     0.006 A 
ATOM     19  C   UNL A   1      33.151  23.336  24.570  1.00  0.00     0.009 A 
ATOM     20  C   UNL A   1      33.847  25.172  23.237  1.00  0.00     0.013 A 
ATOM     21  C   UNL A   1      32.081  24.128  25.015  1.00  0.00     0.001 A 
ATOM     22  C   UNL A   1      32.882  26.057  23.764  1.00  0.00    -0.044 A 
ATOM     23  C   UNL A   1      31.966  25.471  24.635  1.00  0.00     0.004 A 
BRANCH  22  24
ATOM     24  C   UNL A   1      32.827  27.568  23.509  1.00  0.00     0.019 C 
ATOM     25  C   UNL A   1      33.671  28.584  24.247  1.00  0.00     0.009 C 
ATOM     26  C   UNL A   1      33.934  28.301  22.795  1.00  0.00     0.009 C 
ENDBRANCH  22  24
ENDBRANCH  17  18
ENDBRANCH  14  17
ENDBRANCH   9  10
ENDBRANCH   8   9
ENDBRANCH   6   8
ENDBRANCH   5   6
ENDBRANCH   4   5
ENDBRANCH   3   4
ENDBRANCH   2   3
ENDBRANCH   1   2
BRANCH   1  27
ATOM     27  C   UNL A   1      45.876  20.407  24.834  1.00  0.00     0.188 C 
BRANCH  27  28
ATOM     28  O   UNL A   1      46.258  21.534  25.606  1.00  0.00    -0.377 OA
BRANCH  28  29
ATOM     29  C   UNL A   1      46.108  22.833  25.048  1.00  0.00     0.188 C 
BRANCH  29  30
ATOM     30  C   UNL A   1      45.140  22.843  23.862  1.00  0.00     0.188 C 
BRANCH  30  31
ATOM     31  O   UNL A   1      43.882  23.394  24.218  1.00  0.00    -0.376 OA
BRANCH  31  32
ATOM     32  C   UNL A   1      43.853  24.583  25.000  1.00  0.00     0.202 C 
BRANCH  32  33
ATOM     33  C   UNL A   1      42.664  24.909  25.932  1.00  0.00     0.261 C 
BRANCH  33  34
ATOM     34  O   UNL A   1      42.887  25.793  27.053  1.00  0.00    -0.460 OA
BRANCH  34  35
ATOM     35  C   UNL A   1      42.060  26.836  27.266  1.00  0.00     0.338 C 
ATOM     36  O   UNL A   1      41.108  27.164  26.579  1.00  0.00    -0.246 OA
BRANCH  35  37
ATOM     37  C   UNL A   1      42.350  27.411  28.611  1.00  0.00     0.060 A 
ATOM     38  C   UNL A   1      43.661  27.829  28.887  1.00  0.00     0.016 A 
ATOM     39  C   UNL A   1      41.364  27.550  29.595  1.00  0.00     0.016 A 
ATOM     40  C   UNL A   1      44.006  28.303  30.158  1.00  0.00     0.010 A 
ATOM     41  C   UNL A   1      41.713  28.014  30.874  1.00  0.00     0.010 A 
ATOM     42  C   UNL A   1      43.048  28.336  31.179  1.00  0.00    -0.014 A 
BRANCH  42  43
ATOM     43  C   UNL A   1      43.500  28.408  32.598  1.00  0.00     0.031 A 
ATOM     44  C   UNL A   1      44.045  27.145  33.222  1.00  0.00     0.074 A 
ATOM     45  C   UNL A   1      43.496  29.546  33.318  1.00  0.00     0.049 A 
ATOM     46  N   UNL A   1      44.505  26.940  34.430  1.00  0.00    -0.248 NA
ATOM     47  C   UNL A   1      44.080  25.955  32.356  1.00  0.00     0.031 C 
ATOM     48  C   UNL A   1      43.062  30.854  32.841  1.00  0.00     0.029 A 
ATOM     49  N   UNL A   1      43.878  29.774  34.621  1.00  0.00    -0.354 N 
ATOM     50  C   UNL A   1      44.881  25.602  34.466  1.00  0.00     0.074 A 
ATOM     51  C   UNL A   1      44.561  25.035  33.175  1.00  0.00     0.031 C 
ATOM     52  C   UNL A   1      43.194  31.749  33.840  1.00  0.00     0.029 A 
ATOM     53  C   UNL A   1      43.696  31.071  35.035  1.00  0.00     0.049 A 
ATOM     54  H   UNL A   1      44.249  29.071  35.203  1.00  0.00     0.167 HD
ATOM     55  C   UNL A   1      45.454  24.901  35.472  1.00  0.00     0.031 A 
ATOM     56  C   UNL A   1      43.896  31.641  36.241  1.00  0.00     0.031 A 
ATOM     57  C   UNL A   1      45.759  25.439  36.768  1.00  0.00     0.049 A 
ATOM     58  C   UNL A   1      44.435  30.814  37.385  1.00  0.00     0.074 A 
ATOM     59  C   UNL A   1      46.338  24.801  37.852  1.00  0.00     0.029 A 
ATOM     60  N   UNL A   1      45.502  26.742  37.161  1.00  0.00    -0.354 N 
ATOM     61  N   UNL A   1      44.808  29.557  37.395  1.00  0.00    -0.248 NA
ATOM     62  C   UNL A   1      44.587  31.492  38.683  1.00  0.00     0.031 C 
ATOM     63  C   UNL A   1      46.376  25.702  38.919  1.00  0.00     0.029 A 
ATOM     64  C   UNL A   1      45.883  26.920  38.480  1.00  0.00     0.049 A 
ATOM     65  H   UNL A   1      45.106  27.438  36.587  1.00  0.00     0.167 HD
ATOM     66  C   UNL A   1      45.270  29.307  38.684  1.00  0.00     0.074 A 
ATOM     67  C   UNL A   1      45.143  30.545  39.424  1.00  0.00     0.031 C 
ATOM     68  C   UNL A   1      45.761  28.156  39.207  1.00  0.00     0.031 A 
BRANCH  55  69
ATOM     69  C   UNL A   1      45.753  23.451  35.212  1.00  0.00    -0.014 A 
ATOM     70  C   UNL A   1      47.044  23.026  34.859  1.00  0.00     0.009 A 
ATOM     71  C   UNL A   1      44.731  22.498  35.334  1.00  0.00     0.009 A 
ATOM     72  C   UNL A   1      47.295  21.677  34.599  1.00  0.00     0.001 A 
ATOM     73  C   UNL A   1      44.993  21.147  35.103  1.00  0.00     0.001 A 
ATOM     74  C   UNL A   1      46.271  20.739  34.725  1.00  0.00     0.000 A 
ENDBRANCH  55  69
BRANCH  56  75
ATOM     75  C   UNL A   1      43.568  33.078  36.461  1.00  0.00    -0.014 A 
ATOM     76  C   UNL A   1      42.276  33.472  36.842  1.00  0.00     0.009 A 
ATOM     77  C   UNL A   1      44.535  34.069  36.229  1.00  0.00     0.009 A 
ATOM     78  C   UNL A   1      41.950  34.828  36.955  1.00  0.00     0.001 A 
ATOM     79  C   UNL A   1      44.216  35.421  36.373  1.00  0.00     0.001 A 
ATOM     80  C   UNL A   1      42.923  35.800  36.725  1.00  0.00     0.000 A 
ENDBRANCH  56  75
BRANCH  68  81
ATOM     81  C   UNL A   1      46.245  28.184  40.632  1.00  0.00    -0.014 A 
ATOM     82  C   UNL A   1      45.385  27.909  41.706  1.00  0.00     0.009 A 
ATOM     83  C   UNL A   1      47.600  28.440  40.898  1.00  0.00     0.009 A 
ATOM     84  C   UNL A   1      45.866  27.926  43.018  1.00  0.00     0.001 A 
ATOM     85  C   UNL A   1      48.085  28.425  42.206  1.00  0.00     0.001 A 
ATOM     86  C   UNL A   1      47.215  28.177  43.266  1.00  0.00     0.000 A 
ENDBRANCH  68  81
ENDBRANCH  42  43
ENDBRANCH  35  37
ENDBRANCH  34  35
ENDBRANCH  33  34
ENDBRANCH  32  33
ENDBRANCH  31  32
ENDBRANCH  30  31
ENDBRANCH  29  30
ENDBRANCH  28  29
ENDBRANCH  27  28
ENDBRANCH   1  27
TORSDOF 25
ENDMDL
MODEL 3
REMARK VINA RESULT:      -8.7     14.445     17.922
REMARK SMILES O=C(CC[C@H]1CCC[N@H+](Cc2cccc(C3CC3)c2)C1)OCCOCCOCCOCCOC(=O)c1ccc(-c2c3nc(c(-c4ccccc4)c4ccc([nH]4)c(-c4ccccc4)c4nc(c(-c5ccccc5)c5ccc2[nH]5)C=C4)C=C3)cc1
REMARK SMILES IDX 25 1 24 2 23 3 22 4 21 5 2 6 1 7 3 8 4 9 5 10 6 11 20 12
REMARK SMILES IDX 7 13 9 14 8 15 10 17 11 18 12 19 19 20 13 21 15 22 14 23
REMARK SMILES IDX 16 24 17 25 18 26 26 27 27 28 28 29 29 30 30 31 31 32 32 33
REMARK SMILES IDX 33 34 34 35 35 36 36 37 37 38 83 39 38 40 82 41 39 42 40 43
REMARK SMILES IDX 41 44 76 45 42 46 81 47 75 48 77 49 43 50 80 51 74 52 73 53
REMARK SMILES IDX 44 55 66 56 51 57 65 58 52 59 55 60 64 61 78 62 53 63 54 64
REMARK SMILES IDX 63 66 79 67 56 68 45 69 46 70 50 71 47 72 49 73 48 74 67 75
REMARK SMILES IDX 68 76 72 77 69 78 71 79 70 80 57 81 58 82 62 83 59 84 61 85
REMARK SMILES IDX 60 86
REMARK H PARENT 9 16 77 54 55 65
REMARK Flexibility Score: inf
ROOT
ATOM      1  C   UNL A   1      46.023  18.952  25.191  1.00  0.00     0.188 C 
ENDROOT
BRANCH   1   2
ATOM      2  O   UNL A   1      44.923  18.112  25.504  1.00  0.00    -0.376 OA
BRANCH   2   3
ATOM      3  C   UNL A   1      43.632  18.648  25.402  1.00  0.00     0.202 C 
BRANCH   3   4
ATOM      4  C   UNL A   1      42.643  18.502  26.549  1.00  0.00     0.261 C 
BRANCH   4   5
ATOM      5  O   UNL A   1      42.105  19.669  27.112  1.00  0.00    -0.463 OA
BRANCH   5   6
ATOM      6  C   UNL A   1      41.286  20.246  26.190  1.00  0.00     0.305 C 
ATOM      7  O   UNL A   1      41.474  21.371  25.752  1.00  0.00    -0.252 OA
BRANCH   6   8
ATOM      8  C   UNL A   1      40.079  19.372  25.892  1.00  0.00     0.123 C 
BRANCH   8   9
ATOM      9  C   UNL A   1      38.836  19.928  25.171  1.00  0.00     0.021 C 
BRANCH   9  10
ATOM     10  C   UNL A   1      37.803  21.080  25.542  1.00  0.00     0.045 C 
ATOM     11  C   UNL A   1      38.553  22.396  25.832  1.00  0.00     0.015 C 
ATOM     12  C   UNL A   1      36.408  21.415  24.846  1.00  0.00     0.265 C 
ATOM     13  C   UNL A   1      37.539  23.475  26.196  1.00  0.00     0.062 C 
ATOM     14  N   UNL A   1      36.454  22.687  24.059  1.00  0.00    -0.331 N 
ATOM     15  C   UNL A   1      36.632  23.815  25.000  1.00  0.00     0.262 C 
ATOM     16  H   UNL A   1      37.242  22.567  23.422  1.00  0.00     0.348 HD
BRANCH  14  17
ATOM     17  C   UNL A   1      35.318  22.969  23.130  1.00  0.00     0.299 C 
BRANCH  17  18
ATOM     18  C   UNL A   1      34.135  23.776  23.732  1.00  0.00     0.006 A 
ATOM     19  C   UNL A   1      33.171  23.159  24.531  1.00  0.00     0.009 A 
ATOM     20  C   UNL A   1      33.917  25.156  23.487  1.00  0.00     0.013 A 
ATOM     21  C   UNL A   1      32.089  23.891  25.045  1.00  0.00     0.001 A 
ATOM     22  C   UNL A   1      32.937  25.967  24.098  1.00  0.00    -0.044 A 
ATOM     23  C   UNL A   1      31.991  25.274  24.850  1.00  0.00     0.004 A 
BRANCH  22  24
ATOM     24  C   UNL A   1      32.896  27.500  24.052  1.00  0.00     0.019 C 
ATOM     25  C   UNL A   1      33.682  28.397  24.982  1.00  0.00     0.009 C 
ATOM     26  C   UNL A   1      34.048  28.317  23.527  1.00  0.00     0.009 C 
ENDBRANCH  22  24
ENDBRANCH  17  18
ENDBRANCH  14  17
ENDBRANCH   9  10
ENDBRANCH   8   9
ENDBRANCH   6   8
ENDBRANCH   5   6
ENDBRANCH   4   5
ENDBRANCH   3   4
ENDBRANCH   2   3
ENDBRANCH   1   2
BRANCH   1  27
ATOM     27  C   UNL A   1      45.770  20.420  24.836  1.00  0.00     0.188 C 
BRANCH  27  28
ATOM     28  O   UNL A   1      46.388  21.460  25.576  1.00  0.00    -0.377 OA
BRANCH  28  29
ATOM     29  C   UNL A   1      45.969  22.802  25.361  1.00  0.00     0.188 C 
BRANCH  29  30
ATOM     30  C   UNL A   1      44.615  22.876  24.649  1.00  0.00     0.188 C 
BRANCH  30  31
ATOM     31  O   UNL A   1      43.668  23.617  25.402  1.00  0.00    -0.376 OA
BRANCH  31  32
ATOM     32  C   UNL A   1      44.131  24.681  26.226  1.00  0.00     0.202 C 
BRANCH  32  33
ATOM     33  C   UNL A   1      43.759  26.152  25.932  1.00  0.00     0.261 C 
BRANCH  33  34
ATOM     34  O   UNL A   1      43.449  27.022  27.043  1.00  0.00    -0.460 OA
BRANCH  34  35
ATOM     35  C   UNL A   1      43.346  28.351  26.853  1.00  0.00     0.338 C 
ATOM     36  O   UNL A   1      43.543  28.957  25.813  1.00  0.00    -0.246 OA
BRANCH  35  37
ATOM     37  C   UNL A   1      42.731  28.965  28.066  1.00  0.00     0.060 A 
ATOM     38  C   UNL A   1      43.053  30.295  28.373  1.00  0.00     0.016 A 
ATOM     39  C   UNL A   1      41.851  28.262  28.896  1.00  0.00     0.016 A 
ATOM     40  C   UNL A   1      42.568  30.895  29.541  1.00  0.00     0.010 A 
ATOM     41  C   UNL A   1      41.373  28.859  30.075  1.00  0.00     0.010 A 
ATOM     42  C   UNL A   1      41.778  30.159  30.433  1.00  0.00    -0.014 A 
BRANCH  42  43
ATOM     43  C   UNL A   1      41.640  30.628  31.841  1.00  0.00     0.031 A 
ATOM     44  C   UNL A   1      40.370  31.355  32.213  1.00  0.00     0.074 A 
ATOM     45  C   UNL A   1      42.560  30.386  32.794  1.00  0.00     0.049 A 
ATOM     46  N   UNL A   1      40.001  31.859  33.363  1.00  0.00    -0.248 NA
ATOM     47  C   UNL A   1      39.380  31.528  31.137  1.00  0.00     0.031 C 
ATOM     48  C   UNL A   1      43.804  29.646  32.609  1.00  0.00     0.029 A 
ATOM     49  N   UNL A   1      42.578  30.745  34.123  1.00  0.00    -0.354 N 
ATOM     50  C   UNL A   1      38.742  32.407  33.146  1.00  0.00     0.074 A 
ATOM     51  C   UNL A   1      38.426  32.209  31.749  1.00  0.00     0.031 C 
ATOM     52  C   UNL A   1      44.470  29.612  33.779  1.00  0.00     0.029 A 
ATOM     53  C   UNL A   1      43.713  30.351  34.790  1.00  0.00     0.049 A 
ATOM     54  H   UNL A   1      41.844  31.239  34.556  1.00  0.00     0.167 HD
ATOM     55  C   UNL A   1      37.908  33.011  34.025  1.00  0.00     0.031 A 
ATOM     56  C   UNL A   1      44.102  30.574  36.063  1.00  0.00     0.031 A 
ATOM     57  C   UNL A   1      38.211  33.238  35.411  1.00  0.00     0.049 A 
ATOM     58  C   UNL A   1      43.204  31.347  36.999  1.00  0.00     0.074 A 
ATOM     59  C   UNL A   1      37.428  33.847  36.376  1.00  0.00     0.029 A 
ATOM     60  N   UNL A   1      39.398  32.876  36.027  1.00  0.00    -0.354 N 
ATOM     61  N   UNL A   1      42.006  31.837  36.785  1.00  0.00    -0.248 NA
ATOM     62  C   UNL A   1      43.713  31.589  38.360  1.00  0.00     0.031 C 
ATOM     63  C   UNL A   1      38.164  33.904  37.563  1.00  0.00     0.029 A 
ATOM     64  C   UNL A   1      39.379  33.273  37.353  1.00  0.00     0.049 A 
ATOM     65  H   UNL A   1      40.143  32.406  35.587  1.00  0.00     0.167 HD
ATOM     66  C   UNL A   1      41.608  32.409  37.990  1.00  0.00     0.074 A 
ATOM     67  C   UNL A   1      42.684  32.196  38.934  1.00  0.00     0.031 C 
ATOM     68  C   UNL A   1      40.451  33.050  38.288  1.00  0.00     0.031 A 
BRANCH  55  69
ATOM     69  C   UNL A   1      36.592  33.505  33.492  1.00  0.00    -0.014 A 
ATOM     70  C   UNL A   1      35.486  32.648  33.376  1.00  0.00     0.009 A 
ATOM     71  C   UNL A   1      36.457  34.849  33.113  1.00  0.00     0.009 A 
ATOM     72  C   UNL A   1      34.280  33.121  32.856  1.00  0.00     0.001 A 
ATOM     73  C   UNL A   1      35.240  35.326  32.622  1.00  0.00     0.001 A 
ATOM     74  C   UNL A   1      34.157  34.459  32.484  1.00  0.00     0.000 A 
ENDBRANCH  55  69
BRANCH  56  75
ATOM     75  C   UNL A   1      45.424  30.084  36.545  1.00  0.00    -0.014 A 
ATOM     76  C   UNL A   1      46.583  30.858  36.382  1.00  0.00     0.009 A 
ATOM     77  C   UNL A   1      45.539  28.807  37.117  1.00  0.00     0.009 A 
ATOM     78  C   UNL A   1      47.833  30.352  36.752  1.00  0.00     0.001 A 
ATOM     79  C   UNL A   1      46.785  28.316  37.514  1.00  0.00     0.001 A 
ATOM     80  C   UNL A   1      47.932  29.082  37.321  1.00  0.00     0.000 A 
ENDBRANCH  56  75
BRANCH  68  81
ATOM     81  C   UNL A   1      40.259  33.528  39.703  1.00  0.00    -0.014 A 
ATOM     82  C   UNL A   1      40.376  34.885  40.043  1.00  0.00     0.009 A 
ATOM     83  C   UNL A   1      39.903  32.607  40.702  1.00  0.00     0.009 A 
ATOM     84  C   UNL A   1      40.176  35.302  41.361  1.00  0.00     0.001 A 
ATOM     85  C   UNL A   1      39.673  33.031  42.012  1.00  0.00     0.001 A 
ATOM     86  C   UNL A   1      39.820  34.377  42.342  1.00  0.00     0.000 A 
ENDBRANCH  68  81
ENDBRANCH  42  43
ENDBRANCH  35  37
ENDBRANCH  34  35
ENDBRANCH  33  34
ENDBRANCH  32  33
ENDBRANCH  31  32
ENDBRANCH  30  31
ENDBRANCH  29  30
ENDBRANCH  28  29
ENDBRANCH  27  28
ENDBRANCH   1  27
TORSDOF 25
ENDMDL
