MODEL 1
REMARK VINA RESULT:      -9.8      0.000      0.000
REMARK SMILES O=C(COc1ccccc1C[NH+]1CCC2(CC[NH2+]CC2)CC1)OCCOCCOCCOCCOC(=O)c1ccc(-c2c3nc(c(-c4ccccc4)c4ccc([nH]4)c(-c4ccccc4)c4nc(c(-c5ccccc5)c5ccc2[nH]5)C=C4)C=C3)cc1
REMARK SMILES IDX 28 1 27 2 26 3 25 4 24 5 23 6 2 7 1 8 3 9 4 10 5 11 6 12
REMARK SMILES IDX 10 13 7 14 9 15 8 16 11 17 12 18 13 19 22 20 14 22 21 23
REMARK SMILES IDX 15 24 16 25 20 26 17 27 19 28 18 29 29 32 30 33 31 34 32 35
REMARK SMILES IDX 33 36 34 37 35 38 36 39 37 40 38 41 39 42 85 43 40 44 84 45
REMARK SMILES IDX 41 46 42 47 43 48 78 49 44 50 83 51 77 52 79 53 45 54 82 55
REMARK SMILES IDX 76 56 75 57 46 59 68 60 53 61 67 62 54 63 57 64 66 65 80 66
REMARK SMILES IDX 55 67 56 68 65 70 81 71 58 72 47 73 48 74 52 75 49 76 51 77
REMARK SMILES IDX 50 78 69 79 70 80 74 81 71 82 73 83 72 84 59 85 60 86 64 87
REMARK SMILES IDX 61 88 63 89 62 90
REMARK H PARENT 12 21 18 30 18 31 79 58 57 69
REMARK Flexibility Score: inf
ROOT
ATOM      1  C   UNL A   1      34.904  22.431  26.704  1.00  0.00     0.188 C 
ENDROOT
BRANCH   1   2
ATOM      2  C   UNL A   1      34.361  21.071  26.205  1.00  0.00     0.188 C 
BRANCH   2   3
ATOM      3  O   UNL A   1      34.000  20.849  24.846  1.00  0.00    -0.376 OA
BRANCH   3   4
ATOM      4  C   UNL A   1      32.792  21.268  24.234  1.00  0.00     0.202 C 
BRANCH   4   5
ATOM      5  C   UNL A   1      31.639  21.907  25.007  1.00  0.00     0.261 C 
BRANCH   5   6
ATOM      6  O   UNL A   1      31.784  23.293  25.348  1.00  0.00    -0.461 OA
BRANCH   6   7
ATOM      7  C   UNL A   1      30.937  24.005  26.127  1.00  0.00     0.344 C 
ATOM      8  O   UNL A   1      30.869  23.787  27.337  1.00  0.00    -0.248 OA
BRANCH   7   9
ATOM      9  C   UNL A   1      30.125  25.087  25.470  1.00  0.00     0.351 C 
BRANCH   9  10
ATOM     10  O   UNL A   1      30.341  25.078  24.063  1.00  0.00    -0.481 OA
BRANCH  10  11
ATOM     11  C   UNL A   1      30.040  26.291  23.520  1.00  0.00     0.129 A 
ATOM     12  C   UNL A   1      28.769  26.760  23.879  1.00  0.00     0.047 A 
ATOM     13  C   UNL A   1      30.907  27.018  22.676  1.00  0.00     0.048 A 
ATOM     14  C   UNL A   1      28.361  28.020  23.479  1.00  0.00     0.004 A 
ATOM     15  C   UNL A   1      30.500  28.326  22.375  1.00  0.00     0.013 A 
ATOM     16  C   UNL A   1      29.242  28.814  22.753  1.00  0.00     0.001 A 
BRANCH  13  17
ATOM     17  C   UNL A   1      32.259  26.537  22.158  1.00  0.00     0.302 C 
BRANCH  17  18
ATOM     18  N   UNL A   1      33.542  26.826  22.810  1.00  0.00    -0.331 N 
ATOM     19  C   UNL A   1      33.921  28.223  22.945  1.00  0.00     0.263 C 
ATOM     20  C   UNL A   1      33.888  26.077  23.989  1.00  0.00     0.263 C 
ATOM     21  H   UNL A   1      34.128  26.441  22.069  1.00  0.00     0.348 HD
ATOM     22  C   UNL A   1      33.119  28.921  24.026  1.00  0.00     0.069 C 
ATOM     23  C   UNL A   1      33.202  26.605  25.240  1.00  0.00     0.069 C 
ATOM     24  C   UNL A   1      33.094  28.155  25.380  1.00  0.00    -0.008 C 
ATOM     25  C   UNL A   1      34.250  28.653  26.282  1.00  0.00     0.069 C 
ATOM     26  C   UNL A   1      31.749  28.458  26.091  1.00  0.00     0.069 C 
ATOM     27  C   UNL A   1      34.027  30.065  26.831  1.00  0.00     0.261 C 
ATOM     28  C   UNL A   1      31.639  29.895  26.577  1.00  0.00     0.261 C 
ATOM     29  N   UNL A   1      32.730  30.204  27.498  1.00  0.00    -0.346 N 
ATOM     30  H   UNL A   1      32.627  31.162  27.832  1.00  0.00     0.346 HD
ATOM     31  H   UNL A   1      32.693  29.550  28.281  1.00  0.00     0.346 HD
ENDBRANCH  17  18
ENDBRANCH  13  17
ENDBRANCH  10  11
ENDBRANCH   9  10
ENDBRANCH   7   9
ENDBRANCH   6   7
ENDBRANCH   5   6
ENDBRANCH   4   5
ENDBRANCH   3   4
ENDBRANCH   2   3
ENDBRANCH   1   2
BRANCH   1  32
ATOM     32  O   UNL A   1      35.184  23.367  25.678  1.00  0.00    -0.377 OA
BRANCH  32  33
ATOM     33  C   UNL A   1      36.512  23.846  25.550  1.00  0.00     0.188 C 
BRANCH  33  34
ATOM     34  C   UNL A   1      37.688  22.889  25.831  1.00  0.00     0.188 C 
BRANCH  34  35
ATOM     35  O   UNL A   1      37.876  21.881  24.862  1.00  0.00    -0.376 OA
BRANCH  35  36
ATOM     36  C   UNL A   1      37.808  20.502  25.150  1.00  0.00     0.202 C 
BRANCH  36  37
ATOM     37  C   UNL A   1      39.088  19.660  25.184  1.00  0.00     0.261 C 
BRANCH  37  38
ATOM     38  O   UNL A   1      39.906  19.811  26.342  1.00  0.00    -0.460 OA
BRANCH  38  39
ATOM     39  C   UNL A   1      41.235  19.627  26.168  1.00  0.00     0.338 C 
ATOM     40  O   UNL A   1      41.789  18.689  25.646  1.00  0.00    -0.246 OA
BRANCH  39  41
ATOM     41  C   UNL A   1      41.882  20.903  26.541  1.00  0.00     0.060 A 
ATOM     42  C   UNL A   1      42.014  21.218  27.901  1.00  0.00     0.016 A 
ATOM     43  C   UNL A   1      42.395  21.748  25.555  1.00  0.00     0.016 A 
ATOM     44  C   UNL A   1      42.631  22.405  28.278  1.00  0.00     0.010 A 
ATOM     45  C   UNL A   1      42.975  22.956  25.930  1.00  0.00     0.010 A 
ATOM     46  C   UNL A   1      43.052  23.302  27.290  1.00  0.00    -0.014 A 
BRANCH  46  47
ATOM     47  C   UNL A   1      43.290  24.709  27.666  1.00  0.00     0.031 A 
ATOM     48  C   UNL A   1      44.720  25.164  27.752  1.00  0.00     0.074 A 
ATOM     49  C   UNL A   1      42.276  25.559  27.894  1.00  0.00     0.049 A 
ATOM     50  N   UNL A   1      45.203  26.324  28.106  1.00  0.00    -0.248 NA
ATOM     51  C   UNL A   1      45.745  24.168  27.387  1.00  0.00     0.031 C 
ATOM     52  C   UNL A   1      40.855  25.241  27.776  1.00  0.00     0.029 A 
ATOM     53  N   UNL A   1      42.301  26.873  28.281  1.00  0.00    -0.354 N 
ATOM     54  C   UNL A   1      46.583  26.193  28.017  1.00  0.00     0.074 A 
ATOM     55  C   UNL A   1      46.864  24.839  27.604  1.00  0.00     0.031 C 
ATOM     56  C   UNL A   1      40.140  26.333  28.099  1.00  0.00     0.029 A 
ATOM     57  C   UNL A   1      41.054  27.408  28.482  1.00  0.00     0.049 A 
ATOM     58  H   UNL A   1      43.134  27.384  28.403  1.00  0.00     0.167 HD
ATOM     59  C   UNL A   1      47.533  27.124  28.259  1.00  0.00     0.031 A 
ATOM     60  C   UNL A   1      40.702  28.620  28.951  1.00  0.00     0.031 A 
ATOM     61  C   UNL A   1      47.246  28.461  28.695  1.00  0.00     0.049 A 
ATOM     62  C   UNL A   1      41.783  29.606  29.310  1.00  0.00     0.074 A 
ATOM     63  C   UNL A   1      48.131  29.487  28.971  1.00  0.00     0.029 A 
ATOM     64  N   UNL A   1      45.970  28.952  28.934  1.00  0.00    -0.354 N 
ATOM     65  N   UNL A   1      43.085  29.485  29.207  1.00  0.00    -0.248 NA
ATOM     66  C   UNL A   1      41.342  30.902  29.845  1.00  0.00     0.031 C 
ATOM     67  C   UNL A   1      47.395  30.579  29.439  1.00  0.00     0.029 A 
ATOM     68  C   UNL A   1      46.046  30.258  29.384  1.00  0.00     0.049 A 
ATOM     69  H   UNL A   1      45.136  28.446  28.803  1.00  0.00     0.167 HD
ATOM     70  C   UNL A   1      43.616  30.699  29.630  1.00  0.00     0.074 A 
ATOM     71  C   UNL A   1      42.494  31.545  29.977  1.00  0.00     0.031 C 
ATOM     72  C   UNL A   1      44.914  31.082  29.721  1.00  0.00     0.031 A 
BRANCH  59  73
ATOM     73  C   UNL A   1      48.967  26.703  28.104  1.00  0.00    -0.014 A 
ATOM     74  C   UNL A   1      49.746  26.327  29.210  1.00  0.00     0.009 A 
ATOM     75  C   UNL A   1      49.544  26.671  26.825  1.00  0.00     0.009 A 
ATOM     76  C   UNL A   1      51.082  25.958  29.042  1.00  0.00     0.001 A 
ATOM     77  C   UNL A   1      50.870  26.272  26.655  1.00  0.00     0.001 A 
ATOM     78  C   UNL A   1      51.641  25.925  27.764  1.00  0.00     0.000 A 
ENDBRANCH  59  73
BRANCH  60  79
ATOM     79  C   UNL A   1      39.267  28.962  29.137  1.00  0.00    -0.014 A 
ATOM     80  C   UNL A   1      38.541  29.595  28.117  1.00  0.00     0.009 A 
ATOM     81  C   UNL A   1      38.622  28.683  30.353  1.00  0.00     0.009 A 
ATOM     82  C   UNL A   1      37.211  29.968  28.321  1.00  0.00     0.001 A 
ATOM     83  C   UNL A   1      37.282  29.027  30.542  1.00  0.00     0.001 A 
ATOM     84  C   UNL A   1      36.580  29.680  29.531  1.00  0.00     0.000 A 
ENDBRANCH  60  79
BRANCH  72  85
ATOM     85  C   UNL A   1      45.190  32.491  30.166  1.00  0.00    -0.014 A 
ATOM     86  C   UNL A   1      45.411  32.805  31.516  1.00  0.00     0.009 A 
ATOM     87  C   UNL A   1      45.281  33.513  29.207  1.00  0.00     0.009 A 
ATOM     88  C   UNL A   1      45.681  34.122  31.897  1.00  0.00     0.001 A 
ATOM     89  C   UNL A   1      45.585  34.820  29.586  1.00  0.00     0.001 A 
ATOM     90  C   UNL A   1      45.773  35.126  30.933  1.00  0.00     0.000 A 
ENDBRANCH  72  85
ENDBRANCH  46  47
ENDBRANCH  39  41
ENDBRANCH  38  39
ENDBRANCH  37  38
ENDBRANCH  36  37
ENDBRANCH  35  36
ENDBRANCH  34  35
ENDBRANCH  33  34
ENDBRANCH  32  33
ENDBRANCH   1  32
TORSDOF 24
ENDMDL
MODEL 2
REMARK VINA RESULT:      -9.2      3.733      7.292
REMARK SMILES O=C(COc1ccccc1C[NH+]1CCC2(CC[NH2+]CC2)CC1)OCCOCCOCCOCCOC(=O)c1ccc(-c2c3nc(c(-c4ccccc4)c4ccc([nH]4)c(-c4ccccc4)c4nc(c(-c5ccccc5)c5ccc2[nH]5)C=C4)C=C3)cc1
REMARK SMILES IDX 28 1 27 2 26 3 25 4 24 5 23 6 2 7 1 8 3 9 4 10 5 11 6 12
REMARK SMILES IDX 10 13 7 14 9 15 8 16 11 17 12 18 13 19 22 20 14 22 21 23
REMARK SMILES IDX 15 24 16 25 20 26 17 27 19 28 18 29 29 32 30 33 31 34 32 35
REMARK SMILES IDX 33 36 34 37 35 38 36 39 37 40 38 41 39 42 85 43 40 44 84 45
REMARK SMILES IDX 41 46 42 47 43 48 78 49 44 50 83 51 77 52 79 53 45 54 82 55
REMARK SMILES IDX 76 56 75 57 46 59 68 60 53 61 67 62 54 63 57 64 66 65 80 66
REMARK SMILES IDX 55 67 56 68 65 70 81 71 58 72 47 73 48 74 52 75 49 76 51 77
REMARK SMILES IDX 50 78 69 79 70 80 74 81 71 82 73 83 72 84 59 85 60 86 64 87
REMARK SMILES IDX 61 88 63 89 62 90
REMARK H PARENT 12 21 18 30 18 31 79 58 57 69
REMARK Flexibility Score: inf
ROOT
ATOM      1  C   UNL A   1      36.333  23.132  25.969  1.00  0.00     0.188 C 
ENDROOT
BRANCH   1   2
ATOM      2  C   UNL A   1      34.812  23.333  26.169  1.00  0.00     0.188 C 
BRANCH   2   3
ATOM      3  O   UNL A   1      33.936  22.253  26.474  1.00  0.00    -0.376 OA
BRANCH   3   4
ATOM      4  C   UNL A   1      33.521  21.245  25.566  1.00  0.00     0.202 C 
BRANCH   4   5
ATOM      5  C   UNL A   1      32.090  21.123  25.047  1.00  0.00     0.261 C 
BRANCH   5   6
ATOM      6  O   UNL A   1      31.383  22.349  24.812  1.00  0.00    -0.461 OA
BRANCH   6   7
ATOM      7  C   UNL A   1      30.920  23.186  25.768  1.00  0.00     0.344 C 
ATOM      8  O   UNL A   1      30.799  22.800  26.931  1.00  0.00    -0.248 OA
BRANCH   7   9
ATOM      9  C   UNL A   1      30.604  24.601  25.366  1.00  0.00     0.351 C 
BRANCH   9  10
ATOM     10  O   UNL A   1      30.811  24.773  23.968  1.00  0.00    -0.481 OA
BRANCH  10  11
ATOM     11  C   UNL A   1      30.297  25.962  23.545  1.00  0.00     0.129 A 
ATOM     12  C   UNL A   1      28.997  26.202  24.013  1.00  0.00     0.047 A 
ATOM     13  C   UNL A   1      30.988  26.873  22.718  1.00  0.00     0.048 A 
ATOM     14  C   UNL A   1      28.381  27.411  23.743  1.00  0.00     0.004 A 
ATOM     15  C   UNL A   1      30.371  28.122  22.550  1.00  0.00     0.013 A 
ATOM     16  C   UNL A   1      29.082  28.382  23.037  1.00  0.00     0.001 A 
BRANCH  13  17
ATOM     17  C   UNL A   1      32.357  26.645  22.088  1.00  0.00     0.302 C 
BRANCH  17  18
ATOM     18  N   UNL A   1      33.631  26.932  22.757  1.00  0.00    -0.331 N 
ATOM     19  C   UNL A   1      33.995  28.329  22.928  1.00  0.00     0.263 C 
ATOM     20  C   UNL A   1      33.975  26.160  23.922  1.00  0.00     0.263 C 
ATOM     21  H   UNL A   1      34.229  26.571  22.013  1.00  0.00     0.348 HD
ATOM     22  C   UNL A   1      33.176  28.995  24.017  1.00  0.00     0.069 C 
ATOM     23  C   UNL A   1      33.273  26.651  25.178  1.00  0.00     0.069 C 
ATOM     24  C   UNL A   1      33.147  28.197  25.353  1.00  0.00    -0.008 C 
ATOM     25  C   UNL A   1      34.290  28.686  26.276  1.00  0.00     0.069 C 
ATOM     26  C   UNL A   1      31.793  28.469  26.058  1.00  0.00     0.069 C 
ATOM     27  C   UNL A   1      34.047  30.083  26.855  1.00  0.00     0.261 C 
ATOM     28  C   UNL A   1      31.663  29.894  26.576  1.00  0.00     0.261 C 
ATOM     29  N   UNL A   1      32.743  30.192  27.514  1.00  0.00    -0.346 N 
ATOM     30  H   UNL A   1      32.627  31.141  27.869  1.00  0.00     0.346 HD
ATOM     31  H   UNL A   1      32.706  29.521  28.282  1.00  0.00     0.346 HD
ENDBRANCH  17  18
ENDBRANCH  13  17
ENDBRANCH  10  11
ENDBRANCH   9  10
ENDBRANCH   7   9
ENDBRANCH   6   7
ENDBRANCH   5   6
ENDBRANCH   4   5
ENDBRANCH   3   4
ENDBRANCH   2   3
ENDBRANCH   1   2
BRANCH   1  32
ATOM     32  O   UNL A   1      36.677  22.116  25.044  1.00  0.00    -0.377 OA
BRANCH  32  33
ATOM     33  C   UNL A   1      37.709  21.210  25.394  1.00  0.00     0.188 C 
BRANCH  33  34
ATOM     34  C   UNL A   1      38.986  21.748  26.070  1.00  0.00     0.188 C 
BRANCH  34  35
ATOM     35  O   UNL A   1      40.095  20.878  26.018  1.00  0.00    -0.376 OA
BRANCH  35  36
ATOM     36  C   UNL A   1      41.347  21.178  26.594  1.00  0.00     0.202 C 
BRANCH  36  37
ATOM     37  C   UNL A   1      42.167  22.365  26.076  1.00  0.00     0.261 C 
BRANCH  37  38
ATOM     38  O   UNL A   1      41.546  23.645  26.176  1.00  0.00    -0.460 OA
BRANCH  38  39
ATOM     39  C   UNL A   1      42.348  24.718  25.987  1.00  0.00     0.338 C 
ATOM     40  O   UNL A   1      43.171  24.882  25.118  1.00  0.00    -0.246 OA
BRANCH  39  41
ATOM     41  C   UNL A   1      41.872  25.761  26.921  1.00  0.00     0.060 A 
ATOM     42  C   UNL A   1      42.436  27.042  26.843  1.00  0.00     0.016 A 
ATOM     43  C   UNL A   1      40.847  25.481  27.826  1.00  0.00     0.016 A 
ATOM     44  C   UNL A   1      41.996  28.044  27.699  1.00  0.00     0.010 A 
ATOM     45  C   UNL A   1      40.435  26.471  28.713  1.00  0.00     0.010 A 
ATOM     46  C   UNL A   1      41.042  27.739  28.677  1.00  0.00    -0.014 A 
BRANCH  46  47
ATOM     47  C   UNL A   1      40.903  28.640  29.837  1.00  0.00     0.031 A 
ATOM     48  C   UNL A   1      39.779  29.637  29.800  1.00  0.00     0.074 A 
ATOM     49  C   UNL A   1      41.724  28.558  30.896  1.00  0.00     0.049 A 
ATOM     50  N   UNL A   1      39.468  30.570  30.660  1.00  0.00    -0.248 NA
ATOM     51  C   UNL A   1      38.885  29.570  28.630  1.00  0.00     0.031 C 
ATOM     52  C   UNL A   1      42.804  27.588  31.063  1.00  0.00     0.029 A 
ATOM     53  N   UNL A   1      41.771  29.321  32.033  1.00  0.00    -0.354 N 
ATOM     54  C   UNL A   1      38.352  31.204  30.129  1.00  0.00     0.074 A 
ATOM     55  C   UNL A   1      38.055  30.573  28.865  1.00  0.00     0.031 C 
ATOM     56  C   UNL A   1      43.419  27.824  32.235  1.00  0.00     0.029 A 
ATOM     57  C   UNL A   1      42.799  28.983  32.876  1.00  0.00     0.049 A 
ATOM     58  H   UNL A   1      41.129  30.041  32.226  1.00  0.00     0.167 HD
ATOM     59  C   UNL A   1      37.636  32.225  30.652  1.00  0.00     0.031 A 
ATOM     60  C   UNL A   1      43.203  29.569  34.019  1.00  0.00     0.031 A 
ATOM     61  C   UNL A   1      37.954  32.864  31.898  1.00  0.00     0.049 A 
ATOM     62  C   UNL A   1      42.450  30.769  34.531  1.00  0.00     0.074 A 
ATOM     63  C   UNL A   1      37.298  33.908  32.523  1.00  0.00     0.029 A 
ATOM     64  N   UNL A   1      39.033  32.525  32.701  1.00  0.00    -0.354 N 
ATOM     65  N   UNL A   1      41.385  31.354  34.035  1.00  0.00    -0.248 NA
ATOM     66  C   UNL A   1      42.953  31.387  35.766  1.00  0.00     0.031 C 
ATOM     67  C   UNL A   1      38.017  34.244  33.673  1.00  0.00     0.029 A 
ATOM     68  C   UNL A   1      39.079  33.361  33.803  1.00  0.00     0.049 A 
ATOM     69  H   UNL A   1      39.670  31.799  32.515  1.00  0.00     0.167 HD
ATOM     70  C   UNL A   1      41.071  32.384  34.915  1.00  0.00     0.074 A 
ATOM     71  C   UNL A   1      42.050  32.334  35.981  1.00  0.00     0.031 C 
ATOM     72  C   UNL A   1      40.063  33.289  34.852  1.00  0.00     0.031 A 
BRANCH  59  73
ATOM     73  C   UNL A   1      36.476  32.738  29.848  1.00  0.00    -0.014 A 
ATOM     74  C   UNL A   1      35.152  32.385  30.159  1.00  0.00     0.009 A 
ATOM     75  C   UNL A   1      36.712  33.600  28.766  1.00  0.00     0.009 A 
ATOM     76  C   UNL A   1      34.093  32.860  29.384  1.00  0.00     0.001 A 
ATOM     77  C   UNL A   1      35.649  34.099  28.012  1.00  0.00     0.001 A 
ATOM     78  C   UNL A   1      34.342  33.721  28.315  1.00  0.00     0.000 A 
ENDBRANCH  59  73
BRANCH  60  79
ATOM     79  C   UNL A   1      44.394  29.052  34.744  1.00  0.00    -0.014 A 
ATOM     80  C   UNL A   1      45.684  29.497  34.415  1.00  0.00     0.009 A 
ATOM     81  C   UNL A   1      44.248  28.087  35.753  1.00  0.00     0.009 A 
ATOM     82  C   UNL A   1      46.802  28.963  35.059  1.00  0.00     0.001 A 
ATOM     83  C   UNL A   1      45.367  27.579  36.419  1.00  0.00     0.001 A 
ATOM     84  C   UNL A   1      46.643  28.009  36.063  1.00  0.00     0.000 A 
ENDBRANCH  60  79
BRANCH  72  85
ATOM     85  C   UNL A   1      39.936  34.265  35.989  1.00  0.00    -0.014 A 
ATOM     86  C   UNL A   1      40.502  35.548  35.923  1.00  0.00     0.009 A 
ATOM     87  C   UNL A   1      39.192  33.908  37.125  1.00  0.00     0.009 A 
ATOM     88  C   UNL A   1      40.354  36.438  36.988  1.00  0.00     0.001 A 
ATOM     89  C   UNL A   1      39.016  34.812  38.173  1.00  0.00     0.001 A 
ATOM     90  C   UNL A   1      39.608  36.073  38.108  1.00  0.00     0.000 A 
ENDBRANCH  72  85
ENDBRANCH  46  47
ENDBRANCH  39  41
ENDBRANCH  38  39
ENDBRANCH  37  38
ENDBRANCH  36  37
ENDBRANCH  35  36
ENDBRANCH  34  35
ENDBRANCH  33  34
ENDBRANCH  32  33
ENDBRANCH   1  32
TORSDOF 24
ENDMDL
MODEL 3
REMARK VINA RESULT:      -8.7      3.325      5.226
REMARK SMILES O=C(COc1ccccc1C[NH+]1CCC2(CC[NH2+]CC2)CC1)OCCOCCOCCOCCOC(=O)c1ccc(-c2c3nc(c(-c4ccccc4)c4ccc([nH]4)c(-c4ccccc4)c4nc(c(-c5ccccc5)c5ccc2[nH]5)C=C4)C=C3)cc1
REMARK SMILES IDX 28 1 27 2 26 3 25 4 24 5 23 6 2 7 1 8 3 9 4 10 5 11 6 12
REMARK SMILES IDX 10 13 7 14 9 15 8 16 11 17 12 18 13 19 22 20 14 22 21 23
REMARK SMILES IDX 15 24 16 25 20 26 17 27 19 28 18 29 29 32 30 33 31 34 32 35
REMARK SMILES IDX 33 36 34 37 35 38 36 39 37 40 38 41 39 42 85 43 40 44 84 45
REMARK SMILES IDX 41 46 42 47 43 48 78 49 44 50 83 51 77 52 79 53 45 54 82 55
REMARK SMILES IDX 76 56 75 57 46 59 68 60 53 61 67 62 54 63 57 64 66 65 80 66
REMARK SMILES IDX 55 67 56 68 65 70 81 71 58 72 47 73 48 74 52 75 49 76 51 77
REMARK SMILES IDX 50 78 69 79 70 80 74 81 71 82 73 83 72 84 59 85 60 86 64 87
REMARK SMILES IDX 61 88 63 89 62 90
REMARK H PARENT 12 21 18 30 18 31 79 58 57 69
REMARK Flexibility Score: inf
ROOT
ATOM      1  C   UNL A   1      36.639  23.071  25.769  1.00  0.00     0.188 C 
ENDROOT
BRANCH   1   2
ATOM      2  C   UNL A   1      35.312  22.314  26.016  1.00  0.00     0.188 C 
BRANCH   2   3
ATOM      3  O   UNL A   1      35.223  20.894  25.953  1.00  0.00    -0.376 OA
BRANCH   3   4
ATOM      4  C   UNL A   1      35.110  20.127  24.766  1.00  0.00     0.202 C 
BRANCH   4   5
ATOM      5  C   UNL A   1      34.091  19.003  24.589  1.00  0.00     0.261 C 
BRANCH   5   6
ATOM      6  O   UNL A   1      32.824  19.366  24.022  1.00  0.00    -0.461 OA
BRANCH   6   7
ATOM      7  C   UNL A   1      32.224  20.572  24.143  1.00  0.00     0.344 C 
ATOM      8  O   UNL A   1      31.674  20.893  25.197  1.00  0.00    -0.248 OA
BRANCH   7   9
ATOM      9  C   UNL A   1      32.292  21.508  22.968  1.00  0.00     0.351 C 
BRANCH   9  10
ATOM     10  O   UNL A   1      33.170  22.591  23.252  1.00  0.00    -0.481 OA
BRANCH  10  11
ATOM     11  C   UNL A   1      32.672  23.760  22.760  1.00  0.00     0.129 A 
ATOM     12  C   UNL A   1      33.295  24.173  21.574  1.00  0.00     0.047 A 
ATOM     13  C   UNL A   1      31.634  24.497  23.370  1.00  0.00     0.048 A 
ATOM     14  C   UNL A   1      32.832  25.294  20.908  1.00  0.00     0.004 A 
ATOM     15  C   UNL A   1      31.131  25.567  22.616  1.00  0.00     0.013 A 
ATOM     16  C   UNL A   1      31.729  25.972  21.415  1.00  0.00     0.001 A 
BRANCH  13  17
ATOM     17  C   UNL A   1      30.976  24.171  24.707  1.00  0.00     0.302 C 
BRANCH  17  18
ATOM     18  N   UNL A   1      31.518  24.570  26.011  1.00  0.00    -0.331 N 
ATOM     19  C   UNL A   1      32.921  24.948  26.063  1.00  0.00     0.263 C 
ATOM     20  C   UNL A   1      30.718  25.427  26.846  1.00  0.00     0.263 C 
ATOM     21  H   UNL A   1      31.455  23.647  26.441  1.00  0.00     0.348 HD
ATOM     22  C   UNL A   1      33.158  26.315  25.453  1.00  0.00     0.069 C 
ATOM     23  C   UNL A   1      30.800  26.888  26.433  1.00  0.00     0.069 C 
ATOM     24  C   UNL A   1      32.202  27.416  25.996  1.00  0.00    -0.008 C 
ATOM     25  C   UNL A   1      32.860  28.129  27.202  1.00  0.00     0.069 C 
ATOM     26  C   UNL A   1      31.968  28.461  24.873  1.00  0.00     0.069 C 
ATOM     27  C   UNL A   1      34.029  29.036  26.807  1.00  0.00     0.261 C 
ATOM     28  C   UNL A   1      33.205  29.290  24.560  1.00  0.00     0.261 C 
ATOM     29  N   UNL A   1      33.663  29.990  25.757  1.00  0.00    -0.346 N 
ATOM     30  H   UNL A   1      34.476  30.559  25.523  1.00  0.00     0.346 HD
ATOM     31  H   UNL A   1      32.906  30.581  26.102  1.00  0.00     0.346 HD
ENDBRANCH  17  18
ENDBRANCH  13  17
ENDBRANCH  10  11
ENDBRANCH   9  10
ENDBRANCH   7   9
ENDBRANCH   6   7
ENDBRANCH   5   6
ENDBRANCH   4   5
ENDBRANCH   3   4
ENDBRANCH   2   3
ENDBRANCH   1   2
BRANCH   1  32
ATOM     32  O   UNL A   1      37.529  22.425  24.877  1.00  0.00    -0.377 OA
BRANCH  32  33
ATOM     33  C   UNL A   1      38.397  21.432  25.395  1.00  0.00     0.188 C 
BRANCH  33  34
ATOM     34  C   UNL A   1      39.542  21.852  26.340  1.00  0.00     0.188 C 
BRANCH  34  35
ATOM     35  O   UNL A   1      40.101  20.802  27.097  1.00  0.00    -0.376 OA
BRANCH  35  36
ATOM     36  C   UNL A   1      41.333  20.902  27.776  1.00  0.00     0.202 C 
BRANCH  36  37
ATOM     37  C   UNL A   1      42.286  22.063  27.471  1.00  0.00     0.261 C 
BRANCH  37  38
ATOM     38  O   UNL A   1      42.384  23.073  28.475  1.00  0.00    -0.460 OA
BRANCH  38  39
ATOM     39  C   UNL A   1      41.874  24.285  28.159  1.00  0.00     0.338 C 
ATOM     40  O   UNL A   1      40.733  24.662  28.282  1.00  0.00    -0.246 OA
BRANCH  39  41
ATOM     41  C   UNL A   1      43.030  25.150  27.838  1.00  0.00     0.060 A 
ATOM     42  C   UNL A   1      43.779  25.691  28.892  1.00  0.00     0.016 A 
ATOM     43  C   UNL A   1      43.391  25.378  26.509  1.00  0.00     0.016 A 
ATOM     44  C   UNL A   1      44.878  26.495  28.617  1.00  0.00     0.010 A 
ATOM     45  C   UNL A   1      44.466  26.218  26.232  1.00  0.00     0.010 A 
ATOM     46  C   UNL A   1      45.180  26.810  27.288  1.00  0.00    -0.014 A 
BRANCH  46  47
ATOM     47  C   UNL A   1      46.037  27.980  27.014  1.00  0.00     0.031 A 
ATOM     48  C   UNL A   1      47.501  27.722  26.794  1.00  0.00     0.074 A 
ATOM     49  C   UNL A   1      45.531  29.221  26.935  1.00  0.00     0.049 A 
ATOM     50  N   UNL A   1      48.472  28.570  26.587  1.00  0.00    -0.248 NA
ATOM     51  C   UNL A   1      47.925  26.310  26.811  1.00  0.00     0.031 C 
ATOM     52  C   UNL A   1      44.120  29.575  27.067  1.00  0.00     0.029 A 
ATOM     53  N   UNL A   1      46.166  30.417  26.726  1.00  0.00    -0.354 N 
ATOM     54  C   UNL A   1      49.619  27.796  26.461  1.00  0.00     0.074 A 
ATOM     55  C   UNL A   1      49.232  26.417  26.641  1.00  0.00     0.031 C 
ATOM     56  C   UNL A   1      43.997  30.909  26.949  1.00  0.00     0.029 A 
ATOM     57  C   UNL A   1      45.324  31.499  26.773  1.00  0.00     0.049 A 
ATOM     58  H   UNL A   1      47.133  30.493  26.559  1.00  0.00     0.167 HD
ATOM     59  C   UNL A   1      50.885  28.202  26.216  1.00  0.00     0.031 A 
ATOM     60  C   UNL A   1      45.606  32.814  26.709  1.00  0.00     0.031 A 
ATOM     61  C   UNL A   1      51.265  29.578  26.065  1.00  0.00     0.049 A 
ATOM     62  C   UNL A   1      47.039  33.246  26.537  1.00  0.00     0.074 A 
ATOM     63  C   UNL A   1      52.519  30.104  25.815  1.00  0.00     0.029 A 
ATOM     64  N   UNL A   1      50.390  30.650  26.167  1.00  0.00    -0.354 N 
ATOM     65  N   UNL A   1      48.117  32.510  26.399  1.00  0.00    -0.248 NA
ATOM     66  C   UNL A   1      47.293  34.693  26.504  1.00  0.00     0.031 C 
ATOM     67  C   UNL A   1      52.415  31.497  25.830  1.00  0.00     0.029 A 
ATOM     68  C   UNL A   1      51.083  31.838  26.015  1.00  0.00     0.049 A 
ATOM     69  H   UNL A   1      49.422  30.576  26.324  1.00  0.00     0.167 HD
ATOM     70  C   UNL A   1      49.169  33.403  26.229  1.00  0.00     0.074 A 
ATOM     71  C   UNL A   1      48.596  34.733  26.266  1.00  0.00     0.031 C 
ATOM     72  C   UNL A   1      50.490  33.150  26.053  1.00  0.00     0.031 A 
BRANCH  59  73
ATOM     73  C   UNL A   1      51.948  27.143  26.149  1.00  0.00    -0.014 A 
ATOM     74  C   UNL A   1      52.682  26.765  27.285  1.00  0.00     0.009 A 
ATOM     75  C   UNL A   1      52.212  26.504  24.927  1.00  0.00     0.009 A 
ATOM     76  C   UNL A   1      53.679  25.793  27.192  1.00  0.00     0.001 A 
ATOM     77  C   UNL A   1      53.187  25.509  24.844  1.00  0.00     0.001 A 
ATOM     78  C   UNL A   1      53.926  25.161  25.973  1.00  0.00     0.000 A 
ENDBRANCH  59  73
BRANCH  60  79
ATOM     79  C   UNL A   1      44.519  33.820  26.838  1.00  0.00    -0.014 A 
ATOM     80  C   UNL A   1      43.814  34.265  25.709  1.00  0.00     0.009 A 
ATOM     81  C   UNL A   1      44.199  34.364  28.093  1.00  0.00     0.009 A 
ATOM     82  C   UNL A   1      42.836  35.254  25.830  1.00  0.00     0.001 A 
ATOM     83  C   UNL A   1      43.197  35.329  28.214  1.00  0.00     0.001 A 
ATOM     84  C   UNL A   1      42.524  35.782  27.082  1.00  0.00     0.000 A 
ENDBRANCH  60  79
BRANCH  72  85
ATOM     85  C   UNL A   1      51.399  34.328  25.838  1.00  0.00    -0.014 A 
ATOM     86  C   UNL A   1      51.605  34.873  24.561  1.00  0.00     0.009 A 
ATOM     87  C   UNL A   1      52.018  34.933  26.944  1.00  0.00     0.009 A 
ATOM     88  C   UNL A   1      52.443  35.978  24.394  1.00  0.00     0.001 A 
ATOM     89  C   UNL A   1      52.826  36.058  26.779  1.00  0.00     0.001 A 
ATOM     90  C   UNL A   1      53.047  36.572  25.502  1.00  0.00     0.000 A 
ENDBRANCH  72  85
ENDBRANCH  46  47
ENDBRANCH  39  41
ENDBRANCH  38  39
ENDBRANCH  37  38
ENDBRANCH  36  37
ENDBRANCH  35  36
ENDBRANCH  34  35
ENDBRANCH  33  34
ENDBRANCH  32  33
ENDBRANCH   1  32
TORSDOF 24
ENDMDL
