MODEL 1
REMARK VINA RESULT:      -9.3      0.000      0.000
REMARK SMILES O=C(OCCOCCOCCOCCOC(=O)c1ccc(-n2cc(CSc3nc4ccccc4c(=O)n3-c3ccc(Br)cc3)nn2)cc1)c1ccc(-c2c3nc(c(-c4ccccc4)c4ccc([nH]4)c(-c4ccccc4)c4nc(c(-c5ccccc5)c5ccc2[nH]5)C=C4)C=C3)cc1
REMARK SMILES IDX 10 1 9 2 8 3 7 4 6 5 5 6 4 7 3 8 2 9 1 10 49 11 50 12 96 13
REMARK SMILES IDX 51 14 95 15 52 16 53 17 54 18 89 19 55 20 94 21 88 22 90 23
REMARK SMILES IDX 56 24 93 25 87 26 86 27 57 29 79 30 64 31 78 32 65 33 68 34
REMARK SMILES IDX 77 35 91 36 66 37 67 38 76 40 92 41 69 42 58 43 59 44 63 45
REMARK SMILES IDX 60 46 62 47 61 48 80 49 81 50 85 51 82 52 84 53 83 54 70 55
REMARK SMILES IDX 71 56 75 57 72 58 74 59 73 60 11 61 12 62 13 63 14 64 15 65
REMARK SMILES IDX 16 66 17 67 18 68 19 69 48 70 20 71 47 72 21 73 22 74 23 75
REMARK SMILES IDX 46 76 24 77 45 78 25 79 26 80 27 81 28 82 37 83 29 84 35 85
REMARK SMILES IDX 30 86 34 87 36 88 31 89 33 90 32 91 38 92 39 93 44 94 40 95
REMARK SMILES IDX 43 96 41 97 42 98
REMARK H PARENT 90 28 68 39
REMARK Flexibility Score: inf
ROOT
ATOM      1  C   UNL A   1      44.043  23.582  24.980  1.00  0.00     0.188 C 
ENDROOT
BRANCH   1   2
ATOM      2  O   UNL A   1      44.292  24.310  26.159  1.00  0.00    -0.377 OA
BRANCH   2   3
ATOM      3  C   UNL A   1      44.088  25.703  26.020  1.00  0.00     0.188 C 
BRANCH   3   4
ATOM      4  C   UNL A   1      43.041  26.193  24.998  1.00  0.00     0.188 C 
BRANCH   4   5
ATOM      5  O   UNL A   1      41.792  26.832  25.239  1.00  0.00    -0.376 OA
BRANCH   5   6
ATOM      6  C   UNL A   1      41.462  27.963  26.014  1.00  0.00     0.202 C 
BRANCH   6   7
ATOM      7  C   UNL A   1      42.101  29.335  25.805  1.00  0.00     0.261 C 
BRANCH   7   8
ATOM      8  O   UNL A   1      43.447  29.444  26.242  1.00  0.00    -0.460 OA
BRANCH   8   9
ATOM      9  C   UNL A   1      43.948  30.274  27.175  1.00  0.00     0.338 C 
ATOM     10  O   UNL A   1      44.371  29.779  28.220  1.00  0.00    -0.246 OA
BRANCH   9  11
ATOM     11  C   UNL A   1      43.968  31.759  27.065  1.00  0.00     0.060 A 
ATOM     12  C   UNL A   1      44.157  32.514  25.905  1.00  0.00     0.016 A 
ATOM     13  C   UNL A   1      43.837  32.431  28.296  1.00  0.00     0.016 A 
ATOM     14  C   UNL A   1      44.456  33.857  25.994  1.00  0.00     0.010 A 
ATOM     15  C   UNL A   1      44.100  33.780  28.393  1.00  0.00     0.010 A 
ATOM     16  C   UNL A   1      44.517  34.444  27.250  1.00  0.00    -0.014 A 
BRANCH  16  17
ATOM     17  C   UNL A   1      45.088  35.767  27.330  1.00  0.00     0.031 A 
ATOM     18  C   UNL A   1      46.559  35.800  27.458  1.00  0.00     0.074 A 
ATOM     19  C   UNL A   1      44.290  36.848  27.258  1.00  0.00     0.049 A 
ATOM     20  N   UNL A   1      47.254  36.229  28.458  1.00  0.00    -0.248 NA
ATOM     21  C   UNL A   1      47.349  35.149  26.403  1.00  0.00     0.031 C 
ATOM     22  C   UNL A   1      42.868  36.902  26.896  1.00  0.00     0.029 A 
ATOM     23  N   UNL A   1      44.623  38.158  27.376  1.00  0.00    -0.354 N 
ATOM     24  C   UNL A   1      48.584  36.078  28.082  1.00  0.00     0.074 A 
ATOM     25  C   UNL A   1      48.584  35.268  26.891  1.00  0.00     0.031 C 
ATOM     26  C   UNL A   1      42.547  38.171  26.561  1.00  0.00     0.029 A 
ATOM     27  C   UNL A   1      43.692  39.026  26.825  1.00  0.00     0.049 A 
ATOM     28  H   UNL A   1      45.451  38.463  27.812  1.00  0.00     0.167 HD
ATOM     29  C   UNL A   1      49.566  36.845  28.629  1.00  0.00     0.031 A 
ATOM     30  C   UNL A   1      43.897  40.331  26.525  1.00  0.00     0.031 A 
ATOM     31  C   UNL A   1      49.142  37.467  29.855  1.00  0.00     0.049 A 
ATOM     32  C   UNL A   1      45.086  40.783  27.287  1.00  0.00     0.074 A 
ATOM     33  C   UNL A   1      48.728  37.006  31.088  1.00  0.00     0.029 A 
ATOM     34  N   UNL A   1      48.739  38.780  29.783  1.00  0.00    -0.354 N 
ATOM     35  N   UNL A   1      45.099  40.899  28.585  1.00  0.00    -0.248 NA
ATOM     36  C   UNL A   1      46.394  40.648  26.662  1.00  0.00     0.031 C 
ATOM     37  C   UNL A   1      47.697  37.904  31.488  1.00  0.00     0.029 A 
ATOM     38  C   UNL A   1      47.586  38.898  30.514  1.00  0.00     0.049 A 
ATOM     39  H   UNL A   1      49.196  39.503  29.296  1.00  0.00     0.167 HD
ATOM     40  C   UNL A   1      46.339  40.409  28.971  1.00  0.00     0.074 A 
ATOM     41  C   UNL A   1      47.130  40.367  27.742  1.00  0.00     0.031 C 
ATOM     42  C   UNL A   1      46.512  39.810  30.186  1.00  0.00     0.031 A 
BRANCH  29  43
ATOM     43  C   UNL A   1      50.731  37.369  27.831  1.00  0.00    -0.014 A 
ATOM     44  C   UNL A   1      50.603  37.472  26.436  1.00  0.00     0.009 A 
ATOM     45  C   UNL A   1      52.033  37.474  28.359  1.00  0.00     0.009 A 
ATOM     46  C   UNL A   1      51.727  37.595  25.611  1.00  0.00     0.001 A 
ATOM     47  C   UNL A   1      53.153  37.638  27.542  1.00  0.00     0.001 A 
ATOM     48  C   UNL A   1      53.002  37.669  26.164  1.00  0.00     0.000 A 
ENDBRANCH  29  43
BRANCH  30  49
ATOM     49  C   UNL A   1      43.343  41.093  25.384  1.00  0.00    -0.014 A 
ATOM     50  C   UNL A   1      41.962  41.119  25.141  1.00  0.00     0.009 A 
ATOM     51  C   UNL A   1      44.148  42.013  24.686  1.00  0.00     0.009 A 
ATOM     52  C   UNL A   1      41.405  42.055  24.258  1.00  0.00     0.001 A 
ATOM     53  C   UNL A   1      43.593  42.944  23.801  1.00  0.00     0.001 A 
ATOM     54  C   UNL A   1      42.219  42.974  23.599  1.00  0.00     0.000 A 
ENDBRANCH  30  49
BRANCH  42  55
ATOM     55  C   UNL A   1      45.379  39.892  31.181  1.00  0.00    -0.014 A 
ATOM     56  C   UNL A   1      44.359  38.927  31.264  1.00  0.00     0.009 A 
ATOM     57  C   UNL A   1      45.433  40.888  32.166  1.00  0.00     0.009 A 
ATOM     58  C   UNL A   1      43.405  38.978  32.286  1.00  0.00     0.001 A 
ATOM     59  C   UNL A   1      44.494  40.927  33.198  1.00  0.00     0.001 A 
ATOM     60  C   UNL A   1      43.476  39.976  33.255  1.00  0.00     0.000 A 
ENDBRANCH  42  55
ENDBRANCH  16  17
ENDBRANCH   9  11
ENDBRANCH   8   9
ENDBRANCH   7   8
ENDBRANCH   6   7
ENDBRANCH   5   6
ENDBRANCH   4   5
ENDBRANCH   3   4
ENDBRANCH   2   3
ENDBRANCH   1   2
BRANCH   1  61
ATOM     61  C   UNL A   1      44.880  22.292  24.903  1.00  0.00     0.188 C 
BRANCH  61  62
ATOM     62  O   UNL A   1      44.341  21.144  24.275  1.00  0.00    -0.376 OA
BRANCH  62  63
ATOM     63  C   UNL A   1      44.690  19.848  24.739  1.00  0.00     0.202 C 
BRANCH  63  64
ATOM     64  C   UNL A   1      43.678  18.818  25.297  1.00  0.00     0.261 C 
BRANCH  64  65
ATOM     65  O   UNL A   1      42.836  19.212  26.389  1.00  0.00    -0.460 OA
BRANCH  65  66
ATOM     66  C   UNL A   1      41.586  19.625  26.075  1.00  0.00     0.338 C 
ATOM     67  O   UNL A   1      40.710  18.984  25.515  1.00  0.00    -0.246 OA
BRANCH  66  68
ATOM     68  C   UNL A   1      41.361  20.935  26.721  1.00  0.00     0.060 A 
ATOM     69  C   UNL A   1      40.198  21.654  26.395  1.00  0.00     0.018 A 
ATOM     70  C   UNL A   1      42.265  21.440  27.657  1.00  0.00     0.018 A 
ATOM     71  C   UNL A   1      39.898  22.851  27.034  1.00  0.00     0.029 A 
ATOM     72  C   UNL A   1      42.033  22.705  28.205  1.00  0.00     0.029 A 
ATOM     73  C   UNL A   1      40.851  23.401  27.887  1.00  0.00     0.066 A 
BRANCH  73  74
ATOM     74  N   UNL A   1      40.739  24.774  28.162  1.00  0.00    -0.220 N 
ATOM     75  C   UNL A   1      39.543  25.436  28.190  1.00  0.00     0.141 A 
ATOM     76  N   UNL A   1      41.687  25.524  28.763  1.00  0.00    -0.062 NA
ATOM     77  C   UNL A   1      39.785  26.612  28.860  1.00  0.00     0.093 A 
ATOM     78  N   UNL A   1      41.129  26.680  29.123  1.00  0.00    -0.134 NA
BRANCH  77  79
ATOM     79  C   UNL A   1      38.865  27.751  29.065  1.00  0.00     0.138 C 
BRANCH  79  80
ATOM     80  S   UNL A   1      39.155  29.402  28.432  1.00  0.00    -0.081 SA
BRANCH  80  81
ATOM     81  C   UNL A   1      38.588  30.691  29.459  1.00  0.00     0.176 A 
ATOM     82  N   UNL A   1      39.550  31.499  29.808  1.00  0.00    -0.223 NA
ATOM     83  N   UNL A   1      37.288  30.898  29.888  1.00  0.00    -0.255 N 
ATOM     84  C   UNL A   1      39.270  32.512  30.734  1.00  0.00     0.079 A 
ATOM     85  C   UNL A   1      37.194  31.365  31.205  1.00  0.00     0.266 A 
ATOM     86  C   UNL A   1      40.125  33.601  30.901  1.00  0.00     0.029 A 
ATOM     87  C   UNL A   1      38.181  32.386  31.583  1.00  0.00     0.066 A 
ATOM     88  O   UNL A   1      36.376  30.997  32.046  1.00  0.00    -0.268 OA
ATOM     89  C   UNL A   1      39.917  34.505  31.951  1.00  0.00     0.002 A 
ATOM     90  C   UNL A   1      37.988  33.244  32.669  1.00  0.00     0.016 A 
ATOM     91  C   UNL A   1      38.871  34.305  32.857  1.00  0.00     0.001 A 
BRANCH  83  92
ATOM     92  C   UNL A   1      36.064  30.693  29.142  1.00  0.00     0.051 A 
ATOM     93  C   UNL A   1      35.835  29.457  28.499  1.00  0.00     0.028 A 
ATOM     94  C   UNL A   1      35.040  31.639  29.020  1.00  0.00     0.028 A 
ATOM     95  C   UNL A   1      34.797  29.273  27.581  1.00  0.00     0.018 A 
ATOM     96  C   UNL A   1      34.030  31.494  28.054  1.00  0.00     0.018 A 
ATOM     97  C   UNL A   1      33.946  30.328  27.302  1.00  0.00     0.018 A 
ATOM     98  Br  UNL A   1      32.718  30.194  25.878  1.00  0.00    -0.051 Br
ENDBRANCH  83  92
ENDBRANCH  80  81
ENDBRANCH  79  80
ENDBRANCH  77  79
ENDBRANCH  73  74
ENDBRANCH  66  68
ENDBRANCH  65  66
ENDBRANCH  64  65
ENDBRANCH  63  64
ENDBRANCH  62  63
ENDBRANCH  61  62
ENDBRANCH   1  61
TORSDOF 25
ENDMDL
MODEL 2
REMARK VINA RESULT:      -9.3      9.535     14.469
REMARK SMILES O=C(OCCOCCOCCOCCOC(=O)c1ccc(-n2cc(CSc3nc4ccccc4c(=O)n3-c3ccc(Br)cc3)nn2)cc1)c1ccc(-c2c3nc(c(-c4ccccc4)c4ccc([nH]4)c(-c4ccccc4)c4nc(c(-c5ccccc5)c5ccc2[nH]5)C=C4)C=C3)cc1
REMARK SMILES IDX 10 1 9 2 8 3 7 4 6 5 5 6 4 7 3 8 2 9 1 10 49 11 50 12 96 13
REMARK SMILES IDX 51 14 95 15 52 16 53 17 54 18 89 19 55 20 94 21 88 22 90 23
REMARK SMILES IDX 56 24 93 25 87 26 86 27 57 29 79 30 64 31 78 32 65 33 68 34
REMARK SMILES IDX 77 35 91 36 66 37 67 38 76 40 92 41 69 42 58 43 59 44 63 45
REMARK SMILES IDX 60 46 62 47 61 48 80 49 81 50 85 51 82 52 84 53 83 54 70 55
REMARK SMILES IDX 71 56 75 57 72 58 74 59 73 60 11 61 12 62 13 63 14 64 15 65
REMARK SMILES IDX 16 66 17 67 18 68 19 69 48 70 20 71 47 72 21 73 22 74 23 75
REMARK SMILES IDX 46 76 24 77 45 78 25 79 26 80 27 81 28 82 37 83 29 84 35 85
REMARK SMILES IDX 30 86 34 87 36 88 31 89 33 90 32 91 38 92 39 93 44 94 40 95
REMARK SMILES IDX 43 96 41 97 42 98
REMARK H PARENT 90 28 68 39
REMARK Flexibility Score: inf
ROOT
ATOM      1  C   UNL A   1      43.523  24.086  25.160  1.00  0.00     0.188 C 
ENDROOT
BRANCH   1   2
ATOM      2  O   UNL A   1      43.250  24.463  26.489  1.00  0.00    -0.377 OA
BRANCH   2   3
ATOM      3  C   UNL A   1      43.231  25.864  26.688  1.00  0.00     0.188 C 
BRANCH   3   4
ATOM      4  C   UNL A   1      41.917  26.626  26.419  1.00  0.00     0.188 C 
BRANCH   4   5
ATOM      5  O   UNL A   1      41.106  27.354  27.335  1.00  0.00    -0.376 OA
BRANCH   5   6
ATOM      6  C   UNL A   1      40.903  27.198  28.722  1.00  0.00     0.202 C 
BRANCH   6   7
ATOM      7  C   UNL A   1      41.978  27.504  29.763  1.00  0.00     0.261 C 
BRANCH   7   8
ATOM      8  O   UNL A   1      42.893  26.448  30.011  1.00  0.00    -0.460 OA
BRANCH   8   9
ATOM      9  C   UNL A   1      44.111  26.526  30.578  1.00  0.00     0.338 C 
ATOM     10  O   UNL A   1      44.882  27.396  30.172  1.00  0.00    -0.246 OA
BRANCH   9  11
ATOM     11  C   UNL A   1      44.623  25.591  31.618  1.00  0.00     0.060 A 
ATOM     12  C   UNL A   1      43.869  24.721  32.410  1.00  0.00     0.016 A 
ATOM     13  C   UNL A   1      46.013  25.670  31.833  1.00  0.00     0.016 A 
ATOM     14  C   UNL A   1      44.430  24.144  33.530  1.00  0.00     0.010 A 
ATOM     15  C   UNL A   1      46.590  25.071  32.930  1.00  0.00     0.010 A 
ATOM     16  C   UNL A   1      45.760  24.411  33.823  1.00  0.00    -0.014 A 
BRANCH  16  17
ATOM     17  C   UNL A   1      46.237  24.019  35.127  1.00  0.00     0.031 A 
ATOM     18  C   UNL A   1      46.197  25.087  36.148  1.00  0.00     0.074 A 
ATOM     19  C   UNL A   1      46.647  22.755  35.340  1.00  0.00     0.049 A 
ATOM     20  N   UNL A   1      47.196  25.640  36.749  1.00  0.00    -0.248 NA
ATOM     21  C   UNL A   1      44.895  25.708  36.432  1.00  0.00     0.031 C 
ATOM     22  C   UNL A   1      46.495  21.593  34.457  1.00  0.00     0.029 A 
ATOM     23  N   UNL A   1      47.182  22.216  36.464  1.00  0.00    -0.354 N 
ATOM     24  C   UNL A   1      46.640  26.557  37.634  1.00  0.00     0.074 A 
ATOM     25  C   UNL A   1      45.247  26.672  37.284  1.00  0.00     0.031 C 
ATOM     26  C   UNL A   1      46.672  20.465  35.180  1.00  0.00     0.029 A 
ATOM     27  C   UNL A   1      47.087  20.833  36.523  1.00  0.00     0.049 A 
ATOM     28  H   UNL A   1      47.600  22.756  37.172  1.00  0.00     0.167 HD
ATOM     29  C   UNL A   1      47.305  26.957  38.751  1.00  0.00     0.031 A 
ATOM     30  C   UNL A   1      47.249  20.067  37.629  1.00  0.00     0.031 A 
ATOM     31  C   UNL A   1      48.712  26.669  38.670  1.00  0.00     0.049 A 
ATOM     32  C   UNL A   1      47.979  20.881  38.631  1.00  0.00     0.074 A 
ATOM     33  C   UNL A   1      49.741  27.065  37.839  1.00  0.00     0.029 A 
ATOM     34  N   UNL A   1      49.159  25.542  39.318  1.00  0.00    -0.354 N 
ATOM     35  N   UNL A   1      49.222  21.243  38.488  1.00  0.00    -0.248 NA
ATOM     36  C   UNL A   1      47.199  21.690  39.557  1.00  0.00     0.031 C 
ATOM     37  C   UNL A   1      50.550  25.904  37.678  1.00  0.00     0.029 A 
ATOM     38  C   UNL A   1      50.013  24.888  38.469  1.00  0.00     0.049 A 
ATOM     39  H   UNL A   1      48.911  25.257  40.228  1.00  0.00     0.167 HD
ATOM     40  C   UNL A   1      49.262  22.556  38.936  1.00  0.00     0.074 A 
ATOM     41  C   UNL A   1      48.015  22.742  39.677  1.00  0.00     0.031 C 
ATOM     42  C   UNL A   1      50.157  23.449  38.420  1.00  0.00     0.031 A 
BRANCH  29  43
ATOM     43  C   UNL A   1      46.616  27.198  40.069  1.00  0.00    -0.014 A 
ATOM     44  C   UNL A   1      45.354  26.621  40.286  1.00  0.00     0.009 A 
ATOM     45  C   UNL A   1      47.019  28.204  40.969  1.00  0.00     0.009 A 
ATOM     46  C   UNL A   1      44.510  27.083  41.303  1.00  0.00     0.001 A 
ATOM     47  C   UNL A   1      46.197  28.639  42.010  1.00  0.00     0.001 A 
ATOM     48  C   UNL A   1      44.928  28.099  42.158  1.00  0.00     0.000 A 
ENDBRANCH  29  43
BRANCH  30  49
ATOM     49  C   UNL A   1      46.526  18.827  37.982  1.00  0.00    -0.014 A 
ATOM     50  C   UNL A   1      46.784  18.165  39.191  1.00  0.00     0.009 A 
ATOM     51  C   UNL A   1      45.391  18.432  37.249  1.00  0.00     0.009 A 
ATOM     52  C   UNL A   1      45.917  17.170  39.666  1.00  0.00     0.001 A 
ATOM     53  C   UNL A   1      44.527  17.437  37.720  1.00  0.00     0.001 A 
ATOM     54  C   UNL A   1      44.783  16.817  38.936  1.00  0.00     0.000 A 
ENDBRANCH  30  49
BRANCH  42  55
ATOM     55  C   UNL A   1      51.241  22.918  37.512  1.00  0.00    -0.014 A 
ATOM     56  C   UNL A   1      52.613  23.065  37.786  1.00  0.00     0.009 A 
ATOM     57  C   UNL A   1      50.862  22.109  36.432  1.00  0.00     0.009 A 
ATOM     58  C   UNL A   1      53.575  22.444  36.983  1.00  0.00     0.001 A 
ATOM     59  C   UNL A   1      51.822  21.471  35.644  1.00  0.00     0.001 A 
ATOM     60  C   UNL A   1      53.178  21.643  35.914  1.00  0.00     0.000 A 
ENDBRANCH  42  55
ENDBRANCH  16  17
ENDBRANCH   9  11
ENDBRANCH   8   9
ENDBRANCH   7   8
ENDBRANCH   6   7
ENDBRANCH   5   6
ENDBRANCH   4   5
ENDBRANCH   3   4
ENDBRANCH   2   3
ENDBRANCH   1   2
BRANCH   1  61
ATOM     61  C   UNL A   1      44.455  22.863  25.080  1.00  0.00     0.188 C 
BRANCH  61  62
ATOM     62  O   UNL A   1      44.011  21.685  24.435  1.00  0.00    -0.376 OA
BRANCH  62  63
ATOM     63  C   UNL A   1      44.899  20.590  24.259  1.00  0.00     0.202 C 
BRANCH  63  64
ATOM     64  C   UNL A   1      44.553  19.121  24.602  1.00  0.00     0.261 C 
BRANCH  64  65
ATOM     65  O   UNL A   1      44.510  18.735  25.982  1.00  0.00    -0.460 OA
BRANCH  65  66
ATOM     66  C   UNL A   1      43.339  18.232  26.437  1.00  0.00     0.338 C 
ATOM     67  O   UNL A   1      43.130  17.108  26.867  1.00  0.00    -0.246 OA
BRANCH  66  68
ATOM     68  C   UNL A   1      42.370  19.344  26.538  1.00  0.00     0.060 A 
ATOM     69  C   UNL A   1      41.155  19.243  25.839  1.00  0.00     0.018 A 
ATOM     70  C   UNL A   1      42.639  20.461  27.331  1.00  0.00     0.018 A 
ATOM     71  C   UNL A   1      40.177  20.222  25.965  1.00  0.00     0.029 A 
ATOM     72  C   UNL A   1      41.714  21.508  27.358  1.00  0.00     0.029 A 
ATOM     73  C   UNL A   1      40.490  21.380  26.672  1.00  0.00     0.066 A 
BRANCH  73  74
ATOM     74  N   UNL A   1      39.695  22.511  26.422  1.00  0.00    -0.220 N 
ATOM     75  C   UNL A   1      38.355  22.439  26.157  1.00  0.00     0.141 A 
ATOM     76  N   UNL A   1      40.027  23.779  26.743  1.00  0.00    -0.062 NA
ATOM     77  C   UNL A   1      37.869  23.709  26.360  1.00  0.00     0.093 A 
ATOM     78  N   UNL A   1      38.932  24.531  26.633  1.00  0.00    -0.134 NA
BRANCH  77  79
ATOM     79  C   UNL A   1      36.505  24.216  26.097  1.00  0.00     0.138 C 
BRANCH  79  80
ATOM     80  S   UNL A   1      35.036  23.192  26.092  1.00  0.00    -0.081 SA
BRANCH  80  81
ATOM     81  C   UNL A   1      33.658  23.889  25.285  1.00  0.00     0.176 A 
ATOM     82  N   UNL A   1      33.831  25.154  25.024  1.00  0.00    -0.223 NA
ATOM     83  N   UNL A   1      32.489  23.237  24.928  1.00  0.00    -0.255 N 
ATOM     84  C   UNL A   1      32.758  25.880  24.489  1.00  0.00     0.079 A 
ATOM     85  C   UNL A   1      31.336  24.017  25.084  1.00  0.00     0.266 A 
ATOM     86  C   UNL A   1      32.951  27.119  23.878  1.00  0.00     0.029 A 
ATOM     87  C   UNL A   1      31.462  25.419  24.661  1.00  0.00     0.066 A 
ATOM     88  O   UNL A   1      30.259  23.633  25.536  1.00  0.00    -0.268 OA
ATOM     89  C   UNL A   1      31.849  27.902  23.511  1.00  0.00     0.002 A 
ATOM     90  C   UNL A   1      30.351  26.208  24.354  1.00  0.00     0.016 A 
ATOM     91  C   UNL A   1      30.550  27.464  23.784  1.00  0.00     0.001 A 
BRANCH  83  92
ATOM     92  C   UNL A   1      32.343  21.887  24.427  1.00  0.00     0.051 A 
ATOM     93  C   UNL A   1      32.422  20.796  25.320  1.00  0.00     0.028 A 
ATOM     94  C   UNL A   1      32.097  21.558  23.090  1.00  0.00     0.028 A 
ATOM     95  C   UNL A   1      32.522  19.474  24.879  1.00  0.00     0.018 A 
ATOM     96  C   UNL A   1      32.261  20.242  22.624  1.00  0.00     0.018 A 
ATOM     97  C   UNL A   1      32.524  19.213  23.521  1.00  0.00     0.018 A 
ATOM     98  Br  UNL A   1      32.930  17.482  22.896  1.00  0.00    -0.051 Br
ENDBRANCH  83  92
ENDBRANCH  80  81
ENDBRANCH  79  80
ENDBRANCH  77  79
ENDBRANCH  73  74
ENDBRANCH  66  68
ENDBRANCH  65  66
ENDBRANCH  64  65
ENDBRANCH  63  64
ENDBRANCH  62  63
ENDBRANCH  61  62
ENDBRANCH   1  61
TORSDOF 25
ENDMDL
MODEL 3
REMARK VINA RESULT:      -8.9      6.945     11.783
REMARK SMILES O=C(OCCOCCOCCOCCOC(=O)c1ccc(-n2cc(CSc3nc4ccccc4c(=O)n3-c3ccc(Br)cc3)nn2)cc1)c1ccc(-c2c3nc(c(-c4ccccc4)c4ccc([nH]4)c(-c4ccccc4)c4nc(c(-c5ccccc5)c5ccc2[nH]5)C=C4)C=C3)cc1
REMARK SMILES IDX 10 1 9 2 8 3 7 4 6 5 5 6 4 7 3 8 2 9 1 10 49 11 50 12 96 13
REMARK SMILES IDX 51 14 95 15 52 16 53 17 54 18 89 19 55 20 94 21 88 22 90 23
REMARK SMILES IDX 56 24 93 25 87 26 86 27 57 29 79 30 64 31 78 32 65 33 68 34
REMARK SMILES IDX 77 35 91 36 66 37 67 38 76 40 92 41 69 42 58 43 59 44 63 45
REMARK SMILES IDX 60 46 62 47 61 48 80 49 81 50 85 51 82 52 84 53 83 54 70 55
REMARK SMILES IDX 71 56 75 57 72 58 74 59 73 60 11 61 12 62 13 63 14 64 15 65
REMARK SMILES IDX 16 66 17 67 18 68 19 69 48 70 20 71 47 72 21 73 22 74 23 75
REMARK SMILES IDX 46 76 24 77 45 78 25 79 26 80 27 81 28 82 37 83 29 84 35 85
REMARK SMILES IDX 30 86 34 87 36 88 31 89 33 90 32 91 38 92 39 93 44 94 40 95
REMARK SMILES IDX 43 96 41 97 42 98
REMARK H PARENT 90 28 68 39
REMARK Flexibility Score: inf
ROOT
ATOM      1  C   UNL A   1      46.719  27.760  28.147  1.00  0.00     0.188 C 
ENDROOT
BRANCH   1   2
ATOM      2  O   UNL A   1      45.912  26.788  27.525  1.00  0.00    -0.377 OA
BRANCH   2   3
ATOM      3  C   UNL A   1      46.563  25.545  27.340  1.00  0.00     0.188 C 
BRANCH   3   4
ATOM      4  C   UNL A   1      46.070  24.619  26.209  1.00  0.00     0.188 C 
BRANCH   4   5
ATOM      5  O   UNL A   1      46.511  23.307  25.876  1.00  0.00    -0.376 OA
BRANCH   5   6
ATOM      6  C   UNL A   1      46.010  22.366  24.952  1.00  0.00     0.202 C 
BRANCH   6   7
ATOM      7  C   UNL A   1      44.857  22.666  23.996  1.00  0.00     0.261 C 
BRANCH   7   8
ATOM      8  O   UNL A   1      43.931  23.637  24.458  1.00  0.00    -0.460 OA
BRANCH   8   9
ATOM      9  C   UNL A   1      42.864  23.449  25.256  1.00  0.00     0.338 C 
ATOM     10  O   UNL A   1      42.352  22.329  25.278  1.00  0.00    -0.246 OA
BRANCH   9  11
ATOM     11  C   UNL A   1      42.213  24.515  26.067  1.00  0.00     0.060 A 
ATOM     12  C   UNL A   1      41.415  25.561  25.596  1.00  0.00     0.016 A 
ATOM     13  C   UNL A   1      42.509  24.455  27.443  1.00  0.00     0.016 A 
ATOM     14  C   UNL A   1      41.135  26.637  26.410  1.00  0.00     0.010 A 
ATOM     15  C   UNL A   1      42.204  25.511  28.274  1.00  0.00     0.010 A 
ATOM     16  C   UNL A   1      41.621  26.635  27.710  1.00  0.00    -0.014 A 
BRANCH  16  17
ATOM     17  C   UNL A   1      41.543  27.876  28.443  1.00  0.00     0.031 A 
ATOM     18  C   UNL A   1      42.620  28.841  28.141  1.00  0.00     0.074 A 
ATOM     19  C   UNL A   1      40.528  28.087  29.300  1.00  0.00     0.049 A 
ATOM     20  N   UNL A   1      43.541  29.270  28.937  1.00  0.00    -0.248 NA
ATOM     21  C   UNL A   1      42.771  29.277  26.745  1.00  0.00     0.031 C 
ATOM     22  C   UNL A   1      39.309  27.288  29.475  1.00  0.00     0.029 A 
ATOM     23  N   UNL A   1      40.317  29.147  30.119  1.00  0.00    -0.354 N 
ATOM     24  C   UNL A   1      44.284  30.181  28.194  1.00  0.00     0.074 A 
ATOM     25  C   UNL A   1      43.871  30.026  26.822  1.00  0.00     0.031 C 
ATOM     26  C   UNL A   1      38.387  28.029  30.126  1.00  0.00     0.029 A 
ATOM     27  C   UNL A   1      39.000  29.282  30.534  1.00  0.00     0.049 A 
ATOM     28  H   UNL A   1      41.032  29.764  30.394  1.00  0.00     0.167 HD
ATOM     29  C   UNL A   1      44.993  31.174  28.796  1.00  0.00     0.031 A 
ATOM     30  C   UNL A   1      38.445  30.389  31.085  1.00  0.00     0.031 A 
ATOM     31  C   UNL A   1      45.208  30.909  30.194  1.00  0.00     0.049 A 
ATOM     32  C   UNL A   1      39.552  31.240  31.585  1.00  0.00     0.074 A 
ATOM     33  C   UNL A   1      45.860  29.925  30.908  1.00  0.00     0.029 A 
ATOM     34  N   UNL A   1      44.374  31.540  31.086  1.00  0.00    -0.354 N 
ATOM     35  N   UNL A   1      40.311  30.907  32.590  1.00  0.00    -0.248 NA
ATOM     36  C   UNL A   1      40.121  32.228  30.679  1.00  0.00     0.031 C 
ATOM     37  C   UNL A   1      45.045  29.705  32.056  1.00  0.00     0.029 A 
ATOM     38  C   UNL A   1      43.984  30.610  32.014  1.00  0.00     0.049 A 
ATOM     39  H   UNL A   1      44.106  32.487  31.063  1.00  0.00     0.167 HD
ATOM     40  C   UNL A   1      41.590  31.284  32.209  1.00  0.00     0.074 A 
ATOM     41  C   UNL A   1      41.397  32.184  31.072  1.00  0.00     0.031 C 
ATOM     42  C   UNL A   1      42.688  30.607  32.658  1.00  0.00     0.031 A 
BRANCH  29  43
ATOM     43  C   UNL A   1      45.099  32.563  28.223  1.00  0.00    -0.014 A 
ATOM     44  C   UNL A   1      43.952  33.372  28.195  1.00  0.00     0.009 A 
ATOM     45  C   UNL A   1      46.194  32.986  27.444  1.00  0.00     0.009 A 
ATOM     46  C   UNL A   1      43.879  34.501  27.370  1.00  0.00     0.001 A 
ATOM     47  C   UNL A   1      46.141  34.134  26.651  1.00  0.00     0.001 A 
ATOM     48  C   UNL A   1      44.970  34.876  26.592  1.00  0.00     0.000 A 
ENDBRANCH  29  43
BRANCH  30  49
ATOM     49  C   UNL A   1      37.069  30.896  30.901  1.00  0.00    -0.014 A 
ATOM     50  C   UNL A   1      36.357  31.447  31.977  1.00  0.00     0.009 A 
ATOM     51  C   UNL A   1      36.546  31.082  29.607  1.00  0.00     0.009 A 
ATOM     52  C   UNL A   1      35.184  32.185  31.761  1.00  0.00     0.001 A 
ATOM     53  C   UNL A   1      35.375  31.816  29.392  1.00  0.00     0.001 A 
ATOM     54  C   UNL A   1      34.702  32.380  30.468  1.00  0.00     0.000 A 
ENDBRANCH  30  49
BRANCH  42  55
ATOM     55  C   UNL A   1      42.487  29.581  33.747  1.00  0.00    -0.014 A 
ATOM     56  C   UNL A   1      42.556  29.893  35.117  1.00  0.00     0.009 A 
ATOM     57  C   UNL A   1      42.058  28.298  33.378  1.00  0.00     0.009 A 
ATOM     58  C   UNL A   1      42.235  28.937  36.087  1.00  0.00     0.001 A 
ATOM     59  C   UNL A   1      41.717  27.351  34.346  1.00  0.00     0.001 A 
ATOM     60  C   UNL A   1      41.811  27.667  35.700  1.00  0.00     0.000 A 
ENDBRANCH  42  55
ENDBRANCH  16  17
ENDBRANCH   9  11
ENDBRANCH   8   9
ENDBRANCH   7   8
ENDBRANCH   6   7
ENDBRANCH   5   6
ENDBRANCH   4   5
ENDBRANCH   3   4
ENDBRANCH   2   3
ENDBRANCH   1   2
BRANCH   1  61
ATOM     61  C   UNL A   1      47.504  28.604  27.126  1.00  0.00     0.188 C 
BRANCH  61  62
ATOM     62  O   UNL A   1      48.916  28.667  27.208  1.00  0.00    -0.376 OA
BRANCH  62  63
ATOM     63  C   UNL A   1      49.537  29.450  28.218  1.00  0.00     0.202 C 
BRANCH  63  64
ATOM     64  C   UNL A   1      50.509  28.888  29.284  1.00  0.00     0.261 C 
BRANCH  64  65
ATOM     65  O   UNL A   1      49.961  28.146  30.382  1.00  0.00    -0.460 OA
BRANCH  65  66
ATOM     66  C   UNL A   1      50.553  28.315  31.587  1.00  0.00     0.338 C 
ATOM     67  O   UNL A   1      50.661  29.351  32.224  1.00  0.00    -0.246 OA
BRANCH  66  68
ATOM     68  C   UNL A   1      50.872  26.978  32.132  1.00  0.00     0.060 A 
ATOM     69  C   UNL A   1      50.512  25.843  31.385  1.00  0.00     0.018 A 
ATOM     70  C   UNL A   1      51.542  26.839  33.349  1.00  0.00     0.018 A 
ATOM     71  C   UNL A   1      50.861  24.568  31.813  1.00  0.00     0.029 A 
ATOM     72  C   UNL A   1      51.779  25.555  33.847  1.00  0.00     0.029 A 
ATOM     73  C   UNL A   1      51.434  24.430  33.074  1.00  0.00     0.066 A 
BRANCH  73  74
ATOM     74  N   UNL A   1      51.368  23.156  33.665  1.00  0.00    -0.220 N 
ATOM     75  C   UNL A   1      50.195  22.478  33.849  1.00  0.00     0.141 A 
ATOM     76  N   UNL A   1      52.409  22.307  33.797  1.00  0.00    -0.062 NA
ATOM     77  C   UNL A   1      50.554  21.169  34.069  1.00  0.00     0.093 A 
ATOM     78  N   UNL A   1      51.924  21.109  34.119  1.00  0.00    -0.134 NA
BRANCH  77  79
ATOM     79  C   UNL A   1      49.684  20.035  34.445  1.00  0.00     0.138 C 
BRANCH  79  80
ATOM     80  S   UNL A   1      47.963  19.888  33.969  1.00  0.00    -0.081 SA
BRANCH  80  81
ATOM     81  C   UNL A   1      46.855  20.838  34.920  1.00  0.00     0.176 A 
ATOM     82  N   UNL A   1      45.952  21.422  34.183  1.00  0.00    -0.223 NA
ATOM     83  N   UNL A   1      46.867  20.996  36.296  1.00  0.00    -0.255 N 
ATOM     84  C   UNL A   1      45.067  22.320  34.794  1.00  0.00     0.079 A 
ATOM     85  C   UNL A   1      46.529  22.288  36.720  1.00  0.00     0.266 A 
ATOM     86  C   UNL A   1      43.887  22.718  34.167  1.00  0.00     0.029 A 
ATOM     87  C   UNL A   1      45.414  22.915  35.997  1.00  0.00     0.066 A 
ATOM     88  O   UNL A   1      47.075  22.919  37.623  1.00  0.00    -0.268 OA
ATOM     89  C   UNL A   1      43.110  23.746  34.716  1.00  0.00     0.002 A 
ATOM     90  C   UNL A   1      44.683  23.980  36.532  1.00  0.00     0.016 A 
ATOM     91  C   UNL A   1      43.528  24.403  35.877  1.00  0.00     0.001 A 
BRANCH  83  92
ATOM     92  C   UNL A   1      47.180  20.002  37.300  1.00  0.00     0.051 A 
ATOM     93  C   UNL A   1      46.159  19.161  37.794  1.00  0.00     0.028 A 
ATOM     94  C   UNL A   1      48.457  19.777  37.825  1.00  0.00     0.028 A 
ATOM     95  C   UNL A   1      46.338  18.348  38.917  1.00  0.00     0.018 A 
ATOM     96  C   UNL A   1      48.638  19.016  38.992  1.00  0.00     0.018 A 
ATOM     97  C   UNL A   1      47.562  18.345  39.561  1.00  0.00     0.018 A 
ATOM     98  Br  UNL A   1      47.748  17.477  41.224  1.00  0.00    -0.051 Br
ENDBRANCH  83  92
ENDBRANCH  80  81
ENDBRANCH  79  80
ENDBRANCH  77  79
ENDBRANCH  73  74
ENDBRANCH  66  68
ENDBRANCH  65  66
ENDBRANCH  64  65
ENDBRANCH  63  64
ENDBRANCH  62  63
ENDBRANCH  61  62
ENDBRANCH   1  61
TORSDOF 25
ENDMDL
