MODEL 1
REMARK VINA RESULT:      -9.6      0.000      0.000
REMARK SMILES CC(C)(C)OC(=O)N1CCC2(CC1)C[C@@H](C(=O)OCCOCCOCCOCCOC(=O)c1ccc(-c3c4nc(c(-c5ccccc5)c5ccc([nH]5)c(-c5ccccc5)c5nc(c(-c6ccccc6)c6ccc3[nH]6)C=C5)C=C4)cc1)CO2
REMARK SMILES IDX 24 1 23 2 22 3 21 4 20 5 19 6 18 7 16 8 17 9 15 10 6 11 7 12
REMARK SMILES IDX 8 13 9 14 13 15 10 16 12 17 11 18 14 19 82 20 81 21 5 22
REMARK SMILES IDX 2 23 1 24 3 25 4 26 25 27 26 28 27 29 28 30 29 31 30 32
REMARK SMILES IDX 31 33 32 34 33 35 34 36 80 37 35 38 79 39 36 40 37 41 38 42
REMARK SMILES IDX 73 43 39 44 78 45 72 46 74 47 40 48 77 49 71 50 70 51 41 53
REMARK SMILES IDX 63 54 48 55 62 56 49 57 52 58 61 59 75 60 50 61 51 62 60 64
REMARK SMILES IDX 76 65 53 66 42 67 43 68 47 69 44 70 46 71 45 72 64 73 65 74
REMARK SMILES IDX 69 75 66 76 68 77 67 78 54 79 55 80 59 81 56 82 58 83 57 84
REMARK H PARENT 74 52 52 63
REMARK Flexibility Score: inf
ROOT
ATOM      1  O   UNL A   1      38.841  21.852  25.711  1.00  0.00    -0.377 OA
ENDROOT
BRANCH   1   2
ATOM      2  C   UNL A   1      37.592  22.511  25.781  1.00  0.00     0.188 C 
BRANCH   2   3
ATOM      3  C   UNL A   1      36.496  21.853  24.929  1.00  0.00     0.188 C 
BRANCH   3   4
ATOM      4  O   UNL A   1      35.581  20.944  25.525  1.00  0.00    -0.376 OA
BRANCH   4   5
ATOM      5  C   UNL A   1      34.177  21.181  25.456  1.00  0.00     0.202 C 
BRANCH   5   6
ATOM      6  C   UNL A   1      33.418  21.781  26.649  1.00  0.00     0.261 C 
BRANCH   6   7
ATOM      7  O   UNL A   1      33.868  23.089  27.041  1.00  0.00    -0.463 OA
BRANCH   7   8
ATOM      8  C   UNL A   1      33.248  24.140  26.463  1.00  0.00     0.311 C 
ATOM      9  O   UNL A   1      32.064  24.420  26.625  1.00  0.00    -0.252 OA
BRANCH   8  10
ATOM     10  C   UNL A   1      34.159  25.022  25.634  1.00  0.00     0.128 C 
ATOM     11  C   UNL A   1      30.396  29.103  22.432  1.00  0.00     0.410 C 
ATOM     12  O   UNL A   1      30.710  30.040  21.722  1.00  0.00    -0.224 OA
ATOM     13  N   UNL A   1      31.142  27.950  22.547  1.00  0.00    -0.308 N 
ATOM     14  C   UNL A   1      32.567  28.019  22.282  1.00  0.00     0.126 C 
ATOM     15  C   UNL A   1      30.670  26.724  23.176  1.00  0.00     0.126 C 
ATOM     16  C   UNL A   1      33.302  27.910  23.618  1.00  0.00     0.057 C 
ATOM     17  C   UNL A   1      31.379  26.507  24.511  1.00  0.00     0.057 C 
ATOM     18  C   UNL A   1      32.903  26.614  24.338  1.00  0.00     0.073 C 
ATOM     19  C   UNL A   1      33.657  26.451  25.661  1.00  0.00     0.053 C 
ATOM     20  O   UNL A   1      33.302  25.529  23.487  1.00  0.00    -0.374 OA
ATOM     21  C   UNL A   1      34.280  24.747  24.153  1.00  0.00     0.176 C 
BRANCH  11  22
ATOM     22  O   UNL A   1      29.336  29.088  23.280  1.00  0.00    -0.444 OA
BRANCH  22  23
ATOM     23  C   UNL A   1      28.065  29.650  22.876  1.00  0.00     0.106 C 
ATOM     24  C   UNL A   1      27.905  30.907  23.743  1.00  0.00     0.056 C 
ATOM     25  C   UNL A   1      26.959  28.650  23.207  1.00  0.00     0.056 C 
ATOM     26  C   UNL A   1      28.031  30.088  21.404  1.00  0.00     0.056 C 
ENDBRANCH  22  23
ENDBRANCH  11  22
ENDBRANCH   8  10
ENDBRANCH   7   8
ENDBRANCH   6   7
ENDBRANCH   5   6
ENDBRANCH   4   5
ENDBRANCH   3   4
ENDBRANCH   2   3
ENDBRANCH   1   2
BRANCH   1  27
ATOM     27  C   UNL A   1      39.811  22.147  26.710  1.00  0.00     0.188 C 
BRANCH  27  28
ATOM     28  C   UNL A   1      41.297  22.047  26.324  1.00  0.00     0.188 C 
BRANCH  28  29
ATOM     29  O   UNL A   1      41.619  20.862  25.606  1.00  0.00    -0.376 OA
BRANCH  29  30
ATOM     30  C   UNL A   1      42.066  19.734  26.352  1.00  0.00     0.202 C 
BRANCH  30  31
ATOM     31  C   UNL A   1      43.010  18.762  25.624  1.00  0.00     0.261 C 
BRANCH  31  32
ATOM     32  O   UNL A   1      44.360  19.221  25.422  1.00  0.00    -0.460 OA
BRANCH  32  33
ATOM     33  C   UNL A   1      44.652  19.889  24.288  1.00  0.00     0.338 C 
ATOM     34  O   UNL A   1      44.476  19.520  23.143  1.00  0.00    -0.246 OA
BRANCH  33  35
ATOM     35  C   UNL A   1      45.057  21.258  24.662  1.00  0.00     0.060 A 
ATOM     36  C   UNL A   1      45.505  21.492  25.968  1.00  0.00     0.016 A 
ATOM     37  C   UNL A   1      44.960  22.305  23.743  1.00  0.00     0.016 A 
ATOM     38  C   UNL A   1      45.808  22.789  26.377  1.00  0.00     0.010 A 
ATOM     39  C   UNL A   1      45.247  23.607  24.159  1.00  0.00     0.010 A 
ATOM     40  C   UNL A   1      45.632  23.858  25.488  1.00  0.00    -0.014 A 
BRANCH  40  41
ATOM     41  C   UNL A   1      45.638  25.248  26.003  1.00  0.00     0.031 A 
ATOM     42  C   UNL A   1      46.942  25.996  26.015  1.00  0.00     0.074 A 
ATOM     43  C   UNL A   1      44.516  25.839  26.447  1.00  0.00     0.049 A 
ATOM     44  N   UNL A   1      47.206  27.200  26.454  1.00  0.00    -0.248 NA
ATOM     45  C   UNL A   1      48.108  25.288  25.461  1.00  0.00     0.031 C 
ATOM     46  C   UNL A   1      43.185  25.235  26.456  1.00  0.00     0.029 A 
ATOM     47  N   UNL A   1      44.328  27.084  26.990  1.00  0.00    -0.354 N 
ATOM     48  C   UNL A   1      48.566  27.387  26.241  1.00  0.00     0.074 A 
ATOM     49  C   UNL A   1      49.077  26.168  25.657  1.00  0.00     0.031 C 
ATOM     50  C   UNL A   1      42.318  26.108  26.998  1.00  0.00     0.029 A 
ATOM     51  C   UNL A   1      43.038  27.316  27.399  1.00  0.00     0.049 A 
ATOM     52  H   UNL A   1      45.049  27.750  27.078  1.00  0.00     0.167 HD
ATOM     53  C   UNL A   1      49.323  28.477  26.505  1.00  0.00     0.031 A 
ATOM     54  C   UNL A   1      42.508  28.371  28.047  1.00  0.00     0.031 A 
ATOM     55  C   UNL A   1      48.822  29.684  27.103  1.00  0.00     0.049 A 
ATOM     56  C   UNL A   1      43.383  29.547  28.395  1.00  0.00     0.074 A 
ATOM     57  C   UNL A   1      49.505  30.853  27.388  1.00  0.00     0.029 A 
ATOM     58  N   UNL A   1      47.515  29.869  27.525  1.00  0.00    -0.354 N 
ATOM     59  N   UNL A   1      44.657  29.731  28.147  1.00  0.00    -0.248 NA
ATOM     60  C   UNL A   1      42.742  30.663  29.105  1.00  0.00     0.031 C 
ATOM     61  C   UNL A   1      48.623  31.725  28.036  1.00  0.00     0.029 A 
ATOM     62  C   UNL A   1      47.378  31.121  28.098  1.00  0.00     0.049 A 
ATOM     63  H   UNL A   1      46.791  29.208  27.430  1.00  0.00     0.167 HD
ATOM     64  C   UNL A   1      44.964  30.991  28.648  1.00  0.00     0.074 A 
ATOM     65  C   UNL A   1      43.740  31.531  29.201  1.00  0.00     0.031 C 
ATOM     66  C   UNL A   1      46.153  31.643  28.649  1.00  0.00     0.031 A 
BRANCH  53  67
ATOM     67  C   UNL A   1      50.789  28.387  26.189  1.00  0.00    -0.014 A 
ATOM     68  C   UNL A   1      51.312  28.893  24.989  1.00  0.00     0.009 A 
ATOM     69  C   UNL A   1      51.661  27.791  27.114  1.00  0.00     0.009 A 
ATOM     70  C   UNL A   1      52.674  28.769  24.704  1.00  0.00     0.001 A 
ATOM     71  C   UNL A   1      53.026  27.694  26.839  1.00  0.00     0.001 A 
ATOM     72  C   UNL A   1      53.530  28.173  25.631  1.00  0.00     0.000 A 
ENDBRANCH  53  67
BRANCH  54  73
ATOM     73  C   UNL A   1      41.074  28.355  28.438  1.00  0.00    -0.014 A 
ATOM     74  C   UNL A   1      40.094  28.922  27.610  1.00  0.00     0.009 A 
ATOM     75  C   UNL A   1      40.680  27.777  29.656  1.00  0.00     0.009 A 
ATOM     76  C   UNL A   1      38.753  28.930  28.002  1.00  0.00     0.001 A 
ATOM     77  C   UNL A   1      39.336  27.761  30.033  1.00  0.00     0.001 A 
ATOM     78  C   UNL A   1      38.375  28.345  29.210  1.00  0.00     0.000 A 
ENDBRANCH  54  73
BRANCH  66  79
ATOM     79  C   UNL A   1      46.184  33.028  29.236  1.00  0.00    -0.014 A 
ATOM     80  C   UNL A   1      46.088  34.168  28.423  1.00  0.00     0.009 A 
ATOM     81  C   UNL A   1      46.256  33.189  30.628  1.00  0.00     0.009 A 
ATOM     82  C   UNL A   1      46.095  35.443  28.994  1.00  0.00     0.001 A 
ATOM     83  C   UNL A   1      46.234  34.463  31.197  1.00  0.00     0.001 A 
ATOM     84  C   UNL A   1      46.162  35.590  30.379  1.00  0.00     0.000 A 
ENDBRANCH  66  79
ENDBRANCH  40  41
ENDBRANCH  33  35
ENDBRANCH  32  33
ENDBRANCH  31  32
ENDBRANCH  30  31
ENDBRANCH  29  30
ENDBRANCH  28  29
ENDBRANCH  27  28
ENDBRANCH   1  27
TORSDOF 22
ENDMDL
MODEL 2
REMARK VINA RESULT:      -9.6      4.210      6.313
REMARK SMILES CC(C)(C)OC(=O)N1CCC2(CC1)C[C@@H](C(=O)OCCOCCOCCOCCOC(=O)c1ccc(-c3c4nc(c(-c5ccccc5)c5ccc([nH]5)c(-c5ccccc5)c5nc(c(-c6ccccc6)c6ccc3[nH]6)C=C5)C=C4)cc1)CO2
REMARK SMILES IDX 24 1 23 2 22 3 21 4 20 5 19 6 18 7 16 8 17 9 15 10 6 11 7 12
REMARK SMILES IDX 8 13 9 14 13 15 10 16 12 17 11 18 14 19 82 20 81 21 5 22
REMARK SMILES IDX 2 23 1 24 3 25 4 26 25 27 26 28 27 29 28 30 29 31 30 32
REMARK SMILES IDX 31 33 32 34 33 35 34 36 80 37 35 38 79 39 36 40 37 41 38 42
REMARK SMILES IDX 73 43 39 44 78 45 72 46 74 47 40 48 77 49 71 50 70 51 41 53
REMARK SMILES IDX 63 54 48 55 62 56 49 57 52 58 61 59 75 60 50 61 51 62 60 64
REMARK SMILES IDX 76 65 53 66 42 67 43 68 47 69 44 70 46 71 45 72 64 73 65 74
REMARK SMILES IDX 69 75 66 76 68 77 67 78 54 79 55 80 59 81 56 82 58 83 57 84
REMARK H PARENT 74 52 52 63
REMARK Flexibility Score: inf
ROOT
ATOM      1  O   UNL A   1      39.402  19.737  25.336  1.00  0.00    -0.377 OA
ENDROOT
BRANCH   1   2
ATOM      2  C   UNL A   1      38.050  19.965  24.990  1.00  0.00     0.188 C 
BRANCH   2   3
ATOM      3  C   UNL A   1      37.574  21.399  25.261  1.00  0.00     0.188 C 
BRANCH   3   4
ATOM      4  O   UNL A   1      36.951  22.150  24.227  1.00  0.00    -0.376 OA
BRANCH   4   5
ATOM      5  C   UNL A   1      35.743  22.864  24.480  1.00  0.00     0.202 C 
BRANCH   5   6
ATOM      6  C   UNL A   1      34.647  22.966  23.408  1.00  0.00     0.261 C 
BRANCH   6   7
ATOM      7  O   UNL A   1      33.693  24.017  23.635  1.00  0.00    -0.463 OA
BRANCH   7   8
ATOM      8  C   UNL A   1      32.847  23.851  24.674  1.00  0.00     0.311 C 
ATOM      9  O   UNL A   1      31.987  22.978  24.735  1.00  0.00    -0.252 OA
BRANCH   8  10
ATOM     10  C   UNL A   1      33.087  24.800  25.831  1.00  0.00     0.128 C 
ATOM     11  C   UNL A   1      30.330  30.372  24.277  1.00  0.00     0.410 C 
ATOM     12  O   UNL A   1      30.201  31.379  24.950  1.00  0.00    -0.224 OA
ATOM     13  N   UNL A   1      31.407  29.520  24.379  1.00  0.00    -0.308 N 
ATOM     14  C   UNL A   1      32.134  29.470  25.634  1.00  0.00     0.126 C 
ATOM     15  C   UNL A   1      31.715  28.464  23.423  1.00  0.00     0.126 C 
ATOM     16  C   UNL A   1      31.793  28.150  26.326  1.00  0.00     0.057 C 
ATOM     17  C   UNL A   1      31.439  27.094  24.039  1.00  0.00     0.057 C 
ATOM     18  C   UNL A   1      32.131  26.967  25.406  1.00  0.00     0.073 C 
ATOM     19  C   UNL A   1      31.843  25.626  26.087  1.00  0.00     0.053 C 
ATOM     20  O   UNL A   1      33.544  27.024  25.163  1.00  0.00    -0.374 OA
ATOM     21  C   UNL A   1      34.157  25.858  25.689  1.00  0.00     0.176 C 
BRANCH  11  22
ATOM     22  O   UNL A   1      29.402  29.889  23.411  1.00  0.00    -0.444 OA
BRANCH  22  23
ATOM     23  C   UNL A   1      28.433  30.776  22.805  1.00  0.00     0.106 C 
ATOM     24  C   UNL A   1      27.777  29.935  21.701  1.00  0.00     0.056 C 
ATOM     25  C   UNL A   1      29.172  31.960  22.183  1.00  0.00     0.056 C 
ATOM     26  C   UNL A   1      27.326  31.226  23.772  1.00  0.00     0.056 C 
ENDBRANCH  22  23
ENDBRANCH  11  22
ENDBRANCH   8  10
ENDBRANCH   7   8
ENDBRANCH   6   7
ENDBRANCH   5   6
ENDBRANCH   4   5
ENDBRANCH   3   4
ENDBRANCH   2   3
ENDBRANCH   1   2
BRANCH   1  27
ATOM     27  C   UNL A   1      39.931  20.427  26.463  1.00  0.00     0.188 C 
BRANCH  27  28
ATOM     28  C   UNL A   1      41.338  21.037  26.340  1.00  0.00     0.188 C 
BRANCH  28  29
ATOM     29  O   UNL A   1      42.163  20.376  25.386  1.00  0.00    -0.376 OA
BRANCH  29  30
ATOM     30  C   UNL A   1      43.545  20.223  25.696  1.00  0.00     0.202 C 
BRANCH  30  31
ATOM     31  C   UNL A   1      44.473  21.369  25.261  1.00  0.00     0.261 C 
BRANCH  31  32
ATOM     32  O   UNL A   1      44.398  22.577  26.040  1.00  0.00    -0.460 OA
BRANCH  32  33
ATOM     33  C   UNL A   1      44.387  23.761  25.396  1.00  0.00     0.338 C 
ATOM     34  O   UNL A   1      44.797  24.001  24.276  1.00  0.00    -0.246 OA
BRANCH  33  35
ATOM     35  C   UNL A   1      43.604  24.711  26.210  1.00  0.00     0.060 A 
ATOM     36  C   UNL A   1      43.990  26.057  26.224  1.00  0.00     0.016 A 
ATOM     37  C   UNL A   1      42.525  24.271  26.979  1.00  0.00     0.016 A 
ATOM     38  C   UNL A   1      43.328  26.962  27.053  1.00  0.00     0.010 A 
ATOM     39  C   UNL A   1      41.874  25.174  27.823  1.00  0.00     0.010 A 
ATOM     40  C   UNL A   1      42.300  26.512  27.893  1.00  0.00    -0.014 A 
BRANCH  40  41
ATOM     41  C   UNL A   1      41.819  27.381  28.993  1.00  0.00     0.031 A 
ATOM     42  C   UNL A   1      42.556  27.344  30.303  1.00  0.00     0.074 A 
ATOM     43  C   UNL A   1      40.756  28.188  28.838  1.00  0.00     0.049 A 
ATOM     44  N   UNL A   1      42.301  27.978  31.419  1.00  0.00    -0.248 NA
ATOM     45  C   UNL A   1      43.740  26.470  30.363  1.00  0.00     0.031 C 
ATOM     46  C   UNL A   1      39.978  28.341  27.611  1.00  0.00     0.029 A 
ATOM     47  N   UNL A   1      40.143  29.024  29.736  1.00  0.00    -0.354 N 
ATOM     48  C   UNL A   1      43.282  27.570  32.314  1.00  0.00     0.074 A 
ATOM     49  C   UNL A   1      44.122  26.619  31.622  1.00  0.00     0.031 C 
ATOM     50  C   UNL A   1      38.976  29.207  27.840  1.00  0.00     0.029 A 
ATOM     51  C   UNL A   1      39.026  29.645  29.234  1.00  0.00     0.049 A 
ATOM     52  H   UNL A   1      40.472  29.167  30.653  1.00  0.00     0.167 HD
ATOM     53  C   UNL A   1      43.469  27.954  33.598  1.00  0.00     0.031 A 
ATOM     54  C   UNL A   1      38.133  30.451  29.840  1.00  0.00     0.031 A 
ATOM     55  C   UNL A   1      42.625  28.885  34.295  1.00  0.00     0.049 A 
ATOM     56  C   UNL A   1      38.321  30.811  31.290  1.00  0.00     0.074 A 
ATOM     57  C   UNL A   1      42.748  29.358  35.590  1.00  0.00     0.029 A 
ATOM     58  N   UNL A   1      41.491  29.472  33.759  1.00  0.00    -0.354 N 
ATOM     59  N   UNL A   1      39.278  30.456  32.113  1.00  0.00    -0.248 NA
ATOM     60  C   UNL A   1      37.308  31.691  31.891  1.00  0.00     0.031 C 
ATOM     61  C   UNL A   1      41.652  30.187  35.856  1.00  0.00     0.029 A 
ATOM     62  C   UNL A   1      40.884  30.277  34.707  1.00  0.00     0.049 A 
ATOM     63  H   UNL A   1      41.164  29.337  32.839  1.00  0.00     0.167 HD
ATOM     64  C   UNL A   1      38.996  31.088  33.320  1.00  0.00     0.074 A 
ATOM     65  C   UNL A   1      37.787  31.859  33.116  1.00  0.00     0.031 C 
ATOM     66  C   UNL A   1      39.677  31.035  34.490  1.00  0.00     0.031 A 
BRANCH  53  67
ATOM     67  C   UNL A   1      44.611  27.323  34.343  1.00  0.00    -0.014 A 
ATOM     68  C   UNL A   1      45.908  27.858  34.286  1.00  0.00     0.009 A 
ATOM     69  C   UNL A   1      44.382  26.177  35.120  1.00  0.00     0.009 A 
ATOM     70  C   UNL A   1      46.959  27.234  34.962  1.00  0.00     0.001 A 
ATOM     71  C   UNL A   1      45.428  25.572  35.818  1.00  0.00     0.001 A 
ATOM     72  C   UNL A   1      46.717  26.094  35.730  1.00  0.00     0.000 A 
ENDBRANCH  53  67
BRANCH  54  73
ATOM     73  C   UNL A   1      36.956  30.953  29.082  1.00  0.00    -0.014 A 
ATOM     74  C   UNL A   1      35.898  30.096  28.745  1.00  0.00     0.009 A 
ATOM     75  C   UNL A   1      36.894  32.298  28.683  1.00  0.00     0.009 A 
ATOM     76  C   UNL A   1      34.812  30.571  28.004  1.00  0.00     0.001 A 
ATOM     77  C   UNL A   1      35.795  32.776  27.967  1.00  0.00     0.001 A 
ATOM     78  C   UNL A   1      34.759  31.911  27.621  1.00  0.00     0.000 A 
ENDBRANCH  54  73
BRANCH  66  79
ATOM     79  C   UNL A   1      39.154  31.858  35.635  1.00  0.00    -0.014 A 
ATOM     80  C   UNL A   1      38.229  31.332  36.550  1.00  0.00     0.009 A 
ATOM     81  C   UNL A   1      39.639  33.161  35.831  1.00  0.00     0.009 A 
ATOM     82  C   UNL A   1      37.776  32.108  37.620  1.00  0.00     0.001 A 
ATOM     83  C   UNL A   1      39.206  33.922  36.918  1.00  0.00     0.001 A 
ATOM     84  C   UNL A   1      38.269  33.399  37.807  1.00  0.00     0.000 A 
ENDBRANCH  66  79
ENDBRANCH  40  41
ENDBRANCH  33  35
ENDBRANCH  32  33
ENDBRANCH  31  32
ENDBRANCH  30  31
ENDBRANCH  29  30
ENDBRANCH  28  29
ENDBRANCH  27  28
ENDBRANCH   1  27
TORSDOF 22
ENDMDL
MODEL 3
REMARK VINA RESULT:      -9.1      2.561      4.478
REMARK SMILES CC(C)(C)OC(=O)N1CCC2(CC1)C[C@@H](C(=O)OCCOCCOCCOCCOC(=O)c1ccc(-c3c4nc(c(-c5ccccc5)c5ccc([nH]5)c(-c5ccccc5)c5nc(c(-c6ccccc6)c6ccc3[nH]6)C=C5)C=C4)cc1)CO2
REMARK SMILES IDX 24 1 23 2 22 3 21 4 20 5 19 6 18 7 16 8 17 9 15 10 6 11 7 12
REMARK SMILES IDX 8 13 9 14 13 15 10 16 12 17 11 18 14 19 82 20 81 21 5 22
REMARK SMILES IDX 2 23 1 24 3 25 4 26 25 27 26 28 27 29 28 30 29 31 30 32
REMARK SMILES IDX 31 33 32 34 33 35 34 36 80 37 35 38 79 39 36 40 37 41 38 42
REMARK SMILES IDX 73 43 39 44 78 45 72 46 74 47 40 48 77 49 71 50 70 51 41 53
REMARK SMILES IDX 63 54 48 55 62 56 49 57 52 58 61 59 75 60 50 61 51 62 60 64
REMARK SMILES IDX 76 65 53 66 42 67 43 68 47 69 44 70 46 71 45 72 64 73 65 74
REMARK SMILES IDX 69 75 66 76 68 77 67 78 54 79 55 80 59 81 56 82 58 83 57 84
REMARK H PARENT 74 52 52 63
REMARK Flexibility Score: inf
ROOT
ATOM      1  O   UNL A   1      37.160  22.736  25.537  1.00  0.00    -0.377 OA
ENDROOT
BRANCH   1   2
ATOM      2  C   UNL A   1      36.843  21.787  24.538  1.00  0.00     0.188 C 
BRANCH   2   3
ATOM      3  C   UNL A   1      35.858  20.705  25.002  1.00  0.00     0.188 C 
BRANCH   3   4
ATOM      4  O   UNL A   1      34.764  21.050  25.841  1.00  0.00    -0.376 OA
BRANCH   4   5
ATOM      5  C   UNL A   1      33.481  20.461  25.637  1.00  0.00     0.202 C 
BRANCH   5   6
ATOM      6  C   UNL A   1      32.663  20.767  24.374  1.00  0.00     0.261 C 
BRANCH   6   7
ATOM      7  O   UNL A   1      32.861  22.089  23.846  1.00  0.00    -0.463 OA
BRANCH   7   8
ATOM      8  C   UNL A   1      31.846  22.964  24.012  1.00  0.00     0.311 C 
ATOM      9  O   UNL A   1      30.908  23.094  23.231  1.00  0.00    -0.252 OA
BRANCH   8  10
ATOM     10  C   UNL A   1      31.906  23.750  25.306  1.00  0.00     0.128 C 
ATOM     11  C   UNL A   1      30.383  29.809  23.885  1.00  0.00     0.410 C 
ATOM     12  O   UNL A   1      30.221  30.756  24.633  1.00  0.00    -0.224 OA
ATOM     13  N   UNL A   1      31.279  28.791  24.126  1.00  0.00    -0.308 N 
ATOM     14  C   UNL A   1      31.651  28.509  25.501  1.00  0.00     0.126 C 
ATOM     15  C   UNL A   1      31.679  27.796  23.141  1.00  0.00     0.126 C 
ATOM     16  C   UNL A   1      30.977  27.200  25.913  1.00  0.00     0.057 C 
ATOM     17  C   UNL A   1      31.080  26.435  23.490  1.00  0.00     0.057 C 
ATOM     18  C   UNL A   1      31.380  26.071  24.953  1.00  0.00     0.073 C 
ATOM     19  C   UNL A   1      30.756  24.734  25.365  1.00  0.00     0.053 C 
ATOM     20  O   UNL A   1      32.804  25.926  25.062  1.00  0.00    -0.374 OA
ATOM     21  C   UNL A   1      33.106  24.633  25.562  1.00  0.00     0.176 C 
BRANCH  11  22
ATOM     22  O   UNL A   1      29.651  29.564  22.768  1.00  0.00    -0.444 OA
BRANCH  22  23
ATOM     23  C   UNL A   1      28.298  30.063  22.653  1.00  0.00     0.106 C 
ATOM     24  C   UNL A   1      27.413  28.883  23.078  1.00  0.00     0.056 C 
ATOM     25  C   UNL A   1      28.026  30.412  21.191  1.00  0.00     0.056 C 
ATOM     26  C   UNL A   1      27.998  31.238  23.597  1.00  0.00     0.056 C 
ENDBRANCH  22  23
ENDBRANCH  11  22
ENDBRANCH   8  10
ENDBRANCH   7   8
ENDBRANCH   6   7
ENDBRANCH   5   6
ENDBRANCH   4   5
ENDBRANCH   3   4
ENDBRANCH   2   3
ENDBRANCH   1   2
BRANCH   1  27
ATOM     27  C   UNL A   1      38.477  22.727  26.077  1.00  0.00     0.188 C 
BRANCH  27  28
ATOM     28  C   UNL A   1      39.260  21.403  26.046  1.00  0.00     0.188 C 
BRANCH  28  29
ATOM     29  O   UNL A   1      40.288  21.328  27.028  1.00  0.00    -0.376 OA
BRANCH  29  30
ATOM     30  C   UNL A   1      41.600  21.729  26.648  1.00  0.00     0.202 C 
BRANCH  30  31
ATOM     31  C   UNL A   1      42.561  22.098  27.790  1.00  0.00     0.261 C 
BRANCH  31  32
ATOM     32  O   UNL A   1      42.094  23.098  28.715  1.00  0.00    -0.460 OA
BRANCH  32  33
ATOM     33  C   UNL A   1      41.651  24.273  28.225  1.00  0.00     0.338 C 
ATOM     34  O   UNL A   1      40.506  24.680  28.192  1.00  0.00    -0.246 OA
BRANCH  33  35
ATOM     35  C   UNL A   1      42.830  25.097  27.894  1.00  0.00     0.060 A 
ATOM     36  C   UNL A   1      43.603  25.614  28.941  1.00  0.00     0.016 A 
ATOM     37  C   UNL A   1      43.147  25.387  26.565  1.00  0.00     0.016 A 
ATOM     38  C   UNL A   1      44.668  26.470  28.663  1.00  0.00     0.010 A 
ATOM     39  C   UNL A   1      44.203  26.258  26.288  1.00  0.00     0.010 A 
ATOM     40  C   UNL A   1      44.939  26.835  27.338  1.00  0.00    -0.014 A 
BRANCH  40  41
ATOM     41  C   UNL A   1      45.843  27.976  27.062  1.00  0.00     0.031 A 
ATOM     42  C   UNL A   1      47.308  27.695  26.875  1.00  0.00     0.074 A 
ATOM     43  C   UNL A   1      45.381  29.235  26.978  1.00  0.00     0.049 A 
ATOM     44  N   UNL A   1      48.295  28.529  26.667  1.00  0.00    -0.248 NA
ATOM     45  C   UNL A   1      47.715  26.281  26.933  1.00  0.00     0.031 C 
ATOM     46  C   UNL A   1      43.982  29.636  27.106  1.00  0.00     0.029 A 
ATOM     47  N   UNL A   1      46.054  30.412  26.772  1.00  0.00    -0.354 N 
ATOM     48  C   UNL A   1      49.437  27.742  26.583  1.00  0.00     0.074 A 
ATOM     49  C   UNL A   1      49.027  26.371  26.786  1.00  0.00     0.031 C 
ATOM     50  C   UNL A   1      43.903  30.973  26.994  1.00  0.00     0.029 A 
ATOM     51  C   UNL A   1      45.246  31.521  26.817  1.00  0.00     0.049 A 
ATOM     52  H   UNL A   1      47.024  30.458  26.608  1.00  0.00     0.167 HD
ATOM     53  C   UNL A   1      50.715  28.126  26.356  1.00  0.00     0.031 A 
ATOM     54  C   UNL A   1      45.562  32.830  26.750  1.00  0.00     0.031 A 
ATOM     55  C   UNL A   1      51.129  29.490  26.173  1.00  0.00     0.049 A 
ATOM     56  C   UNL A   1      46.999  33.240  26.567  1.00  0.00     0.074 A 
ATOM     57  C   UNL A   1      52.397  29.979  25.912  1.00  0.00     0.029 A 
ATOM     58  N   UNL A   1      50.285  30.586  26.250  1.00  0.00    -0.354 N 
ATOM     59  N   UNL A   1      48.065  32.486  26.443  1.00  0.00    -0.248 NA
ATOM     60  C   UNL A   1      47.275  34.682  26.505  1.00  0.00     0.031 C 
ATOM     61  C   UNL A   1      52.329  31.376  25.889  1.00  0.00     0.029 A 
ATOM     62  C   UNL A   1      51.009  31.752  26.075  1.00  0.00     0.049 A 
ATOM     63  H   UNL A   1      49.313  30.541  26.406  1.00  0.00     0.167 HD
ATOM     64  C   UNL A   1      49.131  33.360  26.265  1.00  0.00     0.074 A 
ATOM     65  C   UNL A   1      48.581  34.699  26.283  1.00  0.00     0.031 C 
ATOM     66  C   UNL A   1      50.447  33.079  26.100  1.00  0.00     0.031 A 
BRANCH  53  67
ATOM     67  C   UNL A   1      51.763  27.049  26.342  1.00  0.00    -0.014 A 
ATOM     68  C   UNL A   1      52.580  26.808  27.458  1.00  0.00     0.009 A 
ATOM     69  C   UNL A   1      51.928  26.259  25.194  1.00  0.00     0.009 A 
ATOM     70  C   UNL A   1      53.568  25.822  27.410  1.00  0.00     0.001 A 
ATOM     71  C   UNL A   1      52.897  25.255  25.158  1.00  0.00     0.001 A 
ATOM     72  C   UNL A   1      53.723  25.044  26.261  1.00  0.00     0.000 A 
ENDBRANCH  53  67
BRANCH  54  73
ATOM     73  C   UNL A   1      44.495  33.855  26.887  1.00  0.00    -0.014 A 
ATOM     74  C   UNL A   1      44.149  34.372  28.145  1.00  0.00     0.009 A 
ATOM     75  C   UNL A   1      43.807  34.316  25.753  1.00  0.00     0.009 A 
ATOM     76  C   UNL A   1      43.122  35.312  28.265  1.00  0.00     0.001 A 
ATOM     77  C   UNL A   1      42.800  35.275  25.873  1.00  0.00     0.001 A 
ATOM     78  C   UNL A   1      42.453  35.767  27.130  1.00  0.00     0.000 A 
ENDBRANCH  54  73
BRANCH  66  79
ATOM     79  C   UNL A   1      51.383  34.238  25.892  1.00  0.00    -0.014 A 
ATOM     80  C   UNL A   1      51.977  34.900  26.978  1.00  0.00     0.009 A 
ATOM     81  C   UNL A   1      51.717  34.634  24.588  1.00  0.00     0.009 A 
ATOM     82  C   UNL A   1      52.863  35.958  26.759  1.00  0.00     0.001 A 
ATOM     83  C   UNL A   1      52.625  35.673  24.373  1.00  0.00     0.001 A 
ATOM     84  C   UNL A   1      53.190  36.339  25.458  1.00  0.00     0.000 A 
ENDBRANCH  66  79
ENDBRANCH  40  41
ENDBRANCH  33  35
ENDBRANCH  32  33
ENDBRANCH  31  32
ENDBRANCH  30  31
ENDBRANCH  29  30
ENDBRANCH  28  29
ENDBRANCH  27  28
ENDBRANCH   1  27
TORSDOF 22
ENDMDL
