MODEL 1
REMARK VINA RESULT:      -9.9      0.000      0.000
REMARK SMILES COc1ccc(C)cc1[C@@H](C)NC(=O)CC1(C(=O)OCCOCCOCCOCCOC(=O)c2ccc(-c3c4nc(c(-c5ccccc5)c5ccc([nH]5)c(-c5ccccc5)c5nc(c(-c6ccccc6)c6ccc3[nH]6)C=C5)C=C4)cc2)CCCC1
REMARK SMILES IDX 23 1 22 2 21 3 20 4 19 5 17 6 18 7 16 8 82 9 85 10 83 11
REMARK SMILES IDX 84 12 15 13 13 14 12 15 14 17 10 18 11 19 9 20 3 21 4 22
REMARK SMILES IDX 5 23 8 24 6 25 7 26 2 27 1 28 24 29 25 30 26 31 27 32 28 33
REMARK SMILES IDX 29 34 30 35 31 36 32 37 33 38 34 39 35 40 81 41 36 42 80 43
REMARK SMILES IDX 37 44 38 45 39 46 74 47 40 48 79 49 73 50 75 51 41 52 78 53
REMARK SMILES IDX 72 54 71 55 42 57 64 58 49 59 63 60 50 61 53 62 62 63 76 64
REMARK SMILES IDX 51 65 52 66 61 68 77 69 54 70 43 71 44 72 48 73 45 74 47 75
REMARK SMILES IDX 46 76 65 77 66 78 70 79 67 80 69 81 68 82 55 83 56 84 60 85
REMARK SMILES IDX 57 86 59 87 58 88
REMARK H PARENT 12 16 75 56 53 67
REMARK Flexibility Score: inf
ROOT
ATOM      1  C   UNL A   1      33.896  31.514  27.796  1.00  0.00     0.188 C 
ENDROOT
BRANCH   1   2
ATOM      2  O   UNL A   1      32.630  31.847  27.261  1.00  0.00    -0.376 OA
BRANCH   2   3
ATOM      3  C   UNL A   1      32.097  30.815  26.452  1.00  0.00     0.202 C 
BRANCH   3   4
ATOM      4  C   UNL A   1      32.253  29.477  27.108  1.00  0.00     0.261 C 
BRANCH   4   5
ATOM      5  O   UNL A   1      32.005  28.289  26.399  1.00  0.00    -0.463 OA
BRANCH   5   6
ATOM      6  C   UNL A   1      33.140  28.032  25.714  1.00  0.00     0.312 C 
ATOM      7  O   UNL A   1      34.270  28.291  26.127  1.00  0.00    -0.252 OA
BRANCH   6   8
ATOM      8  C   UNL A   1      32.989  27.277  24.438  1.00  0.00     0.077 C 
ATOM      9  C   UNL A   1      33.795  27.132  23.171  1.00  0.00     0.019 C 
ATOM     10  C   UNL A   1      31.987  28.325  23.800  1.00  0.00     0.019 C 
ATOM     11  C   UNL A   1      34.071  28.476  22.546  1.00  0.00     0.001 C 
ATOM     12  C   UNL A   1      32.933  29.328  23.056  1.00  0.00     0.001 C 
BRANCH   8  13
ATOM     13  C   UNL A   1      32.744  25.776  24.918  1.00  0.00     0.118 C 
BRANCH  13  14
ATOM     14  C   UNL A   1      31.604  24.757  24.379  1.00  0.00     0.221 C 
ATOM     15  N   UNL A   1      31.382  23.384  24.414  1.00  0.00    -0.349 N 
ATOM     16  H   UNL A   1      31.139  23.147  23.490  1.00  0.00     0.164 HD
ATOM     17  O   UNL A   1      30.744  25.305  23.650  1.00  0.00    -0.275 OA
BRANCH  15  18
ATOM     18  C   UNL A   1      31.317  21.774  25.343  1.00  0.00     0.113 C 
ATOM     19  C   UNL A   1      30.472  22.424  26.690  1.00  0.00     0.036 C 
BRANCH  18  20
ATOM     20  C   UNL A   1      32.829  20.105  25.096  1.00  0.00     0.016 A 
ATOM     21  C   UNL A   1      34.283  20.191  24.856  1.00  0.00     0.124 A 
ATOM     22  C   UNL A   1      34.957  18.949  24.618  1.00  0.00     0.047 A 
ATOM     23  C   UNL A   1      34.565  17.617  24.544  1.00  0.00     0.007 A 
ATOM     24  C   UNL A   1      32.469  18.460  25.029  1.00  0.00     0.013 A 
ATOM     25  C   UNL A   1      33.288  17.334  24.830  1.00  0.00    -0.051 A 
ATOM     26  C   UNL A   1      32.931  15.919  25.140  1.00  0.00     0.044 C 
BRANCH  21  27
ATOM     27  O   UNL A   1      35.131  21.345  24.829  1.00  0.00    -0.496 OA
ATOM     28  C   UNL A   1      34.998  22.570  25.673  1.00  0.00     0.278 C 
ENDBRANCH  21  27
ENDBRANCH  18  20
ENDBRANCH  15  18
ENDBRANCH  13  14
ENDBRANCH   8  13
ENDBRANCH   6   8
ENDBRANCH   5   6
ENDBRANCH   4   5
ENDBRANCH   3   4
ENDBRANCH   2   3
ENDBRANCH   1   2
BRANCH   1  29
ATOM     29  C   UNL A   1      35.066  32.512  27.959  1.00  0.00     0.188 C 
BRANCH  29  30
ATOM     30  O   UNL A   1      34.855  33.936  27.873  1.00  0.00    -0.377 OA
BRANCH  30  31
ATOM     31  C   UNL A   1      34.017  34.593  28.808  1.00  0.00     0.188 C 
BRANCH  31  32
ATOM     32  C   UNL A   1      33.829  36.078  28.509  1.00  0.00     0.188 C 
BRANCH  32  33
ATOM     33  O   UNL A   1      32.984  36.729  29.440  1.00  0.00    -0.376 OA
BRANCH  33  34
ATOM     34  C   UNL A   1      32.630  36.028  30.632  1.00  0.00     0.202 C 
BRANCH  34  35
ATOM     35  C   UNL A   1      33.136  36.769  31.857  1.00  0.00     0.261 C 
BRANCH  35  36
ATOM     36  O   UNL A   1      34.507  36.369  32.087  1.00  0.00    -0.460 OA
BRANCH  36  37
ATOM     37  C   UNL A   1      34.671  35.458  33.089  1.00  0.00     0.338 C 
ATOM     38  O   UNL A   1      34.669  35.728  34.281  1.00  0.00    -0.246 OA
BRANCH  37  39
ATOM     39  C   UNL A   1      35.159  34.142  32.554  1.00  0.00     0.060 A 
ATOM     40  C   UNL A   1      35.227  33.044  33.428  1.00  0.00     0.016 A 
ATOM     41  C   UNL A   1      35.935  34.130  31.403  1.00  0.00     0.016 A 
ATOM     42  C   UNL A   1      36.254  32.090  33.293  1.00  0.00     0.010 A 
ATOM     43  C   UNL A   1      37.018  33.259  31.352  1.00  0.00     0.010 A 
ATOM     44  C   UNL A   1      37.255  32.274  32.333  1.00  0.00    -0.014 A 
BRANCH  44  45
ATOM     45  C   UNL A   1      38.660  31.686  32.396  1.00  0.00     0.031 A 
ATOM     46  C   UNL A   1      38.819  30.361  31.416  1.00  0.00     0.074 A 
ATOM     47  C   UNL A   1      39.551  32.608  32.962  1.00  0.00     0.049 A 
ATOM     48  N   UNL A   1      39.857  29.853  30.816  1.00  0.00    -0.248 NA
ATOM     49  C   UNL A   1      37.648  29.486  31.092  1.00  0.00     0.031 C 
ATOM     50  C   UNL A   1      40.822  33.231  32.565  1.00  0.00     0.029 A 
ATOM     51  N   UNL A   1      39.651  32.869  34.381  1.00  0.00    -0.354 N 
ATOM     52  C   UNL A   1      39.573  28.613  30.173  1.00  0.00     0.074 A 
ATOM     53  C   UNL A   1      38.132  28.534  30.264  1.00  0.00     0.031 C 
ATOM     54  C   UNL A   1      41.647  33.522  33.583  1.00  0.00     0.029 A 
ATOM     55  C   UNL A   1      41.043  33.055  34.771  1.00  0.00     0.049 A 
ATOM     56  H   UNL A   1      38.886  32.915  34.999  1.00  0.00     0.167 HD
ATOM     57  C   UNL A   1      40.545  27.697  29.725  1.00  0.00     0.031 A 
ATOM     58  C   UNL A   1      41.706  32.670  35.915  1.00  0.00     0.031 A 
ATOM     59  C   UNL A   1      41.951  28.060  30.160  1.00  0.00     0.049 A 
ATOM     60  C   UNL A   1      42.851  31.458  35.918  1.00  0.00     0.074 A 
ATOM     61  C   UNL A   1      42.344  29.770  30.056  1.00  0.00     0.029 A 
ATOM     62  N   UNL A   1      43.110  27.342  31.475  1.00  0.00    -0.354 N 
ATOM     63  N   UNL A   1      43.236  30.777  34.852  1.00  0.00    -0.248 NA
ATOM     64  C   UNL A   1      43.572  30.842  37.032  1.00  0.00     0.031 C 
ATOM     65  C   UNL A   1      43.873  30.147  31.238  1.00  0.00     0.029 A 
ATOM     66  C   UNL A   1      44.165  28.673  32.301  1.00  0.00     0.049 A 
ATOM     67  H   UNL A   1      43.156  26.385  31.700  1.00  0.00     0.167 HD
ATOM     68  C   UNL A   1      43.998  29.614  34.996  1.00  0.00     0.074 A 
ATOM     69  C   UNL A   1      44.239  29.799  36.451  1.00  0.00     0.031 C 
ATOM     70  C   UNL A   1      44.308  28.584  34.003  1.00  0.00     0.031 A 
BRANCH  57  71
ATOM     71  C   UNL A   1      40.415  26.580  28.693  1.00  0.00    -0.014 A 
ATOM     72  C   UNL A   1      41.163  26.744  27.508  1.00  0.00     0.009 A 
ATOM     73  C   UNL A   1      39.462  25.559  28.645  1.00  0.00     0.009 A 
ATOM     74  C   UNL A   1      40.918  26.074  26.309  1.00  0.00     0.001 A 
ATOM     75  C   UNL A   1      39.250  24.813  27.456  1.00  0.00     0.001 A 
ATOM     76  C   UNL A   1      39.948  25.099  26.280  1.00  0.00     0.000 A 
ENDBRANCH  57  71
BRANCH  58  77
ATOM     77  C   UNL A   1      41.061  33.584  36.960  1.00  0.00    -0.014 A 
ATOM     78  C   UNL A   1      40.796  32.900  38.192  1.00  0.00     0.009 A 
ATOM     79  C   UNL A   1      41.656  34.864  37.098  1.00  0.00     0.009 A 
ATOM     80  C   UNL A   1      41.449  33.271  39.392  1.00  0.00     0.001 A 
ATOM     81  C   UNL A   1      42.287  35.243  38.313  1.00  0.00     0.001 A 
ATOM     82  C   UNL A   1      42.245  34.410  39.432  1.00  0.00     0.000 A 
ENDBRANCH  58  77
BRANCH  70  83
ATOM     83  C   UNL A   1      44.616  27.137  34.502  1.00  0.00    -0.014 A 
ATOM     84  C   UNL A   1      45.894  26.564  34.573  1.00  0.00     0.009 A 
ATOM     85  C   UNL A   1      43.603  26.346  35.092  1.00  0.00     0.009 A 
ATOM     86  C   UNL A   1      46.149  25.328  35.192  1.00  0.00     0.001 A 
ATOM     87  C   UNL A   1      43.861  25.173  35.822  1.00  0.00     0.001 A 
ATOM     88  C   UNL A   1      45.142  24.652  35.858  1.00  0.00     0.000 A 
ENDBRANCH  70  83
ENDBRANCH  44  45
ENDBRANCH  37  39
ENDBRANCH  36  37
ENDBRANCH  35  36
ENDBRANCH  34  35
ENDBRANCH  33  34
ENDBRANCH  32  33
ENDBRANCH  31  32
ENDBRANCH  30  31
ENDBRANCH  29  30
ENDBRANCH   1  29
TORSDOF 25
ENDMDL
MODEL 2
REMARK VINA RESULT:      -9.8      1.685      3.009
REMARK SMILES COc1ccc(C)cc1[C@@H](C)NC(=O)CC1(C(=O)OCCOCCOCCOCCOC(=O)c2ccc(-c3c4nc(c(-c5ccccc5)c5ccc([nH]5)c(-c5ccccc5)c5nc(c(-c6ccccc6)c6ccc3[nH]6)C=C5)C=C4)cc2)CCCC1
REMARK SMILES IDX 23 1 22 2 21 3 20 4 19 5 17 6 18 7 16 8 82 9 85 10 83 11
REMARK SMILES IDX 84 12 15 13 13 14 12 15 14 17 10 18 11 19 9 20 3 21 4 22
REMARK SMILES IDX 5 23 8 24 6 25 7 26 2 27 1 28 24 29 25 30 26 31 27 32 28 33
REMARK SMILES IDX 29 34 30 35 31 36 32 37 33 38 34 39 35 40 81 41 36 42 80 43
REMARK SMILES IDX 37 44 38 45 39 46 74 47 40 48 79 49 73 50 75 51 41 52 78 53
REMARK SMILES IDX 72 54 71 55 42 57 64 58 49 59 63 60 50 61 53 62 62 63 76 64
REMARK SMILES IDX 51 65 52 66 61 68 77 69 54 70 43 71 44 72 48 73 45 74 47 75
REMARK SMILES IDX 46 76 65 77 66 78 70 79 67 80 69 81 68 82 55 83 56 84 60 85
REMARK SMILES IDX 57 86 59 87 58 88
REMARK H PARENT 12 16 75 56 53 67
REMARK Flexibility Score: inf
ROOT
ATOM      1  C   UNL A   1      34.821  31.158  27.996  1.00  0.00     0.188 C 
ENDROOT
BRANCH   1   2
ATOM      2  O   UNL A   1      34.101  30.747  26.850  1.00  0.00    -0.376 OA
BRANCH   2   3
ATOM      3  C   UNL A   1      33.087  29.808  27.157  1.00  0.00     0.202 C 
BRANCH   3   4
ATOM      4  C   UNL A   1      32.652  29.061  25.932  1.00  0.00     0.261 C 
BRANCH   4   5
ATOM      5  O   UNL A   1      32.012  27.814  26.034  1.00  0.00    -0.463 OA
BRANCH   5   6
ATOM      6  C   UNL A   1      32.492  27.077  25.008  1.00  0.00     0.312 C 
ATOM      7  O   UNL A   1      33.015  27.551  24.002  1.00  0.00    -0.252 OA
BRANCH   6   8
ATOM      8  C   UNL A   1      32.484  25.598  25.194  1.00  0.00     0.077 C 
ATOM      9  C   UNL A   1      32.264  24.402  24.300  1.00  0.00     0.019 C 
ATOM     10  C   UNL A   1      31.009  25.561  25.772  1.00  0.00     0.019 C 
ATOM     11  C   UNL A   1      30.942  24.496  23.582  1.00  0.00     0.001 C 
ATOM     12  C   UNL A   1      30.120  25.373  24.496  1.00  0.00     0.001 C 
BRANCH   8  13
ATOM     13  C   UNL A   1      33.879  25.301  25.907  1.00  0.00     0.118 C 
BRANCH  13  14
ATOM     14  C   UNL A   1      34.544  23.847  26.174  1.00  0.00     0.221 C 
ATOM     15  N   UNL A   1      35.516  23.057  25.568  1.00  0.00    -0.349 N 
ATOM     16  H   UNL A   1      35.110  22.162  25.511  1.00  0.00     0.164 HD
ATOM     17  O   UNL A   1      33.987  23.201  27.093  1.00  0.00    -0.275 OA
BRANCH  15  18
ATOM     18  C   UNL A   1      37.203  22.855  24.812  1.00  0.00     0.113 C 
ATOM     19  C   UNL A   1      36.655  23.043  23.195  1.00  0.00     0.036 C 
BRANCH  18  20
ATOM     20  C   UNL A   1      38.891  21.686  25.769  1.00  0.00     0.016 A 
ATOM     21  C   UNL A   1      39.165  20.236  25.725  1.00  0.00     0.124 A 
ATOM     22  C   UNL A   1      40.248  19.774  26.540  1.00  0.00     0.047 A 
ATOM     23  C   UNL A   1      41.147  20.376  27.414  1.00  0.00     0.007 A 
ATOM     24  C   UNL A   1      40.052  22.320  26.813  1.00  0.00     0.013 A 
ATOM     25  C   UNL A   1      41.110  21.711  27.512  1.00  0.00    -0.051 A 
ATOM     26  C   UNL A   1      42.282  22.406  28.118  1.00  0.00     0.044 C 
BRANCH  21  27
ATOM     27  O   UNL A   1      38.503  19.211  24.974  1.00  0.00    -0.496 OA
ATOM     28  C   UNL A   1      37.038  19.107  24.704  1.00  0.00     0.278 C 
ENDBRANCH  21  27
ENDBRANCH  18  20
ENDBRANCH  15  18
ENDBRANCH  13  14
ENDBRANCH   8  13
ENDBRANCH   6   8
ENDBRANCH   5   6
ENDBRANCH   4   5
ENDBRANCH   3   4
ENDBRANCH   2   3
ENDBRANCH   1   2
BRANCH   1  29
ATOM     29  C   UNL A   1      35.564  32.509  28.123  1.00  0.00     0.188 C 
BRANCH  29  30
ATOM     30  O   UNL A   1      34.995  33.729  27.605  1.00  0.00    -0.377 OA
BRANCH  30  31
ATOM     31  C   UNL A   1      33.975  34.403  28.320  1.00  0.00     0.188 C 
BRANCH  31  32
ATOM     32  C   UNL A   1      34.173  35.915  28.373  1.00  0.00     0.188 C 
BRANCH  32  33
ATOM     33  O   UNL A   1      33.194  36.577  29.152  1.00  0.00    -0.376 OA
BRANCH  33  34
ATOM     34  C   UNL A   1      32.520  35.828  30.164  1.00  0.00     0.202 C 
BRANCH  34  35
ATOM     35  C   UNL A   1      32.629  36.528  31.507  1.00  0.00     0.261 C 
BRANCH  35  36
ATOM     36  O   UNL A   1      34.024  36.556  31.885  1.00  0.00    -0.460 OA
BRANCH  36  37
ATOM     37  C   UNL A   1      34.329  35.802  32.980  1.00  0.00     0.338 C 
ATOM     38  O   UNL A   1      34.418  36.236  34.120  1.00  0.00    -0.246 OA
BRANCH  37  39
ATOM     39  C   UNL A   1      34.844  34.448  32.583  1.00  0.00     0.060 A 
ATOM     40  C   UNL A   1      34.926  33.445  33.563  1.00  0.00     0.016 A 
ATOM     41  C   UNL A   1      35.627  34.334  31.442  1.00  0.00     0.016 A 
ATOM     42  C   UNL A   1      35.970  32.501  33.530  1.00  0.00     0.010 A 
ATOM     43  C   UNL A   1      36.725  33.482  31.484  1.00  0.00     0.010 A 
ATOM     44  C   UNL A   1      36.974  32.605  32.560  1.00  0.00    -0.014 A 
BRANCH  44  45
ATOM     45  C   UNL A   1      38.388  32.052  32.688  1.00  0.00     0.031 A 
ATOM     46  C   UNL A   1      38.641  30.764  31.679  1.00  0.00     0.074 A 
ATOM     47  C   UNL A   1      39.219  32.978  33.335  1.00  0.00     0.049 A 
ATOM     48  N   UNL A   1      39.726  30.303  31.126  1.00  0.00    -0.248 NA
ATOM     49  C   UNL A   1      37.516  29.870  31.258  1.00  0.00     0.031 C 
ATOM     50  C   UNL A   1      40.493  33.646  33.033  1.00  0.00     0.029 A 
ATOM     51  N   UNL A   1      39.229  33.194  34.765  1.00  0.00    -0.354 N 
ATOM     52  C   UNL A   1      39.514  29.078  30.428  1.00  0.00     0.074 A 
ATOM     53  C   UNL A   1      38.073  28.958  30.432  1.00  0.00     0.031 C 
ATOM     54  C   UNL A   1      41.249  33.925  34.107  1.00  0.00     0.029 A 
ATOM     55  C   UNL A   1      40.589  33.404  35.242  1.00  0.00     0.049 A 
ATOM     56  H   UNL A   1      38.427  33.200  35.336  1.00  0.00     0.167 HD
ATOM     57  C   UNL A   1      40.536  28.202  30.010  1.00  0.00     0.031 A 
ATOM     58  C   UNL A   1      41.195  32.998  36.410  1.00  0.00     0.031 A 
ATOM     59  C   UNL A   1      41.904  28.587  30.539  1.00  0.00     0.049 A 
ATOM     60  C   UNL A   1      42.371  31.817  36.443  1.00  0.00     0.074 A 
ATOM     61  C   UNL A   1      42.254  30.309  30.511  1.00  0.00     0.029 A 
ATOM     62  N   UNL A   1      43.003  27.856  31.897  1.00  0.00    -0.354 N 
ATOM     63  N   UNL A   1      42.836  31.182  35.381  1.00  0.00    -0.248 NA
ATOM     64  C   UNL A   1      43.042  31.184  37.578  1.00  0.00     0.031 C 
ATOM     65  C   UNL A   1      43.700  30.687  31.794  1.00  0.00     0.029 A 
ATOM     66  C   UNL A   1      43.971  29.187  32.825  1.00  0.00     0.049 A 
ATOM     67  H   UNL A   1      43.063  26.894  32.095  1.00  0.00     0.167 HD
ATOM     68  C   UNL A   1      43.620  30.035  35.534  1.00  0.00     0.074 A 
ATOM     69  C   UNL A   1      43.771  30.178  37.006  1.00  0.00     0.031 C 
ATOM     70  C   UNL A   1      44.017  29.046  34.530  1.00  0.00     0.031 A 
BRANCH  57  71
ATOM     71  C   UNL A   1      40.498  27.117  28.938  1.00  0.00    -0.014 A 
ATOM     72  C   UNL A   1      41.732  26.510  28.629  1.00  0.00     0.009 A 
ATOM     73  C   UNL A   1      39.465  26.831  28.040  1.00  0.00     0.009 A 
ATOM     74  C   UNL A   1      42.002  25.794  27.462  1.00  0.00     0.001 A 
ATOM     75  C   UNL A   1      39.701  26.040  26.884  1.00  0.00     0.001 A 
ATOM     76  C   UNL A   1      40.975  25.559  26.576  1.00  0.00     0.000 A 
ENDBRANCH  57  71
BRANCH  58  77
ATOM     77  C   UNL A   1      40.465  33.861  37.443  1.00  0.00    -0.014 A 
ATOM     78  C   UNL A   1      39.934  33.083  38.524  1.00  0.00     0.009 A 
ATOM     79  C   UNL A   1      41.139  35.047  37.830  1.00  0.00     0.009 A 
ATOM     80  C   UNL A   1      40.402  33.251  39.849  1.00  0.00     0.001 A 
ATOM     81  C   UNL A   1      41.584  35.224  39.167  1.00  0.00     0.001 A 
ATOM     82  C   UNL A   1      41.278  34.287  40.155  1.00  0.00     0.000 A 
ENDBRANCH  58  77
BRANCH  70  83
ATOM     83  C   UNL A   1      44.335  27.591  35.001  1.00  0.00    -0.014 A 
ATOM     84  C   UNL A   1      45.623  27.056  35.148  1.00  0.00     0.009 A 
ATOM     85  C   UNL A   1      43.308  26.749  35.485  1.00  0.00     0.009 A 
ATOM     86  C   UNL A   1      45.872  25.806  35.741  1.00  0.00     0.001 A 
ATOM     87  C   UNL A   1      43.550  25.559  36.192  1.00  0.00     0.001 A 
ATOM     88  C   UNL A   1      44.841  25.077  36.306  1.00  0.00     0.000 A 
ENDBRANCH  70  83
ENDBRANCH  44  45
ENDBRANCH  37  39
ENDBRANCH  36  37
ENDBRANCH  35  36
ENDBRANCH  34  35
ENDBRANCH  33  34
ENDBRANCH  32  33
ENDBRANCH  31  32
ENDBRANCH  30  31
ENDBRANCH  29  30
ENDBRANCH   1  29
TORSDOF 25
ENDMDL
MODEL 3
REMARK VINA RESULT:      -9.4      1.987      6.631
REMARK SMILES COc1ccc(C)cc1[C@@H](C)NC(=O)CC1(C(=O)OCCOCCOCCOCCOC(=O)c2ccc(-c3c4nc(c(-c5ccccc5)c5ccc([nH]5)c(-c5ccccc5)c5nc(c(-c6ccccc6)c6ccc3[nH]6)C=C5)C=C4)cc2)CCCC1
REMARK SMILES IDX 23 1 22 2 21 3 20 4 19 5 17 6 18 7 16 8 82 9 85 10 83 11
REMARK SMILES IDX 84 12 15 13 13 14 12 15 14 17 10 18 11 19 9 20 3 21 4 22
REMARK SMILES IDX 5 23 8 24 6 25 7 26 2 27 1 28 24 29 25 30 26 31 27 32 28 33
REMARK SMILES IDX 29 34 30 35 31 36 32 37 33 38 34 39 35 40 81 41 36 42 80 43
REMARK SMILES IDX 37 44 38 45 39 46 74 47 40 48 79 49 73 50 75 51 41 52 78 53
REMARK SMILES IDX 72 54 71 55 42 57 64 58 49 59 63 60 50 61 53 62 62 63 76 64
REMARK SMILES IDX 51 65 52 66 61 68 77 69 54 70 43 71 44 72 48 73 45 74 47 75
REMARK SMILES IDX 46 76 65 77 66 78 70 79 67 80 69 81 68 82 55 83 56 84 60 85
REMARK SMILES IDX 57 86 59 87 58 88
REMARK H PARENT 12 16 75 56 53 67
REMARK Flexibility Score: inf
ROOT
ATOM      1  C   UNL A   1      35.031  30.689  27.845  1.00  0.00     0.188 C 
ENDROOT
BRANCH   1   2
ATOM      2  O   UNL A   1      34.103  30.502  26.794  1.00  0.00    -0.376 OA
BRANCH   2   3
ATOM      3  C   UNL A   1      32.877  29.959  27.246  1.00  0.00     0.202 C 
BRANCH   3   4
ATOM      4  C   UNL A   1      31.943  29.705  26.102  1.00  0.00     0.261 C 
BRANCH   4   5
ATOM      5  O   UNL A   1      31.417  28.422  25.867  1.00  0.00    -0.463 OA
BRANCH   5   6
ATOM      6  C   UNL A   1      31.586  28.199  24.545  1.00  0.00     0.312 C 
ATOM      7  O   UNL A   1      31.835  29.078  23.722  1.00  0.00    -0.252 OA
BRANCH   6   8
ATOM      8  C   UNL A   1      31.588  26.774  24.108  1.00  0.00     0.077 C 
ATOM      9  C   UNL A   1      30.731  25.925  23.202  1.00  0.00     0.019 C 
ATOM     10  C   UNL A   1      30.888  26.247  25.429  1.00  0.00     0.019 C 
ATOM     11  C   UNL A   1      29.283  25.979  23.616  1.00  0.00     0.001 C 
ATOM     12  C   UNL A   1      29.361  26.316  25.086  1.00  0.00     0.001 C 
BRANCH   8  13
ATOM     13  C   UNL A   1      33.070  26.549  23.566  1.00  0.00     0.118 C 
BRANCH  13  14
ATOM     14  C   UNL A   1      33.772  25.130  23.213  1.00  0.00     0.221 C 
ATOM     15  N   UNL A   1      34.308  24.065  23.931  1.00  0.00    -0.349 N 
ATOM     16  H   UNL A   1      35.174  23.885  23.499  1.00  0.00     0.164 HD
ATOM     17  O   UNL A   1      33.998  24.972  21.990  1.00  0.00    -0.275 OA
BRANCH  15  18
ATOM     18  C   UNL A   1      34.199  22.814  25.302  1.00  0.00     0.113 C 
ATOM     19  C   UNL A   1      34.484  23.954  26.554  1.00  0.00     0.036 C 
BRANCH  18  20
ATOM     20  C   UNL A   1      34.666  20.612  25.051  1.00  0.00     0.016 A 
ATOM     21  C   UNL A   1      35.975  19.948  24.889  1.00  0.00     0.124 A 
ATOM     22  C   UNL A   1      35.940  18.540  24.625  1.00  0.00     0.047 A 
ATOM     23  C   UNL A   1      34.932  17.596  24.464  1.00  0.00     0.007 A 
ATOM     24  C   UNL A   1      33.527  19.382  24.882  1.00  0.00     0.013 A 
ATOM     25  C   UNL A   1      33.671  17.999  24.670  1.00  0.00    -0.051 A 
ATOM     26  C   UNL A   1      32.625  16.959  24.890  1.00  0.00     0.044 C 
BRANCH  21  27
ATOM     27  O   UNL A   1      37.292  20.508  24.964  1.00  0.00    -0.496 OA
ATOM     28  C   UNL A   1      37.640  21.946  25.170  1.00  0.00     0.278 C 
ENDBRANCH  21  27
ENDBRANCH  18  20
ENDBRANCH  15  18
ENDBRANCH  13  14
ENDBRANCH   8  13
ENDBRANCH   6   8
ENDBRANCH   5   6
ENDBRANCH   4   5
ENDBRANCH   3   4
ENDBRANCH   2   3
ENDBRANCH   1   2
BRANCH   1  29
ATOM     29  C   UNL A   1      35.882  31.966  28.042  1.00  0.00     0.188 C 
BRANCH  29  30
ATOM     30  O   UNL A   1      35.432  33.249  27.562  1.00  0.00    -0.377 OA
BRANCH  30  31
ATOM     31  C   UNL A   1      34.348  33.909  28.192  1.00  0.00     0.188 C 
BRANCH  31  32
ATOM     32  C   UNL A   1      34.489  35.429  28.198  1.00  0.00     0.188 C 
BRANCH  32  33
ATOM     33  O   UNL A   1      33.428  36.082  28.869  1.00  0.00    -0.376 OA
BRANCH  33  34
ATOM     34  C   UNL A   1      32.843  35.432  29.997  1.00  0.00     0.202 C 
BRANCH  34  35
ATOM     35  C   UNL A   1      32.965  36.299  31.237  1.00  0.00     0.261 C 
BRANCH  35  36
ATOM     36  O   UNL A   1      34.345  36.265  31.672  1.00  0.00    -0.460 OA
BRANCH  36  37
ATOM     37  C   UNL A   1      34.550  35.618  32.855  1.00  0.00     0.338 C 
ATOM     38  O   UNL A   1      34.505  36.151  33.954  1.00  0.00    -0.246 OA
BRANCH  37  39
ATOM     39  C   UNL A   1      35.139  34.255  32.635  1.00  0.00     0.060 A 
ATOM     40  C   UNL A   1      35.316  33.411  33.745  1.00  0.00     0.016 A 
ATOM     41  C   UNL A   1      35.893  34.023  31.492  1.00  0.00     0.016 A 
ATOM     42  C   UNL A   1      36.417  32.536  33.805  1.00  0.00     0.010 A 
ATOM     43  C   UNL A   1      37.045  33.254  31.612  1.00  0.00     0.010 A 
ATOM     44  C   UNL A   1      37.382  32.559  32.792  1.00  0.00    -0.014 A 
BRANCH  44  45
ATOM     45  C   UNL A   1      38.833  32.116  32.942  1.00  0.00     0.031 A 
ATOM     46  C   UNL A   1      39.711  33.179  33.859  1.00  0.00     0.074 A 
ATOM     47  C   UNL A   1      38.970  30.765  32.594  1.00  0.00     0.049 A 
ATOM     48  N   UNL A   1      40.767  33.008  34.601  1.00  0.00    -0.248 NA
ATOM     49  C   UNL A   1      39.356  34.632  33.924  1.00  0.00     0.031 C 
ATOM     50  C   UNL A   1      39.494  29.554  33.241  1.00  0.00     0.029 A 
ATOM     51  N   UNL A   1      39.017  30.283  31.231  1.00  0.00    -0.354 N 
ATOM     52  C   UNL A   1      41.288  34.232  35.115  1.00  0.00     0.074 A 
ATOM     53  C   UNL A   1      40.255  35.183  34.768  1.00  0.00     0.031 C 
ATOM     54  C   UNL A   1      40.032  28.656  32.401  1.00  0.00     0.029 A 
ATOM     55  C   UNL A   1      39.991  29.207  31.101  1.00  0.00     0.049 A 
ATOM     56  H   UNL A   1      38.468  30.633  30.493  1.00  0.00     0.167 HD
ATOM     57  C   UNL A   1      42.572  34.390  35.673  1.00  0.00     0.031 A 
ATOM     58  C   UNL A   1      40.854  28.907  30.071  1.00  0.00     0.031 A 
ATOM     59  C   UNL A   1      43.447  33.162  35.512  1.00  0.00     0.049 A 
ATOM     60  C   UNL A   1      42.504  29.112  30.200  1.00  0.00     0.074 A 
ATOM     61  C   UNL A   1      42.632  31.628  35.779  1.00  0.00     0.029 A 
ATOM     62  N   UNL A   1      44.917  32.779  34.382  1.00  0.00    -0.354 N 
ATOM     63  N   UNL A   1      43.130  29.555  31.278  1.00  0.00    -0.248 NA
ATOM     64  C   UNL A   1      43.557  28.956  29.197  1.00  0.00     0.031 C 
ATOM     65  C   UNL A   1      43.665  30.197  34.905  1.00  0.00     0.029 A 
ATOM     66  C   UNL A   1      44.941  30.973  33.829  1.00  0.00     0.049 A 
ATOM     67  H   UNL A   1      45.591  33.444  34.114  1.00  0.00     0.167 HD
ATOM     68  C   UNL A   1      44.471  29.941  31.203  1.00  0.00     0.074 A 
ATOM     69  C   UNL A   1      44.678  29.423  29.825  1.00  0.00     0.031 C 
ATOM     70  C   UNL A   1      45.273  30.686  32.176  1.00  0.00     0.031 A 
BRANCH  57  71
ATOM     71  C   UNL A   1      43.091  35.483  36.602  1.00  0.00    -0.014 A 
ATOM     72  C   UNL A   1      42.256  35.822  37.686  1.00  0.00     0.009 A 
ATOM     73  C   UNL A   1      44.147  36.372  36.379  1.00  0.00     0.009 A 
ATOM     74  C   UNL A   1      42.336  37.007  38.419  1.00  0.00     0.001 A 
ATOM     75  C   UNL A   1      44.291  37.546  37.165  1.00  0.00     0.001 A 
ATOM     76  C   UNL A   1      43.363  37.882  38.153  1.00  0.00     0.000 A 
ENDBRANCH  57  71
BRANCH  58  77
ATOM     77  C   UNL A   1      39.878  28.452  28.982  1.00  0.00    -0.014 A 
ATOM     78  C   UNL A   1      40.423  28.606  27.665  1.00  0.00     0.009 A 
ATOM     79  C   UNL A   1      39.230  27.215  29.226  1.00  0.00     0.009 A 
ATOM     80  C   UNL A   1      40.668  27.484  26.837  1.00  0.00     0.001 A 
ATOM     81  C   UNL A   1      39.458  26.099  28.378  1.00  0.00     0.001 A 
ATOM     82  C   UNL A   1      40.238  26.220  27.227  1.00  0.00     0.000 A 
ENDBRANCH  58  77
BRANCH  70  83
ATOM     83  C   UNL A   1      46.488  31.519  31.657  1.00  0.00    -0.014 A 
ATOM     84  C   UNL A   1      46.410  32.819  31.137  1.00  0.00     0.009 A 
ATOM     85  C   UNL A   1      47.812  31.058  31.845  1.00  0.00     0.009 A 
ATOM     86  C   UNL A   1      47.542  33.600  30.847  1.00  0.00     0.001 A 
ATOM     87  C   UNL A   1      48.947  31.871  31.680  1.00  0.00     0.001 A 
ATOM     88  C   UNL A   1      48.810  33.146  31.162  1.00  0.00     0.000 A 
ENDBRANCH  70  83
ENDBRANCH  44  45
ENDBRANCH  37  39
ENDBRANCH  36  37
ENDBRANCH  35  36
ENDBRANCH  34  35
ENDBRANCH  33  34
ENDBRANCH  32  33
ENDBRANCH  31  32
ENDBRANCH  30  31
ENDBRANCH  29  30
ENDBRANCH   1  29
TORSDOF 25
ENDMDL
