MODEL 1
REMARK VINA RESULT:     -11.7      0.000      0.000
REMARK SMILES C[C@]12C(=O)N(c3ccc(C(=O)OCCOCCOCCOCCOC(=O)c4ccc(-c5c6nc(c(-c7ccccc7)c7ccc([nH]7)c(-c7ccccc7)c7nc(c(-c8ccccc8)c8ccc5[nH]8)C=C7)C=C6)cc4)cc3)C(=O)[C@H]1[C@H]1c3ccccc3[C@@H]2c2ccccc21
REMARK SMILES IDX 19 1 18 2 17 3 16 4 15 5 14 6 13 7 12 8 10 9 11 10 9 11 6 12
REMARK SMILES IDX 7 13 76 14 8 15 75 16 5 17 1 18 2 19 3 20 79 21 87 22 4 23
REMARK SMILES IDX 77 24 80 25 86 26 88 27 78 28 81 29 93 30 85 31 89 32 82 33
REMARK SMILES IDX 92 34 84 35 90 36 83 37 91 38 20 39 21 40 22 41 23 42 24 43
REMARK SMILES IDX 25 44 26 45 27 46 28 47 74 48 29 49 73 50 30 51 31 52 32 53
REMARK SMILES IDX 67 54 33 55 72 56 66 57 68 58 34 59 71 60 65 61 64 62 35 64
REMARK SMILES IDX 57 65 42 66 56 67 43 68 46 69 55 70 69 71 44 72 45 73 54 75
REMARK SMILES IDX 70 76 47 77 36 78 37 79 41 80 38 81 40 82 39 83 58 84 59 85
REMARK SMILES IDX 63 86 60 87 62 88 61 89 48 90 49 91 53 92 50 93 52 94 51 95
REMARK H PARENT 68 63 46 74
REMARK Flexibility Score: inf
ROOT
ATOM      1  C   UNL A   1      30.496  31.935  25.379  1.00  0.00     0.188 C 
ENDROOT
BRANCH   1   2
ATOM      2  O   UNL A   1      29.669  31.827  24.225  1.00  0.00    -0.377 OA
BRANCH   2   3
ATOM      3  C   UNL A   1      29.470  32.966  23.406  1.00  0.00     0.188 C 
BRANCH   3   4
ATOM      4  C   UNL A   1      28.036  33.217  22.905  1.00  0.00     0.188 C 
BRANCH   4   5
ATOM      5  O   UNL A   1      27.985  33.475  21.510  1.00  0.00    -0.376 OA
BRANCH   5   6
ATOM      6  C   UNL A   1      27.657  32.395  20.656  1.00  0.00     0.202 C 
BRANCH   6   7
ATOM      7  C   UNL A   1      28.395  31.052  20.817  1.00  0.00     0.261 C 
BRANCH   7   8
ATOM      8  O   UNL A   1      27.615  29.940  21.274  1.00  0.00    -0.460 OA
BRANCH   8   9
ATOM      9  C   UNL A   1      27.672  29.649  22.589  1.00  0.00     0.338 C 
ATOM     10  O   UNL A   1      26.903  30.019  23.459  1.00  0.00    -0.246 OA
BRANCH   9  11
ATOM     11  C   UNL A   1      28.701  28.607  22.785  1.00  0.00     0.060 A 
ATOM     12  C   UNL A   1      30.717  26.656  22.971  1.00  0.00     0.052 A 
ATOM     13  C   UNL A   1      30.972  27.908  22.389  1.00  0.00     0.028 A 
ATOM     14  C   UNL A   1      29.465  26.447  23.569  1.00  0.00     0.028 A 
ATOM     15  C   UNL A   1      29.960  28.850  22.241  1.00  0.00     0.018 A 
ATOM     16  C   UNL A   1      28.464  27.432  23.502  1.00  0.00     0.018 A 
BRANCH  12  17
ATOM     17  N   UNL A   1      31.614  25.597  22.700  1.00  0.00    -0.250 N 
ATOM     18  C   UNL A   1      33.009  22.501  22.498  1.00  0.00     0.024 C 
ATOM     19  C   UNL A   1      32.845  23.778  23.341  1.00  0.00     0.071 C 
ATOM     20  C   UNL A   1      31.464  24.319  23.101  1.00  0.00     0.241 C 
ATOM     21  C   UNL A   1      33.933  24.836  22.865  1.00  0.00     0.107 C 
ATOM     22  C   UNL A   1      32.839  23.491  24.899  1.00  0.00     0.066 C 
ATOM     23  O   UNL A   1      30.435  23.675  23.264  1.00  0.00    -0.273 OA
ATOM     24  C   UNL A   1      32.826  25.687  22.110  1.00  0.00     0.238 C 
ATOM     25  C   UNL A   1      34.778  25.072  24.216  1.00  0.00     0.063 C 
ATOM     26  C   UNL A   1      32.778  24.857  25.600  1.00  0.00    -0.036 A 
ATOM     27  C   UNL A   1      34.194  22.899  25.212  1.00  0.00    -0.036 A 
ATOM     28  O   UNL A   1      33.053  26.260  21.043  1.00  0.00    -0.274 OA
ATOM     29  C   UNL A   1      33.830  25.719  25.214  1.00  0.00    -0.036 A 
ATOM     30  C   UNL A   1      35.252  23.736  24.804  1.00  0.00    -0.036 A 
ATOM     31  C   UNL A   1      31.787  25.306  26.459  1.00  0.00     0.005 A 
ATOM     32  C   UNL A   1      34.426  21.703  25.876  1.00  0.00     0.005 A 
ATOM     33  C   UNL A   1      33.888  27.030  25.658  1.00  0.00     0.004 A 
ATOM     34  C   UNL A   1      36.564  23.367  25.065  1.00  0.00     0.004 A 
ATOM     35  C   UNL A   1      31.837  26.632  26.901  1.00  0.00     0.000 A 
ATOM     36  C   UNL A   1      35.744  21.338  26.139  1.00  0.00     0.000 A 
ATOM     37  C   UNL A   1      32.875  27.488  26.499  1.00  0.00     0.000 A 
ATOM     38  C   UNL A   1      36.804  22.161  25.736  1.00  0.00     0.000 A 
ENDBRANCH  12  17
ENDBRANCH   9  11
ENDBRANCH   8   9
ENDBRANCH   7   8
ENDBRANCH   6   7
ENDBRANCH   5   6
ENDBRANCH   4   5
ENDBRANCH   3   4
ENDBRANCH   2   3
ENDBRANCH   1   2
BRANCH   1  39
ATOM     39  C   UNL A   1      31.431  30.797  25.853  1.00  0.00     0.188 C 
BRANCH  39  40
ATOM     40  O   UNL A   1      32.394  31.160  26.831  1.00  0.00    -0.376 OA
BRANCH  40  41
ATOM     41  C   UNL A   1      32.148  32.358  27.554  1.00  0.00     0.202 C 
BRANCH  41  42
ATOM     42  C   UNL A   1      33.349  33.306  27.632  1.00  0.00     0.261 C 
BRANCH  42  43
ATOM     43  O   UNL A   1      33.082  34.582  28.232  1.00  0.00    -0.460 OA
BRANCH  43  44
ATOM     44  C   UNL A   1      33.314  34.716  29.556  1.00  0.00     0.338 C 
ATOM     45  O   UNL A   1      32.569  35.188  30.397  1.00  0.00    -0.246 OA
BRANCH  44  46
ATOM     46  C   UNL A   1      34.578  34.009  29.848  1.00  0.00     0.060 A 
ATOM     47  C   UNL A   1      35.707  34.237  29.056  1.00  0.00     0.016 A 
ATOM     48  C   UNL A   1      34.613  33.066  30.882  1.00  0.00     0.016 A 
ATOM     49  C   UNL A   1      36.880  33.527  29.312  1.00  0.00     0.010 A 
ATOM     50  C   UNL A   1      35.787  32.350  31.130  1.00  0.00     0.010 A 
ATOM     51  C   UNL A   1      36.934  32.589  30.357  1.00  0.00    -0.014 A 
BRANCH  51  52
ATOM     52  C   UNL A   1      38.234  31.993  30.743  1.00  0.00     0.031 A 
ATOM     53  C   UNL A   1      39.133  32.627  31.760  1.00  0.00     0.074 A 
ATOM     54  C   UNL A   1      38.599  30.846  30.139  1.00  0.00     0.049 A 
ATOM     55  N   UNL A   1      40.266  32.177  32.238  1.00  0.00    -0.248 NA
ATOM     56  C   UNL A   1      38.716  33.923  32.313  1.00  0.00     0.031 C 
ATOM     57  C   UNL A   1      37.805  30.147  29.127  1.00  0.00     0.029 A 
ATOM     58  N   UNL A   1      39.715  30.064  30.290  1.00  0.00    -0.354 N 
ATOM     59  C   UNL A   1      40.692  33.123  33.161  1.00  0.00     0.074 A 
ATOM     60  C   UNL A   1      39.715  34.192  33.147  1.00  0.00     0.031 C 
ATOM     61  C   UNL A   1      38.449  29.029  28.763  1.00  0.00     0.029 A 
ATOM     62  C   UNL A   1      39.714  28.948  29.489  1.00  0.00     0.049 A 
ATOM     63  H   UNL A   1      40.447  30.282  30.912  1.00  0.00     0.167 HD
ATOM     64  C   UNL A   1      41.790  33.086  33.953  1.00  0.00     0.031 A 
ATOM     65  C   UNL A   1      40.624  27.966  29.349  1.00  0.00     0.031 A 
ATOM     66  C   UNL A   1      42.767  32.025  33.944  1.00  0.00     0.049 A 
ATOM     67  C   UNL A   1      41.862  27.982  30.200  1.00  0.00     0.074 A 
ATOM     68  C   UNL A   1      43.886  31.886  34.748  1.00  0.00     0.029 A 
ATOM     69  N   UNL A   1      42.753  30.934  33.089  1.00  0.00    -0.354 N 
ATOM     70  N   UNL A   1      42.209  28.841  31.127  1.00  0.00    -0.248 NA
ATOM     71  C   UNL A   1      42.825  26.889  30.001  1.00  0.00     0.031 C 
ATOM     72  C   UNL A   1      44.590  30.756  34.329  1.00  0.00     0.029 A 
ATOM     73  C   UNL A   1      43.867  30.142  33.319  1.00  0.00     0.049 A 
ATOM     74  H   UNL A   1      42.056  30.749  32.419  1.00  0.00     0.167 HD
ATOM     75  C   UNL A   1      43.415  28.381  31.638  1.00  0.00     0.074 A 
ATOM     76  C   UNL A   1      43.733  27.159  30.929  1.00  0.00     0.031 C 
ATOM     77  C   UNL A   1      44.183  28.927  32.611  1.00  0.00     0.031 A 
BRANCH  64  78
ATOM     78  C   UNL A   1      42.017  34.217  34.920  1.00  0.00    -0.014 A 
ATOM     79  C   UNL A   1      41.410  34.188  36.187  1.00  0.00     0.009 A 
ATOM     80  C   UNL A   1      42.700  35.376  34.522  1.00  0.00     0.009 A 
ATOM     81  C   UNL A   1      41.464  35.304  37.026  1.00  0.00     0.001 A 
ATOM     82  C   UNL A   1      42.774  36.481  35.375  1.00  0.00     0.001 A 
ATOM     83  C   UNL A   1      42.146  36.449  36.619  1.00  0.00     0.000 A 
ENDBRANCH  64  78
BRANCH  65  84
ATOM     84  C   UNL A   1      40.364  26.870  28.378  1.00  0.00    -0.014 A 
ATOM     85  C   UNL A   1      40.858  26.949  27.066  1.00  0.00     0.009 A 
ATOM     86  C   UNL A   1      39.569  25.772  28.739  1.00  0.00     0.009 A 
ATOM     87  C   UNL A   1      40.541  25.965  26.128  1.00  0.00     0.001 A 
ATOM     88  C   UNL A   1      39.281  24.773  27.806  1.00  0.00     0.001 A 
ATOM     89  C   UNL A   1      39.757  24.876  26.499  1.00  0.00     0.000 A 
ENDBRANCH  65  84
BRANCH  77  90
ATOM     90  C   UNL A   1      45.452  28.216  32.999  1.00  0.00    -0.014 A 
ATOM     91  C   UNL A   1      46.634  28.462  32.282  1.00  0.00     0.009 A 
ATOM     92  C   UNL A   1      45.449  27.214  33.981  1.00  0.00     0.009 A 
ATOM     93  C   UNL A   1      47.781  27.703  32.521  1.00  0.00     0.001 A 
ATOM     94  C   UNL A   1      46.608  26.476  34.239  1.00  0.00     0.001 A 
ATOM     95  C   UNL A   1      47.767  26.712  33.500  1.00  0.00     0.000 A 
ENDBRANCH  77  90
ENDBRANCH  51  52
ENDBRANCH  44  46
ENDBRANCH  43  44
ENDBRANCH  42  43
ENDBRANCH  41  42
ENDBRANCH  40  41
ENDBRANCH  39  40
ENDBRANCH   1  39
TORSDOF 21
ENDMDL
MODEL 2
REMARK VINA RESULT:     -11.4      0.624      5.316
REMARK SMILES C[C@]12C(=O)N(c3ccc(C(=O)OCCOCCOCCOCCOC(=O)c4ccc(-c5c6nc(c(-c7ccccc7)c7ccc([nH]7)c(-c7ccccc7)c7nc(c(-c8ccccc8)c8ccc5[nH]8)C=C7)C=C6)cc4)cc3)C(=O)[C@H]1[C@H]1c3ccccc3[C@@H]2c2ccccc21
REMARK SMILES IDX 19 1 18 2 17 3 16 4 15 5 14 6 13 7 12 8 10 9 11 10 9 11 6 12
REMARK SMILES IDX 7 13 76 14 8 15 75 16 5 17 1 18 2 19 3 20 79 21 87 22 4 23
REMARK SMILES IDX 77 24 80 25 86 26 88 27 78 28 81 29 93 30 85 31 89 32 82 33
REMARK SMILES IDX 92 34 84 35 90 36 83 37 91 38 20 39 21 40 22 41 23 42 24 43
REMARK SMILES IDX 25 44 26 45 27 46 28 47 74 48 29 49 73 50 30 51 31 52 32 53
REMARK SMILES IDX 67 54 33 55 72 56 66 57 68 58 34 59 71 60 65 61 64 62 35 64
REMARK SMILES IDX 57 65 42 66 56 67 43 68 46 69 55 70 69 71 44 72 45 73 54 75
REMARK SMILES IDX 70 76 47 77 36 78 37 79 41 80 38 81 40 82 39 83 58 84 59 85
REMARK SMILES IDX 63 86 60 87 62 88 61 89 48 90 49 91 53 92 50 93 52 94 51 95
REMARK H PARENT 68 63 46 74
REMARK Flexibility Score: inf
ROOT
ATOM      1  C   UNL A   1      30.538  32.139  25.620  1.00  0.00     0.188 C 
ENDROOT
BRANCH   1   2
ATOM      2  O   UNL A   1      29.699  31.925  24.491  1.00  0.00    -0.377 OA
BRANCH   2   3
ATOM      3  C   UNL A   1      29.567  32.950  23.522  1.00  0.00     0.188 C 
BRANCH   3   4
ATOM      4  C   UNL A   1      28.144  33.242  23.010  1.00  0.00     0.188 C 
BRANCH   4   5
ATOM      5  O   UNL A   1      28.114  33.531  21.621  1.00  0.00    -0.376 OA
BRANCH   5   6
ATOM      6  C   UNL A   1      27.704  32.496  20.746  1.00  0.00     0.202 C 
BRANCH   6   7
ATOM      7  C   UNL A   1      28.400  31.124  20.818  1.00  0.00     0.261 C 
BRANCH   7   8
ATOM      8  O   UNL A   1      27.617  30.031  21.316  1.00  0.00    -0.460 OA
BRANCH   8   9
ATOM      9  C   UNL A   1      27.704  29.764  22.634  1.00  0.00     0.338 C 
ATOM     10  O   UNL A   1      26.971  30.173  23.518  1.00  0.00    -0.246 OA
BRANCH   9  11
ATOM     11  C   UNL A   1      28.707  28.696  22.822  1.00  0.00     0.060 A 
ATOM     12  C   UNL A   1      30.683  26.703  22.995  1.00  0.00     0.052 A 
ATOM     13  C   UNL A   1      30.981  27.976  22.481  1.00  0.00     0.028 A 
ATOM     14  C   UNL A   1      29.405  26.490  23.536  1.00  0.00     0.028 A 
ATOM     15  C   UNL A   1      29.990  28.941  22.338  1.00  0.00     0.018 A 
ATOM     16  C   UNL A   1      28.424  27.495  23.475  1.00  0.00     0.018 A 
BRANCH  12  17
ATOM     17  N   UNL A   1      31.572  25.642  22.711  1.00  0.00    -0.250 N 
ATOM     18  C   UNL A   1      32.955  22.541  22.487  1.00  0.00     0.024 C 
ATOM     19  C   UNL A   1      32.806  23.818  23.333  1.00  0.00     0.071 C 
ATOM     20  C   UNL A   1      31.424  24.363  23.112  1.00  0.00     0.241 C 
ATOM     21  C   UNL A   1      33.891  24.873  22.843  1.00  0.00     0.107 C 
ATOM     22  C   UNL A   1      32.821  23.529  24.890  1.00  0.00     0.066 C 
ATOM     23  O   UNL A   1      30.395  23.723  23.289  1.00  0.00    -0.273 OA
ATOM     24  C   UNL A   1      32.777  25.729  22.105  1.00  0.00     0.238 C 
ATOM     25  C   UNL A   1      34.755  25.105  24.183  1.00  0.00     0.063 C 
ATOM     26  C   UNL A   1      32.774  24.894  25.594  1.00  0.00    -0.036 A 
ATOM     27  C   UNL A   1      34.177  22.932  25.184  1.00  0.00    -0.036 A 
ATOM     28  O   UNL A   1      32.991  26.302  21.036  1.00  0.00    -0.274 OA
ATOM     29  C   UNL A   1      33.823  25.753  25.194  1.00  0.00    -0.036 A 
ATOM     30  C   UNL A   1      35.233  23.766  24.763  1.00  0.00    -0.036 A 
ATOM     31  C   UNL A   1      31.795  25.345  26.466  1.00  0.00     0.005 A 
ATOM     32  C   UNL A   1      34.415  21.735  25.844  1.00  0.00     0.005 A 
ATOM     33  C   UNL A   1      33.891  27.064  25.640  1.00  0.00     0.004 A 
ATOM     34  C   UNL A   1      36.547  23.392  25.006  1.00  0.00     0.004 A 
ATOM     35  C   UNL A   1      31.856  26.670  26.909  1.00  0.00     0.000 A 
ATOM     36  C   UNL A   1      35.735  21.365  26.089  1.00  0.00     0.000 A 
ATOM     37  C   UNL A   1      32.891  27.524  26.495  1.00  0.00     0.000 A 
ATOM     38  C   UNL A   1      36.793  22.186  25.672  1.00  0.00     0.000 A 
ENDBRANCH  12  17
ENDBRANCH   9  11
ENDBRANCH   8   9
ENDBRANCH   7   8
ENDBRANCH   6   7
ENDBRANCH   5   6
ENDBRANCH   4   5
ENDBRANCH   3   4
ENDBRANCH   2   3
ENDBRANCH   1   2
BRANCH   1  39
ATOM     39  C   UNL A   1      31.528  31.072  26.146  1.00  0.00     0.188 C 
BRANCH  39  40
ATOM     40  O   UNL A   1      32.503  31.538  27.068  1.00  0.00    -0.376 OA
BRANCH  40  41
ATOM     41  C   UNL A   1      32.563  32.942  27.274  1.00  0.00     0.202 C 
BRANCH  41  42
ATOM     42  C   UNL A   1      33.573  33.381  28.339  1.00  0.00     0.261 C 
BRANCH  42  43
ATOM     43  O   UNL A   1      33.257  34.608  29.012  1.00  0.00    -0.460 OA
BRANCH  43  44
ATOM     44  C   UNL A   1      33.603  34.720  30.314  1.00  0.00     0.338 C 
ATOM     45  O   UNL A   1      32.980  35.273  31.203  1.00  0.00    -0.246 OA
BRANCH  44  46
ATOM     46  C   UNL A   1      34.803  33.884  30.516  1.00  0.00     0.060 A 
ATOM     47  C   UNL A   1      35.967  34.139  29.786  1.00  0.00     0.016 A 
ATOM     48  C   UNL A   1      34.740  32.797  31.397  1.00  0.00     0.016 A 
ATOM     49  C   UNL A   1      37.078  33.311  29.951  1.00  0.00     0.010 A 
ATOM     50  C   UNL A   1      35.851  31.964  31.553  1.00  0.00     0.010 A 
ATOM     51  C   UNL A   1      37.033  32.226  30.844  1.00  0.00    -0.014 A 
BRANCH  51  52
ATOM     52  C   UNL A   1      38.276  31.482  31.156  1.00  0.00     0.031 A 
ATOM     53  C   UNL A   1      38.681  30.252  30.402  1.00  0.00     0.074 A 
ATOM     54  C   UNL A   1      39.046  31.945  32.159  1.00  0.00     0.049 A 
ATOM     55  N   UNL A   1      39.775  29.543  30.529  1.00  0.00    -0.248 NA
ATOM     56  C   UNL A   1      37.750  29.751  29.381  1.00  0.00     0.031 C 
ATOM     57  C   UNL A   1      38.742  33.129  32.966  1.00  0.00     0.029 A 
ATOM     58  N   UNL A   1      40.236  31.489  32.666  1.00  0.00    -0.354 N 
ATOM     59  C   UNL A   1      39.677  28.522  29.593  1.00  0.00     0.074 A 
ATOM     60  C   UNL A   1      38.397  28.680  28.933  1.00  0.00     0.031 C 
ATOM     61  C   UNL A   1      39.730  33.317  33.852  1.00  0.00     0.029 A 
ATOM     62  C   UNL A   1      40.719  32.253  33.700  1.00  0.00     0.049 A 
ATOM     63  H   UNL A   1      40.698  30.690  32.322  1.00  0.00     0.167 HD
ATOM     64  C   UNL A   1      40.583  27.556  29.308  1.00  0.00     0.031 A 
ATOM     65  C   UNL A   1      41.832  32.120  34.445  1.00  0.00     0.031 A 
ATOM     66  C   UNL A   1      41.846  27.397  29.987  1.00  0.00     0.049 A 
ATOM     67  C   UNL A   1      42.791  31.004  34.144  1.00  0.00     0.074 A 
ATOM     68  C   UNL A   1      42.844  26.473  29.729  1.00  0.00     0.029 A 
ATOM     69  N   UNL A   1      42.279  28.164  31.056  1.00  0.00    -0.354 N 
ATOM     70  N   UNL A   1      42.722  30.095  33.202  1.00  0.00    -0.248 NA
ATOM     71  C   UNL A   1      43.986  30.900  34.994  1.00  0.00     0.031 C 
ATOM     72  C   UNL A   1      43.845  26.629  30.689  1.00  0.00     0.029 A 
ATOM     73  C   UNL A   1      43.511  27.706  31.495  1.00  0.00     0.049 A 
ATOM     74  H   UNL A   1      41.787  28.923  31.446  1.00  0.00     0.167 HD
ATOM     75  C   UNL A   1      43.874  29.329  33.329  1.00  0.00     0.074 A 
ATOM     76  C   UNL A   1      44.630  29.888  34.430  1.00  0.00     0.031 C 
ATOM     77  C   UNL A   1      44.263  28.262  32.592  1.00  0.00     0.031 A 
BRANCH  64  78
ATOM     78  C   UNL A   1      40.269  26.580  28.207  1.00  0.00    -0.014 A 
ATOM     79  C   UNL A   1      39.532  25.418  28.491  1.00  0.00     0.009 A 
ATOM     80  C   UNL A   1      40.830  26.732  26.930  1.00  0.00     0.009 A 
ATOM     81  C   UNL A   1      39.384  24.418  27.526  1.00  0.00     0.001 A 
ATOM     82  C   UNL A   1      40.657  25.742  25.959  1.00  0.00     0.001 A 
ATOM     83  C   UNL A   1      39.946  24.581  26.262  1.00  0.00     0.000 A 
ENDBRANCH  64  78
BRANCH  65  84
ATOM     84  C   UNL A   1      42.101  33.103  35.528  1.00  0.00    -0.014 A 
ATOM     85  C   UNL A   1      42.868  34.251  35.273  1.00  0.00     0.009 A 
ATOM     86  C   UNL A   1      41.646  32.867  36.834  1.00  0.00     0.009 A 
ATOM     87  C   UNL A   1      43.196  35.129  36.307  1.00  0.00     0.001 A 
ATOM     88  C   UNL A   1      41.949  33.765  37.860  1.00  0.00     0.001 A 
ATOM     89  C   UNL A   1      42.733  34.889  37.598  1.00  0.00     0.000 A 
ENDBRANCH  65  84
BRANCH  77  90
ATOM     90  C   UNL A   1      45.578  27.609  32.925  1.00  0.00    -0.014 A 
ATOM     91  C   UNL A   1      45.651  26.688  33.982  1.00  0.00     0.009 A 
ATOM     92  C   UNL A   1      46.763  28.000  32.282  1.00  0.00     0.009 A 
ATOM     93  C   UNL A   1      46.883  26.191  34.408  1.00  0.00     0.001 A 
ATOM     94  C   UNL A   1      47.992  27.476  32.691  1.00  0.00     0.001 A 
ATOM     95  C   UNL A   1      48.052  26.584  33.761  1.00  0.00     0.000 A 
ENDBRANCH  77  90
ENDBRANCH  51  52
ENDBRANCH  44  46
ENDBRANCH  43  44
ENDBRANCH  42  43
ENDBRANCH  41  42
ENDBRANCH  40  41
ENDBRANCH  39  40
ENDBRANCH   1  39
TORSDOF 21
ENDMDL
MODEL 3
REMARK VINA RESULT:     -11.3      3.738      5.003
REMARK SMILES C[C@]12C(=O)N(c3ccc(C(=O)OCCOCCOCCOCCOC(=O)c4ccc(-c5c6nc(c(-c7ccccc7)c7ccc([nH]7)c(-c7ccccc7)c7nc(c(-c8ccccc8)c8ccc5[nH]8)C=C7)C=C6)cc4)cc3)C(=O)[C@H]1[C@H]1c3ccccc3[C@@H]2c2ccccc21
REMARK SMILES IDX 19 1 18 2 17 3 16 4 15 5 14 6 13 7 12 8 10 9 11 10 9 11 6 12
REMARK SMILES IDX 7 13 76 14 8 15 75 16 5 17 1 18 2 19 3 20 79 21 87 22 4 23
REMARK SMILES IDX 77 24 80 25 86 26 88 27 78 28 81 29 93 30 85 31 89 32 82 33
REMARK SMILES IDX 92 34 84 35 90 36 83 37 91 38 20 39 21 40 22 41 23 42 24 43
REMARK SMILES IDX 25 44 26 45 27 46 28 47 74 48 29 49 73 50 30 51 31 52 32 53
REMARK SMILES IDX 67 54 33 55 72 56 66 57 68 58 34 59 71 60 65 61 64 62 35 64
REMARK SMILES IDX 57 65 42 66 56 67 43 68 46 69 55 70 69 71 44 72 45 73 54 75
REMARK SMILES IDX 70 76 47 77 36 78 37 79 41 80 38 81 40 82 39 83 58 84 59 85
REMARK SMILES IDX 63 86 60 87 62 88 61 89 48 90 49 91 53 92 50 93 52 94 51 95
REMARK H PARENT 68 63 46 74
REMARK Flexibility Score: inf
ROOT
ATOM      1  C   UNL A   1      30.669  32.107  25.645  1.00  0.00     0.188 C 
ENDROOT
BRANCH   1   2
ATOM      2  O   UNL A   1      29.765  31.896  24.566  1.00  0.00    -0.377 OA
BRANCH   2   3
ATOM      3  C   UNL A   1      29.570  32.926  23.613  1.00  0.00     0.188 C 
BRANCH   3   4
ATOM      4  C   UNL A   1      28.131  33.144  23.113  1.00  0.00     0.188 C 
BRANCH   4   5
ATOM      5  O   UNL A   1      28.079  33.492  21.737  1.00  0.00    -0.376 OA
BRANCH   5   6
ATOM      6  C   UNL A   1      27.679  32.488  20.822  1.00  0.00     0.202 C 
BRANCH   6   7
ATOM      7  C   UNL A   1      28.400  31.127  20.831  1.00  0.00     0.261 C 
BRANCH   7   8
ATOM      8  O   UNL A   1      27.642  30.001  21.292  1.00  0.00    -0.460 OA
BRANCH   8   9
ATOM      9  C   UNL A   1      27.703  29.717  22.608  1.00  0.00     0.338 C 
ATOM     10  O   UNL A   1      26.946  30.106  23.481  1.00  0.00    -0.246 OA
BRANCH   9  11
ATOM     11  C   UNL A   1      28.715  28.659  22.804  1.00  0.00     0.060 A 
ATOM     12  C   UNL A   1      30.707  26.684  22.993  1.00  0.00     0.052 A 
ATOM     13  C   UNL A   1      30.996  27.957  22.474  1.00  0.00     0.028 A 
ATOM     14  C   UNL A   1      29.430  26.462  23.529  1.00  0.00     0.028 A 
ATOM     15  C   UNL A   1      29.998  28.913  22.323  1.00  0.00     0.018 A 
ATOM     16  C   UNL A   1      28.440  27.458  23.461  1.00  0.00     0.018 A 
BRANCH  12  17
ATOM     17  N   UNL A   1      31.607  25.630  22.716  1.00  0.00    -0.250 N 
ATOM     18  C   UNL A   1      33.014  22.539  22.503  1.00  0.00     0.024 C 
ATOM     19  C   UNL A   1      32.849  23.815  23.349  1.00  0.00     0.071 C 
ATOM     20  C   UNL A   1      31.465  24.350  23.116  1.00  0.00     0.241 C 
ATOM     21  C   UNL A   1      33.931  24.878  22.868  1.00  0.00     0.107 C 
ATOM     22  C   UNL A   1      32.853  23.526  24.906  1.00  0.00     0.066 C 
ATOM     23  O   UNL A   1      30.439  23.702  23.284  1.00  0.00    -0.273 OA
ATOM     24  C   UNL A   1      32.816  25.725  22.120  1.00  0.00     0.238 C 
ATOM     25  C   UNL A   1      34.781  25.116  24.215  1.00  0.00     0.063 C 
ATOM     26  C   UNL A   1      32.790  24.891  25.609  1.00  0.00    -0.036 A 
ATOM     27  C   UNL A   1      34.211  22.939  25.211  1.00  0.00    -0.036 A 
ATOM     28  O   UNL A   1      33.035  26.300  21.053  1.00  0.00    -0.274 OA
ATOM     29  C   UNL A   1      33.836  25.757  25.219  1.00  0.00    -0.036 A 
ATOM     30  C   UNL A   1      35.264  23.781  24.800  1.00  0.00    -0.036 A 
ATOM     31  C   UNL A   1      31.801  25.334  26.473  1.00  0.00     0.005 A 
ATOM     32  C   UNL A   1      34.452  21.744  25.873  1.00  0.00     0.005 A 
ATOM     33  C   UNL A   1      33.890  27.069  25.664  1.00  0.00     0.004 A 
ATOM     34  C   UNL A   1      36.579  23.417  25.053  1.00  0.00     0.004 A 
ATOM     35  C   UNL A   1      31.848  26.660  26.917  1.00  0.00     0.000 A 
ATOM     36  C   UNL A   1      35.773  21.384  26.129  1.00  0.00     0.000 A 
ATOM     37  C   UNL A   1      32.880  27.521  26.511  1.00  0.00     0.000 A 
ATOM     38  C   UNL A   1      36.828  22.212  25.721  1.00  0.00     0.000 A 
ENDBRANCH  12  17
ENDBRANCH   9  11
ENDBRANCH   8   9
ENDBRANCH   7   8
ENDBRANCH   6   7
ENDBRANCH   5   6
ENDBRANCH   4   5
ENDBRANCH   3   4
ENDBRANCH   2   3
ENDBRANCH   1   2
BRANCH   1  39
ATOM     39  C   UNL A   1      31.617  31.005  26.176  1.00  0.00     0.188 C 
BRANCH  39  40
ATOM     40  O   UNL A   1      32.493  31.399  27.221  1.00  0.00    -0.376 OA
BRANCH  40  41
ATOM     41  C   UNL A   1      33.831  30.927  27.143  1.00  0.00     0.202 C 
BRANCH  41  42
ATOM     42  C   UNL A   1      34.477  30.632  28.501  1.00  0.00     0.261 C 
BRANCH  42  43
ATOM     43  O   UNL A   1      35.761  31.236  28.711  1.00  0.00    -0.460 OA
BRANCH  43  44
ATOM     44  C   UNL A   1      36.420  30.935  29.851  1.00  0.00     0.338 C 
ATOM     45  O   UNL A   1      35.984  30.959  30.989  1.00  0.00    -0.246 OA
BRANCH  44  46
ATOM     46  C   UNL A   1      37.732  30.384  29.460  1.00  0.00     0.060 A 
ATOM     47  C   UNL A   1      37.967  30.004  28.136  1.00  0.00     0.016 A 
ATOM     48  C   UNL A   1      38.713  30.187  30.440  1.00  0.00     0.016 A 
ATOM     49  C   UNL A   1      39.194  29.439  27.789  1.00  0.00     0.010 A 
ATOM     50  C   UNL A   1      39.938  29.612  30.092  1.00  0.00     0.010 A 
ATOM     51  C   UNL A   1      40.193  29.251  28.760  1.00  0.00    -0.014 A 
BRANCH  51  52
ATOM     52  C   UNL A   1      41.554  28.839  28.343  1.00  0.00     0.031 A 
ATOM     53  C   UNL A   1      42.681  29.817  28.218  1.00  0.00     0.074 A 
ATOM     54  C   UNL A   1      41.755  27.536  28.069  1.00  0.00     0.049 A 
ATOM     55  N   UNL A   1      43.936  29.580  27.926  1.00  0.00    -0.248 NA
ATOM     56  C   UNL A   1      42.371  31.236  28.444  1.00  0.00     0.031 C 
ATOM     57  C   UNL A   1      40.726  26.497  28.150  1.00  0.00     0.029 A 
ATOM     58  N   UNL A   1      42.883  26.861  27.679  1.00  0.00    -0.354 N 
ATOM     59  C   UNL A   1      44.572  30.814  27.951  1.00  0.00     0.074 A 
ATOM     60  C   UNL A   1      43.556  31.803  28.247  1.00  0.00     0.031 C 
ATOM     61  C   UNL A   1      41.274  25.314  27.839  1.00  0.00     0.029 A 
ATOM     62  C   UNL A   1      42.682  25.513  27.506  1.00  0.00     0.049 A 
ATOM     63  H   UNL A   1      43.752  27.300  27.534  1.00  0.00     0.167 HD
ATOM     64  C   UNL A   1      45.885  31.084  27.760  1.00  0.00     0.031 A 
ATOM     65  C   UNL A   1      43.531  24.540  27.125  1.00  0.00     0.031 A 
ATOM     66  C   UNL A   1      46.885  30.092  27.447  1.00  0.00     0.049 A 
ATOM     67  C   UNL A   1      44.970  24.879  26.862  1.00  0.00     0.074 A 
ATOM     68  C   UNL A   1      48.248  30.275  27.282  1.00  0.00     0.029 A 
ATOM     69  N   UNL A   1      46.635  28.745  27.239  1.00  0.00    -0.354 N 
ATOM     70  N   UNL A   1      45.573  26.038  26.970  1.00  0.00    -0.248 NA
ATOM     71  C   UNL A   1      45.851  23.780  26.441  1.00  0.00     0.031 C 
ATOM     72  C   UNL A   1      48.810  29.056  26.899  1.00  0.00     0.029 A 
ATOM     73  C   UNL A   1      47.812  28.095  26.906  1.00  0.00     0.049 A 
ATOM     74  H   UNL A   1      45.753  28.314  27.316  1.00  0.00     0.167 HD
ATOM     75  C   UNL A   1      46.905  25.804  26.657  1.00  0.00     0.074 A 
ATOM     76  C   UNL A   1      47.026  24.391  26.367  1.00  0.00     0.031 C 
ATOM     77  C   UNL A   1      47.932  26.687  26.617  1.00  0.00     0.031 A 
BRANCH  64  78
ATOM     78  C   UNL A   1      46.351  32.510  27.887  1.00  0.00    -0.014 A 
ATOM     79  C   UNL A   1      46.756  33.005  29.138  1.00  0.00     0.009 A 
ATOM     80  C   UNL A   1      46.244  33.400  26.808  1.00  0.00     0.009 A 
ATOM     81  C   UNL A   1      47.022  34.366  29.311  1.00  0.00     0.001 A 
ATOM     82  C   UNL A   1      46.536  34.755  26.978  1.00  0.00     0.001 A 
ATOM     83  C   UNL A   1      46.911  35.239  28.231  1.00  0.00     0.000 A 
ENDBRANCH  64  78
BRANCH  65  84
ATOM     84  C   UNL A   1      43.028  23.146  27.005  1.00  0.00    -0.014 A 
ATOM     85  C   UNL A   1      42.664  22.625  25.753  1.00  0.00     0.009 A 
ATOM     86  C   UNL A   1      42.851  22.352  28.148  1.00  0.00     0.009 A 
ATOM     87  C   UNL A   1      42.108  21.348  25.650  1.00  0.00     0.001 A 
ATOM     88  C   UNL A   1      42.326  21.062  28.037  1.00  0.00     0.001 A 
ATOM     89  C   UNL A   1      41.944  20.566  26.790  1.00  0.00     0.000 A 
ENDBRANCH  65  84
BRANCH  77  90
ATOM     90  C   UNL A   1      49.300  26.172  26.260  1.00  0.00    -0.014 A 
ATOM     91  C   UNL A   1      50.094  25.564  27.246  1.00  0.00     0.009 A 
ATOM     92  C   UNL A   1      49.851  26.402  24.990  1.00  0.00     0.009 A 
ATOM     93  C   UNL A   1      51.420  25.221  26.977  1.00  0.00     0.001 A 
ATOM     94  C   UNL A   1      51.169  26.029  24.715  1.00  0.00     0.001 A 
ATOM     95  C   UNL A   1      51.955  25.452  25.712  1.00  0.00     0.000 A 
ENDBRANCH  77  90
ENDBRANCH  51  52
ENDBRANCH  44  46
ENDBRANCH  43  44
ENDBRANCH  42  43
ENDBRANCH  41  42
ENDBRANCH  40  41
ENDBRANCH  39  40
ENDBRANCH   1  39
TORSDOF 21
ENDMDL
