MODEL 1
REMARK VINA RESULT:      -8.7      0.000      0.000
REMARK SMILES O=C(OCCOCCOCCOCCOC(=O)[C@@H]1C[C@@H](Br)C[NH2+]1)c1ccc(-c2c3nc(c(-c4ccccc4)c4ccc([nH]4)c(-c4ccccc4)c4nc(c(-c5ccccc5)c5ccc2[nH]5)C=C4)C=C3)cc1
REMARK SMILES IDX 8 1 7 2 6 3 5 4 4 5 3 6 2 7 1 8 24 9 25 10 71 11 26 12 70 13
REMARK SMILES IDX 27 14 28 15 29 16 64 17 30 18 69 19 63 20 65 21 31 22 68 23
REMARK SMILES IDX 62 24 61 25 32 27 54 28 39 29 53 30 40 31 43 32 52 33 66 34
REMARK SMILES IDX 41 35 42 36 51 38 67 39 44 40 33 41 34 42 38 43 35 44 37 45
REMARK SMILES IDX 36 46 55 47 56 48 60 49 57 50 59 51 58 52 45 53 46 54 50 55
REMARK SMILES IDX 47 56 49 57 48 58 9 59 10 60 11 61 12 62 13 63 14 64 15 65
REMARK SMILES IDX 16 66 17 67 18 68 19 69 23 70 20 71 22 72 21 75
REMARK H PARENT 65 26 43 37 23 73 23 74
REMARK Flexibility Score: inf
ROOT
ATOM      1  C   UNL A   1      42.729  20.887  26.330  1.00  0.00     0.188 C 
ENDROOT
BRANCH   1   2
ATOM      2  C   UNL A   1      43.654  19.865  25.668  1.00  0.00     0.188 C 
BRANCH   2   3
ATOM      3  O   UNL A   1      44.116  20.333  24.409  1.00  0.00    -0.376 OA
BRANCH   3   4
ATOM      4  C   UNL A   1      45.031  21.426  24.379  1.00  0.00     0.202 C 
BRANCH   4   5
ATOM      5  C   UNL A   1      44.545  22.707  23.703  1.00  0.00     0.261 C 
BRANCH   5   6
ATOM      6  O   UNL A   1      43.993  23.700  24.588  1.00  0.00    -0.460 OA
BRANCH   6   7
ATOM      7  C   UNL A   1      44.619  24.615  25.368  1.00  0.00     0.338 C 
ATOM      8  O   UNL A   1      45.820  24.819  25.204  1.00  0.00    -0.246 OA
BRANCH   7   9
ATOM      9  C   UNL A   1      43.918  25.400  26.418  1.00  0.00     0.060 A 
ATOM     10  C   UNL A   1      43.996  26.779  26.524  1.00  0.00     0.016 A 
ATOM     11  C   UNL A   1      43.048  24.736  27.291  1.00  0.00     0.016 A 
ATOM     12  C   UNL A   1      43.408  27.481  27.545  1.00  0.00     0.010 A 
ATOM     13  C   UNL A   1      42.346  25.448  28.272  1.00  0.00     0.010 A 
ATOM     14  C   UNL A   1      42.564  26.824  28.419  1.00  0.00    -0.014 A 
BRANCH  14  15
ATOM     15  C   UNL A   1      42.080  27.625  29.548  1.00  0.00     0.031 A 
ATOM     16  C   UNL A   1      40.758  28.303  29.389  1.00  0.00     0.074 A 
ATOM     17  C   UNL A   1      42.698  27.520  30.741  1.00  0.00     0.049 A 
ATOM     18  N   UNL A   1      40.115  29.061  30.232  1.00  0.00    -0.248 NA
ATOM     19  C   UNL A   1      40.047  28.077  28.116  1.00  0.00     0.031 C 
ATOM     20  C   UNL A   1      43.887  26.699  31.016  1.00  0.00     0.029 A 
ATOM     21  N   UNL A   1      42.378  28.047  31.960  1.00  0.00    -0.354 N 
ATOM     22  C   UNL A   1      38.949  29.431  29.578  1.00  0.00     0.074 A 
ATOM     23  C   UNL A   1      38.967  28.824  28.269  1.00  0.00     0.031 C 
ATOM     24  C   UNL A   1      44.172  26.758  32.326  1.00  0.00     0.029 A 
ATOM     25  C   UNL A   1      43.252  27.691  32.958  1.00  0.00     0.049 A 
ATOM     26  H   UNL A   1      41.596  28.629  32.108  1.00  0.00     0.167 HD
ATOM     27  C   UNL A   1      37.956  30.219  30.042  1.00  0.00     0.031 A 
ATOM     28  C   UNL A   1      43.321  28.124  34.229  1.00  0.00     0.031 A 
ATOM     29  C   UNL A   1      37.985  30.811  31.349  1.00  0.00     0.049 A 
ATOM     30  C   UNL A   1      42.288  29.126  34.664  1.00  0.00     0.074 A 
ATOM     31  C   UNL A   1      37.108  31.716  31.912  1.00  0.00     0.029 A 
ATOM     32  N   UNL A   1      38.958  30.538  32.302  1.00  0.00    -0.354 N 
ATOM     33  N   UNL A   1      41.243  29.572  34.007  1.00  0.00    -0.248 NA
ATOM     34  C   UNL A   1      42.449  29.696  36.005  1.00  0.00     0.031 C 
ATOM     35  C   UNL A   1      37.583  32.032  33.189  1.00  0.00     0.029 A 
ATOM     36  C   UNL A   1      38.717  31.272  33.446  1.00  0.00     0.049 A 
ATOM     37  H   UNL A   1      39.710  29.914  32.179  1.00  0.00     0.167 HD
ATOM     38  C   UNL A   1      40.611  30.466  34.859  1.00  0.00     0.074 A 
ATOM     39  C   UNL A   1      41.373  30.464  36.093  1.00  0.00     0.031 C 
ATOM     40  C   UNL A   1      39.511  31.230  34.647  1.00  0.00     0.031 A 
BRANCH  27  41
ATOM     41  C   UNL A   1      36.842  30.543  29.093  1.00  0.00    -0.014 A 
ATOM     42  C   UNL A   1      36.631  31.848  28.618  1.00  0.00     0.009 A 
ATOM     43  C   UNL A   1      35.959  29.526  28.700  1.00  0.00     0.009 A 
ATOM     44  C   UNL A   1      35.540  32.130  27.792  1.00  0.00     0.001 A 
ATOM     45  C   UNL A   1      34.885  29.806  27.853  1.00  0.00     0.001 A 
ATOM     46  C   UNL A   1      34.672  31.109  27.407  1.00  0.00     0.000 A 
ENDBRANCH  27  41
BRANCH  28  47
ATOM     47  C   UNL A   1      44.441  27.717  35.122  1.00  0.00    -0.014 A 
ATOM     48  C   UNL A   1      45.673  28.389  35.105  1.00  0.00     0.009 A 
ATOM     49  C   UNL A   1      44.301  26.600  35.964  1.00  0.00     0.009 A 
ATOM     50  C   UNL A   1      46.746  27.924  35.870  1.00  0.00     0.001 A 
ATOM     51  C   UNL A   1      45.362  26.159  36.757  1.00  0.00     0.001 A 
ATOM     52  C   UNL A   1      46.591  26.811  36.695  1.00  0.00     0.000 A 
ENDBRANCH  28  47
BRANCH  40  53
ATOM     53  C   UNL A   1      39.063  32.084  35.797  1.00  0.00    -0.014 A 
ATOM     54  C   UNL A   1      38.119  31.619  36.724  1.00  0.00     0.009 A 
ATOM     55  C   UNL A   1      39.623  33.359  35.964  1.00  0.00     0.009 A 
ATOM     56  C   UNL A   1      37.708  32.439  37.774  1.00  0.00     0.001 A 
ATOM     57  C   UNL A   1      39.239  34.160  37.038  1.00  0.00     0.001 A 
ATOM     58  C   UNL A   1      38.272  33.704  37.933  1.00  0.00     0.000 A 
ENDBRANCH  40  53
ENDBRANCH  14  15
ENDBRANCH   7   9
ENDBRANCH   6   7
ENDBRANCH   5   6
ENDBRANCH   4   5
ENDBRANCH   3   4
ENDBRANCH   2   3
ENDBRANCH   1   2
BRANCH   1  59
ATOM     59  O   UNL A   1      41.497  21.144  25.659  1.00  0.00    -0.377 OA
BRANCH  59  60
ATOM     60  C   UNL A   1      40.327  21.162  26.467  1.00  0.00     0.188 C 
BRANCH  60  61
ATOM     61  C   UNL A   1      39.124  22.054  26.064  1.00  0.00     0.188 C 
BRANCH  61  62
ATOM     62  O   UNL A   1      38.002  21.376  25.536  1.00  0.00    -0.376 OA
BRANCH  62  63
ATOM     63  C   UNL A   1      36.694  21.930  25.641  1.00  0.00     0.202 C 
BRANCH  63  64
ATOM     64  C   UNL A   1      35.435  21.350  24.955  1.00  0.00     0.261 C 
BRANCH  64  65
ATOM     65  O   UNL A   1      34.236  22.095  25.152  1.00  0.00    -0.459 OA
BRANCH  65  66
ATOM     66  C   UNL A   1      33.340  21.656  26.075  1.00  0.00     0.364 C 
ATOM     67  O   UNL A   1      33.603  20.947  27.048  1.00  0.00    -0.245 OA
BRANCH  66  68
ATOM     68  C   UNL A   1      31.979  22.305  25.831  1.00  0.00     0.294 C 
ATOM     69  C   UNL A   1      32.128  23.716  25.231  1.00  0.00     0.098 C 
ATOM     70  N   UNL A   1      31.178  22.479  27.066  1.00  0.00    -0.334 N 
ATOM     71  C   UNL A   1      31.172  24.574  26.035  1.00  0.00     0.118 C 
ATOM     72  C   UNL A   1      30.252  23.562  26.691  1.00  0.00     0.276 C 
ATOM     73  H   UNL A   1      31.766  22.752  27.853  1.00  0.00     0.347 HD
ATOM     74  H   UNL A   1      30.706  21.628  27.371  1.00  0.00     0.347 HD
ATOM     75  Br  UNL A   1      30.205  25.824  24.921  1.00  0.00    -0.083 Br
ENDBRANCH  66  68
ENDBRANCH  65  66
ENDBRANCH  64  65
ENDBRANCH  63  64
ENDBRANCH  62  63
ENDBRANCH  61  62
ENDBRANCH  60  61
ENDBRANCH  59  60
ENDBRANCH   1  59
TORSDOF 20
ENDMDL
MODEL 2
REMARK VINA RESULT:      -8.6      0.913      6.195
REMARK SMILES O=C(OCCOCCOCCOCCOC(=O)[C@@H]1C[C@@H](Br)C[NH2+]1)c1ccc(-c2c3nc(c(-c4ccccc4)c4ccc([nH]4)c(-c4ccccc4)c4nc(c(-c5ccccc5)c5ccc2[nH]5)C=C4)C=C3)cc1
REMARK SMILES IDX 8 1 7 2 6 3 5 4 4 5 3 6 2 7 1 8 24 9 25 10 71 11 26 12 70 13
REMARK SMILES IDX 27 14 28 15 29 16 64 17 30 18 69 19 63 20 65 21 31 22 68 23
REMARK SMILES IDX 62 24 61 25 32 27 54 28 39 29 53 30 40 31 43 32 52 33 66 34
REMARK SMILES IDX 41 35 42 36 51 38 67 39 44 40 33 41 34 42 38 43 35 44 37 45
REMARK SMILES IDX 36 46 55 47 56 48 60 49 57 50 59 51 58 52 45 53 46 54 50 55
REMARK SMILES IDX 47 56 49 57 48 58 9 59 10 60 11 61 12 62 13 63 14 64 15 65
REMARK SMILES IDX 16 66 17 67 18 68 19 69 23 70 20 71 22 72 21 75
REMARK H PARENT 65 26 43 37 23 73 23 74
REMARK Flexibility Score: inf
ROOT
ATOM      1  C   UNL A   1      42.768  20.664  26.313  1.00  0.00     0.188 C 
ENDROOT
BRANCH   1   2
ATOM      2  C   UNL A   1      43.606  19.601  25.603  1.00  0.00     0.188 C 
BRANCH   2   3
ATOM      3  O   UNL A   1      44.078  20.073  24.349  1.00  0.00    -0.376 OA
BRANCH   3   4
ATOM      4  C   UNL A   1      44.982  21.176  24.329  1.00  0.00     0.202 C 
BRANCH   4   5
ATOM      5  C   UNL A   1      44.542  22.406  23.538  1.00  0.00     0.261 C 
BRANCH   5   6
ATOM      6  O   UNL A   1      43.882  23.429  24.307  1.00  0.00    -0.460 OA
BRANCH   6   7
ATOM      7  C   UNL A   1      44.401  24.488  24.977  1.00  0.00     0.338 C 
ATOM      8  O   UNL A   1      45.545  24.856  24.718  1.00  0.00    -0.246 OA
BRANCH   7   9
ATOM      9  C   UNL A   1      43.647  25.241  26.013  1.00  0.00     0.060 A 
ATOM     10  C   UNL A   1      43.682  26.620  26.136  1.00  0.00     0.016 A 
ATOM     11  C   UNL A   1      42.772  24.542  26.853  1.00  0.00     0.016 A 
ATOM     12  C   UNL A   1      43.045  27.294  27.146  1.00  0.00     0.010 A 
ATOM     13  C   UNL A   1      42.021  25.222  27.820  1.00  0.00     0.010 A 
ATOM     14  C   UNL A   1      42.195  26.602  27.988  1.00  0.00    -0.014 A 
BRANCH  14  15
ATOM     15  C   UNL A   1      41.656  27.377  29.111  1.00  0.00     0.031 A 
ATOM     16  C   UNL A   1      42.487  27.456  30.350  1.00  0.00     0.074 A 
ATOM     17  C   UNL A   1      40.589  28.174  28.906  1.00  0.00     0.049 A 
ATOM     18  N   UNL A   1      42.237  28.073  31.470  1.00  0.00    -0.248 NA
ATOM     19  C   UNL A   1      43.792  26.768  30.317  1.00  0.00     0.031 C 
ATOM     20  C   UNL A   1      39.850  28.301  27.641  1.00  0.00     0.029 A 
ATOM     21  N   UNL A   1      39.980  29.077  29.730  1.00  0.00    -0.354 N 
ATOM     22  C   UNL A   1      43.331  27.815  32.284  1.00  0.00     0.074 A 
ATOM     23  C   UNL A   1      44.247  26.985  31.540  1.00  0.00     0.031 C 
ATOM     24  C   UNL A   1      38.910  29.249  27.771  1.00  0.00     0.029 A 
ATOM     25  C   UNL A   1      38.917  29.723  29.146  1.00  0.00     0.049 A 
ATOM     26  H   UNL A   1      40.273  29.247  30.655  1.00  0.00     0.167 HD
ATOM     27  C   UNL A   1      43.538  28.238  33.549  1.00  0.00     0.031 A 
ATOM     28  C   UNL A   1      38.022  30.563  29.693  1.00  0.00     0.031 A 
ATOM     29  C   UNL A   1      42.594  29.056  34.255  1.00  0.00     0.049 A 
ATOM     30  C   UNL A   1      38.194  30.887  31.152  1.00  0.00     0.074 A 
ATOM     31  C   UNL A   1      42.616  29.468  35.572  1.00  0.00     0.029 A 
ATOM     32  N   UNL A   1      41.449  29.592  33.679  1.00  0.00    -0.354 N 
ATOM     33  N   UNL A   1      39.170  30.548  31.963  1.00  0.00    -0.248 NA
ATOM     34  C   UNL A   1      37.140  31.692  31.775  1.00  0.00     0.031 C 
ATOM     35  C   UNL A   1      41.453  30.210  35.807  1.00  0.00     0.029 A 
ATOM     36  C   UNL A   1      40.743  30.317  34.618  1.00  0.00     0.049 A 
ATOM     37  H   UNL A   1      41.180  29.472  32.739  1.00  0.00     0.167 HD
ATOM     38  C   UNL A   1      38.855  31.111  33.191  1.00  0.00     0.074 A 
ATOM     39  C   UNL A   1      37.618  31.844  33.001  1.00  0.00     0.031 C 
ATOM     40  C   UNL A   1      39.515  31.027  34.373  1.00  0.00     0.031 A 
BRANCH  27  41
ATOM     41  C   UNL A   1      44.768  27.736  34.244  1.00  0.00    -0.014 A 
ATOM     42  C   UNL A   1      44.893  26.399  34.653  1.00  0.00     0.009 A 
ATOM     43  C   UNL A   1      45.806  28.635  34.532  1.00  0.00     0.009 A 
ATOM     44  C   UNL A   1      46.021  25.980  35.363  1.00  0.00     0.001 A 
ATOM     45  C   UNL A   1      46.945  28.208  35.218  1.00  0.00     0.001 A 
ATOM     46  C   UNL A   1      47.047  26.884  35.640  1.00  0.00     0.000 A 
ENDBRANCH  27  41
BRANCH  28  47
ATOM     47  C   UNL A   1      36.848  31.051  28.918  1.00  0.00    -0.014 A 
ATOM     48  C   UNL A   1      36.702  32.406  28.584  1.00  0.00     0.009 A 
ATOM     49  C   UNL A   1      35.821  30.160  28.558  1.00  0.00     0.009 A 
ATOM     50  C   UNL A   1      35.541  32.862  27.953  1.00  0.00     0.001 A 
ATOM     51  C   UNL A   1      34.679  30.610  27.894  1.00  0.00     0.001 A 
ATOM     52  C   UNL A   1      34.531  31.964  27.607  1.00  0.00     0.000 A 
ENDBRANCH  28  47
BRANCH  40  53
ATOM     53  C   UNL A   1      38.917  31.783  35.522  1.00  0.00    -0.014 A 
ATOM     54  C   UNL A   1      38.227  31.122  36.549  1.00  0.00     0.009 A 
ATOM     55  C   UNL A   1      39.077  33.175  35.586  1.00  0.00     0.009 A 
ATOM     56  C   UNL A   1      37.667  31.850  37.598  1.00  0.00     0.001 A 
ATOM     57  C   UNL A   1      38.551  33.895  36.657  1.00  0.00     0.001 A 
ATOM     58  C   UNL A   1      37.835  33.234  37.653  1.00  0.00     0.000 A 
ENDBRANCH  40  53
ENDBRANCH  14  15
ENDBRANCH   7   9
ENDBRANCH   6   7
ENDBRANCH   5   6
ENDBRANCH   4   5
ENDBRANCH   3   4
ENDBRANCH   2   3
ENDBRANCH   1   2
BRANCH   1  59
ATOM     59  O   UNL A   1      41.504  20.962  25.724  1.00  0.00    -0.377 OA
BRANCH  59  60
ATOM     60  C   UNL A   1      40.422  21.182  26.620  1.00  0.00     0.188 C 
BRANCH  60  61
ATOM     61  C   UNL A   1      39.289  22.168  26.235  1.00  0.00     0.188 C 
BRANCH  61  62
ATOM     62  O   UNL A   1      38.311  21.667  25.345  1.00  0.00    -0.376 OA
BRANCH  62  63
ATOM     63  C   UNL A   1      37.026  22.275  25.251  1.00  0.00     0.202 C 
BRANCH  63  64
ATOM     64  C   UNL A   1      35.696  21.582  25.628  1.00  0.00     0.261 C 
BRANCH  64  65
ATOM     65  O   UNL A   1      34.527  22.384  25.478  1.00  0.00    -0.459 OA
BRANCH  65  66
ATOM     66  C   UNL A   1      33.627  22.050  24.516  1.00  0.00     0.364 C 
ATOM     67  O   UNL A   1      33.356  20.904  24.157  1.00  0.00    -0.245 OA
BRANCH  66  68
ATOM     68  C   UNL A   1      32.869  23.294  24.056  1.00  0.00     0.294 C 
ATOM     69  C   UNL A   1      32.093  23.942  25.219  1.00  0.00     0.098 C 
ATOM     70  N   UNL A   1      31.858  23.015  23.009  1.00  0.00    -0.334 N 
ATOM     71  C   UNL A   1      30.720  24.229  24.646  1.00  0.00     0.118 C 
ATOM     72  C   UNL A   1      30.938  24.158  23.148  1.00  0.00     0.276 C 
ATOM     73  H   UNL A   1      31.379  22.132  23.182  1.00  0.00     0.347 HD
ATOM     74  H   UNL A   1      32.254  22.923  22.073  1.00  0.00     0.347 HD
ATOM     75  Br  UNL A   1      30.047  25.954  25.204  1.00  0.00    -0.083 Br
ENDBRANCH  66  68
ENDBRANCH  65  66
ENDBRANCH  64  65
ENDBRANCH  63  64
ENDBRANCH  62  63
ENDBRANCH  61  62
ENDBRANCH  60  61
ENDBRANCH  59  60
ENDBRANCH   1  59
TORSDOF 20
ENDMDL
MODEL 3
REMARK VINA RESULT:      -8.5      3.048      8.385
REMARK SMILES O=C(OCCOCCOCCOCCOC(=O)[C@@H]1C[C@@H](Br)C[NH2+]1)c1ccc(-c2c3nc(c(-c4ccccc4)c4ccc([nH]4)c(-c4ccccc4)c4nc(c(-c5ccccc5)c5ccc2[nH]5)C=C4)C=C3)cc1
REMARK SMILES IDX 8 1 7 2 6 3 5 4 4 5 3 6 2 7 1 8 24 9 25 10 71 11 26 12 70 13
REMARK SMILES IDX 27 14 28 15 29 16 64 17 30 18 69 19 63 20 65 21 31 22 68 23
REMARK SMILES IDX 62 24 61 25 32 27 54 28 39 29 53 30 40 31 43 32 52 33 66 34
REMARK SMILES IDX 41 35 42 36 51 38 67 39 44 40 33 41 34 42 38 43 35 44 37 45
REMARK SMILES IDX 36 46 55 47 56 48 60 49 57 50 59 51 58 52 45 53 46 54 50 55
REMARK SMILES IDX 47 56 49 57 48 58 9 59 10 60 11 61 12 62 13 63 14 64 15 65
REMARK SMILES IDX 16 66 17 67 18 68 19 69 23 70 20 71 22 72 21 75
REMARK H PARENT 65 26 43 37 23 73 23 74
REMARK Flexibility Score: inf
ROOT
ATOM      1  C   UNL A   1      32.417  25.871  25.164  1.00  0.00     0.188 C 
ENDROOT
BRANCH   1   2
ATOM      2  C   UNL A   1      33.278  26.833  25.982  1.00  0.00     0.188 C 
BRANCH   2   3
ATOM      3  O   UNL A   1      32.781  28.162  25.900  1.00  0.00    -0.376 OA
BRANCH   3   4
ATOM      4  C   UNL A   1      31.900  28.626  26.921  1.00  0.00     0.202 C 
BRANCH   4   5
ATOM      5  C   UNL A   1      31.696  30.137  27.013  1.00  0.00     0.261 C 
BRANCH   5   6
ATOM      6  O   UNL A   1      32.837  30.936  26.643  1.00  0.00    -0.460 OA
BRANCH   6   7
ATOM      7  C   UNL A   1      33.625  31.734  27.404  1.00  0.00     0.338 C 
ATOM      8  O   UNL A   1      33.238  32.867  27.682  1.00  0.00    -0.246 OA
BRANCH   7   9
ATOM      9  C   UNL A   1      34.946  31.301  27.933  1.00  0.00     0.060 A 
ATOM     10  C   UNL A   1      35.268  29.981  28.202  1.00  0.00     0.016 A 
ATOM     11  C   UNL A   1      35.961  32.254  28.076  1.00  0.00     0.016 A 
ATOM     12  C   UNL A   1      36.462  29.607  28.764  1.00  0.00     0.010 A 
ATOM     13  C   UNL A   1      37.228  31.877  28.541  1.00  0.00     0.010 A 
ATOM     14  C   UNL A   1      37.459  30.550  28.924  1.00  0.00    -0.014 A 
BRANCH  14  15
ATOM     15  C   UNL A   1      38.651  30.088  29.644  1.00  0.00     0.031 A 
ATOM     16  C   UNL A   1      38.751  30.433  31.095  1.00  0.00     0.074 A 
ATOM     17  C   UNL A   1      39.461  29.183  29.060  1.00  0.00     0.049 A 
ATOM     18  N   UNL A   1      39.694  30.144  31.945  1.00  0.00    -0.248 NA
ATOM     19  C   UNL A   1      37.621  31.184  31.676  1.00  0.00     0.031 C 
ATOM     20  C   UNL A   1      39.295  28.641  27.703  1.00  0.00     0.029 A 
ATOM     21  N   UNL A   1      40.542  28.508  29.551  1.00  0.00    -0.354 N 
ATOM     22  C   UNL A   1      39.291  30.711  33.147  1.00  0.00     0.074 A 
ATOM     23  C   UNL A   1      38.024  31.363  32.922  1.00  0.00     0.031 C 
ATOM     24  C   UNL A   1      40.225  27.698  27.488  1.00  0.00     0.029 A 
ATOM     25  C   UNL A   1      41.103  27.640  28.646  1.00  0.00     0.049 A 
ATOM     26  H   UNL A   1      40.888  28.634  30.465  1.00  0.00     0.167 HD
ATOM     27  C   UNL A   1      39.939  30.686  34.330  1.00  0.00     0.031 A 
ATOM     28  C   UNL A   1      42.236  26.923  28.739  1.00  0.00     0.031 A 
ATOM     29  C   UNL A   1      41.204  30.031  34.505  1.00  0.00     0.049 A 
ATOM     30  C   UNL A   1      43.017  27.045  30.018  1.00  0.00     0.074 A 
ATOM     31  C   UNL A   1      42.028  30.016  35.613  1.00  0.00     0.029 A 
ATOM     32  N   UNL A   1      41.822  29.264  33.526  1.00  0.00    -0.354 N 
ATOM     33  N   UNL A   1      42.697  27.678  31.123  1.00  0.00    -0.248 NA
ATOM     34  C   UNL A   1      44.318  26.370  30.061  1.00  0.00     0.031 C 
ATOM     35  C   UNL A   1      43.173  29.283  35.283  1.00  0.00     0.029 A 
ATOM     36  C   UNL A   1      43.029  28.784  33.995  1.00  0.00     0.049 A 
ATOM     37  H   UNL A   1      41.454  29.088  32.630  1.00  0.00     0.167 HD
ATOM     38  C   UNL A   1      43.750  27.466  32.001  1.00  0.00     0.074 A 
ATOM     39  C   UNL A   1      44.697  26.614  31.307  1.00  0.00     0.031 C 
ATOM     40  C   UNL A   1      43.933  27.937  33.259  1.00  0.00     0.031 A 
BRANCH  27  41
ATOM     41  C   UNL A   1      39.330  31.461  35.459  1.00  0.00    -0.014 A 
ATOM     42  C   UNL A   1      39.722  32.778  35.748  1.00  0.00     0.009 A 
ATOM     43  C   UNL A   1      38.372  30.843  36.277  1.00  0.00     0.009 A 
ATOM     44  C   UNL A   1      39.187  33.448  36.851  1.00  0.00     0.001 A 
ATOM     45  C   UNL A   1      37.819  31.524  37.363  1.00  0.00     0.001 A 
ATOM     46  C   UNL A   1      38.233  32.822  37.654  1.00  0.00     0.000 A 
ENDBRANCH  27  41
BRANCH  28  47
ATOM     47  C   UNL A   1      42.752  26.141  27.580  1.00  0.00    -0.014 A 
ATOM     48  C   UNL A   1      43.528  26.742  26.578  1.00  0.00     0.009 A 
ATOM     49  C   UNL A   1      42.410  24.784  27.438  1.00  0.00     0.009 A 
ATOM     50  C   UNL A   1      43.908  26.018  25.444  1.00  0.00     0.001 A 
ATOM     51  C   UNL A   1      42.823  24.052  26.324  1.00  0.00     0.001 A 
ATOM     52  C   UNL A   1      43.557  24.675  25.318  1.00  0.00     0.000 A 
ENDBRANCH  28  47
BRANCH  40  53
ATOM     53  C   UNL A   1      45.185  27.497  33.959  1.00  0.00    -0.014 A 
ATOM     54  C   UNL A   1      46.370  28.242  33.869  1.00  0.00     0.009 A 
ATOM     55  C   UNL A   1      45.160  26.333  34.742  1.00  0.00     0.009 A 
ATOM     56  C   UNL A   1      47.524  27.801  34.515  1.00  0.00     0.001 A 
ATOM     57  C   UNL A   1      46.305  25.918  35.419  1.00  0.00     0.001 A 
ATOM     58  C   UNL A   1      47.488  26.644  35.294  1.00  0.00     0.000 A 
ENDBRANCH  40  53
ENDBRANCH  14  15
ENDBRANCH   7   9
ENDBRANCH   6   7
ENDBRANCH   5   6
ENDBRANCH   4   5
ENDBRANCH   3   4
ENDBRANCH   2   3
ENDBRANCH   1   2
BRANCH   1  59
ATOM     59  O   UNL A   1      31.556  26.468  24.197  1.00  0.00    -0.377 OA
BRANCH  59  60
ATOM     60  C   UNL A   1      31.759  26.083  22.843  1.00  0.00     0.188 C 
BRANCH  60  61
ATOM     61  C   UNL A   1      33.177  25.680  22.360  1.00  0.00     0.188 C 
BRANCH  61  62
ATOM     62  O   UNL A   1      33.251  24.507  21.575  1.00  0.00    -0.376 OA
BRANCH  62  63
ATOM     63  C   UNL A   1      33.460  23.233  22.177  1.00  0.00     0.202 C 
BRANCH  63  64
ATOM     64  C   UNL A   1      33.629  22.996  23.696  1.00  0.00     0.261 C 
BRANCH  64  65
ATOM     65  O   UNL A   1      34.316  21.798  24.052  1.00  0.00    -0.459 OA
BRANCH  65  66
ATOM     66  C   UNL A   1      34.331  21.421  25.358  1.00  0.00     0.364 C 
ATOM     67  O   UNL A   1      33.387  20.920  25.970  1.00  0.00    -0.245 OA
BRANCH  66  68
ATOM     68  C   UNL A   1      35.745  21.549  25.921  1.00  0.00     0.294 C 
ATOM     69  C   UNL A   1      36.137  23.025  26.129  1.00  0.00     0.098 C 
ATOM     70  N   UNL A   1      36.788  20.980  25.035  1.00  0.00    -0.334 N 
ATOM     71  C   UNL A   1      37.534  23.132  25.549  1.00  0.00     0.118 C 
ATOM     72  C   UNL A   1      38.000  21.691  25.478  1.00  0.00     0.276 C 
ATOM     73  H   UNL A   1      36.586  21.172  24.054  1.00  0.00     0.347 HD
ATOM     74  H   UNL A   1      36.867  19.965  25.095  1.00  0.00     0.347 HD
ATOM     75  Br  UNL A   1      38.694  24.221  26.648  1.00  0.00    -0.083 Br
ENDBRANCH  66  68
ENDBRANCH  65  66
ENDBRANCH  64  65
ENDBRANCH  63  64
ENDBRANCH  62  63
ENDBRANCH  61  62
ENDBRANCH  60  61
ENDBRANCH  59  60
ENDBRANCH   1  59
TORSDOF 20
ENDMDL
