MODEL 1
REMARK VINA RESULT:      -9.4      0.000      0.000
REMARK SMILES COc1cc2c(CC(=O)OCCOCCOCCOCCOC(=O)c3ccc(-c4c5nc(c(-c6ccccc6)c6ccc([nH]6)c(-c6ccccc6)c6nc(c(-c7ccccc7)c7ccc4[nH]7)C=C6)C=C5)cc3)c(C)n(C(=O)c3ccc(Cl)cc3)c2cc1Cl
REMARK SMILES IDX 15 1 14 2 13 3 12 4 11 5 10 6 8 7 9 8 7 9 6 10 3 11 4 12
REMARK SMILES IDX 87 13 5 14 86 15 88 16 85 17 73 18 75 19 74 20 2 21 1 22
REMARK SMILES IDX 76 23 77 24 78 25 79 26 84 27 80 28 83 29 81 30 82 31 16 32
REMARK SMILES IDX 17 33 18 34 19 35 20 36 21 37 22 38 23 39 24 40 25 41 26 42
REMARK SMILES IDX 72 43 27 44 71 45 28 46 29 47 30 48 65 49 31 50 70 51 64 52
REMARK SMILES IDX 66 53 32 54 69 55 63 56 62 57 33 59 55 60 40 61 54 62 41 63
REMARK SMILES IDX 44 64 53 65 67 66 42 67 43 68 52 70 68 71 45 72 34 73 35 74
REMARK SMILES IDX 39 75 36 76 38 77 37 78 56 79 57 80 61 81 58 82 60 83 59 84
REMARK SMILES IDX 46 85 47 86 51 87 48 88 50 89 49 90
REMARK H PARENT 66 58 44 69
REMARK Flexibility Score: inf
ROOT
ATOM      1  C   UNL A   1      35.057  31.913  31.267  1.00  0.00     0.188 C 
ENDROOT
BRANCH   1   2
ATOM      2  C   UNL A   1      36.378  31.793  30.517  1.00  0.00     0.188 C 
BRANCH   2   3
ATOM      3  O   UNL A   1      36.330  32.285  29.191  1.00  0.00    -0.376 OA
BRANCH   3   4
ATOM      4  C   UNL A   1      36.450  31.352  28.129  1.00  0.00     0.202 C 
BRANCH   4   5
ATOM      5  C   UNL A   1      35.648  30.035  28.182  1.00  0.00     0.261 C 
BRANCH   5   6
ATOM      6  O   UNL A   1      35.496  29.292  26.953  1.00  0.00    -0.463 OA
BRANCH   6   7
ATOM      7  C   UNL A   1      34.328  29.397  26.276  1.00  0.00     0.310 C 
ATOM      8  O   UNL A   1      33.493  30.263  26.526  1.00  0.00    -0.252 OA
BRANCH   7   9
ATOM      9  C   UNL A   1      34.147  28.425  25.106  1.00  0.00     0.160 C 
BRANCH   9  10
ATOM     10  C   UNL A   1      32.925  27.520  25.015  1.00  0.00    -0.008 A 
ATOM     11  C   UNL A   1      29.764  29.156  23.500  1.00  0.00     0.138 A 
ATOM     12  C   UNL A   1      31.052  29.107  24.070  1.00  0.00     0.058 A 
ATOM     13  C   UNL A   1      28.957  28.031  23.586  1.00  0.00     0.085 A 
ATOM     14  C   UNL A   1      31.611  27.899  24.566  1.00  0.00     0.008 A 
ATOM     15  C   UNL A   1      29.457  26.854  24.156  1.00  0.00     0.051 A 
ATOM     16  Cl  UNL A   1      27.299  27.973  23.092  1.00  0.00    -0.080 Cl
ATOM     17  C   UNL A   1      30.791  26.769  24.619  1.00  0.00     0.058 A 
ATOM     18  C   UNL A   1      32.823  26.201  25.449  1.00  0.00     0.028 A 
ATOM     19  N   UNL A   1      31.529  25.712  25.183  1.00  0.00    -0.280 N 
ATOM     20  C   UNL A   1      33.909  25.396  26.096  1.00  0.00     0.065 C 
BRANCH  11  21
ATOM     21  O   UNL A   1      29.453  30.365  22.934  1.00  0.00    -0.495 OA
ATOM     22  C   UNL A   1      29.202  30.381  21.530  1.00  0.00     0.278 C 
ENDBRANCH  11  21
BRANCH  19  23
ATOM     23  C   UNL A   1      31.036  24.392  25.443  1.00  0.00     0.262 C 
ATOM     24  O   UNL A   1      30.169  24.227  26.297  1.00  0.00    -0.268 OA
BRANCH  23  25
ATOM     25  C   UNL A   1      31.492  23.171  24.754  1.00  0.00     0.040 A 
ATOM     26  C   UNL A   1      31.469  23.119  23.354  1.00  0.00     0.015 A 
ATOM     27  C   UNL A   1      31.876  22.052  25.505  1.00  0.00     0.015 A 
ATOM     28  C   UNL A   1      31.767  21.917  22.706  1.00  0.00     0.021 A 
ATOM     29  C   UNL A   1      32.177  20.855  24.849  1.00  0.00     0.021 A 
ATOM     30  C   UNL A   1      32.107  20.788  23.455  1.00  0.00     0.041 A 
ATOM     31  Cl  UNL A   1      32.417  19.297  22.656  1.00  0.00    -0.084 Cl
ENDBRANCH  23  25
ENDBRANCH  19  23
ENDBRANCH   9  10
ENDBRANCH   7   9
ENDBRANCH   6   7
ENDBRANCH   5   6
ENDBRANCH   4   5
ENDBRANCH   3   4
ENDBRANCH   2   3
ENDBRANCH   1   2
BRANCH   1  32
ATOM     32  O   UNL A   1      34.949  32.339  32.602  1.00  0.00    -0.377 OA
BRANCH  32  33
ATOM     33  C   UNL A   1      34.279  33.537  32.887  1.00  0.00     0.188 C 
BRANCH  33  34
ATOM     34  C   UNL A   1      34.998  34.809  32.425  1.00  0.00     0.188 C 
BRANCH  34  35
ATOM     35  O   UNL A   1      36.089  35.379  33.152  1.00  0.00    -0.376 OA
BRANCH  35  36
ATOM     36  C   UNL A   1      37.265  34.626  33.400  1.00  0.00     0.202 C 
BRANCH  36  37
ATOM     37  C   UNL A   1      37.452  34.066  34.821  1.00  0.00     0.261 C 
BRANCH  37  38
ATOM     38  O   UNL A   1      36.975  32.725  34.971  1.00  0.00    -0.460 OA
BRANCH  38  39
ATOM     39  C   UNL A   1      37.803  31.823  35.554  1.00  0.00     0.338 C 
ATOM     40  O   UNL A   1      37.750  31.379  36.687  1.00  0.00    -0.246 OA
BRANCH  39  41
ATOM     41  C   UNL A   1      38.581  31.231  34.446  1.00  0.00     0.060 A 
ATOM     42  C   UNL A   1      38.018  30.258  33.616  1.00  0.00     0.016 A 
ATOM     43  C   UNL A   1      39.968  31.426  34.490  1.00  0.00     0.016 A 
ATOM     44  C   UNL A   1      38.865  29.373  32.955  1.00  0.00     0.010 A 
ATOM     45  C   UNL A   1      40.813  30.531  33.836  1.00  0.00     0.010 A 
ATOM     46  C   UNL A   1      40.263  29.470  33.110  1.00  0.00    -0.014 A 
BRANCH  46  47
ATOM     47  C   UNL A   1      41.090  28.610  32.258  1.00  0.00     0.031 A 
ATOM     48  C   UNL A   1      42.114  27.874  33.050  1.00  0.00     0.074 A 
ATOM     49  C   UNL A   1      40.921  28.282  30.961  1.00  0.00     0.049 A 
ATOM     50  N   UNL A   1      43.399  27.866  32.909  1.00  0.00    -0.248 NA
ATOM     51  C   UNL A   1      41.617  27.146  34.230  1.00  0.00     0.031 C 
ATOM     52  C   UNL A   1      39.788  28.577  30.088  1.00  0.00     0.029 A 
ATOM     53  N   UNL A   1      41.722  27.488  30.178  1.00  0.00    -0.354 N 
ATOM     54  C   UNL A   1      43.868  27.026  33.912  1.00  0.00     0.074 A 
ATOM     55  C   UNL A   1      42.755  26.736  34.777  1.00  0.00     0.031 C 
ATOM     56  C   UNL A   1      39.864  27.791  28.986  1.00  0.00     0.029 A 
ATOM     57  C   UNL A   1      41.100  27.021  29.027  1.00  0.00     0.049 A 
ATOM     58  H   UNL A   1      42.653  27.268  30.411  1.00  0.00     0.167 HD
ATOM     59  C   UNL A   1      45.098  26.450  33.883  1.00  0.00     0.031 A 
ATOM     60  C   UNL A   1      41.526  26.013  28.225  1.00  0.00     0.031 A 
ATOM     61  C   UNL A   1      46.008  27.123  33.004  1.00  0.00     0.049 A 
ATOM     62  C   UNL A   1      42.956  25.750  28.507  1.00  0.00     0.074 A 
ATOM     63  C   UNL A   1      46.511  28.407  32.934  1.00  0.00     0.029 A 
ATOM     64  N   UNL A   1      46.296  26.539  31.796  1.00  0.00    -0.354 N 
ATOM     65  N   UNL A   1      43.936  26.534  28.169  1.00  0.00    -0.248 NA
ATOM     66  C   UNL A   1      43.291  24.712  29.470  1.00  0.00     0.031 C 
ATOM     67  C   UNL A   1      46.666  28.675  31.545  1.00  0.00     0.029 A 
ATOM     68  C   UNL A   1      46.269  27.532  30.849  1.00  0.00     0.049 A 
ATOM     69  H   UNL A   1      46.487  25.587  31.638  1.00  0.00     0.167 HD
ATOM     70  C   UNL A   1      44.888  26.363  29.161  1.00  0.00     0.074 A 
ATOM     71  C   UNL A   1      44.492  25.143  29.856  1.00  0.00     0.031 C 
ATOM     72  C   UNL A   1      45.744  27.369  29.508  1.00  0.00     0.031 A 
BRANCH  59  73
ATOM     73  C   UNL A   1      45.341  25.075  34.444  1.00  0.00    -0.014 A 
ATOM     74  C   UNL A   1      45.219  23.902  33.668  1.00  0.00     0.009 A 
ATOM     75  C   UNL A   1      45.925  24.935  35.711  1.00  0.00     0.009 A 
ATOM     76  C   UNL A   1      45.613  22.650  34.139  1.00  0.00     0.001 A 
ATOM     77  C   UNL A   1      46.370  23.687  36.167  1.00  0.00     0.001 A 
ATOM     78  C   UNL A   1      46.206  22.546  35.385  1.00  0.00     0.000 A 
ENDBRANCH  59  73
BRANCH  60  79
ATOM     79  C   UNL A   1      40.724  25.053  27.425  1.00  0.00    -0.014 A 
ATOM     80  C   UNL A   1      39.325  25.171  27.360  1.00  0.00     0.009 A 
ATOM     81  C   UNL A   1      41.298  23.860  26.952  1.00  0.00     0.009 A 
ATOM     82  C   UNL A   1      38.527  24.129  26.878  1.00  0.00     0.001 A 
ATOM     83  C   UNL A   1      40.497  22.810  26.480  1.00  0.00     0.001 A 
ATOM     84  C   UNL A   1      39.112  22.940  26.456  1.00  0.00     0.000 A 
ENDBRANCH  60  79
BRANCH  72  85
ATOM     85  C   UNL A   1      45.903  28.546  28.572  1.00  0.00    -0.014 A 
ATOM     86  C   UNL A   1      44.821  29.432  28.429  1.00  0.00     0.009 A 
ATOM     87  C   UNL A   1      47.013  28.720  27.726  1.00  0.00     0.009 A 
ATOM     88  C   UNL A   1      44.845  30.452  27.475  1.00  0.00     0.001 A 
ATOM     89  C   UNL A   1      47.051  29.761  26.793  1.00  0.00     0.001 A 
ATOM     90  C   UNL A   1      45.963  30.621  26.661  1.00  0.00     0.000 A 
ENDBRANCH  72  85
ENDBRANCH  46  47
ENDBRANCH  39  41
ENDBRANCH  38  39
ENDBRANCH  37  38
ENDBRANCH  36  37
ENDBRANCH  35  36
ENDBRANCH  34  35
ENDBRANCH  33  34
ENDBRANCH  32  33
ENDBRANCH   1  32
TORSDOF 24
ENDMDL
MODEL 2
REMARK VINA RESULT:      -8.8      1.950      5.704
REMARK SMILES COc1cc2c(CC(=O)OCCOCCOCCOCCOC(=O)c3ccc(-c4c5nc(c(-c6ccccc6)c6ccc([nH]6)c(-c6ccccc6)c6nc(c(-c7ccccc7)c7ccc4[nH]7)C=C6)C=C5)cc3)c(C)n(C(=O)c3ccc(Cl)cc3)c2cc1Cl
REMARK SMILES IDX 15 1 14 2 13 3 12 4 11 5 10 6 8 7 9 8 7 9 6 10 3 11 4 12
REMARK SMILES IDX 87 13 5 14 86 15 88 16 85 17 73 18 75 19 74 20 2 21 1 22
REMARK SMILES IDX 76 23 77 24 78 25 79 26 84 27 80 28 83 29 81 30 82 31 16 32
REMARK SMILES IDX 17 33 18 34 19 35 20 36 21 37 22 38 23 39 24 40 25 41 26 42
REMARK SMILES IDX 72 43 27 44 71 45 28 46 29 47 30 48 65 49 31 50 70 51 64 52
REMARK SMILES IDX 66 53 32 54 69 55 63 56 62 57 33 59 55 60 40 61 54 62 41 63
REMARK SMILES IDX 44 64 53 65 67 66 42 67 43 68 52 70 68 71 45 72 34 73 35 74
REMARK SMILES IDX 39 75 36 76 38 77 37 78 56 79 57 80 61 81 58 82 60 83 59 84
REMARK SMILES IDX 46 85 47 86 51 87 48 88 50 89 49 90
REMARK H PARENT 66 58 44 69
REMARK Flexibility Score: inf
ROOT
ATOM      1  C   UNL A   1      35.858  31.692  31.473  1.00  0.00     0.188 C 
ENDROOT
BRANCH   1   2
ATOM      2  C   UNL A   1      36.916  31.892  30.394  1.00  0.00     0.188 C 
BRANCH   2   3
ATOM      3  O   UNL A   1      36.415  32.462  29.201  1.00  0.00    -0.376 OA
BRANCH   3   4
ATOM      4  C   UNL A   1      36.293  31.627  28.061  1.00  0.00     0.202 C 
BRANCH   4   5
ATOM      5  C   UNL A   1      35.770  30.185  28.230  1.00  0.00     0.261 C 
BRANCH   5   6
ATOM      6  O   UNL A   1      35.444  29.445  27.034  1.00  0.00    -0.463 OA
BRANCH   6   7
ATOM      7  C   UNL A   1      34.159  29.444  26.607  1.00  0.00     0.310 C 
ATOM      8  O   UNL A   1      33.276  30.096  27.160  1.00  0.00    -0.252 OA
BRANCH   7   9
ATOM      9  C   UNL A   1      33.883  28.652  25.325  1.00  0.00     0.160 C 
BRANCH   9  10
ATOM     10  C   UNL A   1      32.630  27.797  25.180  1.00  0.00    -0.008 A 
ATOM     11  C   UNL A   1      29.658  29.509  23.391  1.00  0.00     0.138 A 
ATOM     12  C   UNL A   1      30.901  29.427  24.052  1.00  0.00     0.058 A 
ATOM     13  C   UNL A   1      28.797  28.424  23.460  1.00  0.00     0.085 A 
ATOM     14  C   UNL A   1      31.369  28.215  24.627  1.00  0.00     0.008 A 
ATOM     15  C   UNL A   1      29.202  27.249  24.103  1.00  0.00     0.051 A 
ATOM     16  Cl  UNL A   1      27.176  28.420  22.853  1.00  0.00    -0.080 Cl
ATOM     17  C   UNL A   1      30.496  27.125  24.662  1.00  0.00     0.058 A 
ATOM     18  C   UNL A   1      32.439  26.501  25.651  1.00  0.00     0.028 A 
ATOM     19  N   UNL A   1      31.145  26.059  25.313  1.00  0.00    -0.280 N 
ATOM     20  C   UNL A   1      33.440  25.675  26.400  1.00  0.00     0.065 C 
BRANCH  11  21
ATOM     21  O   UNL A   1      29.442  30.709  22.763  1.00  0.00    -0.495 OA
ATOM     22  C   UNL A   1      28.711  31.699  23.484  1.00  0.00     0.278 C 
ENDBRANCH  11  21
BRANCH  19  23
ATOM     23  C   UNL A   1      30.576  24.772  25.583  1.00  0.00     0.262 C 
ATOM     24  O   UNL A   1      29.645  24.677  26.379  1.00  0.00    -0.268 OA
BRANCH  23  25
ATOM     25  C   UNL A   1      31.021  23.507  24.970  1.00  0.00     0.040 A 
ATOM     26  C   UNL A   1      31.278  22.399  25.788  1.00  0.00     0.015 A 
ATOM     27  C   UNL A   1      31.248  23.446  23.589  1.00  0.00     0.015 A 
ATOM     28  C   UNL A   1      31.833  21.245  25.225  1.00  0.00     0.021 A 
ATOM     29  C   UNL A   1      31.797  22.287  23.034  1.00  0.00     0.021 A 
ATOM     30  C   UNL A   1      32.101  21.198  23.855  1.00  0.00     0.041 A 
ATOM     31  Cl  UNL A   1      32.835  19.797  23.179  1.00  0.00    -0.084 Cl
ENDBRANCH  23  25
ENDBRANCH  19  23
ENDBRANCH   9  10
ENDBRANCH   7   9
ENDBRANCH   6   7
ENDBRANCH   5   6
ENDBRANCH   4   5
ENDBRANCH   3   4
ENDBRANCH   2   3
ENDBRANCH   1   2
BRANCH   1  32
ATOM     32  O   UNL A   1      36.091  31.892  32.845  1.00  0.00    -0.377 OA
BRANCH  32  33
ATOM     33  C   UNL A   1      35.639  33.073  33.451  1.00  0.00     0.188 C 
BRANCH  33  34
ATOM     34  C   UNL A   1      36.423  34.336  33.077  1.00  0.00     0.188 C 
BRANCH  34  35
ATOM     35  O   UNL A   1      37.253  35.028  34.013  1.00  0.00    -0.376 OA
BRANCH  35  36
ATOM     36  C   UNL A   1      38.450  34.438  34.491  1.00  0.00     0.202 C 
BRANCH  36  37
ATOM     37  C   UNL A   1      38.310  33.310  35.529  1.00  0.00     0.261 C 
BRANCH  37  38
ATOM     38  O   UNL A   1      38.549  32.007  34.989  1.00  0.00    -0.460 OA
BRANCH  38  39
ATOM     39  C   UNL A   1      39.572  31.286  35.510  1.00  0.00     0.338 C 
ATOM     40  O   UNL A   1      39.606  30.692  36.573  1.00  0.00    -0.246 OA
BRANCH  39  41
ATOM     41  C   UNL A   1      40.516  31.080  34.392  1.00  0.00     0.060 A 
ATOM     42  C   UNL A   1      40.085  30.520  33.186  1.00  0.00     0.016 A 
ATOM     43  C   UNL A   1      41.878  31.139  34.713  1.00  0.00     0.016 A 
ATOM     44  C   UNL A   1      41.018  29.874  32.380  1.00  0.00     0.010 A 
ATOM     45  C   UNL A   1      42.808  30.482  33.909  1.00  0.00     0.010 A 
ATOM     46  C   UNL A   1      42.372  29.802  32.769  1.00  0.00    -0.014 A 
BRANCH  46  47
ATOM     47  C   UNL A   1      43.317  29.250  31.793  1.00  0.00     0.031 A 
ATOM     48  C   UNL A   1      43.402  30.096  30.570  1.00  0.00     0.074 A 
ATOM     49  C   UNL A   1      44.200  28.241  31.940  1.00  0.00     0.049 A 
ATOM     50  N   UNL A   1      43.196  29.765  29.338  1.00  0.00    -0.248 NA
ATOM     51  C   UNL A   1      43.637  31.533  30.795  1.00  0.00     0.031 C 
ATOM     52  C   UNL A   1      44.561  27.518  33.158  1.00  0.00     0.029 A 
ATOM     53  N   UNL A   1      45.064  27.729  31.004  1.00  0.00    -0.354 N 
ATOM     54  C   UNL A   1      43.400  30.933  28.611  1.00  0.00     0.074 A 
ATOM     55  C   UNL A   1      43.518  32.008  29.561  1.00  0.00     0.031 C 
ATOM     56  C   UNL A   1      45.709  26.831  32.939  1.00  0.00     0.029 A 
ATOM     57  C   UNL A   1      46.102  26.981  31.544  1.00  0.00     0.049 A 
ATOM     58  H   UNL A   1      44.957  27.878  30.037  1.00  0.00     0.167 HD
ATOM     59  C   UNL A   1      43.654  30.943  27.278  1.00  0.00     0.031 A 
ATOM     60  C   UNL A   1      47.241  26.598  30.913  1.00  0.00     0.031 A 
ATOM     61  C   UNL A   1      43.250  29.733  26.624  1.00  0.00     0.049 A 
ATOM     62  C   UNL A   1      47.045  26.729  29.452  1.00  0.00     0.074 A 
ATOM     63  C   UNL A   1      42.046  29.070  26.479  1.00  0.00     0.029 A 
ATOM     64  N   UNL A   1      44.221  28.835  26.260  1.00  0.00    -0.354 N 
ATOM     65  N   UNL A   1      46.295  25.950  28.730  1.00  0.00    -0.248 NA
ATOM     66  C   UNL A   1      47.467  27.961  28.805  1.00  0.00     0.031 C 
ATOM     67  C   UNL A   1      42.378  27.686  26.476  1.00  0.00     0.029 A 
ATOM     68  C   UNL A   1      43.766  27.585  26.597  1.00  0.00     0.049 A 
ATOM     69  H   UNL A   1      45.083  29.047  25.835  1.00  0.00     0.167 HD
ATOM     70  C   UNL A   1      45.813  26.760  27.714  1.00  0.00     0.074 A 
ATOM     71  C   UNL A   1      46.667  27.942  27.739  1.00  0.00     0.031 C 
ATOM     72  C   UNL A   1      44.599  26.528  27.133  1.00  0.00     0.031 A 
BRANCH  59  73
ATOM     73  C   UNL A   1      44.565  31.964  26.653  1.00  0.00    -0.014 A 
ATOM     74  C   UNL A   1      44.083  33.074  25.926  1.00  0.00     0.009 A 
ATOM     75  C   UNL A   1      45.930  31.965  26.973  1.00  0.00     0.009 A 
ATOM     76  C   UNL A   1      44.916  34.107  25.500  1.00  0.00     0.001 A 
ATOM     77  C   UNL A   1      46.761  33.027  26.592  1.00  0.00     0.001 A 
ATOM     78  C   UNL A   1      46.256  34.092  25.849  1.00  0.00     0.000 A 
ENDBRANCH  59  73
BRANCH  60  79
ATOM     79  C   UNL A   1      48.599  26.394  31.479  1.00  0.00    -0.014 A 
ATOM     80  C   UNL A   1      49.222  27.410  32.225  1.00  0.00     0.009 A 
ATOM     81  C   UNL A   1      49.396  25.316  31.057  1.00  0.00     0.009 A 
ATOM     82  C   UNL A   1      50.592  27.371  32.506  1.00  0.00     0.001 A 
ATOM     83  C   UNL A   1      50.771  25.283  31.329  1.00  0.00     0.001 A 
ATOM     84  C   UNL A   1      51.371  26.317  32.041  1.00  0.00     0.000 A 
ENDBRANCH  60  79
BRANCH  72  85
ATOM     85  C   UNL A   1      43.937  25.183  27.339  1.00  0.00    -0.014 A 
ATOM     86  C   UNL A   1      43.187  24.985  28.511  1.00  0.00     0.009 A 
ATOM     87  C   UNL A   1      44.153  24.076  26.499  1.00  0.00     0.009 A 
ATOM     88  C   UNL A   1      42.674  23.726  28.834  1.00  0.00     0.001 A 
ATOM     89  C   UNL A   1      43.612  22.824  26.806  1.00  0.00     0.001 A 
ATOM     90  C   UNL A   1      42.881  22.646  27.978  1.00  0.00     0.000 A 
ENDBRANCH  72  85
ENDBRANCH  46  47
ENDBRANCH  39  41
ENDBRANCH  38  39
ENDBRANCH  37  38
ENDBRANCH  36  37
ENDBRANCH  35  36
ENDBRANCH  34  35
ENDBRANCH  33  34
ENDBRANCH  32  33
ENDBRANCH   1  32
TORSDOF 24
ENDMDL
MODEL 3
REMARK VINA RESULT:      -8.3      6.641      9.559
REMARK SMILES COc1cc2c(CC(=O)OCCOCCOCCOCCOC(=O)c3ccc(-c4c5nc(c(-c6ccccc6)c6ccc([nH]6)c(-c6ccccc6)c6nc(c(-c7ccccc7)c7ccc4[nH]7)C=C6)C=C5)cc3)c(C)n(C(=O)c3ccc(Cl)cc3)c2cc1Cl
REMARK SMILES IDX 15 1 14 2 13 3 12 4 11 5 10 6 8 7 9 8 7 9 6 10 3 11 4 12
REMARK SMILES IDX 87 13 5 14 86 15 88 16 85 17 73 18 75 19 74 20 2 21 1 22
REMARK SMILES IDX 76 23 77 24 78 25 79 26 84 27 80 28 83 29 81 30 82 31 16 32
REMARK SMILES IDX 17 33 18 34 19 35 20 36 21 37 22 38 23 39 24 40 25 41 26 42
REMARK SMILES IDX 72 43 27 44 71 45 28 46 29 47 30 48 65 49 31 50 70 51 64 52
REMARK SMILES IDX 66 53 32 54 69 55 63 56 62 57 33 59 55 60 40 61 54 62 41 63
REMARK SMILES IDX 44 64 53 65 67 66 42 67 43 68 52 70 68 71 45 72 34 73 35 74
REMARK SMILES IDX 39 75 36 76 38 77 37 78 56 79 57 80 61 81 58 82 60 83 59 84
REMARK SMILES IDX 46 85 47 86 51 87 48 88 50 89 49 90
REMARK H PARENT 66 58 44 69
REMARK Flexibility Score: inf
ROOT
ATOM      1  C   UNL A   1      34.523  32.934  31.141  1.00  0.00     0.188 C 
ENDROOT
BRANCH   1   2
ATOM      2  C   UNL A   1      35.178  31.873  30.265  1.00  0.00     0.188 C 
BRANCH   2   3
ATOM      3  O   UNL A   1      35.426  32.300  28.939  1.00  0.00    -0.376 OA
BRANCH   3   4
ATOM      4  C   UNL A   1      35.578  31.310  27.935  1.00  0.00     0.202 C 
BRANCH   4   5
ATOM      5  C   UNL A   1      34.677  30.057  27.964  1.00  0.00     0.261 C 
BRANCH   5   6
ATOM      6  O   UNL A   1      34.925  29.030  26.980  1.00  0.00    -0.463 OA
BRANCH   6   7
ATOM      7  C   UNL A   1      34.107  28.958  25.903  1.00  0.00     0.310 C 
ATOM      8  O   UNL A   1      33.390  29.892  25.552  1.00  0.00    -0.252 OA
BRANCH   7   9
ATOM      9  C   UNL A   1      34.198  27.668  25.082  1.00  0.00     0.160 C 
BRANCH   9  10
ATOM     10  C   UNL A   1      33.055  26.660  25.068  1.00  0.00    -0.008 A 
ATOM     11  C   UNL A   1      29.637  28.052  23.909  1.00  0.00     0.138 A 
ATOM     12  C   UNL A   1      30.973  28.102  24.358  1.00  0.00     0.058 A 
ATOM     13  C   UNL A   1      28.942  26.857  24.025  1.00  0.00     0.085 A 
ATOM     14  C   UNL A   1      31.678  26.934  24.755  1.00  0.00     0.008 A 
ATOM     15  C   UNL A   1      29.592  25.713  24.502  1.00  0.00     0.051 A 
ATOM     16  Cl  UNL A   1      27.256  26.667  23.681  1.00  0.00    -0.080 Cl
ATOM     17  C   UNL A   1      30.966  25.734  24.839  1.00  0.00     0.058 A 
ATOM     18  C   UNL A   1      33.109  25.325  25.460  1.00  0.00     0.028 A 
ATOM     19  N   UNL A   1      31.842  24.731  25.294  1.00  0.00    -0.280 N 
ATOM     20  C   UNL A   1      34.315  24.601  25.975  1.00  0.00     0.065 C 
BRANCH  11  21
ATOM     21  O   UNL A   1      29.172  29.245  23.419  1.00  0.00    -0.495 OA
ATOM     22  C   UNL A   1      29.439  29.534  22.048  1.00  0.00     0.278 C 
ENDBRANCH  11  21
BRANCH  19  23
ATOM     23  C   UNL A   1      31.491  23.365  25.547  1.00  0.00     0.262 C 
ATOM     24  O   UNL A   1      30.839  23.083  26.549  1.00  0.00    -0.268 OA
BRANCH  23  25
ATOM     25  C   UNL A   1      31.854  22.227  24.683  1.00  0.00     0.040 A 
ATOM     26  C   UNL A   1      31.780  22.366  23.291  1.00  0.00     0.015 A 
ATOM     27  C   UNL A   1      32.201  20.999  25.262  1.00  0.00     0.015 A 
ATOM     28  C   UNL A   1      31.988  21.248  22.477  1.00  0.00     0.021 A 
ATOM     29  C   UNL A   1      32.413  19.888  24.440  1.00  0.00     0.021 A 
ATOM     30  C   UNL A   1      32.291  20.014  23.055  1.00  0.00     0.041 A 
ATOM     31  Cl  UNL A   1      32.489  18.630  22.051  1.00  0.00    -0.084 Cl
ENDBRANCH  23  25
ENDBRANCH  19  23
ENDBRANCH   9  10
ENDBRANCH   7   9
ENDBRANCH   6   7
ENDBRANCH   5   6
ENDBRANCH   4   5
ENDBRANCH   3   4
ENDBRANCH   2   3
ENDBRANCH   1   2
BRANCH   1  32
ATOM     32  O   UNL A   1      35.184  34.086  31.602  1.00  0.00    -0.377 OA
BRANCH  32  33
ATOM     33  C   UNL A   1      35.337  34.282  32.983  1.00  0.00     0.188 C 
BRANCH  33  34
ATOM     34  C   UNL A   1      36.771  34.129  33.504  1.00  0.00     0.188 C 
BRANCH  34  35
ATOM     35  O   UNL A   1      37.191  32.999  34.271  1.00  0.00    -0.376 OA
BRANCH  35  36
ATOM     36  C   UNL A   1      37.756  31.864  33.637  1.00  0.00     0.202 C 
BRANCH  36  37
ATOM     37  C   UNL A   1      38.108  31.998  32.145  1.00  0.00     0.261 C 
BRANCH  37  38
ATOM     38  O   UNL A   1      39.475  32.348  31.912  1.00  0.00    -0.460 OA
BRANCH  38  39
ATOM     39  C   UNL A   1      40.156  31.645  30.973  1.00  0.00     0.338 C 
ATOM     40  O   UNL A   1      39.926  30.521  30.565  1.00  0.00    -0.246 OA
BRANCH  39  41
ATOM     41  C   UNL A   1      41.027  32.630  30.300  1.00  0.00     0.060 A 
ATOM     42  C   UNL A   1      42.393  32.387  30.139  1.00  0.00     0.016 A 
ATOM     43  C   UNL A   1      40.504  33.923  30.157  1.00  0.00     0.016 A 
ATOM     44  C   UNL A   1      43.253  33.472  29.996  1.00  0.00     0.010 A 
ATOM     45  C   UNL A   1      41.369  35.008  30.025  1.00  0.00     0.010 A 
ATOM     46  C   UNL A   1      42.748  34.789  29.998  1.00  0.00    -0.014 A 
BRANCH  46  47
ATOM     47  C   UNL A   1      43.693  35.866  29.680  1.00  0.00     0.031 A 
ATOM     48  C   UNL A   1      43.975  36.716  30.869  1.00  0.00     0.074 A 
ATOM     49  C   UNL A   1      44.431  36.049  28.567  1.00  0.00     0.049 A 
ATOM     50  N   UNL A   1      43.827  37.993  31.009  1.00  0.00    -0.248 NA
ATOM     51  C   UNL A   1      44.366  36.001  32.097  1.00  0.00     0.031 C 
ATOM     52  C   UNL A   1      44.604  35.146  27.431  1.00  0.00     0.029 A 
ATOM     53  N   UNL A   1      45.296  37.077  28.285  1.00  0.00    -0.354 N 
ATOM     54  C   UNL A   1      44.229  38.263  32.312  1.00  0.00     0.074 A 
ATOM     55  C   UNL A   1      44.403  36.997  32.974  1.00  0.00     0.031 C 
ATOM     56  C   UNL A   1      45.673  35.553  26.704  1.00  0.00     0.029 A 
ATOM     57  C   UNL A   1      46.190  36.797  27.260  1.00  0.00     0.049 A 
ATOM     58  H   UNL A   1      45.285  37.936  28.767  1.00  0.00     0.167 HD
ATOM     59  C   UNL A   1      44.586  39.503  32.737  1.00  0.00     0.031 A 
ATOM     60  C   UNL A   1      47.319  37.485  26.956  1.00  0.00     0.031 A 
ATOM     61  C   UNL A   1      44.089  40.547  31.890  1.00  0.00     0.049 A 
ATOM     62  C   UNL A   1      47.255  38.817  27.600  1.00  0.00     0.074 A 
ATOM     63  C   UNL A   1      42.829  40.950  31.493  1.00  0.00     0.029 A 
ATOM     64  N   UNL A   1      44.968  41.169  31.040  1.00  0.00    -0.354 N 
ATOM     65  N   UNL A   1      46.474  39.786  27.226  1.00  0.00    -0.248 NA
ATOM     66  C   UNL A   1      47.874  38.983  28.905  1.00  0.00     0.031 C 
ATOM     67  C   UNL A   1      42.988  41.422  30.160  1.00  0.00     0.029 A 
ATOM     68  C   UNL A   1      44.338  41.300  29.828  1.00  0.00     0.049 A 
ATOM     69  H   UNL A   1      45.880  41.467  31.259  1.00  0.00     0.167 HD
ATOM     70  C   UNL A   1      46.176  40.474  28.392  1.00  0.00     0.074 A 
ATOM     71  C   UNL A   1      47.163  40.015  29.362  1.00  0.00     0.031 C 
ATOM     72  C   UNL A   1      44.992  41.137  28.545  1.00  0.00     0.031 A 
BRANCH  59  73
ATOM     73  C   UNL A   1      45.661  39.706  33.769  1.00  0.00    -0.014 A 
ATOM     74  C   UNL A   1      45.546  40.648  34.815  1.00  0.00     0.009 A 
ATOM     75  C   UNL A   1      46.724  38.796  33.854  1.00  0.00     0.009 A 
ATOM     76  C   UNL A   1      46.461  40.712  35.866  1.00  0.00     0.001 A 
ATOM     77  C   UNL A   1      47.614  38.823  34.935  1.00  0.00     0.001 A 
ATOM     78  C   UNL A   1      47.487  39.785  35.935  1.00  0.00     0.000 A 
ENDBRANCH  59  73
BRANCH  60  79
ATOM     79  C   UNL A   1      48.593  36.983  26.382  1.00  0.00    -0.014 A 
ATOM     80  C   UNL A   1      49.686  36.690  27.215  1.00  0.00     0.009 A 
ATOM     81  C   UNL A   1      48.832  37.054  24.998  1.00  0.00     0.009 A 
ATOM     82  C   UNL A   1      50.973  36.512  26.695  1.00  0.00     0.001 A 
ATOM     83  C   UNL A   1      50.124  36.887  24.478  1.00  0.00     0.001 A 
ATOM     84  C   UNL A   1      51.195  36.630  25.328  1.00  0.00     0.000 A 
ENDBRANCH  60  79
BRANCH  72  85
ATOM     85  C   UNL A   1      44.156  41.430  27.319  1.00  0.00    -0.014 A 
ATOM     86  C   UNL A   1      43.118  40.540  26.994  1.00  0.00     0.009 A 
ATOM     87  C   UNL A   1      44.454  42.456  26.405  1.00  0.00     0.009 A 
ATOM     88  C   UNL A   1      42.405  40.668  25.799  1.00  0.00     0.001 A 
ATOM     89  C   UNL A   1      43.720  42.605  25.224  1.00  0.00     0.001 A 
ATOM     90  C   UNL A   1      42.702  41.705  24.917  1.00  0.00     0.000 A 
ENDBRANCH  72  85
ENDBRANCH  46  47
ENDBRANCH  39  41
ENDBRANCH  38  39
ENDBRANCH  37  38
ENDBRANCH  36  37
ENDBRANCH  35  36
ENDBRANCH  34  35
ENDBRANCH  33  34
ENDBRANCH  32  33
ENDBRANCH   1  32
TORSDOF 24
ENDMDL
