MODEL 1
REMARK VINA RESULT:      -8.6      0.000      0.000
REMARK SMILES CC[C@@H](Sc1cccc(N)c1)C(=O)OCCOCCOCCOCCOC(=O)c1ccc(-c2c3nc(c(-c4ccccc4)c4ccc([nH]4)c(-c4ccccc4)c4nc(c(-c5ccccc5)c5ccc2[nH]5)C=C4)C=C3)cc1
REMARK SMILES IDX 19 1 18 2 17 3 16 4 15 5 14 6 12 7 13 8 3 9 2 10 1 11 4 12
REMARK SMILES IDX 5 13 6 14 11 15 7 16 9 17 8 18 10 19 20 22 21 23 22 24 23 25
REMARK SMILES IDX 24 26 25 27 26 28 27 29 28 30 29 31 30 32 76 33 31 34 75 35
REMARK SMILES IDX 32 36 33 37 34 38 69 39 35 40 74 41 68 42 70 43 36 44 73 45
REMARK SMILES IDX 67 46 66 47 37 49 59 50 44 51 58 52 45 53 48 54 57 55 71 56
REMARK SMILES IDX 46 57 47 58 56 60 72 61 49 62 38 63 39 64 43 65 40 66 42 67
REMARK SMILES IDX 41 68 60 69 61 70 65 71 62 72 64 73 63 74 50 75 51 76 55 77
REMARK SMILES IDX 52 78 54 79 53 80
REMARK H PARENT 10 20 10 21 70 48 48 59
REMARK Flexibility Score: inf
ROOT
ATOM      1  C   UNL A   1      33.545  29.998  27.057  1.00  0.00     0.188 C 
ENDROOT
BRANCH   1   2
ATOM      2  C   UNL A   1      33.191  30.007  25.566  1.00  0.00     0.188 C 
BRANCH   2   3
ATOM      3  O   UNL A   1      32.044  29.317  25.100  1.00  0.00    -0.376 OA
BRANCH   3   4
ATOM      4  C   UNL A   1      32.164  28.108  24.362  1.00  0.00     0.202 C 
BRANCH   4   5
ATOM      5  C   UNL A   1      31.985  28.031  22.835  1.00  0.00     0.261 C 
BRANCH   5   6
ATOM      6  O   UNL A   1      31.667  26.746  22.268  1.00  0.00    -0.462 OA
BRANCH   6   7
ATOM      7  C   UNL A   1      32.661  25.822  22.290  1.00  0.00     0.319 C 
ATOM      8  O   UNL A   1      33.683  25.906  21.612  1.00  0.00    -0.251 OA
BRANCH   7   9
ATOM      9  C   UNL A   1      32.401  24.626  23.210  1.00  0.00     0.161 C 
BRANCH   9  10
ATOM     10  C   UNL A   1      30.981  24.432  23.776  1.00  0.00     0.023 C 
ATOM     11  C   UNL A   1      30.944  24.595  25.302  1.00  0.00     0.006 C 
ENDBRANCH   9  10
BRANCH   9  12
ATOM     12  S   UNL A   1      32.967  23.111  22.305  1.00  0.00    -0.111 SA
BRANCH  12  13
ATOM     13  C   UNL A   1      34.130  22.476  23.498  1.00  0.00     0.010 A 
ATOM     14  C   UNL A   1      33.812  21.340  24.240  1.00  0.00     0.015 A 
ATOM     15  C   UNL A   1      35.374  23.091  23.688  1.00  0.00     0.040 A 
ATOM     16  C   UNL A   1      34.736  20.824  25.148  1.00  0.00     0.003 A 
ATOM     17  C   UNL A   1      36.347  22.518  24.506  1.00  0.00     0.032 A 
ATOM     18  C   UNL A   1      35.997  21.413  25.278  1.00  0.00     0.025 A 
BRANCH  17  19
ATOM     19  N   UNL A   1      37.596  23.110  24.626  1.00  0.00    -0.399 N 
ATOM     20  H   UNL A   1      38.393  22.654  24.272  1.00  0.00     0.156 HD
ATOM     21  H   UNL A   1      37.684  23.987  25.065  1.00  0.00     0.156 HD
ENDBRANCH  17  19
ENDBRANCH  12  13
ENDBRANCH   9  12
ENDBRANCH   7   9
ENDBRANCH   6   7
ENDBRANCH   5   6
ENDBRANCH   4   5
ENDBRANCH   3   4
ENDBRANCH   2   3
ENDBRANCH   1   2
BRANCH   1  22
ATOM     22  O   UNL A   1      33.568  31.274  27.666  1.00  0.00    -0.377 OA
BRANCH  22  23
ATOM     23  C   UNL A   1      34.684  31.610  28.481  1.00  0.00     0.188 C 
BRANCH  23  24
ATOM     24  C   UNL A   1      34.970  33.096  28.774  1.00  0.00     0.188 C 
BRANCH  24  25
ATOM     25  O   UNL A   1      34.068  33.992  28.143  1.00  0.00    -0.376 OA
BRANCH  25  26
ATOM     26  C   UNL A   1      34.081  35.359  28.530  1.00  0.00     0.202 C 
BRANCH  26  27
ATOM     27  C   UNL A   1      32.916  35.876  29.391  1.00  0.00     0.261 C 
BRANCH  27  28
ATOM     28  O   UNL A   1      32.553  35.080  30.534  1.00  0.00    -0.460 OA
BRANCH  28  29
ATOM     29  C   UNL A   1      32.752  35.594  31.763  1.00  0.00     0.338 C 
ATOM     30  O   UNL A   1      32.022  36.363  32.370  1.00  0.00    -0.246 OA
BRANCH  29  31
ATOM     31  C   UNL A   1      33.922  34.915  32.357  1.00  0.00     0.060 A 
ATOM     32  C   UNL A   1      35.176  35.538  32.283  1.00  0.00     0.016 A 
ATOM     33  C   UNL A   1      33.790  33.665  32.965  1.00  0.00     0.016 A 
ATOM     34  C   UNL A   1      36.308  34.890  32.775  1.00  0.00     0.010 A 
ATOM     35  C   UNL A   1      34.930  33.008  33.439  1.00  0.00     0.010 A 
ATOM     36  C   UNL A   1      36.199  33.601  33.310  1.00  0.00    -0.014 A 
BRANCH  36  37
ATOM     37  C   UNL A   1      37.423  32.795  33.542  1.00  0.00     0.031 A 
ATOM     38  C   UNL A   1      38.195  33.019  34.815  1.00  0.00     0.074 A 
ATOM     39  C   UNL A   1      37.832  31.866  32.662  1.00  0.00     0.049 A 
ATOM     40  N   UNL A   1      39.315  32.474  35.215  1.00  0.00    -0.248 NA
ATOM     41  C   UNL A   1      37.625  33.992  35.762  1.00  0.00     0.031 C 
ATOM     42  C   UNL A   1      37.147  31.512  31.420  1.00  0.00     0.029 A 
ATOM     43  N   UNL A   1      38.937  31.050  32.683  1.00  0.00    -0.354 N 
ATOM     44  C   UNL A   1      39.587  33.043  36.454  1.00  0.00     0.074 A 
ATOM     45  C   UNL A   1      38.536  33.998  36.723  1.00  0.00     0.031 C 
ATOM     46  C   UNL A   1      37.854  30.557  30.791  1.00  0.00     0.029 A 
ATOM     47  C   UNL A   1      39.059  30.261  31.565  1.00  0.00     0.049 A 
ATOM     48  H   UNL A   1      39.581  31.033  33.428  1.00  0.00     0.167 HD
ATOM     49  C   UNL A   1      40.617  32.789  37.296  1.00  0.00     0.031 A 
ATOM     50  C   UNL A   1      40.043  29.418  31.198  1.00  0.00     0.031 A 
ATOM     51  C   UNL A   1      41.675  31.855  37.021  1.00  0.00     0.049 A 
ATOM     52  C   UNL A   1      41.230  29.223  32.107  1.00  0.00     0.074 A 
ATOM     53  C   UNL A   1      42.761  31.525  37.811  1.00  0.00     0.029 A 
ATOM     54  N   UNL A   1      41.784  31.109  35.857  1.00  0.00    -0.354 N 
ATOM     55  N   UNL A   1      41.468  29.751  33.284  1.00  0.00    -0.248 NA
ATOM     56  C   UNL A   1      42.279  28.306  31.639  1.00  0.00     0.031 C 
ATOM     57  C   UNL A   1      43.563  30.628  37.098  1.00  0.00     0.029 A 
ATOM     58  C   UNL A   1      42.937  30.343  35.896  1.00  0.00     0.049 A 
ATOM     59  H   UNL A   1      41.139  31.122  35.114  1.00  0.00     0.167 HD
ATOM     60  C   UNL A   1      42.675  29.208  33.708  1.00  0.00     0.074 A 
ATOM     61  C   UNL A   1      43.112  28.297  32.671  1.00  0.00     0.031 C 
ATOM     62  C   UNL A   1      43.359  29.439  34.856  1.00  0.00     0.031 A 
BRANCH  49  63
ATOM     63  C   UNL A   1      40.667  33.572  38.581  1.00  0.00    -0.014 A 
ATOM     64  C   UNL A   1      41.328  34.808  38.660  1.00  0.00     0.009 A 
ATOM     65  C   UNL A   1      40.023  33.074  39.724  1.00  0.00     0.009 A 
ATOM     66  C   UNL A   1      41.375  35.510  39.867  1.00  0.00     0.001 A 
ATOM     67  C   UNL A   1      40.043  33.792  40.920  1.00  0.00     0.001 A 
ATOM     68  C   UNL A   1      40.728  35.004  40.994  1.00  0.00     0.000 A 
ENDBRANCH  49  63
BRANCH  50  69
ATOM     69  C   UNL A   1      39.971  28.712  29.890  1.00  0.00    -0.014 A 
ATOM     70  C   UNL A   1      39.459  27.407  29.802  1.00  0.00     0.009 A 
ATOM     71  C   UNL A   1      40.442  29.332  28.721  1.00  0.00     0.009 A 
ATOM     72  C   UNL A   1      39.446  26.733  28.578  1.00  0.00     0.001 A 
ATOM     73  C   UNL A   1      40.395  28.668  27.493  1.00  0.00     0.001 A 
ATOM     74  C   UNL A   1      39.907  27.365  27.424  1.00  0.00     0.000 A 
ENDBRANCH  50  69
BRANCH  62  75
ATOM     75  C   UNL A   1      44.631  28.663  35.075  1.00  0.00    -0.014 A 
ATOM     76  C   UNL A   1      45.880  29.169  34.682  1.00  0.00     0.009 A 
ATOM     77  C   UNL A   1      44.579  27.421  35.731  1.00  0.00     0.009 A 
ATOM     78  C   UNL A   1      47.044  28.430  34.908  1.00  0.00     0.001 A 
ATOM     79  C   UNL A   1      45.747  26.702  35.987  1.00  0.00     0.001 A 
ATOM     80  C   UNL A   1      46.977  27.201  35.565  1.00  0.00     0.000 A 
ENDBRANCH  62  75
ENDBRANCH  36  37
ENDBRANCH  29  31
ENDBRANCH  28  29
ENDBRANCH  27  28
ENDBRANCH  26  27
ENDBRANCH  25  26
ENDBRANCH  24  25
ENDBRANCH  23  24
ENDBRANCH  22  23
ENDBRANCH   1  22
TORSDOF 24
ENDMDL
MODEL 2
REMARK VINA RESULT:      -8.5      5.558     10.177
REMARK SMILES CC[C@@H](Sc1cccc(N)c1)C(=O)OCCOCCOCCOCCOC(=O)c1ccc(-c2c3nc(c(-c4ccccc4)c4ccc([nH]4)c(-c4ccccc4)c4nc(c(-c5ccccc5)c5ccc2[nH]5)C=C4)C=C3)cc1
REMARK SMILES IDX 19 1 18 2 17 3 16 4 15 5 14 6 12 7 13 8 3 9 2 10 1 11 4 12
REMARK SMILES IDX 5 13 6 14 11 15 7 16 9 17 8 18 10 19 20 22 21 23 22 24 23 25
REMARK SMILES IDX 24 26 25 27 26 28 27 29 28 30 29 31 30 32 76 33 31 34 75 35
REMARK SMILES IDX 32 36 33 37 34 38 69 39 35 40 74 41 68 42 70 43 36 44 73 45
REMARK SMILES IDX 67 46 66 47 37 49 59 50 44 51 58 52 45 53 48 54 57 55 71 56
REMARK SMILES IDX 46 57 47 58 56 60 72 61 49 62 38 63 39 64 43 65 40 66 42 67
REMARK SMILES IDX 41 68 60 69 61 70 65 71 62 72 64 73 63 74 50 75 51 76 55 77
REMARK SMILES IDX 52 78 54 79 53 80
REMARK H PARENT 10 20 10 21 70 48 48 59
REMARK Flexibility Score: inf
ROOT
ATOM      1  C   UNL A   1      33.532  22.994  27.078  1.00  0.00     0.188 C 
ENDROOT
BRANCH   1   2
ATOM      2  C   UNL A   1      32.008  23.052  27.225  1.00  0.00     0.188 C 
BRANCH   2   3
ATOM      3  O   UNL A   1      31.334  24.298  27.195  1.00  0.00    -0.376 OA
BRANCH   3   4
ATOM      4  C   UNL A   1      30.339  24.572  26.218  1.00  0.00     0.202 C 
BRANCH   4   5
ATOM      5  C   UNL A   1      30.644  24.699  24.715  1.00  0.00     0.261 C 
BRANCH   5   6
ATOM      6  O   UNL A   1      29.667  25.367  23.894  1.00  0.00    -0.462 OA
BRANCH   6   7
ATOM      7  C   UNL A   1      30.035  26.572  23.390  1.00  0.00     0.319 C 
ATOM      8  O   UNL A   1      29.268  27.526  23.275  1.00  0.00    -0.251 OA
BRANCH   7   9
ATOM      9  C   UNL A   1      31.494  26.654  22.932  1.00  0.00     0.161 C 
BRANCH   9  10
ATOM     10  C   UNL A   1      31.862  26.072  21.553  1.00  0.00     0.023 C 
ATOM     11  C   UNL A   1      32.882  24.930  21.665  1.00  0.00     0.006 C 
ENDBRANCH   9  10
BRANCH   9  12
ATOM     12  S   UNL A   1      32.005  28.430  23.059  1.00  0.00    -0.111 SA
BRANCH  12  13
ATOM     13  C   UNL A   1      32.549  28.456  24.757  1.00  0.00     0.010 A 
ATOM     14  C   UNL A   1      33.834  28.897  25.067  1.00  0.00     0.015 A 
ATOM     15  C   UNL A   1      31.693  28.058  25.792  1.00  0.00     0.040 A 
ATOM     16  C   UNL A   1      34.246  28.949  26.398  1.00  0.00     0.003 A 
ATOM     17  C   UNL A   1      32.054  28.215  27.130  1.00  0.00     0.032 A 
ATOM     18  C   UNL A   1      33.358  28.609  27.423  1.00  0.00     0.025 A 
BRANCH  17  19
ATOM     19  N   UNL A   1      31.164  27.876  28.138  1.00  0.00    -0.399 N 
ATOM     20  H   UNL A   1      31.336  27.087  28.701  1.00  0.00     0.156 HD
ATOM     21  H   UNL A   1      30.361  28.425  28.290  1.00  0.00     0.156 HD
ENDBRANCH  17  19
ENDBRANCH  12  13
ENDBRANCH   9  12
ENDBRANCH   7   9
ENDBRANCH   6   7
ENDBRANCH   5   6
ENDBRANCH   4   5
ENDBRANCH   3   4
ENDBRANCH   2   3
ENDBRANCH   1   2
BRANCH   1  22
ATOM     22  O   UNL A   1      33.989  22.622  25.793  1.00  0.00    -0.377 OA
BRANCH  22  23
ATOM     23  C   UNL A   1      34.036  21.239  25.469  1.00  0.00     0.188 C 
BRANCH  23  24
ATOM     24  C   UNL A   1      35.359  20.640  24.954  1.00  0.00     0.188 C 
BRANCH  24  25
ATOM     25  O   UNL A   1      36.516  21.169  25.584  1.00  0.00    -0.376 OA
BRANCH  25  26
ATOM     26  C   UNL A   1      37.791  20.862  25.039  1.00  0.00     0.202 C 
BRANCH  26  27
ATOM     27  C   UNL A   1      39.036  21.350  25.798  1.00  0.00     0.261 C 
BRANCH  27  28
ATOM     28  O   UNL A   1      39.798  20.352  26.502  1.00  0.00    -0.460 OA
BRANCH  28  29
ATOM     29  C   UNL A   1      41.095  20.189  26.180  1.00  0.00     0.338 C 
ATOM     30  O   UNL A   1      41.578  19.314  25.478  1.00  0.00    -0.246 OA
BRANCH  29  31
ATOM     31  C   UNL A   1      41.836  21.372  26.662  1.00  0.00     0.060 A 
ATOM     32  C   UNL A   1      41.961  21.577  28.043  1.00  0.00     0.016 A 
ATOM     33  C   UNL A   1      42.388  22.286  25.761  1.00  0.00     0.016 A 
ATOM     34  C   UNL A   1      42.597  22.720  28.526  1.00  0.00     0.010 A 
ATOM     35  C   UNL A   1      43.007  23.441  26.247  1.00  0.00     0.010 A 
ATOM     36  C   UNL A   1      43.079  23.683  27.631  1.00  0.00    -0.014 A 
BRANCH  36  37
ATOM     37  C   UNL A   1      43.467  25.024  28.133  1.00  0.00     0.031 A 
ATOM     38  C   UNL A   1      42.376  26.020  28.426  1.00  0.00     0.074 A 
ATOM     39  C   UNL A   1      44.751  25.350  28.352  1.00  0.00     0.049 A 
ATOM     40  N   UNL A   1      42.470  27.263  28.823  1.00  0.00    -0.248 NA
ATOM     41  C   UNL A   1      40.993  25.547  28.243  1.00  0.00     0.031 C 
ATOM     42  C   UNL A   1      45.897  24.462  28.162  1.00  0.00     0.029 A 
ATOM     43  N   UNL A   1      45.306  26.531  28.781  1.00  0.00    -0.354 N 
ATOM     44  C   UNL A   1      41.162  27.722  28.929  1.00  0.00     0.074 A 
ATOM     45  C   UNL A   1      40.297  26.638  28.522  1.00  0.00     0.031 C 
ATOM     46  C   UNL A   1      47.022  25.134  28.463  1.00  0.00     0.029 A 
ATOM     47  C   UNL A   1      46.678  26.508  28.828  1.00  0.00     0.049 A 
ATOM     48  H   UNL A   1      44.771  27.319  29.030  1.00  0.00     0.167 HD
ATOM     49  C   UNL A   1      40.719  28.936  29.335  1.00  0.00     0.031 A 
ATOM     50  C   UNL A   1      47.556  27.492  29.107  1.00  0.00     0.031 A 
ATOM     51  C   UNL A   1      41.579  30.023  29.719  1.00  0.00     0.049 A 
ATOM     52  C   UNL A   1      47.044  28.864  29.463  1.00  0.00     0.074 A 
ATOM     53  C   UNL A   1      41.228  31.289  30.149  1.00  0.00     0.029 A 
ATOM     54  N   UNL A   1      42.964  29.972  29.710  1.00  0.00    -0.354 N 
ATOM     55  N   UNL A   1      45.806  29.282  29.578  1.00  0.00    -0.248 NA
ATOM     56  C   UNL A   1      48.053  29.898  29.736  1.00  0.00     0.031 C 
ATOM     57  C   UNL A   1      42.401  32.028  30.336  1.00  0.00     0.029 A 
ATOM     58  C   UNL A   1      43.483  31.196  30.097  1.00  0.00     0.049 A 
ATOM     59  H   UNL A   1      43.500  29.183  29.466  1.00  0.00     0.167 HD
ATOM     60  C   UNL A   1      45.888  30.615  29.966  1.00  0.00     0.074 A 
ATOM     61  C   UNL A   1      47.297  30.930  30.083  1.00  0.00     0.031 C 
ATOM     62  C   UNL A   1      44.887  31.497  30.209  1.00  0.00     0.031 A 
BRANCH  49  63
ATOM     63  C   UNL A   1      39.231  29.162  29.339  1.00  0.00    -0.014 A 
ATOM     64  C   UNL A   1      38.470  29.012  30.509  1.00  0.00     0.009 A 
ATOM     65  C   UNL A   1      38.585  29.552  28.156  1.00  0.00     0.009 A 
ATOM     66  C   UNL A   1      37.088  29.212  30.485  1.00  0.00     0.001 A 
ATOM     67  C   UNL A   1      37.209  29.784  28.141  1.00  0.00     0.001 A 
ATOM     68  C   UNL A   1      36.459  29.603  29.303  1.00  0.00     0.000 A 
ENDBRANCH  49  63
BRANCH  50  69
ATOM     69  C   UNL A   1      49.019  27.229  29.033  1.00  0.00    -0.014 A 
ATOM     70  C   UNL A   1      49.724  27.404  27.831  1.00  0.00     0.009 A 
ATOM     71  C   UNL A   1      49.717  26.774  30.164  1.00  0.00     0.009 A 
ATOM     72  C   UNL A   1      51.086  27.104  27.758  1.00  0.00     0.001 A 
ATOM     73  C   UNL A   1      51.086  26.507  30.097  1.00  0.00     0.001 A 
ATOM     74  C   UNL A   1      51.768  26.662  28.892  1.00  0.00     0.000 A 
ENDBRANCH  50  69
BRANCH  62  75
ATOM     75  C   UNL A   1      45.275  32.878  30.669  1.00  0.00    -0.014 A 
ATOM     76  C   UNL A   1      45.479  33.172  32.026  1.00  0.00     0.009 A 
ATOM     77  C   UNL A   1      45.483  33.890  29.716  1.00  0.00     0.009 A 
ATOM     78  C   UNL A   1      45.847  34.460  32.421  1.00  0.00     0.001 A 
ATOM     79  C   UNL A   1      45.886  35.166  30.112  1.00  0.00     0.001 A 
ATOM     80  C   UNL A   1      46.057  35.454  31.465  1.00  0.00     0.000 A 
ENDBRANCH  62  75
ENDBRANCH  36  37
ENDBRANCH  29  31
ENDBRANCH  28  29
ENDBRANCH  27  28
ENDBRANCH  26  27
ENDBRANCH  25  26
ENDBRANCH  24  25
ENDBRANCH  23  24
ENDBRANCH  22  23
ENDBRANCH   1  22
TORSDOF 24
ENDMDL
MODEL 3
REMARK VINA RESULT:      -8.2      0.689      5.935
REMARK SMILES CC[C@@H](Sc1cccc(N)c1)C(=O)OCCOCCOCCOCCOC(=O)c1ccc(-c2c3nc(c(-c4ccccc4)c4ccc([nH]4)c(-c4ccccc4)c4nc(c(-c5ccccc5)c5ccc2[nH]5)C=C4)C=C3)cc1
REMARK SMILES IDX 19 1 18 2 17 3 16 4 15 5 14 6 12 7 13 8 3 9 2 10 1 11 4 12
REMARK SMILES IDX 5 13 6 14 11 15 7 16 9 17 8 18 10 19 20 22 21 23 22 24 23 25
REMARK SMILES IDX 24 26 25 27 26 28 27 29 28 30 29 31 30 32 76 33 31 34 75 35
REMARK SMILES IDX 32 36 33 37 34 38 69 39 35 40 74 41 68 42 70 43 36 44 73 45
REMARK SMILES IDX 67 46 66 47 37 49 59 50 44 51 58 52 45 53 48 54 57 55 71 56
REMARK SMILES IDX 46 57 47 58 56 60 72 61 49 62 38 63 39 64 43 65 40 66 42 67
REMARK SMILES IDX 41 68 60 69 61 70 65 71 62 72 64 73 63 74 50 75 51 76 55 77
REMARK SMILES IDX 52 78 54 79 53 80
REMARK H PARENT 10 20 10 21 70 48 48 59
REMARK Flexibility Score: inf
ROOT
ATOM      1  C   UNL A   1      33.682  29.922  27.067  1.00  0.00     0.188 C 
ENDROOT
BRANCH   1   2
ATOM      2  C   UNL A   1      32.880  29.880  25.762  1.00  0.00     0.188 C 
BRANCH   2   3
ATOM      3  O   UNL A   1      31.606  29.261  25.727  1.00  0.00    -0.376 OA
BRANCH   3   4
ATOM      4  C   UNL A   1      31.448  27.930  25.256  1.00  0.00     0.202 C 
BRANCH   4   5
ATOM      5  C   UNL A   1      30.574  27.562  24.043  1.00  0.00     0.261 C 
BRANCH   5   6
ATOM      6  O   UNL A   1      30.292  26.165  23.828  1.00  0.00    -0.462 OA
BRANCH   6   7
ATOM      7  C   UNL A   1      31.298  25.430  23.289  1.00  0.00     0.319 C 
ATOM      8  O   UNL A   1      31.748  25.617  22.161  1.00  0.00    -0.251 OA
BRANCH   7   9
ATOM      9  C   UNL A   1      31.820  24.307  24.189  1.00  0.00     0.161 C 
BRANCH   9  10
ATOM     10  C   UNL A   1      31.007  23.937  25.446  1.00  0.00     0.023 C 
ATOM     11  C   UNL A   1      31.770  24.260  26.738  1.00  0.00     0.006 C 
ENDBRANCH   9  10
BRANCH   9  12
ATOM     12  S   UNL A   1      32.082  22.823  23.110  1.00  0.00    -0.111 SA
BRANCH  12  13
ATOM     13  C   UNL A   1      33.610  22.223  23.807  1.00  0.00     0.010 A 
ATOM     14  C   UNL A   1      33.655  20.960  24.393  1.00  0.00     0.015 A 
ATOM     15  C   UNL A   1      34.777  22.996  23.754  1.00  0.00     0.040 A 
ATOM     16  C   UNL A   1      34.858  20.477  24.906  1.00  0.00     0.003 A 
ATOM     17  C   UNL A   1      36.007  22.478  24.159  1.00  0.00     0.032 A 
ATOM     18  C   UNL A   1      36.027  21.235  24.788  1.00  0.00     0.025 A 
BRANCH  17  19
ATOM     19  N   UNL A   1      37.160  23.238  24.035  1.00  0.00    -0.399 N 
ATOM     20  H   UNL A   1      37.863  22.967  23.402  1.00  0.00     0.156 HD
ATOM     21  H   UNL A   1      37.275  24.049  24.582  1.00  0.00     0.156 HD
ENDBRANCH  17  19
ENDBRANCH  12  13
ENDBRANCH   9  12
ENDBRANCH   7   9
ENDBRANCH   6   7
ENDBRANCH   5   6
ENDBRANCH   4   5
ENDBRANCH   3   4
ENDBRANCH   2   3
ENDBRANCH   1   2
BRANCH   1  22
ATOM     22  O   UNL A   1      33.875  31.216  27.601  1.00  0.00    -0.377 OA
BRANCH  22  23
ATOM     23  C   UNL A   1      35.153  31.543  28.131  1.00  0.00     0.188 C 
BRANCH  23  24
ATOM     24  C   UNL A   1      35.533  33.027  28.293  1.00  0.00     0.188 C 
BRANCH  24  25
ATOM     25  O   UNL A   1      34.590  33.930  27.734  1.00  0.00    -0.376 OA
BRANCH  25  26
ATOM     26  C   UNL A   1      34.466  35.225  28.302  1.00  0.00     0.202 C 
BRANCH  26  27
ATOM     27  C   UNL A   1      33.257  35.500  29.213  1.00  0.00     0.261 C 
BRANCH  27  28
ATOM     28  O   UNL A   1      33.049  34.587  30.305  1.00  0.00    -0.460 OA
BRANCH  28  29
ATOM     29  C   UNL A   1      33.059  35.075  31.561  1.00  0.00     0.338 C 
ATOM     30  O   UNL A   1      32.166  35.691  32.121  1.00  0.00    -0.246 OA
BRANCH  29  31
ATOM     31  C   UNL A   1      34.271  34.569  32.237  1.00  0.00     0.060 A 
ATOM     32  C   UNL A   1      35.478  35.262  32.072  1.00  0.00     0.016 A 
ATOM     33  C   UNL A   1      34.225  33.408  33.012  1.00  0.00     0.016 A 
ATOM     34  C   UNL A   1      36.651  34.770  32.644  1.00  0.00     0.010 A 
ATOM     35  C   UNL A   1      35.405  32.905  33.567  1.00  0.00     0.010 A 
ATOM     36  C   UNL A   1      36.630  33.562  33.351  1.00  0.00    -0.014 A 
BRANCH  36  37
ATOM     37  C   UNL A   1      37.907  32.884  33.686  1.00  0.00     0.031 A 
ATOM     38  C   UNL A   1      38.455  31.873  32.715  1.00  0.00     0.074 A 
ATOM     39  C   UNL A   1      38.584  33.172  34.811  1.00  0.00     0.049 A 
ATOM     40  N   UNL A   1      39.521  31.121  32.811  1.00  0.00    -0.248 NA
ATOM     41  C   UNL A   1      37.694  31.686  31.468  1.00  0.00     0.031 C 
ATOM     42  C   UNL A   1      38.192  34.169  35.806  1.00  0.00     0.029 A 
ATOM     43  N   UNL A   1      39.750  32.642  35.304  1.00  0.00    -0.354 N 
ATOM     44  C   UNL A   1      39.554  30.367  31.643  1.00  0.00     0.074 A 
ATOM     45  C   UNL A   1      38.385  30.727  30.872  1.00  0.00     0.031 C 
ATOM     46  C   UNL A   1      39.098  34.169  36.799  1.00  0.00     0.029 A 
ATOM     47  C   UNL A   1      40.110  33.148  36.528  1.00  0.00     0.049 A 
ATOM     48  H   UNL A   1      40.278  31.961  34.826  1.00  0.00     0.167 HD
ATOM     49  C   UNL A   1      40.477  29.460  31.244  1.00  0.00     0.031 A 
ATOM     50  C   UNL A   1      41.124  32.808  37.348  1.00  0.00     0.031 A 
ATOM     51  C   UNL A   1      41.628  29.084  32.020  1.00  0.00     0.049 A 
ATOM     52  C   UNL A   1      42.086  31.726  36.928  1.00  0.00     0.074 A 
ATOM     53  C   UNL A   1      42.624  28.178  31.702  1.00  0.00     0.029 A 
ATOM     54  N   UNL A   1      41.932  29.590  33.275  1.00  0.00    -0.354 N 
ATOM     55  N   UNL A   1      42.118  31.033  35.814  1.00  0.00    -0.248 NA
ATOM     56  C   UNL A   1      43.157  31.387  37.875  1.00  0.00     0.031 C 
ATOM     57  C   UNL A   1      43.494  28.085  32.793  1.00  0.00     0.029 A 
ATOM     58  C   UNL A   1      43.083  28.991  33.758  1.00  0.00     0.049 A 
ATOM     59  H   UNL A   1      41.407  30.273  33.751  1.00  0.00     0.167 HD
ATOM     60  C   UNL A   1      43.228  30.201  35.916  1.00  0.00     0.074 A 
ATOM     61  C   UNL A   1      43.851  30.488  37.191  1.00  0.00     0.031 C 
ATOM     62  C   UNL A   1      43.692  29.285  35.030  1.00  0.00     0.031 A 
BRANCH  49  63
ATOM     63  C   UNL A   1      40.249  28.778  29.922  1.00  0.00    -0.014 A 
ATOM     64  C   UNL A   1      39.601  27.535  29.841  1.00  0.00     0.009 A 
ATOM     65  C   UNL A   1      40.671  29.400  28.738  1.00  0.00     0.009 A 
ATOM     66  C   UNL A   1      39.414  26.913  28.604  1.00  0.00     0.001 A 
ATOM     67  C   UNL A   1      40.454  28.793  27.500  1.00  0.00     0.001 A 
ATOM     68  C   UNL A   1      39.836  27.545  27.435  1.00  0.00     0.000 A 
ENDBRANCH  49  63
BRANCH  50  69
ATOM     69  C   UNL A   1      41.270  33.475  38.671  1.00  0.00    -0.014 A 
ATOM     70  C   UNL A   1      40.614  32.976  39.807  1.00  0.00     0.009 A 
ATOM     71  C   UNL A   1      42.051  34.635  38.798  1.00  0.00     0.009 A 
ATOM     72  C   UNL A   1      40.715  33.640  41.032  1.00  0.00     0.001 A 
ATOM     73  C   UNL A   1      42.178  35.277  40.032  1.00  0.00     0.001 A 
ATOM     74  C   UNL A   1      41.501  34.785  41.145  1.00  0.00     0.000 A 
ENDBRANCH  50  69
BRANCH  62  75
ATOM     75  C   UNL A   1      44.960  28.555  35.386  1.00  0.00    -0.014 A 
ATOM     76  C   UNL A   1      44.937  27.323  36.060  1.00  0.00     0.009 A 
ATOM     77  C   UNL A   1      46.199  29.091  34.998  1.00  0.00     0.009 A 
ATOM     78  C   UNL A   1      46.129  26.665  36.368  1.00  0.00     0.001 A 
ATOM     79  C   UNL A   1      47.387  28.413  35.276  1.00  0.00     0.001 A 
ATOM     80  C   UNL A   1      47.352  27.206  35.971  1.00  0.00     0.000 A 
ENDBRANCH  62  75
ENDBRANCH  36  37
ENDBRANCH  29  31
ENDBRANCH  28  29
ENDBRANCH  27  28
ENDBRANCH  26  27
ENDBRANCH  25  26
ENDBRANCH  24  25
ENDBRANCH  23  24
ENDBRANCH  22  23
ENDBRANCH   1  22
TORSDOF 24
ENDMDL
